data_PCOD8027458
_publ_section_title
;
Structure prediction by ZEFSAII (Michael W. Deem and Ramdas Pophale) SiO2 
 PCOD8027458
Probable space group: P -1
;
_chemical_formula_sum "Si O2"
_cell_formula_units_Z 16
_cell_length_a 22.256484
_cell_length_b 5.390957
_cell_length_c 11.021106
_cell_angle_alpha 66.506906
_cell_angle_beta 143.759828
_cell_angle_gamma 122.279488
_cell_volume 659.558131
_symmetry_space_group_name_H-M "P -1"
_symmetry_group_IT_number 2
_symmetry_cell_setting 'triclinic'
loop_
_space_group_symop_operation_xyz
x,y,z
-x,-y,-z
loop_
_atom_site_type_symbol
_atom_site_label
_atom_site_fract_x
_atom_site_fract_y
_atom_site_fract_z
Si Si1 0.329236 0.938638 0.765199
Si Si2 0.427921 0.284456 0.526094
Si Si3 0.532526 0.396051 0.922747
Si Si4 0.073621 0.422893 0.038479
Si Si5 0.892444 0.061567 0.656493
Si Si6 0.697935 0.044167 0.018817
Si Si7 0.687458 0.290251 0.702195
Si Si8 0.933349 0.150377 0.435985
O O1 0.416881 0.287475 0.834472
O O2 0.290405 0.798335 0.862756
O O3 0.221220 0.889789 0.518750
O O4 0.391809 0.741481 0.854038
O O5 0.500000 0.500000 0.500000
O O6 0.498666 0.252147 0.761272
O O7 0.339892 0.417640 0.408487
O O8 0.380530 0.962767 0.452521
O O9 0.598589 0.734886 0.940435
O O10 0.188181 0.671432 0.135352
O O11 0.108925 0.176836 0.201728
O O12 0.000000 0.500000 0.000000
O O13 0.001260 0.345382 0.812649
O O14 0.902289 0.982699 0.548013
O O15 0.821041 0.059686 0.192044
O O16 0.661402 0.192286 0.819269
O O17 0.000000 0.500000 0.500000
O O18 0.000000 0.000000 0.500000
#
# Coordination Sequence:
#
# PCOD8027458 Si02
#       8
#     2   2   2   2   2   2   2   2
#     4  10  24  45  69 106 142 193 235 305 359 442
#     4  12  26  48  74 111 146 196 241 310 366 440
#     4  11  24  43  73 102 148 185 251 286 374 427
#     4  11  27  46  76 107 145 199 247 312 371 445
#     4  10  25  48  72 105 151 185 252 297 375 437
#     4  11  25  43  71 101 144 187 240 300 359 433
#     4  12  28  46  77 106 150 190 253 303 371 434
#     4  11  27  46  74 107 144 193 242 302 364 433
#
# _framework density 24.258666000000002
#
# number of rings (size 3 to 8) (size 9 to 14) (size 15 to 20)
#    0.000    1.000    1.250    3.000   14.000    1.000 
#    4.500    0.000    0.000    0.000    0.000    0.000 
#    0.000    0.000    0.000    0.000    0.000    0.000 
#
# Total GULP energy -198238.075910 kJ/mol
# GULP energy per Si atom -12389.879744 kJ/mol
# Density = 2.420345 g / cm^3
# Si number density = 24.258666 Si / 1000 Ang^3
#
#
#
# Elastic Constant Matrix: (Units=GPa)
#
#
# Indices 1 2 3 4 5 6 
#
# 1 93.4415 13.3759 30.5355 -6.0607 7.0207 1.6094
# 2 13.3759 66.9661 28.4070 0.9500 0.7603 -2.5496
# 3 30.5355 28.4070 150.3741 -10.6563 4.5291 -2.7833
# 4 -6.0607 0.9500 -10.6563 35.9532 3.6185 4.4026
# 5 7.0207 0.7603 4.5291 3.6185 36.4376 3.4321
# 6 1.6094 -2.5496 -2.7833 4.4026 3.4321 41.4124
#
#
#
# Elastic Compliance Matrix: (Units=1/GPa)
#
#
# Indices 1 2 3 4 5 6 
#
# 1 0.011844 -0.001574 -0.001932 0.001764 -0.002118 -0.000699
# 2 -0.001574 0.016546 -0.002922 -0.001735 0.000396 0.001035
# 3 -0.001932 -0.002922 0.007771 0.002100 -0.000766 0.000258
# 4 0.001764 -0.001735 0.002100 0.029459 -0.003217 -0.002899
# 5 -0.002118 0.000396 -0.000766 -0.003217 0.028443 -0.001960
# 6 -0.000699 0.001035 0.000258 -0.002899 -0.001960 0.024726
#
#
# Mechanical properties :
#
#
# Convention : Reuss Voigt Hill
#
# Bulk Modulus (GPa) = 42.90703 50.60206 46.75455
# Shear Modulus (GPa) = 35.86450 38.65818 37.26134
#
# Velocity S-wave (km/s) = 3.84919 3.99630 3.92344
# Velocity P-wave (km/s) = 6.12215 6.49604 6.31187
#
# Compressibility (1/GPa) = 0.02330620
#
# Stress axis : x y z
#
# Youngs Moduli (GPa) = 84.42987 60.43656 128.68328
#
# Poissons Ratio (x) = 0.09512 0.24860
# Poissons Ratio (y) = 0.13288 0.37600
# Poissons Ratio (z) = 0.16311 0.17659
#
# Static dielectric constant tensor:
#      x y z
#    x 4.626900 0.234120 0.030430 
#    y 0.234120 4.221960 0.173660 
#    z 0.030430 0.173660 4.982810 
# 
# 
# High freq. dielectric constant tensor:
#      x y z
#    x 1.977000 0.019000 0.002880 
#    y 0.019000 1.943130 -0.001280 
#    z 0.002880 -0.001280 1.986460 
# 
# From -- ./inp_files/473407.got.cif
#   From: 2010.06.25/outbox.cif.g09.slc.cpg/sg2_237_cif.got.tgz:473407.got - 2010.06.27 13:26:56.
