data_PCOD8027134
_publ_section_title
;
Structure prediction by ZEFSAII (Michael W. Deem and Ramdas Pophale) SiO2 
 PCOD8027134
Probable space group: P -1
;
_chemical_formula_sum "Si O2"
_cell_formula_units_Z 12
_cell_length_a 6.852314
_cell_length_b 11.317056
_cell_length_c 14.210897
_cell_angle_alpha 41.443331
_cell_angle_beta 104.442422
_cell_angle_gamma 127.421592
_cell_volume 532.896342
_symmetry_space_group_name_H-M "P -1"
_symmetry_group_IT_number 2
_symmetry_cell_setting 'triclinic'
loop_
_space_group_symop_operation_xyz
x,y,z
-x,-y,-z
loop_
_atom_site_type_symbol
_atom_site_label
_atom_site_fract_x
_atom_site_fract_y
_atom_site_fract_z
Si Si1 0.650940 0.463493 0.326033
Si Si2 0.957410 0.338688 0.175094
Si Si3 0.658780 0.091766 0.632814
Si Si4 0.234164 0.886839 0.153252
Si Si5 0.821544 0.895144 0.634970
Si Si6 0.384299 0.658290 0.186722
O O1 0.700046 0.327059 0.483805
O O2 0.492068 0.305317 0.309052
O O3 0.468018 0.511925 0.322922
O O4 0.932697 0.713313 0.182088
O O5 0.081625 0.221570 0.224977
O O6 0.102877 0.487931 0.199019
O O7 0.648100 0.137792 0.282396
O O8 0.000000 0.500000 0.000000
O O9 0.760911 0.097692 0.743633
O O10 0.844528 0.088794 0.583593
O O11 0.373943 0.784234 0.198576
O O12 0.389223 0.145999 0.976069
O O13 0.000000 0.000000 0.500000
#
# Coordination Sequence:
#
# PCOD8027134 Si02
#       6
#     2   2   2   2   2   2
#     4  11  24  42  69  93 133 171 214 268 322 387
#     4  11  23  45  69  97 128 170 220 272 318 385
#     4  12  25  42  67 102 130 167 221 269 323 382
#     4  11  24  44  63  97 136 172 212 264 321 393
#     4  11  25  44  68  96 128 172 219 270 325 379
#     4  10  24  44  68  93 133 176 213 257 331 382
#
# _framework density 22.518452
#
# number of rings (size 3 to 8) (size 9 to 14) (size 15 to 20)
#    0.000    1.000    3.333    2.500    4.667    2.667 
#    3.000    0.000    0.000    0.000    0.000    0.000 
#    0.000    0.000    0.000    0.000    0.000    0.000 
#
# Total GULP energy -148812.009320 kJ/mol
# GULP energy per Si atom -12401.000777 kJ/mol
# Density = 2.246720 g / cm^3
# Si number density = 22.518452 Si / 1000 Ang^3
#
#
#
# Elastic Constant Matrix: (Units=GPa)
#
#
# Indices 1 2 3 4 5 6 
#
# 1 115.9884 50.8530 47.3395 13.4192 11.4574 -11.5057
# 2 50.8530 93.0113 33.2838 -4.3555 -4.7341 -2.1208
# 3 47.3395 33.2838 78.8237 1.8529 11.4605 -0.5009
# 4 13.4192 -4.3555 1.8529 34.9215 3.3104 -5.6178
# 5 11.4574 -4.7341 11.4605 3.3104 37.6317 -3.8233
# 6 -11.5057 -2.1208 -0.5009 -5.6178 -3.8233 39.7122
#
#
#
# Elastic Compliance Matrix: (Units=1/GPa)
#
#
# Indices 1 2 3 4 5 6 
#
# 1 0.015011 -0.006508 -0.005701 -0.005544 -0.002874 0.002869
# 2 -0.006508 0.016060 -0.003662 0.004246 0.004742 -0.000017
# 3 -0.005701 -0.003662 0.018288 0.000886 -0.004569 -0.001931
# 4 -0.005544 0.004246 0.000886 0.031794 -0.000532 0.003078
# 5 -0.002874 0.004742 -0.004569 -0.000532 0.029701 0.002147
# 6 0.002869 -0.000017 -0.001931 0.003078 0.002147 0.026629
#
#
# Mechanical properties :
#
#
# Convention : Reuss Voigt Hill
#
# Bulk Modulus (GPa) = 56.76377 61.19737 58.98057
# Shear Modulus (GPa) = 28.55539 32.87624 30.71581
#
# Velocity S-wave (km/s) = 3.56489 3.82510 3.69728
# Velocity P-wave (km/s) = 6.49669 6.83696 6.66900
#
# Compressibility (1/GPa) = 0.01761687
#
# Stress axis : x y z
#
# Youngs Moduli (GPa) = 66.61596 62.26766 54.68024
#
# Poissons Ratio (x) = 0.40521 0.31174
# Poissons Ratio (y) = 0.43351 0.20026
# Poissons Ratio (z) = 0.37979 0.22805
#
# Static dielectric constant tensor:
#      x y z
#    x 4.211770 0.140930 0.159560 
#    y 0.140930 4.086980 -0.353560 
#    z 0.159560 -0.353560 4.148260 
# 
# 
# High freq. dielectric constant tensor:
#      x y z
#    x 1.894880 0.010280 0.012380 
#    y 0.010280 1.884020 -0.023740 
#    z 0.012380 -0.023740 1.886990 
# 
# From -- ./inp_files/26177.got.cif
#   From: 2010.06.25/outbox.cif.g09.slc.cpg/sg2_14_cif.got.tgz:26177.got - 2010.06.27 13:26:56.
