data_PCOD8027430
_publ_section_title
;
Structure prediction by ZEFSAII (Michael W. Deem and Ramdas Pophale) SiO2 
 PCOD8027430
Probable space group: P -1
;
_chemical_formula_sum "Si O2"
_cell_formula_units_Z 16
_cell_length_a 9.012065
_cell_length_b 10.292257
_cell_length_c 14.850259
_cell_angle_alpha 118.136140
_cell_angle_beta 141.497083
_cell_angle_gamma 65.802466
_cell_volume 754.094222
_symmetry_space_group_name_H-M "P -1"
_symmetry_group_IT_number 2
_symmetry_cell_setting 'triclinic'
loop_
_space_group_symop_operation_xyz
x,y,z
-x,-y,-z
loop_
_atom_site_type_symbol
_atom_site_label
_atom_site_fract_x
_atom_site_fract_y
_atom_site_fract_z
Si Si1 0.062362 0.187979 0.388833
Si Si2 0.149868 0.138523 0.609518
Si Si3 0.647624 0.588118 0.504811
Si Si4 0.554110 0.295597 0.256138
Si Si5 0.382412 0.015235 0.168389
Si Si6 0.915754 0.655261 0.051588
Si Si7 0.147255 0.634260 0.340359
Si Si8 0.949300 0.038978 0.844882
O O1 0.216106 0.163084 0.544699
O O2 0.167763 0.318586 0.427523
O O3 0.791614 0.233057 0.299802
O O4 0.073377 0.038279 0.287452
O O5 0.395131 0.109077 0.772405
O O6 0.975478 0.273877 0.606223
O O7 0.000000 0.000000 0.500000
O O8 0.579302 0.450913 0.366751
O O9 0.402053 0.688447 0.443884
O O10 0.782078 0.530600 0.641551
O O11 0.472841 0.179003 0.253800
O O12 0.363272 0.312738 0.090346
O O13 0.263751 0.004916 0.206664
O O14 0.199651 0.980774 0.991097
O O15 0.953660 0.640719 0.171542
O O16 0.063242 0.784913 0.120792
O O17 0.000000 0.500000 0.000000
#
# Coordination Sequence:
#
# PCOD8027430 Si02
#       8
#     2   2   2   2   2   2   2   2
#     4  12  26  41  70 101 134 173 225 276 326 396
#     4  12  24  41  66 100 135 169 221 274 332 389
#     4  11  25  45  68  93 141 175 225 268 335 395
#     4  11  23  45  68  96 136 180 216 276 335 386
#     4  10  24  45  68  94 139 172 223 273 330 395
#     4  11  24  44  72  96 132 173 228 271 328 401
#     4  11  25  42  68  97 128 182 219 268 338 388
#     4  10  26  44  69 100 131 179 222 268 338 391
#
# _framework density 21.217507000000001
#
# number of rings (size 3 to 8) (size 9 to 14) (size 15 to 20)
#    0.000    1.000    3.750    1.125    8.750    2.500 
#    0.000    0.625    0.000    0.000    0.000    0.000 
#    0.000    0.000    0.000    0.000    0.000    0.000 
#
# Total GULP energy -198401.489209 kJ/mol
# GULP energy per Si atom -12400.093076 kJ/mol
# Density = 2.116922 g / cm^3
# Si number density = 21.217507 Si / 1000 Ang^3
#
#
#
# Elastic Constant Matrix: (Units=GPa)
#
#
# Indices 1 2 3 4 5 6 
#
# 1 114.5356 54.8840 45.0922 7.7807 -0.8844 4.4647
# 2 54.8840 108.2065 54.7158 -0.2675 5.1896 3.0464
# 3 45.0922 54.7158 103.5438 -17.4631 -3.1569 5.3602
# 4 7.7807 -0.2675 -17.4631 42.8852 1.2466 2.4684
# 5 -0.8844 5.1896 -3.1569 1.2466 40.3171 0.0681
# 6 4.4647 3.0464 5.3602 2.4684 0.0681 42.3544
#
#
#
# Elastic Compliance Matrix: (Units=1/GPa)
#
#
# Indices 1 2 3 4 5 6 
#
# 1 0.012664 -0.004586 -0.003701 -0.003835 0.000697 -0.000314
# 2 -0.004586 0.014791 -0.006167 -0.001533 -0.002440 0.000293
# 3 -0.003701 -0.006167 0.015867 0.007135 0.001737 -0.001593
# 4 -0.003835 -0.001533 0.007135 0.027028 -0.000160 -0.001963
# 5 0.000697 -0.002440 0.001737 -0.000160 0.025274 -0.000149
# 6 -0.000314 0.000293 -0.001593 -0.001963 -0.000149 0.023939
#
#
# Mechanical properties :
#
#
# Convention : Reuss Voigt Hill
#
# Bulk Modulus (GPa) = 69.37611 70.62997 70.00304
# Shear Modulus (GPa) = 32.62122 36.55091 34.58606
#
# Velocity S-wave (km/s) = 3.92531 4.15502 4.04180
# Velocity P-wave (km/s) = 7.30155 7.50864 7.40582
#
# Compressibility (1/GPa) = 0.01441418
#
# Stress axis : x y z
#
# Youngs Moduli (GPa) = 78.96645 67.60838 63.02329
#
# Poissons Ratio (x) = 0.31004 0.23324
# Poissons Ratio (y) = 0.36213 0.38867
# Poissons Ratio (z) = 0.29224 0.41695
#
# Static dielectric constant tensor:
#      x y z
#    x 0.379210 2.716730 1.953170 
#    y 2.716730 1.900900 -1.770110 
#    z 1.953170 -1.770110 3.364130 
# 
# 
# High freq. dielectric constant tensor:
#      x y z
#    x 1.834890 0.002380 -0.000370 
#    y 0.002380 1.833980 -0.017470 
#    z -0.000370 -0.017470 1.840370 
# 
# From -- ./inp_files/273589.got.cif
#   From: 2010.06.25/outbox.cif.g09.slc.cpg/sg2_137_cif.got.tgz:273589.got - 2010.06.27 13:26:56.
