data_PCOD8027649
_publ_section_title
;
Structure prediction by ZEFSAII (Michael W. Deem and Ramdas Pophale) SiO2 
 PCOD8027649
Probable space group: P -1
;
_chemical_formula_sum "Si O2"
_cell_formula_units_Z 16
_cell_length_a 11.847272
_cell_length_b 9.287010
_cell_length_c 20.864159
_cell_angle_alpha 47.926203
_cell_angle_beta 152.396135
_cell_angle_gamma 140.026518
_cell_volume 683.027163
_symmetry_space_group_name_H-M "P -1"
_symmetry_group_IT_number 2
_symmetry_cell_setting 'triclinic'
loop_
_space_group_symop_operation_xyz
x,y,z
-x,-y,-z
loop_
_atom_site_type_symbol
_atom_site_label
_atom_site_fract_x
_atom_site_fract_y
_atom_site_fract_z
Si Si1 0.470936 0.243915 0.221667
Si Si2 0.013081 0.799211 0.532815
Si Si3 0.542671 0.397162 0.488270
Si Si4 0.126043 0.817090 0.249648
Si Si5 0.772157 0.513718 0.053205
Si Si6 0.369428 0.355606 0.732016
Si Si7 0.878557 0.607582 0.820952
Si Si8 0.751079 0.893337 0.126427
O O1 0.670738 0.154949 0.321339
O O2 0.638698 0.435351 0.302137
O O3 0.201730 0.034457 0.180637
O O4 0.361661 0.337885 0.082045
O O5 0.829989 0.574286 0.546732
O O6 0.893162 0.773398 0.408636
O O7 0.000000 0.000000 0.500000
O O8 0.500000 0.500000 0.500000
O O9 0.587756 0.188108 0.589467
O O10 0.282855 0.320031 0.332818
O O11 0.908451 0.594887 0.167123
O O12 0.986042 0.831409 0.241048
O O13 0.006598 0.538895 0.112213
O O14 0.528609 0.251934 0.014444
O O15 0.672262 0.452941 0.819773
O O16 0.337134 0.178429 0.822829
O O17 0.137075 0.843163 0.906184
#
# Coordination Sequence:
#
# PCOD8027649 Si02
#       8
#     2   2   2   2   2   2   2   2
#     4  11  24  45  68 101 139 188 226 278 356 409
#     4  11  25  43  70 103 138 180 231 286 351 406
#     4  11  23  42  70 102 135 174 227 294 340 404
#     4  12  24  45  71 101 139 179 237 285 346 407
#     4  11  25  46  69  98 144 185 229 287 336 415
#     4  10  24  46  69 101 146 177 228 291 334 424
#     4  11  24  47  70 103 139 181 232 283 347 406
#     4  11  25  44  72 103 133 190 227 284 351 405
#
# _framework density 23.425128000000001
#
# number of rings (size 3 to 8) (size 9 to 14) (size 15 to 20)
#    0.000    1.000    2.500    3.750    5.250    3.500 
#    2.250    0.000    0.000    0.000    0.000    0.000 
#    0.000    0.000    0.000    0.000    0.000    0.000 
#
# Total GULP energy -198464.483088 kJ/mol
# GULP energy per Si atom -12404.030193 kJ/mol
# Density = 2.337181 g / cm^3
# Si number density = 23.425128 Si / 1000 Ang^3
#
#
#
# Elastic Constant Matrix: (Units=GPa)
#
#
# Indices 1 2 3 4 5 6 
#
# 1 113.6070 19.6586 25.1850 -5.7733 15.9405 -8.1373
# 2 19.6586 77.1056 27.7598 7.0834 2.4699 -0.6558
# 3 25.1850 27.7598 86.7651 4.5045 12.9329 -6.8264
# 4 -5.7733 7.0834 4.5045 27.7679 -11.1415 8.1377
# 5 15.9405 2.4699 12.9329 -11.1415 38.9063 -1.2127
# 6 -8.1373 -0.6558 -6.8264 8.1377 -1.2127 43.6693
#
#
#
# Elastic Compliance Matrix: (Units=1/GPa)
#
#
# Indices 1 2 3 4 5 6 
#
# 1 0.010122 -0.001932 -0.001846 0.001335 -0.002990 0.001237
# 2 -0.001932 0.015284 -0.004188 -0.003501 0.000207 -0.000127
# 3 -0.001846 -0.004188 0.014581 -0.004445 -0.005018 0.002561
# 4 0.001335 -0.003501 -0.004445 0.046105 0.014085 -0.008699
# 5 -0.002990 0.000207 -0.005018 0.014085 0.032521 -0.003060
# 6 0.001237 -0.000127 0.002561 -0.008699 -0.003060 0.025064
#
#
# Mechanical properties :
#
#
# Convention : Reuss Voigt Hill
#
# Bulk Modulus (GPa) = 41.57359 46.96494 44.26926
# Shear Modulus (GPa) = 29.82798 35.72699 32.77749
#
# Velocity S-wave (km/s) = 3.57225 3.90956 3.74471
# Velocity P-wave (km/s) = 5.89920 6.36176 6.13484
#
# Compressibility (1/GPa) = 0.02405373
#
# Stress axis : x y z
#
# Youngs Moduli (GPa) = 98.79632 65.42967 68.58048
#
# Poissons Ratio (x) = 0.12643 0.12661
# Poissons Ratio (y) = 0.19090 0.28722
# Poissons Ratio (z) = 0.18239 0.27403
#
# Static dielectric constant tensor:
#      x y z
#    x 4.345000 -0.006440 0.070600 
#    y -0.006440 4.150150 0.132640 
#    z 0.070600 0.132640 4.128750 
# 
# 
# High freq. dielectric constant tensor:
#      x y z
#    x 1.940360 -0.000680 0.010610 
#    y -0.000680 1.925760 0.004370 
#    z 0.010610 0.004370 1.921310 
# 
# From -- ./inp_files/273563.got.cif
#   From: 2010.06.25/outbox.cif.g09.slc.cpg/sg2_137_cif.got.tgz:273563.got - 2010.06.27 13:26:56.
