data_PCOD8027427
_publ_section_title
;
Structure prediction by ZEFSAII (Michael W. Deem and Ramdas Pophale) SiO2 
 PCOD8027427
Probable space group: P -1
;
_chemical_formula_sum "Si O2"
_cell_formula_units_Z 16
_cell_length_a 12.270004
_cell_length_b 26.862447
_cell_length_c 9.637619
_cell_angle_alpha 151.949962
_cell_angle_beta 36.229557
_cell_angle_gamma 149.292263
_cell_volume 747.496989
_symmetry_space_group_name_H-M "P -1"
_symmetry_group_IT_number 2
_symmetry_cell_setting 'triclinic'
loop_
_space_group_symop_operation_xyz
x,y,z
-x,-y,-z
loop_
_atom_site_type_symbol
_atom_site_label
_atom_site_fract_x
_atom_site_fract_y
_atom_site_fract_z
Si Si1 0.365557 0.066066 0.333505
Si Si2 0.690123 0.743867 0.604729
Si Si3 0.219783 0.554457 0.590904
Si Si4 0.180049 0.470793 0.721770
Si Si5 0.791505 0.535906 0.916245
Si Si6 0.925031 0.962158 0.688359
Si Si7 0.516366 0.325388 0.876860
Si Si8 0.862545 0.773990 0.796693
O O1 0.262088 0.090485 0.364553
O O2 0.547484 0.206290 0.548900
O O3 0.160781 0.988256 0.458211
O O4 0.500000 0.000000 0.000000
O O5 0.438606 0.692065 0.698063
O O6 0.851463 0.865036 0.649341
O O7 0.726562 0.775474 0.808169
O O8 0.738697 0.638204 0.258560
O O9 0.237460 0.481958 0.527106
O O10 0.190542 0.469245 0.279651
O O11 0.013585 0.569817 0.849630
O O12 0.079169 0.331224 0.542645
O O13 0.385761 0.575766 0.853896
O O14 0.000000 0.500000 0.000000
O O15 0.596324 0.399636 0.833169
O O16 0.936474 0.085238 0.041336
O O17 0.261798 0.259786 0.010095
#
# Coordination Sequence:
#
# PCOD8027427 Si02
#       8
#     2   2   2   2   2   2   2   2
#     4  10  24  45  68  93 128 169 217 267 315 381
#     4  12  22  42  62  91 131 171 213 257 323 378
#     4  11  24  38  63  96 130 165 211 266 327 376
#     4  12  22  39  66  98 125 168 214 267 322 382
#     4  11  24  40  61  97 131 165 210 273 318 378
#     4  10  25  42  64  96 126 172 219 256 318 386
#     4  11  21  41  66  94 124 168 216 259 325 377
#     4  11  23  41  66  90 133 168 211 269 318 379
#
# _framework density 21.404768000000001
#
# number of rings (size 3 to 8) (size 9 to 14) (size 15 to 20)
#    0.000    1.000    3.750    2.625    1.750    6.000 
#    0.000    0.000    0.000    4.500    0.000    0.000 
#    0.000    0.000    0.000    0.000    0.000    0.000 
#
# Total GULP energy -198280.428849 kJ/mol
# GULP energy per Si atom -12392.526803 kJ/mol
# Density = 2.135605 g / cm^3
# Si number density = 21.404768 Si / 1000 Ang^3
#
#
#
# Elastic Constant Matrix: (Units=GPa)
#
#
# Indices 1 2 3 4 5 6 
#
# 1 77.5077 35.6629 27.6182 6.1680 5.4622 -13.6033
# 2 35.6629 124.7447 45.8279 13.9675 -15.0779 -22.7134
# 3 27.6182 45.8279 109.6524 14.4741 -10.1655 -11.3199
# 4 6.1680 13.9675 14.4741 30.7642 -0.8320 0.0810
# 5 5.4622 -15.0779 -10.1655 -0.8320 34.6728 1.0646
# 6 -13.6033 -22.7134 -11.3199 0.0810 1.0646 32.0471
#
#
#
# Elastic Compliance Matrix: (Units=1/GPa)
#
#
# Indices 1 2 3 4 5 6 
#
# 1 0.016581 -0.003642 -0.002673 -0.000561 -0.005106 0.003684
# 2 -0.003642 0.012057 -0.002618 -0.003398 0.004786 0.005924
# 3 -0.002673 -0.002618 0.011731 -0.003727 0.002600 0.001077
# 4 -0.000561 -0.003398 -0.003727 0.035884 -0.001498 -0.004004
# 5 -0.005106 0.004786 0.002600 -0.001498 0.032420 0.001070
# 6 0.003684 0.005924 0.001077 -0.004004 0.001070 0.037322
#
#
# Mechanical properties :
#
#
# Convention : Reuss Voigt Hill
#
# Bulk Modulus (GPa) = 44.43760 58.90253 51.67006
# Shear Modulus (GPa) = 29.17782 33.01654 31.09718
#
# Velocity S-wave (km/s) = 3.69609 3.93171 3.81572
# Velocity P-wave (km/s) = 6.24663 6.94185 6.60340
#
# Compressibility (1/GPa) = 0.02250347
#
# Stress axis : x y z
#
# Youngs Moduli (GPa) = 60.30895 82.93953 85.24172
#
# Poissons Ratio (x) = 0.30206 0.22787
# Poissons Ratio (y) = 0.21964 0.22316
# Poissons Ratio (z) = 0.16122 0.21713
#
# Static dielectric constant tensor:
#      x y z
#    x 3.975280 -0.634230 0.118290 
#    y -0.634230 6.022490 0.076320 
#    z 0.118290 0.076320 4.018180 
# 
# 
# High freq. dielectric constant tensor:
#      x y z
#    x 1.832810 -0.007650 0.016250 
#    y -0.007650 1.843460 0.000010 
#    z 0.016250 0.000010 1.848290 
# 
# From -- ./inp_files/285875.got.cif
#   From: 2010.06.25/outbox.cif.g09.slc.cpg/sg2_143_cif.got.tgz:285875.got - 2010.06.27 13:26:56.
