data_PCOD8027045
_publ_section_title
;
Structure prediction by ZEFSAII (Michael W. Deem and Ramdas Pophale) SiO2 
 PCOD8027045
Probable space group: P -1
;
_chemical_formula_sum "Si O2"
_cell_formula_units_Z 16
_cell_length_a 5.955511
_cell_length_b 24.882735
_cell_length_c 5.398162
_cell_angle_alpha 86.032943
_cell_angle_beta 84.554802
_cell_angle_gamma 124.708365
_cell_volume 647.177594
_symmetry_space_group_name_H-M "P -1"
_symmetry_group_IT_number 2
_symmetry_cell_setting 'triclinic'
loop_
_space_group_symop_operation_xyz
x,y,z
-x,-y,-z
loop_
_atom_site_type_symbol
_atom_site_label
_atom_site_fract_x
_atom_site_fract_y
_atom_site_fract_z
Si Si1 0.321738 0.752058 0.714854
Si Si2 0.165203 0.288485 0.890269
Si Si3 0.729552 0.927067 0.035217
Si Si4 0.026812 0.360285 0.565048
Si Si5 0.760926 0.519684 0.800528
Si Si6 0.135031 0.169360 0.085077
Si Si7 0.261941 0.600749 0.071001
Si Si8 0.599305 0.118887 0.425247
O O1 0.218574 0.687969 0.583305
O O2 0.627634 0.782363 0.763210
O O3 0.315097 0.807786 0.552039
O O4 0.121910 0.728707 0.975683
O O5 0.418747 0.338061 0.034702
O O6 0.196736 0.328699 0.622995
O O7 0.118553 0.217741 0.879940
O O8 0.528307 0.918862 0.285549
O O9 0.808802 0.875088 0.076012
O O10 0.609170 0.916437 0.774409
O O11 0.000000 0.000000 0.000000
O O12 0.869454 0.365136 0.805848
O O13 0.243292 0.436169 0.428642
O O14 0.725698 0.452328 0.744346
O O15 0.500000 0.500000 0.000000
O O16 0.072855 0.564313 0.864361
O O17 0.867593 0.122880 0.304404
#
# Coordination Sequence:
#
# PCOD8027045 Si02
#       8
#     2   2   2   2   2   2   2   2
#     4  10  24  44  65  98 139 182 226 296 354 430
#     4  11  24  43  65 100 132 178 232 291 358 432
#     4  11  25  48  75 112 153 197 251 307 362 439
#     4  12  24  40  68  96 130 172 232 289 351 430
#     4  11  25  46  64  89 134 174 226 286 355 433
#     4  10  24  47  71 105 150 191 241 299 372 429
#     4  11  25  41  67  93 129 175 226 286 361 424
#     4  10  25  43  75 108 150 197 248 304 369 437
#
# _framework density 24.722733000000002
#
# number of rings (size 3 to 8) (size 9 to 14) (size 15 to 20)
#    0.000    1.250    0.000    4.500    7.000   10.000 
#    2.250    0.000    0.000    0.000    0.000    0.000 
#    0.000    0.000    0.000    0.000    0.000    0.000 
#
# Total GULP energy -198227.871697 kJ/mol
# GULP energy per Si atom -12389.241981 kJ/mol
# Density = 2.466646 g / cm^3
# Si number density = 24.722733 Si / 1000 Ang^3
#
#
#
# Elastic Constant Matrix: (Units=GPa)
#
#
# Indices 1 2 3 4 5 6 
#
# 1 103.5360 35.4919 21.5404 -8.0591 -7.8276 4.9207
# 2 35.4919 127.9336 14.8916 -0.4370 -2.2051 4.2531
# 3 21.5404 14.8916 63.6632 -8.1845 -1.0868 -3.2607
# 4 -8.0591 -0.4370 -8.1845 34.6779 -1.9478 -10.8821
# 5 -7.8276 -2.2051 -1.0868 -1.9478 22.2898 -11.6770
# 6 4.9207 4.2531 -3.2607 -10.8821 -11.6770 31.4951
#
#
#
# Elastic Compliance Matrix: (Units=1/GPa)
#
#
# Indices 1 2 3 4 5 6 
#
# 1 0.011717 -0.002858 -0.002870 0.002467 0.004271 0.000694
# 2 -0.002858 0.008810 -0.001418 -0.001570 -0.001351 -0.001934
# 3 -0.002870 -0.001418 0.018056 0.005501 0.003131 0.005571
# 4 0.002467 -0.001570 0.005501 0.037246 0.013879 0.018411
# 5 0.004271 -0.001351 0.003131 0.013879 0.062081 0.027652
# 6 0.000694 -0.001934 0.005571 0.018411 0.027652 0.049094
#
#
# Mechanical properties :
#
#
# Convention : Reuss Voigt Hill
#
# Bulk Modulus (GPa) = 41.16597 48.77561 44.97079
# Shear Modulus (GPa) = 23.87850 32.57315 28.22583
#
# Velocity S-wave (km/s) = 3.11119 3.63373 3.38256
# Velocity P-wave (km/s) = 5.43996 6.11369 5.78664
#
# Compressibility (1/GPa) = 0.02429191
#
# Stress axis : x y z
#
# Youngs Moduli (GPa) = 85.34452 113.50756 55.38187
#
# Poissons Ratio (x) = 0.32435 0.15897
# Poissons Ratio (y) = 0.24388 0.07853
# Poissons Ratio (z) = 0.24497 0.16094
#
# Static dielectric constant tensor:
#      x y z
#    x 4.723020 0.123000 0.029490 
#    y 0.123000 5.139030 -0.129250 
#    z 0.029490 -0.129250 4.141630 
# 
# 
# High freq. dielectric constant tensor:
#      x y z
#    x 1.992680 0.001900 0.000290 
#    y 0.001900 2.000620 -0.011330 
#    z 0.000290 -0.011330 1.953590 
# 
# From -- ./inp_files/10570.got.cif
#   From: 2010.06.25/outbox.cif.g09.slc.cpg/sg2_6_cif.got.tgz:10570.got - 2010.06.27 13:26:56.
