data_PCOD8027731
_publ_section_title
;
Structure prediction by ZEFSAII (Michael W. Deem and Ramdas Pophale) SiO2 
 PCOD8027731
Probable space group: P -1
;
_chemical_formula_sum "Si O2"
_cell_formula_units_Z 16
_cell_length_a 8.959623
_cell_length_b 12.244786
_cell_length_c 8.971953
_cell_angle_alpha 114.224939
_cell_angle_beta 116.703755
_cell_angle_gamma 55.645320
_cell_volume 709.347850
_symmetry_space_group_name_H-M "P -1"
_symmetry_group_IT_number 2
_symmetry_cell_setting 'triclinic'
loop_
_space_group_symop_operation_xyz
x,y,z
-x,-y,-z
loop_
_atom_site_type_symbol
_atom_site_label
_atom_site_fract_x
_atom_site_fract_y
_atom_site_fract_z
Si Si1 0.896160 0.257109 0.757101
Si Si2 0.463733 0.759604 0.887749
Si Si3 0.303670 0.635232 0.962733
Si Si4 0.958048 0.623343 0.657905
Si Si5 0.831779 0.532652 0.831924
Si Si6 0.625457 0.837466 0.467113
Si Si7 0.656715 0.154298 0.439317
Si Si8 0.316332 0.126151 0.803632
O O1 0.825489 0.394584 0.705273
O O2 0.847478 0.150802 0.587386
O O3 0.120809 0.195890 0.845694
O O4 0.795299 0.291125 0.889223
O O5 0.325605 0.750960 0.944132
O O6 0.653327 0.619521 0.903379
O O7 0.384110 0.767710 0.691007
O O8 0.514831 0.882667 0.017331
O O9 0.161505 0.601633 0.785921
O O10 0.500000 0.500000 0.000000
O O11 0.837287 0.616092 0.739158
O O12 0.828996 0.771402 0.606803
O O13 0.000000 0.500000 0.500000
O O14 0.000000 0.500000 0.000000
O O15 0.503215 0.775781 0.463946
O O16 0.674923 0.788411 0.289996
O O17 0.500000 0.000000 0.500000
O O18 0.665843 0.011851 0.329018
#
# Coordination Sequence:
#
# PCOD8027731 Si02
#       8
#     2   2   2   2   2   2   2   2
#     4  12  25  44  71 101 145 178 232 293 359 420
#     4  12  24  43  70  99 139 179 235 284 355 422
#     4  12  27  45  67 106 148 184 230 296 366 427
#     4  12  26  42  74 107 142 187 244 293 362 433
#     4  12  22  43  69 100 136 184 224 289 360 420
#     4  10  24  46  72  99 143 186 240 288 358 423
#     4  11  26  45  71 104 135 182 241 291 350 425
#     4  11  24  47  73  95 141 190 230 288 358 419
#
# _framework density 22.555928999999999
#
# number of rings (size 3 to 8) (size 9 to 14) (size 15 to 20)
#    0.000    0.500    5.000    2.250    7.000    0.500 
#    0.000    0.625    0.000    0.000    0.000    0.000 
#    0.000    0.000    0.000    0.000    0.000    0.000 
#
# Total GULP energy -198284.157336 kJ/mol
# GULP energy per Si atom -12392.759834 kJ/mol
# Density = 2.250459 g / cm^3
# Si number density = 22.555929 Si / 1000 Ang^3
#
#
#
# Elastic Constant Matrix: (Units=GPa)
#
#
# Indices 1 2 3 4 5 6 
#
# 1 145.7310 26.7422 53.5049 -1.8086 -11.3511 5.2341
# 2 26.7422 79.6227 29.7469 0.4408 4.3409 0.2085
# 3 53.5049 29.7469 130.0846 4.6231 11.7258 3.4505
# 4 -1.8086 0.4408 4.6231 41.5729 8.0450 3.7173
# 5 -11.3511 4.3409 11.7258 8.0450 44.9965 4.0661
# 6 5.2341 0.2085 3.4505 3.7173 4.0661 33.9488
#
#
#
# Elastic Compliance Matrix: (Units=1/GPa)
#
#
# Indices 1 2 3 4 5 6 
#
# 1 0.008792 -0.001838 -0.003472 0.000261 0.003382 -0.001425
# 2 -0.001838 0.014135 -0.002383 0.000236 -0.001300 0.000569
# 3 -0.003472 -0.002383 0.009965 -0.000627 -0.003129 -0.000019
# 4 0.000261 0.000236 -0.000627 0.025123 -0.004083 -0.002240
# 5 0.003382 -0.001300 -0.003129 -0.004083 0.024996 -0.002742
# 6 -0.001425 0.000569 -0.000019 -0.002240 -0.002742 0.030248
#
#
# Mechanical properties :
#
#
# Convention : Reuss Voigt Hill
#
# Bulk Modulus (GPa) = 57.12185 63.93625 60.52905
# Shear Modulus (GPa) = 37.18043 40.46659 38.82351
#
# Velocity S-wave (km/s) = 4.06441 4.24022 4.15325
# Velocity P-wave (km/s) = 6.88516 7.23739 7.06347
#
# Compressibility (1/GPa) = 0.01750643
#
# Stress axis : x y z
#
# Youngs Moduli (GPa) = 113.74129 70.74804 100.34942
#
# Poissons Ratio (x) = 0.13001 0.34844
# Poissons Ratio (y) = 0.20902 0.23910
# Poissons Ratio (z) = 0.39494 0.16857
#
# Static dielectric constant tensor:
#      x y z
#    x 4.138980 0.172830 -0.306900 
#    y 0.172830 4.064510 -0.176880 
#    z -0.306900 -0.176880 4.369350 
# 
# 
# High freq. dielectric constant tensor:
#      x y z
#    x 1.909530 0.005020 -0.011810 
#    y 0.005020 1.873570 -0.002290 
#    z -0.011810 -0.002290 1.893670 
# 
# From -- ./inp_files/189552.got.cif
#   From: 2010.06.25/outbox.cif.g09.slc.cpg/sg2_95_cif.got.tgz:189552.got - 2010.06.27 13:26:56.
