data_PCOD8027654
_publ_section_title
;
Structure prediction by ZEFSAII (Michael W. Deem and Ramdas Pophale) SiO2 
 PCOD8027654
Probable space group: P -1
;
_chemical_formula_sum "Si O2"
_cell_formula_units_Z 16
_cell_length_a 11.941336
_cell_length_b 9.523084
_cell_length_c 17.071331
_cell_angle_alpha 61.614081
_cell_angle_beta 147.692171
_cell_angle_gamma 134.031368
_cell_volume 713.559337
_symmetry_space_group_name_H-M "P -1"
_symmetry_group_IT_number 2
_symmetry_cell_setting 'triclinic'
loop_
_space_group_symop_operation_xyz
x,y,z
-x,-y,-z
loop_
_atom_site_type_symbol
_atom_site_label
_atom_site_fract_x
_atom_site_fract_y
_atom_site_fract_z
Si Si1 0.332413 0.262807 0.477117
Si Si2 0.909470 0.747612 0.812296
Si Si3 0.607292 0.524042 0.971732
Si Si4 0.877129 0.611393 0.382142
Si Si5 0.086387 0.971850 0.138391
Si Si6 0.424111 0.979808 0.549533
Si Si7 0.373798 0.308564 0.663291
Si Si8 0.596283 0.200344 0.956205
O O1 0.500000 0.500000 0.500000
O O2 0.092099 0.172540 0.296905
O O3 0.242626 0.193457 0.532982
O O4 0.509694 0.194052 0.575363
O O5 0.644674 0.534437 0.744128
O O6 0.979623 0.929833 0.860499
O O7 0.131232 0.715301 0.950031
O O8 0.408459 0.526359 0.795020
O O9 0.629661 0.352820 0.001128
O O10 0.500000 0.500000 0.000000
O O11 0.909230 0.729236 0.104478
O O12 0.837354 0.672286 0.427203
O O13 0.000000 0.500000 0.500000
O O14 0.104113 0.814291 0.414324
O O15 0.400592 0.074120 0.290765
O O16 0.000000 0.000000 0.000000
O O17 0.500000 0.000000 0.500000
O O18 0.412911 0.179018 0.781427
O O19 0.500000 0.000000 0.000000
#
# Coordination Sequence:
#
# PCOD8027654 Si02
#       8
#     2   2   2   2   2   2   2   2
#     4  10  25  43  72  99 139 183 242 288 357 417
#     4  11  23  45  70  99 144 188 237 296 355 422
#     4  11  25  45  68 102 140 181 230 282 352 427
#     4  11  25  46  71 102 143 184 230 297 357 416
#     4  12  25  42  71 105 138 179 238 290 351 423
#     4  12  25  45  73 103 142 185 236 296 358 419
#     4  10  24  46  69 103 140 184 242 291 355 430
#     4  11  25  43  71 100 142 187 234 298 358 414
#
# _framework density 22.422802999999998
#
# number of rings (size 3 to 8) (size 9 to 14) (size 15 to 20)
#    0.000    1.000    1.250    4.875   10.500    1.500 
#    2.250    0.000    0.000    0.000    0.000    0.000 
#    0.000    0.000    0.000    0.000    0.000    0.000 
#
# Total GULP energy -198263.862990 kJ/mol
# GULP energy per Si atom -12391.491437 kJ/mol
# Density = 2.237177 g / cm^3
# Si number density = 22.422803 Si / 1000 Ang^3
#
#
#
# Elastic Constant Matrix: (Units=GPa)
#
#
# Indices 1 2 3 4 5 6 
#
# 1 175.6715 47.0026 55.2093 -15.0048 -8.8025 -25.5159
# 2 47.0026 100.7944 26.3978 -17.6119 -2.8902 -15.2131
# 3 55.2093 26.3978 114.1776 -19.6127 -3.8190 -17.4867
# 4 -15.0048 -17.6119 -19.6127 41.6907 0.1383 5.1138
# 5 -8.8025 -2.8902 -3.8190 0.1383 57.7212 -2.7524
# 6 -25.5159 -15.2131 -17.4867 5.1138 -2.7524 50.7602
#
#
#
# Elastic Compliance Matrix: (Units=1/GPa)
#
#
# Indices 1 2 3 4 5 6 
#
# 1 0.007573 -0.002440 -0.002706 0.000151 0.000957 0.002180
# 2 -0.002440 0.012175 -0.000711 0.003707 0.000268 0.001819
# 3 -0.002706 -0.000711 0.011182 0.003749 0.000374 0.001921
# 4 0.000151 0.003707 0.003749 0.027401 0.000379 -0.000261
# 5 0.000957 0.000268 0.000374 0.000379 0.017585 0.001606
# 6 0.002180 0.001819 0.001921 -0.000261 0.001606 0.022117
#
#
# Mechanical properties :
#
#
# Convention : Reuss Voigt Hill
#
# Bulk Modulus (GPa) = 52.03800 71.98477 62.01139
# Shear Modulus (GPa) = 43.04726 47.50333 45.27529
#
# Velocity S-wave (km/s) = 4.38630 4.60774 4.49838
# Velocity P-wave (km/s) = 6.99363 7.77698 7.39569
#
# Compressibility (1/GPa) = 0.01921673
#
# Stress axis : x y z
#
# Youngs Moduli (GPa) = 132.04406 82.13544 89.43059
#
# Poissons Ratio (x) = 0.20041 0.24199
# Poissons Ratio (y) = 0.32218 0.06357
# Poissons Ratio (z) = 0.35730 0.05838
#
# Static dielectric constant tensor:
#      x y z
#    x 4.353930 -0.160630 -0.091350 
#    y -0.160630 4.032340 0.126740 
#    z -0.091350 0.126740 2.689660 
# 
# 
# High freq. dielectric constant tensor:
#      x y z
#    x 1.903750 -0.005850 -0.002290 
#    y -0.005850 1.886730 -0.009990 
#    z -0.002290 -0.009990 1.885370 
# 
# From -- ./inp_files/566666.got.cif
#   From: 2010.06.25/outbox.cif.g09.slc.cpg/sg2_284_cif.got.tgz:566666.got - 2010.06.27 13:26:56.
