data_PCOD8027610
_publ_section_title
;
Structure prediction by ZEFSAII (Michael W. Deem and Ramdas Pophale) SiO2 
 PCOD8027610
Probable space group: P -1
;
_chemical_formula_sum "Si O2"
_cell_formula_units_Z 14
_cell_length_a 23.924085
_cell_length_b 10.280199
_cell_length_c 10.728299
_cell_angle_alpha 140.255523
_cell_angle_beta 22.870935
_cell_angle_gamma 140.256650
_cell_volume 635.961633
_symmetry_space_group_name_H-M "P -1"
_symmetry_group_IT_number 2
_symmetry_cell_setting 'triclinic'
loop_
_space_group_symop_operation_xyz
x,y,z
-x,-y,-z
loop_
_atom_site_type_symbol
_atom_site_label
_atom_site_fract_x
_atom_site_fract_y
_atom_site_fract_z
Si Si1 0.381455 0.289577 0.629457
Si Si2 0.217343 0.953865 0.557233
Si Si3 0.143851 0.995137 0.277454
Si Si4 0.440374 0.192594 0.714094
Si Si5 0.823255 0.446010 0.815590
Si Si6 0.071370 0.151258 0.792202
Si Si7 0.250235 0.590504 0.774163
O O1 0.500000 0.500000 0.500000
O O2 0.415446 0.188860 0.614084
O O3 0.366670 0.100390 0.419015
O O4 0.224266 0.357988 0.007964
O O5 0.246870 0.761321 0.274976
O O6 0.147268 0.106875 0.730468
O O7 0.102437 0.867232 0.842150
O O8 0.101870 0.995344 0.508800
O O9 0.284257 0.191851 0.101534
O O10 0.000000 0.000000 0.500000
O O11 0.191037 0.784925 0.988910
O O12 0.577985 0.392907 0.607293
O O13 0.500000 0.000000 0.500000
O O14 0.000000 0.500000 0.500000
O O15 0.754107 0.410897 0.068311
O O16 0.146862 0.388946 0.772988
#
# Coordination Sequence:
#
# PCOD8027610 Si02
#       7
#     2   2   2   2   2   2   2
#     4  12  24  44  69  99 134 170 225 276 327 396
#     4  11  22  36  66 102 131 166 216 280 338 379
#     4  11  25  41  66  91 130 180 223 266 329 399
#     4  10  24  46  65  91 138 178 212 274 334 389
#     4  12  22  39  69 100 132 167 215 279 332 387
#     4  11  21  38  65  97 129 170 220 273 329 391
#     4  11  22  43  64  93 132 171 217 275 330 385
#
# _framework density 22.013907
#
# number of rings (size 3 to 8) (size 9 to 14) (size 15 to 20)
#    0.000    0.857    5.714    1.714    2.000    1.714 
#    0.000    4.286    0.000    0.000    0.000    0.000 
#    0.000    0.000    0.000    0.000    0.000    0.000 
#
# Total GULP energy -173534.052547 kJ/mol
# GULP energy per Si atom -12395.289468 kJ/mol
# Density = 2.196380 g / cm^3
# Si number density = 22.013907 Si / 1000 Ang^3
#
#
#
# Elastic Constant Matrix: (Units=GPa)
#
#
# Indices 1 2 3 4 5 6 
#
# 1 105.3792 38.3233 22.7936 -3.2738 -15.0039 -4.0790
# 2 38.3233 104.0157 25.6284 -8.1916 -7.5407 15.2970
# 3 22.7936 25.6284 79.1141 -17.9900 -12.5795 2.1098
# 4 -3.2738 -8.1916 -17.9900 44.9862 2.8869 0.4807
# 5 -15.0039 -7.5407 -12.5795 2.8869 31.8860 1.9134
# 6 -4.0790 15.2970 2.1098 0.4807 1.9134 42.9863
#
#
#
# Elastic Compliance Matrix: (Units=1/GPa)
#
#
# Indices 1 2 3 4 5 6 
#
# 1 0.012005 -0.004148 -0.001759 -0.000862 0.003900 0.002538
# 2 -0.004148 0.012549 -0.002472 0.001031 0.000233 -0.004760
# 3 -0.001759 -0.002472 0.015905 0.005504 0.004384 -0.000325
# 4 -0.000862 0.001031 0.005504 0.024576 -0.000156 -0.000987
# 5 0.003900 0.000233 0.004384 -0.000156 0.035085 -0.001488
# 6 0.002538 -0.004760 -0.000325 -0.000987 -0.001488 0.025291
#
#
# Mechanical properties :
#
#
# Convention : Reuss Voigt Hill
#
# Bulk Modulus (GPa) = 42.19065 51.33329 46.76197
# Shear Modulus (GPa) = 33.31796 37.42261 35.37028
#
# Velocity S-wave (km/s) = 3.89459 4.12752 4.01275
# Velocity P-wave (km/s) = 6.27940 6.78855 6.53893
#
# Compressibility (1/GPa) = 0.02370194
#
# Stress axis : x y z
#
# Youngs Moduli (GPa) = 83.29679 79.68502 62.87443
#
# Poissons Ratio (x) = 0.33055 0.11058
# Poissons Ratio (y) = 0.34554 0.15541
# Poissons Ratio (z) = 0.14650 0.19696
#
# Static dielectric constant tensor:
#      x y z
#    x 3.918840 0.026040 -0.148890 
#    y 0.026040 4.265550 -0.346760 
#    z -0.148890 -0.346760 4.268630 
# 
# 
# High freq. dielectric constant tensor:
#      x y z
#    x 1.859110 0.004770 -0.011270 
#    y 0.004770 1.874600 -0.017920 
#    z -0.011270 -0.017920 1.856400 
# 
# From -- ./inp_files/343828.got.cif
#   From: 2010.06.25/outbox.cif.g09.slc.cpg/sg2_172_cif.got.tgz:343828.got - 2010.06.27 13:26:56.
