data_PCOD8027123
_publ_section_title
;
Structure prediction by ZEFSAII (Michael W. Deem and Ramdas Pophale) SiO2 
 PCOD8027123
Probable space group: P -1
;
_chemical_formula_sum "Si O2"
_cell_formula_units_Z 12
_cell_length_a 9.363701
_cell_length_b 15.696693
_cell_length_c 5.422689
_cell_angle_alpha 62.337075
_cell_angle_beta 65.489841
_cell_angle_gamma 45.885999
_cell_volume 501.522696
_symmetry_space_group_name_H-M "P -1"
_symmetry_group_IT_number 2
_symmetry_cell_setting 'triclinic'
loop_
_space_group_symop_operation_xyz
x,y,z
-x,-y,-z
loop_
_atom_site_type_symbol
_atom_site_label
_atom_site_fract_x
_atom_site_fract_y
_atom_site_fract_z
Si Si1 0.332438 0.550177 0.848988
Si Si2 0.281366 0.056740 0.302968
Si Si3 0.950558 0.818453 0.211849
Si Si4 0.947410 0.624909 0.288646
Si Si5 0.526595 0.830964 0.133586
Si Si6 0.362495 0.700668 0.261424
O O1 0.287630 0.670024 0.594283
O O2 0.423450 0.430321 0.776461
O O3 0.500000 0.500000 0.000000
O O4 0.115221 0.597995 0.018800
O O5 0.153993 0.090978 0.598244
O O6 0.421166 0.909561 0.356332
O O7 0.148433 0.117172 0.066419
O O8 0.427882 0.094015 0.175658
O O9 0.937153 0.707320 0.406997
O O10 0.185558 0.758229 0.107105
O O11 0.732441 0.697551 0.219077
O O12 0.000000 0.500000 0.500000
O O13 0.383602 0.806738 0.143768
#
# Coordination Sequence:
#
# PCOD8027123 Si02
#       6
#     2   2   2   2   2   2
#     4  11  23  43  64 101 145 181 229 282 356 423
#     4  10  25  49  70 100 142 185 239 288 341 416
#     4  11  24  47  71 100 141 186 232 291 345 414
#     4  11  24  43  70 105 139 186 230 290 353 420
#     4  10  24  44  68 103 135 187 231 291 347 413
#     4  11  24  41  70 100 140 185 229 291 349 417
#
# _framework density 23.927132
#
# number of rings (size 3 to 8) (size 9 to 14) (size 15 to 20)
#    0.000    1.333    1.667    3.000    4.667    8.000 
#    3.000    0.000    0.000    0.000    0.000    0.000 
#    0.000    0.000    0.000    0.000    0.000    0.000 
#
# Total GULP energy -148723.678482 kJ/mol
# GULP energy per Si atom -12393.639873 kJ/mol
# Density = 2.387267 g / cm^3
# Si number density = 23.927132 Si / 1000 Ang^3
#
#
#
# Elastic Constant Matrix: (Units=GPa)
#
#
# Indices 1 2 3 4 5 6 
#
# 1 134.4845 27.5793 34.8839 -8.5407 -15.6083 3.6711
# 2 27.5793 100.1433 33.8426 10.0939 -15.6718 -5.6835
# 3 34.8839 33.8426 79.4339 9.1855 1.9508 -1.3142
# 4 -8.5407 10.0939 9.1855 36.8275 10.2002 -9.3391
# 5 -15.6083 -15.6718 1.9508 10.2002 22.8144 -1.1514
# 6 3.6711 -5.6835 -1.3142 -9.3391 -1.1514 42.2266
#
#
#
# Elastic Compliance Matrix: (Units=1/GPa)
#
#
# Indices 1 2 3 4 5 6 
#
# 1 0.009425 -0.000442 -0.004293 0.001663 0.005744 -0.000488
# 2 -0.000442 0.014746 -0.005686 -0.006140 0.013102 0.000845
# 3 -0.004293 -0.005686 0.017279 -0.001770 -0.007552 -0.000452
# 4 0.001663 -0.006140 -0.001770 0.036572 -0.018950 0.006546
# 5 0.005744 0.013102 -0.007552 -0.018950 0.065810 -0.001368
# 6 -0.000488 0.000845 -0.000452 0.006546 -0.001368 0.025234
#
#
# Mechanical properties :
#
#
# Convention : Reuss Voigt Hill
#
# Bulk Modulus (GPa) = 48.51989 56.29703 52.40846
# Shear Modulus (GPa) = 25.40926 34.89076 30.15001
#
# Velocity S-wave (km/s) = 3.26228 3.82279 3.55361
# Velocity P-wave (km/s) = 5.87471 6.56236 6.22803
#
# Compressibility (1/GPa) = 0.02061010
#
# Stress axis : x y z
#
# Youngs Moduli (GPa) = 106.09688 67.81437 57.87219
#
# Poissons Ratio (x) = 0.02994 0.24842
# Poissons Ratio (y) = 0.04684 0.32908
# Poissons Ratio (z) = 0.45542 0.38562
#
# Static dielectric constant tensor:
#      x y z
#    x 4.307600 -0.077850 -0.058850 
#    y -0.077850 5.038790 0.220810 
#    z -0.058850 0.220810 4.057200 
# 
# 
# High freq. dielectric constant tensor:
#      x y z
#    x 1.955840 -0.010090 -0.004290 
#    y -0.010090 1.975310 0.006380 
#    z -0.004290 0.006380 1.916510 
# 
# From -- ./inp_files/18328.got.cif
#   From: 2010.06.25/outbox.cif.g09.slc.cpg/sg2_10_cif.got.tgz:18328.got - 2010.06.27 13:26:56.
