data_PCOD8027744
_publ_section_title
;
Structure prediction by ZEFSAII (Michael W. Deem and Ramdas Pophale) SiO2 
 PCOD8027744
Probable space group: P -1
;
_chemical_formula_sum "Si O2"
_cell_formula_units_Z 14
_cell_length_a 6.633480
_cell_length_b 6.136372
_cell_length_c 20.065257
_cell_angle_alpha 88.196731
_cell_angle_beta 127.701051
_cell_angle_gamma 70.451515
_cell_volume 577.649829
_symmetry_space_group_name_H-M "P -1"
_symmetry_group_IT_number 2
_symmetry_cell_setting 'triclinic'
loop_
_space_group_symop_operation_xyz
x,y,z
-x,-y,-z
loop_
_atom_site_type_symbol
_atom_site_label
_atom_site_fract_x
_atom_site_fract_y
_atom_site_fract_z
Si Si1 0.166828 0.815602 0.294630
Si Si2 0.324106 0.685793 0.597977
Si Si3 0.362053 0.112233 0.249533
Si Si4 0.307137 0.125670 0.023328
Si Si5 0.633606 0.752498 0.198218
Si Si6 0.295923 0.483897 0.123113
Si Si7 0.212204 0.978192 0.445772
O O1 0.487392 0.602836 0.355142
O O2 0.109595 0.927165 0.355146
O O3 0.944503 0.704391 0.233661
O O4 0.129516 0.027664 0.231844
O O5 0.491299 0.832310 0.658125
O O6 0.251433 0.758552 0.505456
O O7 0.032555 0.763868 0.579378
O O8 0.224144 0.340886 0.169147
O O9 0.601418 0.886397 0.260402
O O10 0.361219 0.341588 0.067078
O O11 0.383571 0.914142 0.094849
O O12 0.973108 0.248782 0.936379
O O13 0.500000 0.000000 0.000000
O O14 0.582937 0.511819 0.199168
O O15 0.500000 0.000000 0.500000
#
# Coordination Sequence:
#
# PCOD8027744 Si02
#       7
#     2   2   2   2   2   2   2
#     4  12  26  46  73 108 142 194 238 293 363 425
#     4  11  25  44  72 104 144 187 237 300 352 422
#     4  11  24  46  70 105 148 185 242 294 352 424
#     4  10  24  46  73 108 137 190 242 288 358 429
#     4  11  25  46  73 106 147 187 238 295 360 426
#     4  10  24  49  70 103 150 185 234 306 345 420
#     4  11  24  48  71 104 144 188 243 292 356 428
#
# _framework density 24.236135999999998
#
# number of rings (size 3 to 8) (size 9 to 14) (size 15 to 20)
#    0.000    1.143    2.857    1.714    4.000    5.714 
#    0.000    0.000    0.000    0.000    0.000    0.000 
#    0.000    0.000    0.000    0.000    0.000    0.000 
#
# Total GULP energy -173573.463619 kJ/mol
# GULP energy per Si atom -12398.104544 kJ/mol
# Density = 2.418097 g / cm^3
# Si number density = 24.236136 Si / 1000 Ang^3
#
#
#
# Elastic Constant Matrix: (Units=GPa)
#
#
# Indices 1 2 3 4 5 6 
#
# 1 161.2134 67.9889 61.8483 -3.7632 3.6683 3.8714
# 2 67.9889 84.1434 34.5334 -5.8912 -5.4985 -1.4099
# 3 61.8483 34.5334 95.0308 -9.6371 -8.7282 6.9482
# 4 -3.7632 -5.8912 -9.6371 36.0214 -3.8595 3.1902
# 5 3.6683 -5.4985 -8.7282 -3.8595 42.0637 6.3393
# 6 3.8714 -1.4099 6.9482 3.1902 6.3393 45.0286
#
#
#
# Elastic Compliance Matrix: (Units=1/GPa)
#
#
# Indices 1 2 3 4 5 6 
#
# 1 0.011318 -0.007349 -0.005182 -0.001765 -0.003211 0.000174
# 2 -0.007349 0.018852 -0.001666 0.002088 0.002810 0.000936
# 3 -0.005182 -0.001666 0.015514 0.004049 0.004260 -0.002887
# 4 -0.001765 0.002088 0.004049 0.029759 0.004472 -0.003146
# 5 -0.003211 0.002810 0.004260 0.004472 0.026366 -0.004322
# 6 0.000174 0.000936 -0.002887 -0.003146 -0.004322 0.023499
#
#
# Mechanical properties :
#
#
# Convention : Reuss Voigt Hill
#
# Bulk Modulus (GPa) = 57.83993 74.34764 66.09378
# Shear Modulus (GPa) = 31.35458 36.35722 33.85590
#
# Velocity S-wave (km/s) = 3.60072 3.87735 3.74159
# Velocity P-wave (km/s) = 6.41903 7.12657 6.78203
#
# Compressibility (1/GPa) = 0.01728909
#
# Stress axis : x y z
#
# Youngs Moduli (GPa) = 88.35533 53.04545 64.45763
#
# Poissons Ratio (x) = 0.38982 0.33403
# Poissons Ratio (y) = 0.64930 0.10742
# Poissons Ratio (z) = 0.45787 0.08840
#
# Static dielectric constant tensor:
#      x y z
#    x 4.378830 -0.088550 -0.134060 
#    y -0.088550 4.321710 0.067500 
#    z -0.134060 0.067500 4.450390 
# 
# 
# High freq. dielectric constant tensor:
#      x y z
#    x 1.963680 -0.006700 -0.009360 
#    y -0.006700 1.956430 0.004970 
#    z -0.009360 0.004970 1.964950 
# 
# From -- ./inp_files/580936.got.cif
#   From: 2010.06.25/outbox.cif.g09.slc.cpg/sg2_291_cif.got.tgz:580936.got - 2010.06.27 13:26:56.
