data_PCOD8027856
_publ_section_title
;
Structure prediction by ZEFSAII (Michael W. Deem and Ramdas Pophale) SiO2 
 PCOD8027856
Probable space group: P -1
;
_chemical_formula_sum "Si O2"
_cell_formula_units_Z 12
_cell_length_a 5.431704
_cell_length_b 8.572660
_cell_length_c 17.612690
_cell_angle_alpha 46.156995
_cell_angle_beta 90.312830
_cell_angle_gamma 66.117453
_cell_volume 487.389779
_symmetry_space_group_name_H-M "P -1"
_symmetry_group_IT_number 2
_symmetry_cell_setting 'triclinic'
loop_
_space_group_symop_operation_xyz
x,y,z
-x,-y,-z
loop_
_atom_site_type_symbol
_atom_site_label
_atom_site_fract_x
_atom_site_fract_y
_atom_site_fract_z
Si Si1 0.179341 0.587673 0.178633
Si Si2 0.243615 0.021420 0.066079
Si Si3 0.799671 0.419998 0.484405
Si Si4 0.783434 0.771464 0.250955
Si Si5 0.761777 0.105382 0.280359
Si Si6 0.158401 0.645501 0.928250
O O1 0.432651 0.291226 0.253533
O O2 0.094289 0.592292 0.265315
O O3 0.311043 0.764874 0.109032
O O4 0.889076 0.725978 0.075410
O O5 0.007396 0.089543 0.110490
O O6 0.541050 0.968585 0.122179
O O7 0.500000 0.500000 0.500000
O O8 0.716998 0.561242 0.354536
O O9 0.000000 0.500000 0.500000
O O10 0.007401 0.100606 0.586777
O O11 0.763387 0.945042 0.262212
O O12 0.877552 0.277098 0.187499
O O13 0.500000 0.500000 0.000000
O O14 0.000000 0.500000 0.000000
#
# Coordination Sequence:
#
# PCOD8027856 Si02
#       6
#     2   2   2   2   2   2
#     4  11  25  43  68 107 145 186 243 297 364 429
#     4  11  24  43  66 102 154 184 240 298 364 424
#     4  10  24  47  78 105 140 192 244 300 360 426
#     4  11  24  46  74  99 148 194 237 301 364 424
#     4  11  24  48  71 108 141 189 249 293 360 439
#     4  12  24  41  72 101 138 190 235 286 359 424
#
# _framework density 24.620949
#
# number of rings (size 3 to 8) (size 9 to 14) (size 15 to 20)
#    0.000    1.000    3.333    2.500    2.333    3.333 
#    6.000    0.833    0.000    0.000    0.000    0.000 
#    0.000    0.000    0.000    0.000    0.000    0.000 
#
# Total GULP energy -148665.698713 kJ/mol
# GULP energy per Si atom -12388.808226 kJ/mol
# Density = 2.456491 g / cm^3
# Si number density = 24.620949 Si / 1000 Ang^3
#
#
#
# Elastic Constant Matrix: (Units=GPa)
#
#
# Indices 1 2 3 4 5 6 
#
# 1 122.3619 41.0538 47.3770 -8.0937 -6.9394 -24.1052
# 2 41.0538 152.2832 56.4145 -7.4702 -5.0888 -43.9112
# 3 47.3770 56.4145 129.7631 -29.6691 -4.7996 -21.9285
# 4 -8.0937 -7.4702 -29.6691 26.4205 -5.5669 1.8041
# 5 -6.9394 -5.0888 -4.7996 -5.5669 38.1048 5.9628
# 6 -24.1052 -43.9112 -21.9285 1.8041 5.9628 39.9701
#
#
#
# Elastic Compliance Matrix: (Units=1/GPa)
#
#
# Indices 1 2 3 4 5 6 
#
# 1 0.010271 -0.000566 -0.002907 -0.000382 0.000766 0.003880
# 2 -0.000566 0.010594 -0.003129 -0.001536 -0.000836 0.009774
# 3 -0.002907 -0.003129 0.013643 0.014010 0.002619 0.001271
# 4 -0.000382 -0.001536 0.014010 0.054839 0.009201 0.001921
# 5 0.000766 -0.000836 0.002619 0.009201 0.028523 -0.003691
# 6 0.003880 0.009774 0.001271 0.001921 -0.003691 0.039258
#
#
# Mechanical properties :
#
#
# Convention : Reuss Voigt Hill
#
# Bulk Modulus (GPa) = 46.94271 77.12208 62.03239
# Shear Modulus (GPa) = 28.17972 38.20326 33.19149
#
# Velocity S-wave (km/s) = 3.38678 3.94338 3.67563
# Velocity P-wave (km/s) = 5.86526 7.21979 6.57749
#
# Compressibility (1/GPa) = 0.02130256
#
# Stress axis : x y z
#
# Youngs Moduli (GPa) = 97.36607 94.39558 73.29692
#
# Poissons Ratio (x) = 0.05345 0.21307
# Poissons Ratio (y) = 0.05513 0.22937
# Poissons Ratio (z) = 0.28303 0.29539
#
# Static dielectric constant tensor:
#      x y z
#    x 4.489380 -0.256930 -0.892520 
#    y -0.256930 4.729730 0.078570 
#    z -0.892520 0.078570 6.622040 
# 
# 
# High freq. dielectric constant tensor:
#      x y z
#    x 1.973420 -0.020310 -0.010260 
#    y -0.020310 1.976580 -0.005550 
#    z -0.010260 -0.005550 1.982490 
# 
# From -- ./inp_files/546884.got.cif
#   From: 2010.06.25/outbox.cif.g09.slc.cpg/sg2_274_cif.got.tgz:546884.got - 2010.06.27 13:26:56.
