data_PCOD8027429
_publ_section_title
;
Structure prediction by ZEFSAII (Michael W. Deem and Ramdas Pophale) SiO2 
 PCOD8027429
Probable space group: P -1
;
_chemical_formula_sum "Si O2"
_cell_formula_units_Z 14
_cell_length_a 19.821041
_cell_length_b 6.721479
_cell_length_c 8.415997
_cell_angle_alpha 111.434783
_cell_angle_beta 41.720467
_cell_angle_gamma 121.688038
_cell_volume 634.236332
_symmetry_space_group_name_H-M "P -1"
_symmetry_group_IT_number 2
_symmetry_cell_setting 'triclinic'
loop_
_space_group_symop_operation_xyz
x,y,z
-x,-y,-z
loop_
_atom_site_type_symbol
_atom_site_label
_atom_site_fract_x
_atom_site_fract_y
_atom_site_fract_z
Si Si1 0.542908 0.141979 0.210119
Si Si2 0.982203 0.160327 0.802939
Si Si3 0.284962 0.956598 0.303946
Si Si4 0.938761 0.218952 0.539112
Si Si5 0.550137 0.589608 0.767697
Si Si6 0.167675 0.651087 0.703480
Si Si7 0.636427 0.242511 0.399737
O O1 0.530495 0.342946 0.185032
O O2 0.639182 0.225371 0.199780
O O3 0.425040 0.996831 0.461120
O O4 0.592933 0.008843 0.963957
O O5 0.932587 0.152954 0.713906
O O6 0.094067 0.390587 0.697549
O O7 0.898324 0.185701 0.089785
O O8 0.001983 0.919532 0.711440
O O9 0.188090 0.880195 0.322764
O O10 0.249907 0.766393 0.448633
O O11 0.321635 0.216387 0.386010
O O12 0.000000 0.500000 0.500000
O O13 0.558239 0.375959 0.601741
O O14 0.500000 0.500000 0.000000
O O15 0.236686 0.632578 0.729627
#
# Coordination Sequence:
#
# PCOD8027429 Si02
#       7
#     2   2   2   2   2   2   2
#     4  11  24  42  64  95 135 171 221 274 330 402
#     4  10  24  45  68  94 134 174 225 277 334 398
#     4  12  23  42  67  97 131 176 221 274 335 394
#     4  11  23  45  66  98 132 173 220 279 335 400
#     4  12  23  42  66  95 132 178 222 271 330 396
#     4  11  22  44  69  97 132 178 225 278 331 399
#     4  11  23  43  65  95 136 172 219 277 330 402
#
# _framework density 22.073789000000001
#
# number of rings (size 3 to 8) (size 9 to 14) (size 15 to 20)
#    0.000    0.857    4.286    3.429    0.000    0.571 
#    5.143    0.000    0.000    0.000    0.000    0.000 
#    0.000    0.000    0.000    0.000    0.000    0.000 
#
# Total GULP energy -173484.653575 kJ/mol
# GULP energy per Si atom -12391.760970 kJ/mol
# Density = 2.202355 g / cm^3
# Si number density = 22.073789 Si / 1000 Ang^3
#
#
#
# Elastic Constant Matrix: (Units=GPa)
#
#
# Indices 1 2 3 4 5 6 
#
# 1 145.2299 35.6920 18.4632 -16.0777 -3.4412 4.2489
# 2 35.6920 108.4799 29.8774 9.3449 1.7980 -6.5473
# 3 18.4632 29.8774 72.8529 3.4181 5.3940 -6.9483
# 4 -16.0777 9.3449 3.4181 35.9309 -2.7639 -3.0834
# 5 -3.4412 1.7980 5.3940 -2.7639 29.7610 -2.1777
# 6 4.2489 -6.5473 -6.9483 -3.0834 -2.1777 38.8528
#
#
#
# Elastic Compliance Matrix: (Units=1/GPa)
#
#
# Indices 1 2 3 4 5 6 
#
# 1 0.008359 -0.002864 -0.001403 0.004651 0.001739 -0.001181
# 2 -0.002864 0.011596 -0.003680 -0.003888 -0.000633 0.001265
# 3 -0.001403 -0.003680 0.016062 -0.001230 -0.002808 0.002151
# 4 0.004651 -0.003888 -0.001230 0.031464 0.004016 0.001338
# 5 0.001739 -0.000633 -0.002808 0.004016 0.034830 0.001472
# 6 -0.001181 0.001265 0.002151 0.001338 0.001472 0.026654
#
#
# Mechanical properties :
#
#
# Convention : Reuss Voigt Hill
#
# Bulk Modulus (GPa) = 49.69788 54.95864 52.32826
# Shear Modulus (GPa) = 32.98882 37.07762 35.03322
#
# Velocity S-wave (km/s) = 3.87004 4.10288 3.98816
# Velocity P-wave (km/s) = 6.52173 6.88451 6.70558
#
# Compressibility (1/GPa) = 0.02012158
#
# Stress axis : x y z
#
# Youngs Moduli (GPa) = 119.63610 86.23685 62.25981
#
# Poissons Ratio (x) = 0.24702 0.08737
# Poissons Ratio (y) = 0.34269 0.22910
# Poissons Ratio (z) = 0.16788 0.31732
#
# Static dielectric constant tensor:
#      x y z
#    x 4.412480 0.136100 1.767470 
#    y 0.136100 4.112470 0.300570 
#    z 1.767470 0.300570 14.969650 
# 
# 
# High freq. dielectric constant tensor:
#      x y z
#    x 1.889840 0.007590 0.006620 
#    y 0.007590 1.866770 0.011030 
#    z 0.006620 0.011030 1.861090 
# 
# From -- ./inp_files/36085.got.cif
#   From: 2010.06.25/outbox.cif.g09.slc.cpg/sg2_19_cif.got.tgz:36085.got - 2010.06.27 13:26:56.
