data_PCOD8027849
_publ_section_title
;
Structure prediction by ZEFSAII (Michael W. Deem and Ramdas Pophale) SiO2 
 PCOD8027849
Probable space group: P -1
;
_chemical_formula_sum "Si O2"
_cell_formula_units_Z 16
_cell_length_a 27.709106
_cell_length_b 12.636630
_cell_length_c 5.439027
_cell_angle_alpha 48.293489
_cell_angle_beta 127.692033
_cell_angle_gamma 152.924656
_cell_volume 646.139085
_symmetry_space_group_name_H-M "P -1"
_symmetry_group_IT_number 2
_symmetry_cell_setting 'triclinic'
loop_
_space_group_symop_operation_xyz
x,y,z
-x,-y,-z
loop_
_atom_site_type_symbol
_atom_site_label
_atom_site_fract_x
_atom_site_fract_y
_atom_site_fract_z
Si Si1 0.301039 0.758387 0.248058
Si Si2 0.400358 0.140095 0.582202
Si Si3 0.496149 0.106426 0.608574
Si Si4 0.125713 0.584324 0.211010
Si Si5 0.725406 0.594080 0.390015
Si Si6 0.009643 0.354987 0.712321
Si Si7 0.366711 0.367006 0.287195
Si Si8 0.813441 0.986669 0.389776
O O1 0.241914 0.732026 0.322506
O O2 0.232690 0.487033 0.387611
O O3 0.419435 0.914593 0.437962
O O4 0.314039 0.884633 0.859521
O O5 0.427480 0.116166 0.449945
O O6 0.354650 0.212627 0.293550
O O7 0.510239 0.359858 0.737129
O O8 0.614385 0.383531 0.515214
O O9 0.500000 0.000000 0.000000
O O10 0.079497 0.451751 0.536243
O O11 0.060009 0.393056 0.066874
O O12 0.134196 0.772244 0.938883
O O13 0.811688 0.853975 0.396865
O O14 0.699345 0.619894 0.012077
O O15 0.000000 0.500000 0.500000
O O16 0.889486 0.074442 0.713823
O O17 0.306455 0.203388 0.601374
#
# Coordination Sequence:
#
# PCOD8027849 Si02
#       8
#     2   2   2   2   2   2   2   2
#     4  12  26  43  68  96 141 194 231 285 353 426
#     4  11  23  41  63  97 141 184 233 289 343 422
#     4  12  24  40  65  93 142 192 237 279 339 432
#     4  11  26  47  75 107 135 186 245 294 357 431
#     4  12  26  40  64 102 138 185 234 283 360 427
#     4  10  24  47  75 107 136 180 241 303 359 425
#     4  11  24  39  64 102 140 173 235 296 356 413
#     4  11  24  41  71  99 134 181 227 304 355 418
#
# _framework density 24.762471000000001
#
# number of rings (size 3 to 8) (size 9 to 14) (size 15 to 20)
#    0.000    0.750    5.000    2.625    8.750    0.500 
#    0.000    1.250    0.000    0.000    0.000    0.000 
#    0.000    0.000    0.000    0.000    0.000    0.000 
#
# Total GULP energy -198250.737148 kJ/mol
# GULP energy per Si atom -12390.671072 kJ/mol
# Density = 2.470611 g / cm^3
# Si number density = 24.762471 Si / 1000 Ang^3
#
#
#
# Elastic Constant Matrix: (Units=GPa)
#
#
# Indices 1 2 3 4 5 6 
#
# 1 74.5670 9.5342 9.0694 -16.4150 -3.9740 7.7267
# 2 9.5342 95.7061 17.9556 2.2440 11.6512 -13.8016
# 3 9.0694 17.9556 58.6247 -7.4578 1.2623 -4.6250
# 4 -16.4150 2.2440 -7.4578 33.7108 -5.9359 3.2536
# 5 -3.9740 11.6512 1.2623 -5.9359 40.1974 -4.6845
# 6 7.7267 -13.8016 -4.6250 3.2536 -4.6845 33.4068
#
#
#
# Elastic Compliance Matrix: (Units=1/GPa)
#
#
# Indices 1 2 3 4 5 6 
#
# 1 0.016688 -0.002889 -0.001041 0.009200 0.003221 -0.005642
# 2 -0.002889 0.012726 -0.003485 -0.004219 -0.003869 0.005312
# 3 -0.001041 -0.003485 0.018861 0.003967 0.001037 0.001171
# 4 0.009200 -0.004219 0.003967 0.037074 0.006785 -0.005981
# 5 0.003221 -0.003869 0.001037 0.006785 0.027401 0.000982
# 6 -0.005642 0.005312 0.001171 -0.005981 0.000982 0.034316
#
#
# Mechanical properties :
#
#
# Convention : Reuss Voigt Hill
#
# Bulk Modulus (GPa) = 29.89940 33.55737 31.72838
# Shear Modulus (GPa) = 28.89435 34.28556 31.58996
#
# Velocity S-wave (km/s) = 3.41964 3.72503 3.57560
# Velocity P-wave (km/s) = 5.26238 5.66412 5.46694
#
# Compressibility (1/GPa) = 0.03344549
#
# Stress axis : x y z
#
# Youngs Moduli (GPa) = 59.92270 78.57837 53.01963
#
# Poissons Ratio (x) = 0.22698 0.05520
# Poissons Ratio (y) = 0.17309 0.18479
# Poissons Ratio (z) = 0.06239 0.27386
#
# Static dielectric constant tensor:
#      x y z
#    x 4.621760 0.057500 0.182600 
#    y 0.057500 5.725790 0.545580 
#    z 0.182600 0.545580 5.589630 
# 
# 
# High freq. dielectric constant tensor:
#      x y z
#    x 1.990720 -0.005400 -0.003830 
#    y -0.005400 1.990380 -0.003290 
#    z -0.003830 -0.003290 1.957320 
# 
# From -- ./inp_files/81238.got.cif
#   From: 2010.06.25/outbox.cif.g09.slc.cpg/sg2_41_cif.got.tgz:81238.got - 2010.06.27 13:26:56.
