data_PCOD8027357
_publ_section_title
;
Structure prediction by ZEFSAII (Michael W. Deem and Ramdas Pophale) SiO2 
 PCOD8027357
Probable space group: P -1
;
_chemical_formula_sum "Si O2"
_cell_formula_units_Z 16
_cell_length_a 19.242739
_cell_length_b 13.195039
_cell_length_c 9.208532
_cell_angle_alpha 48.834911
_cell_angle_beta 132.646604
_cell_angle_gamma 152.208544
_cell_volume 789.949366
_symmetry_space_group_name_H-M "P -1"
_symmetry_group_IT_number 2
_symmetry_cell_setting 'triclinic'
loop_
_space_group_symop_operation_xyz
x,y,z
-x,-y,-z
loop_
_atom_site_type_symbol
_atom_site_label
_atom_site_fract_x
_atom_site_fract_y
_atom_site_fract_z
Si Si1 0.027502 0.857784 0.507366
Si Si2 0.450317 0.044775 0.267793
Si Si3 0.609138 0.744547 0.882538
Si Si4 0.086478 0.989629 0.792051
Si Si5 0.109062 0.579444 0.209458
Si Si6 0.367551 0.853953 0.827107
Si Si7 0.032988 0.365529 0.854375
Si Si8 0.779429 0.029843 0.580794
O O1 0.173705 0.992508 0.481500
O O2 0.929255 0.875653 0.295683
O O3 0.914232 0.602882 0.609284
O O4 0.091809 0.983571 0.632414
O O5 0.470149 0.209441 0.218867
O O6 0.569987 0.169468 0.189660
O O7 0.500000 0.000000 0.500000
O O8 0.282552 0.811388 0.189513
O O9 0.664388 0.812840 0.726750
O O10 0.500000 0.500000 0.000000
O O11 0.755577 0.897653 0.045267
O O12 0.959318 0.751385 0.913324
O O13 0.067995 0.621106 0.251280
O O14 0.000000 0.500000 0.000000
O O15 0.211301 0.603880 0.884600
O O16 0.319389 0.949253 0.618272
O O17 0.500000 0.000000 0.000000
O O18 0.947861 0.239341 0.699533
#
# Coordination Sequence:
#
# PCOD8027357 Si02
#       8
#     2   2   2   2   2   2   2   2
#     4  11  24  39  74  96 130 169 234 281 330 389
#     4  12  25  42  66 102 137 174 226 275 332 403
#     4  11  25  46  67  93 140 184 218 273 342 404
#     4  10  24  45  64 100 130 178 232 268 334 416
#     4  12  21  40  73  94 127 184 224 274 329 394
#     4  12  26  39  66 107 141 168 221 286 344 383
#     4  11  22  44  68  95 136 177 229 275 325 404
#     4  11  24  44  68 100 131 176 233 279 325 407
#
# _framework density 20.254462
#
# number of rings (size 3 to 8) (size 9 to 14) (size 15 to 20)
#    0.000    0.750    6.250    1.125    5.250    3.000 
#    2.250    0.625    0.000    0.000    0.000    0.000 
#    0.000    0.000    0.000    0.000    0.000    0.000 
#
# Total GULP energy -198276.783522 kJ/mol
# GULP energy per Si atom -12392.298970 kJ/mol
# Density = 2.020836 g / cm^3
# Si number density = 20.254462 Si / 1000 Ang^3
#
#
#
# Elastic Constant Matrix: (Units=GPa)
#
#
# Indices 1 2 3 4 5 6 
#
# 1 93.2520 4.7946 41.0362 -16.0162 21.9252 -15.3616
# 2 4.7946 84.9750 49.7489 -20.9953 9.7318 3.5668
# 3 41.0362 49.7489 112.0995 -9.9295 6.7573 -4.6677
# 4 -16.0162 -20.9953 -9.9295 43.8709 -6.7679 7.0739
# 5 21.9252 9.7318 6.7573 -6.7679 29.2372 -1.4417
# 6 -15.3616 3.5668 -4.6677 7.0739 -1.4417 26.3952
#
#
#
# Elastic Compliance Matrix: (Units=1/GPa)
#
#
# Indices 1 2 3 4 5 6 
#
# 1 0.019012 0.006137 -0.008185 0.004941 -0.012932 0.006758
# 2 0.006137 0.020806 -0.010384 0.009387 -0.007152 -0.003982
# 3 -0.008185 -0.010384 0.015922 -0.003684 0.005097 0.000721
# 4 0.004941 0.009387 -0.003684 0.029447 0.000498 -0.006909
# 5 -0.012932 -0.007152 0.005097 0.000498 0.045054 -0.003331
# 6 0.006758 -0.003982 0.000721 -0.006909 -0.003331 0.044154
#
#
# Mechanical properties :
#
#
# Convention : Reuss Voigt Hill
#
# Bulk Modulus (GPa) = 32.38605 53.49843 42.94224
# Shear Modulus (GPa) = 23.86067 32.88377 28.37222
#
# Velocity S-wave (km/s) = 3.43599 4.03368 3.74677
# Velocity P-wave (km/s) = 5.63610 6.94007 6.32180
#
# Compressibility (1/GPa) = 0.03087749
#
# Stress axis : x y z
#
# Youngs Moduli (GPa) = 52.59794 48.06216 62.80801
#
# Poissons Ratio (x) = -0.29497 0.51408
# Poissons Ratio (y) = -0.32281 0.65218
# Poissons Ratio (z) = 0.43051 0.49906
#
# Static dielectric constant tensor:
#      x y z
#    x 3.907890 -0.040970 0.023400 
#    y -0.040970 1.995210 -0.796440 
#    z 0.023400 -0.796440 2.992580 
# 
# 
# High freq. dielectric constant tensor:
#      x y z
#    x 1.802090 0.002840 0.000750 
#    y 0.002840 1.780080 -0.003830 
#    z 0.000750 -0.003830 1.808550 
# 
# From -- ./inp_files/332953.got.cif
#   From: 2010.06.25/outbox.cif.g09.slc.cpg/sg2_167_cif.got.tgz:332953.got - 2010.06.27 13:26:56.
