data_PCOD8027328
_publ_section_title
;
Structure prediction by ZEFSAII (Michael W. Deem and Ramdas Pophale) SiO2 
 PCOD8027328
Probable space group: P -1
;
_chemical_formula_sum "Si O2"
_cell_formula_units_Z 16
_cell_length_a 12.007217
_cell_length_b 9.164225
_cell_length_c 18.557442
_cell_angle_alpha 29.908437
_cell_angle_beta 133.452568
_cell_angle_gamma 134.949548
_cell_volume 703.969349
_symmetry_space_group_name_H-M "P -1"
_symmetry_group_IT_number 2
_symmetry_cell_setting 'triclinic'
loop_
_space_group_symop_operation_xyz
x,y,z
-x,-y,-z
loop_
_atom_site_type_symbol
_atom_site_label
_atom_site_fract_x
_atom_site_fract_y
_atom_site_fract_z
Si Si1 0.260478 0.830656 0.359587
Si Si2 0.085188 0.923645 0.640120
Si Si3 0.060010 0.056969 0.284835
Si Si4 0.339272 0.674166 0.163604
Si Si5 0.996617 0.726815 0.167254
Si Si6 0.428574 0.350166 0.606856
Si Si7 0.215899 0.198086 0.834375
Si Si8 0.476817 0.700719 0.669016
O O1 0.350811 0.573779 0.522569
O O2 0.157982 0.765982 0.268779
O O3 0.162069 0.851037 0.381583
O O4 0.399370 0.157490 0.270833
O O5 0.034587 0.556975 0.779782
O O6 0.019584 0.065719 0.620142
O O7 0.278425 0.041711 0.665120
O O8 0.000000 0.000000 0.500000
O O9 0.168140 0.409204 0.194099
O O10 0.915496 0.036814 0.173997
O O11 0.414642 0.710014 0.262086
O O12 0.474273 0.582970 0.218825
O O13 0.333423 0.004559 0.993458
O O14 0.853051 0.689937 0.173947
O O15 0.000000 0.000000 0.000000
O O16 0.500000 0.500000 0.500000
O O17 0.298822 0.528500 0.692079
O O18 0.500000 0.000000 0.500000
#
# Coordination Sequence:
#
# PCOD8027328 Si02
#       8
#     2   2   2   2   2   2   2   2
#     4  10  24  46  68 101 136 185 227 291 349 411
#     4  12  25  45  71 104 134 184 236 290 353 419
#     4  10  24  44  74  99 140 178 242 286 351 413
#     4  11  23  44  69 102 140 183 227 292 350 416
#     4  11  26  46  70 101 142 180 236 291 352 418
#     4  12  26  42  69 102 147 181 234 288 360 414
#     4  11  25  44  72 103 138 188 236 285 354 424
#     4  11  23  42  70 101 141 177 235 291 349 418
#
# _framework density 22.728262000000001
#
# number of rings (size 3 to 8) (size 9 to 14) (size 15 to 20)
#    0.000    1.000    2.500    3.000    3.500    5.500 
#    0.000    1.250    0.000    0.000    0.000    0.000 
#    0.000    0.000    0.000    0.000    0.000    0.000 
#
# Total GULP energy -198248.195329 kJ/mol
# GULP energy per Si atom -12390.512208 kJ/mol
# Density = 2.267653 g / cm^3
# Si number density = 22.728262 Si / 1000 Ang^3
#
#
#
# Elastic Constant Matrix: (Units=GPa)
#
#
# Indices 1 2 3 4 5 6 
#
# 1 123.7163 51.7385 45.4020 0.7366 -14.2323 3.5210
# 2 51.7385 142.5484 47.4429 5.0702 -7.4453 13.7741
# 3 45.4020 47.4429 128.3852 5.9584 3.2601 5.6216
# 4 0.7366 5.0702 5.9584 32.9456 1.8225 0.8160
# 5 -14.2323 -7.4453 3.2601 1.8225 36.1103 -5.6700
# 6 3.5210 13.7741 5.6216 0.8160 -5.6700 42.0825
#
#
#
# Elastic Compliance Matrix: (Units=1/GPa)
#
#
# Indices 1 2 3 4 5 6 
#
# 1 0.010781 -0.002835 -0.002932 0.000478 0.004055 0.000955
# 2 -0.002835 0.009075 -0.002223 -0.000908 0.000634 -0.002333
# 3 -0.002932 -0.002223 0.009797 -0.001207 -0.002540 -0.000655
# 4 0.000478 -0.000908 -0.001207 0.030793 -0.001504 -0.000381
# 5 0.004055 0.000634 -0.002540 -0.001504 0.030341 0.003910
# 6 0.000955 -0.002333 -0.000655 -0.000381 0.003910 0.025068
#
#
# Mechanical properties :
#
#
# Convention : Reuss Voigt Hill
#
# Bulk Modulus (GPa) = 73.13470 75.97964 74.55717
# Shear Modulus (GPa) = 36.65929 38.89878 37.77903
#
# Velocity S-wave (km/s) = 4.02050 4.14148 4.08144
# Velocity P-wave (km/s) = 7.33487 7.50808 7.42198
#
# Compressibility (1/GPa) = 0.01367340
#
# Stress axis : x y z
#
# Youngs Moduli (GPa) = 92.75637 110.19739 102.07692
#
# Poissons Ratio (x) = 0.31236 0.29929
# Poissons Ratio (y) = 0.26292 0.22689
# Poissons Ratio (z) = 0.27196 0.24494
#
# Static dielectric constant tensor:
#      x y z
#    x 4.390750 -0.170170 0.281370 
#    y -0.170170 4.963170 0.042120 
#    z 0.281370 0.042120 4.036640 
# 
# 
# High freq. dielectric constant tensor:
#      x y z
#    x 1.901410 0.003100 0.006280 
#    y 0.003100 1.919570 0.004530 
#    z 0.006280 0.004530 1.881120 
# 
# From -- ./inp_files/566384.got.cif
#   From: 2010.06.25/outbox.cif.g09.slc.cpg/sg2_284_cif.got.tgz:566384.got - 2010.06.27 13:26:56.
