data_PCOD8027242
_publ_section_title
;
Structure prediction by ZEFSAII (Michael W. Deem and Ramdas Pophale) SiO2 
 PCOD8027242
Probable space group: P -1
;
_chemical_formula_sum "Si O2"
_cell_formula_units_Z 12
_cell_length_a 10.393152
_cell_length_b 14.653682
_cell_length_c 4.752588
_cell_angle_alpha 123.744563
_cell_angle_beta 118.473439
_cell_angle_gamma 44.973770
_cell_volume 421.042533
_symmetry_space_group_name_H-M "P -1"
_symmetry_group_IT_number 2
_symmetry_cell_setting 'triclinic'
loop_
_space_group_symop_operation_xyz
x,y,z
-x,-y,-z
loop_
_atom_site_type_symbol
_atom_site_label
_atom_site_fract_x
_atom_site_fract_y
_atom_site_fract_z
Si Si1 0.717871 0.211200 0.044603
Si Si2 0.710286 0.886341 0.088721
Si Si3 0.878524 0.654403 0.251147
Si Si4 0.247294 0.569643 0.380819
Si Si5 0.127915 0.071273 0.154848
Si Si6 0.348098 0.382357 0.665788
O O1 0.655928 0.355099 0.372504
O O2 0.559555 0.256916 0.731336
O O3 0.916524 0.138605 0.983870
O O4 0.748966 0.093099 0.083598
O O5 0.726977 0.759168 0.039249
O O6 0.807794 0.934612 0.466723
O O7 0.812621 0.848859 0.829298
O O8 0.500000 0.000000 0.000000
O O9 0.033732 0.682393 0.461457
O O10 0.780313 0.664859 0.461621
O O11 0.000000 0.500000 0.000000
O O12 0.269249 0.521902 0.000712
O O13 0.334291 0.428250 0.407846
#
# Coordination Sequence:
#
# PCOD8027242 Si02
#       6
#     2   2   2   2   2   2
#     4  11  25  47  70 104 145 182 235 282 352 422
#     4  12  26  49  73 104 141 186 238 288 348 419
#     4  10  24  44  71 101 139 182 233 291 345 406
#     4  11  24  43  70 101 142 182 230 287 351 407
#     4  11  28  44  73 102 140 190 226 292 348 415
#     4  11  25  42  70 105 137 184 232 287 345 417
#
# _framework density 28.500682000000001
#
# number of rings (size 3 to 8) (size 9 to 14) (size 15 to 20)
#    0.000    1.000    1.667    3.000    4.667   12.000 
#    0.000    0.000    0.000    0.000    0.000    0.000 
#    0.000    0.000    0.000    0.000    0.000    0.000 
#
# Total GULP energy -148736.999287 kJ/mol
# GULP energy per Si atom -12394.749941 kJ/mol
# Density = 2.843581 g / cm^3
# Si number density = 28.500682 Si / 1000 Ang^3
#
#
#
# Elastic Constant Matrix: (Units=GPa)
#
#
# Indices 1 2 3 4 5 6 
#
# 1 88.1330 30.0342 7.9099 -14.0570 14.0929 -7.0945
# 2 30.0342 172.7966 6.4472 -15.1143 17.0976 4.1323
# 3 7.9099 6.4472 27.3637 -16.6512 2.2495 1.2237
# 4 -14.0570 -15.1143 -16.6512 44.4165 4.6115 23.7040
# 5 14.0929 17.0976 2.2495 4.6115 46.0533 -2.8716
# 6 -7.0945 4.1323 1.2237 23.7040 -2.8716 61.9304
#
#
#
# Elastic Compliance Matrix: (Units=1/GPa)
#
#
# Indices 1 2 3 4 5 6 
#
# 1 0.013148 -0.001561 -0.000904 0.003651 -0.003762 0.000056
# 2 -0.001561 0.006641 0.001496 0.003777 -0.002577 -0.002217
# 3 -0.000904 0.001496 0.054487 0.027858 -0.006493 -0.012244
# 4 0.003651 0.003777 0.027858 0.046306 -0.009674 -0.018557
# 5 -0.003762 -0.002577 -0.006493 -0.009674 0.025404 0.004750
# 6 0.000056 -0.002217 -0.012244 -0.018557 0.004750 0.023866
#
#
# Mechanical properties :
#
#
# Convention : Reuss Voigt Hill
#
# Bulk Modulus (GPa) = 13.82407 41.89732 27.86070
# Shear Modulus (GPa) = 25.52271 46.74017 36.13144
#
# Velocity S-wave (km/s) = 2.99576 4.05404 3.56440
# Velocity P-wave (km/s) = 4.10208 6.05360 5.17074
#
# Compressibility (1/GPa) = 0.07233758
#
# Stress axis : x y z
#
# Youngs Moduli (GPa) = 76.05623 150.57670 18.35307
#
# Poissons Ratio (x) = 0.23510 0.01659
# Poissons Ratio (y) = 0.11875 -0.02746
# Poissons Ratio (z) = 0.06876 -0.22529
#
# Static dielectric constant tensor:
#      x y z
#    x 5.652390 0.214940 0.757090 
#    y 0.214940 5.677630 0.223140 
#    z 0.757090 0.223140 5.132310 
# 
# 
# High freq. dielectric constant tensor:
#      x y z
#    x 2.158690 0.000630 0.025380 
#    y 0.000630 2.187770 0.019860 
#    z 0.025380 0.019860 2.150220 
# 
# From -- ./inp_files/76798.got.cif
#   From: 2010.06.25/outbox.cif.g09.slc.cpg/sg2_39_cif.got.tgz:76798.got - 2010.06.27 13:26:56.
