data_PCOD8027833
_publ_section_title
;
Structure prediction by ZEFSAII (Michael W. Deem and Ramdas Pophale) SiO2 
 PCOD8027833
Probable space group: P -1
;
_chemical_formula_sum "Si O2"
_cell_formula_units_Z 16
_cell_length_a 10.718146
_cell_length_b 14.380871
_cell_length_c 9.238651
_cell_angle_alpha 151.542056
_cell_angle_beta 90.918666
_cell_angle_gamma 81.366628
_cell_volume 650.239461
_symmetry_space_group_name_H-M "P -1"
_symmetry_group_IT_number 2
_symmetry_cell_setting 'triclinic'
loop_
_space_group_symop_operation_xyz
x,y,z
-x,-y,-z
loop_
_atom_site_type_symbol
_atom_site_label
_atom_site_fract_x
_atom_site_fract_y
_atom_site_fract_z
Si Si1 0.654080 0.747111 0.088646
Si Si2 0.007560 0.203120 0.700875
Si Si3 0.212517 0.912160 0.150452
Si Si4 0.239651 0.633730 0.271346
Si Si5 0.627252 0.193478 0.725438
Si Si6 0.366491 0.852001 0.790163
Si Si7 0.639669 0.721512 0.727368
Si Si8 0.088135 0.577267 0.720339
O O1 0.523796 0.776065 0.217713
O O2 0.694077 0.955627 0.357106
O O3 0.757493 0.590638 0.979719
O O4 0.642935 0.653076 0.801518
O O5 0.900591 0.268270 0.663341
O O6 0.988875 0.375237 0.061309
O O7 0.000000 0.000000 0.500000
O O8 0.143246 0.137162 0.523822
O O9 0.307113 0.766628 0.069948
O O10 0.299813 0.947024 0.068613
O O11 0.111257 0.782819 0.933590
O O12 0.348788 0.649706 0.178211
O O13 0.269534 0.744273 0.566766
O O14 0.510672 0.693918 0.605849
O O15 0.378259 0.036884 0.943545
O O16 0.774569 0.593617 0.481551
O O17 0.000000 0.500000 0.500000
#
# Coordination Sequence:
#
# PCOD8027833 Si02
#       8
#     2   2   2   2   2   2   2   2
#     4  11  25  41  74 111 150 193 253 308 383 449
#     4  10  24  47  73 102 148 199 246 310 375 443
#     4  11  24  48  76 100 153 201 247 306 388 439
#     4  12  24  44  77 107 146 201 255 302 385 454
#     4  11  23  45  72 107 152 195 243 319 375 444
#     4  11  26  45  76 109 146 204 241 321 383 446
#     4  11  25  47  70 108 157 188 253 315 378 444
#     4  11  26  44  77 106 146 202 248 307 373 450
#
# _framework density 24.60632
#
# number of rings (size 3 to 8) (size 9 to 14) (size 15 to 20)
#    0.000    1.000    5.000    1.125    7.000    3.500 
#    2.250    1.250    0.000    0.000    0.000    0.000 
#    0.000    0.000    0.000    0.000    0.000    0.000 
#
# Total GULP energy -198335.593899 kJ/mol
# GULP energy per Si atom -12395.974619 kJ/mol
# Density = 2.455032 g / cm^3
# Si number density = 24.606320 Si / 1000 Ang^3
#
#
#
# Elastic Constant Matrix: (Units=GPa)
#
#
# Indices 1 2 3 4 5 6 
#
# 1 82.8665 31.7401 37.1432 -11.2278 -18.8405 -19.6119
# 2 31.7401 152.8825 41.6556 -1.9455 -10.5879 -15.7550
# 3 37.1432 41.6556 87.7705 -16.3357 -12.7948 -19.9940
# 4 -11.2278 -1.9455 -16.3357 37.9466 -0.0951 0.4432
# 5 -18.8405 -10.5879 -12.7948 -0.0951 47.0585 -2.7752
# 6 -19.6119 -15.7550 -19.9940 0.4432 -2.7752 47.7677
#
#
#
# Elastic Compliance Matrix: (Units=1/GPa)
#
#
# Indices 1 2 3 4 5 6 
#
# 1 0.017495 -0.001550 -0.003976 0.003338 0.005895 0.005319
# 2 -0.001550 0.007780 -0.003099 -0.001401 0.000324 0.000665
# 3 -0.003976 -0.003099 0.017091 0.005975 0.002641 0.004597
# 4 0.003338 -0.001401 0.005975 0.029810 0.002901 0.003302
# 5 0.005895 0.000324 0.002641 0.002901 0.024704 0.005041
# 6 0.005319 0.000665 0.004597 0.003302 0.005041 0.025524
#
#
# Mechanical properties :
#
#
# Convention : Reuss Voigt Hill
#
# Bulk Modulus (GPa) = 39.81335 60.51080 50.16207
# Shear Modulus (GPa) = 33.77820 40.75327 37.26573
#
# Velocity S-wave (km/s) = 3.70908 4.07407 3.89585
# Velocity P-wave (km/s) = 5.87863 6.83928 6.37707
#
# Compressibility (1/GPa) = 0.02511720
#
# Stress axis : x y z
#
# Youngs Moduli (GPa) = 57.16030 128.53282 58.51123
#
# Poissons Ratio (x) = 0.19922 0.23262
# Poissons Ratio (y) = 0.08860 0.18130
# Poissons Ratio (z) = 0.22725 0.39827
#
# Static dielectric constant tensor:
#      x y z
#    x 4.438540 -0.055370 -0.150190 
#    y -0.055370 4.442740 -0.030500 
#    z -0.150190 -0.030500 5.312780 
# 
# 
# High freq. dielectric constant tensor:
#      x y z
#    x 1.977930 -0.005400 -0.001710 
#    y -0.005400 1.981820 -0.004230 
#    z -0.001710 -0.004230 1.975660 
# 
# From -- ./inp_files/274900.got.cif
#   From: 2010.06.25/outbox.cif.g09.slc.cpg/sg2_138_cif.got.tgz:274900.got - 2010.06.27 13:26:56.
