data_PCOD8027660
_publ_section_title
;
Structure prediction by ZEFSAII (Michael W. Deem and Ramdas Pophale) SiO2 
 PCOD8027660
Probable space group: P -1
;
_chemical_formula_sum "Si O2"
_cell_formula_units_Z 12
_cell_length_a 14.728120
_cell_length_b 17.205169
_cell_length_c 9.052208
_cell_angle_alpha 139.309631
_cell_angle_beta 127.599764
_cell_angle_gamma 21.416950
_cell_volume 499.979858
_symmetry_space_group_name_H-M "P -1"
_symmetry_group_IT_number 2
_symmetry_cell_setting 'triclinic'
loop_
_space_group_symop_operation_xyz
x,y,z
-x,-y,-z
loop_
_atom_site_type_symbol
_atom_site_label
_atom_site_fract_x
_atom_site_fract_y
_atom_site_fract_z
Si Si1 0.232870 0.981780 0.497633
Si Si2 0.796027 0.235191 0.349586
Si Si3 0.585086 0.266947 0.966570
Si Si4 0.407739 0.145107 0.271546
Si Si5 0.869478 0.787052 0.720821
Si Si6 0.992865 0.850171 0.187147
O O1 0.241042 0.931102 0.603287
O O2 0.931337 0.240086 0.494046
O O3 0.428432 0.719192 0.206284
O O4 0.333531 0.023168 0.654153
O O5 0.500000 0.500000 0.500000
O O6 0.990340 0.975044 0.275212
O O7 0.776193 0.195179 0.109015
O O8 0.708476 0.024668 0.792819
O O9 0.277123 0.571642 0.156988
O O10 0.341113 0.115119 0.292599
O O11 0.136794 0.481879 0.464934
O O12 0.500000 0.000000 0.000000
O O13 0.960004 0.768514 0.932048
#
# Coordination Sequence:
#
# PCOD8027660 Si02
#       6
#     2   2   2   2   2   2
#     4  12  24  42  70 102 132 177 227 269 336 399
#     4  11  25  45  70  99 139 176 219 279 334 394
#     4  11  25  45  68 103 134 177 221 276 335 400
#     4  11  23  44  72  99 133 176 226 279 326 396
#     4  10  24  46  69  97 138 174 222 279 334 388
#     4  11  23  46  70  97 139 176 219 280 332 394
#
# _framework density 24.000965999999998
#
# number of rings (size 3 to 8) (size 9 to 14) (size 15 to 20)
#    0.000    1.000    5.000    1.000    0.000    4.000 
#    0.000    1.667    0.000    0.000    0.000    0.000 
#    0.000    0.000    0.000    0.000    0.000    0.000 
#
# Total GULP energy -148669.705224 kJ/mol
# GULP energy per Si atom -12389.142102 kJ/mol
# Density = 2.394634 g / cm^3
# Si number density = 24.000966 Si / 1000 Ang^3
#
#
#
# Elastic Constant Matrix: (Units=GPa)
#
#
# Indices 1 2 3 4 5 6 
#
# 1 92.7108 66.7750 59.0380 -7.5390 -5.7822 -36.2190
# 2 66.7750 124.4408 59.3088 -11.3923 18.0727 -24.2881
# 3 59.0380 59.3088 151.1045 -17.4026 -11.2087 -10.4668
# 4 -7.5390 -11.3923 -17.4026 45.2761 1.6600 11.6186
# 5 -5.7822 18.0727 -11.2087 1.6600 37.1505 -12.8247
# 6 -36.2190 -24.2881 -10.4668 11.6186 -12.8247 48.1947
#
#
#
# Elastic Compliance Matrix: (Units=1/GPa)
#
#
# Indices 1 2 3 4 5 6 
#
# 1 0.035907 -0.015296 -0.005601 -0.007243 0.020372 0.025227
# 2 -0.015296 0.018434 -0.002469 0.003631 -0.014870 -0.007574
# 3 -0.005601 -0.002469 0.010043 0.003128 0.002015 -0.003490
# 4 -0.007243 0.003631 0.003128 0.026092 -0.006938 -0.011070
# 5 0.020372 -0.014870 0.002015 -0.006938 0.045881 0.022135
# 6 0.025227 -0.007574 -0.003490 -0.011070 0.022135 0.043692
#
#
# Mechanical properties :
#
#
# Convention : Reuss Voigt Hill
#
# Bulk Modulus (GPa) = 56.64838 82.05553 69.35195
# Shear Modulus (GPa) = 21.49009 38.33322 29.91166
#
# Velocity S-wave (km/s) = 2.99554 4.00078 3.53408
# Velocity P-wave (km/s) = 5.96809 7.45683 6.75361
#
# Compressibility (1/GPa) = 0.01765276
#
# Stress axis : x y z
#
# Youngs Moduli (GPa) = 27.84973 54.24674 99.57033
#
# Poissons Ratio (x) = 0.82978 0.55769
# Poissons Ratio (y) = 0.42600 0.24579
# Poissons Ratio (z) = 0.15599 0.13391
#
# Static dielectric constant tensor:
#      x y z
#    x 4.662720 -0.325340 0.053860 
#    y -0.325340 4.290210 -0.272160 
#    z 0.053860 -0.272160 4.799520 
# 
# 
# High freq. dielectric constant tensor:
#      x y z
#    x 1.944990 -0.031310 -0.021370 
#    y -0.031310 1.943560 -0.020970 
#    z -0.021370 -0.020970 1.975160 
# 
# From -- ./inp_files/36782.got.cif
#   From: 2010.06.25/outbox.cif.g09.slc.cpg/sg2_19_cif.got.tgz:36782.got - 2010.06.27 13:26:56.
