data_PCOD8027565
_publ_section_title
;
Structure prediction by ZEFSAII (Michael W. Deem and Ramdas Pophale) SiO2 
 PCOD8027565
Probable space group: P -1
;
_chemical_formula_sum "Si O2"
_cell_formula_units_Z 16
_cell_length_a 21.131962
_cell_length_b 14.432519
_cell_length_c 11.459176
_cell_angle_alpha 29.099248
_cell_angle_beta 26.385678
_cell_angle_gamma 31.316254
_cell_volume 712.740610
_symmetry_space_group_name_H-M "P -1"
_symmetry_group_IT_number 2
_symmetry_cell_setting 'triclinic'
loop_
_space_group_symop_operation_xyz
x,y,z
-x,-y,-z
loop_
_atom_site_type_symbol
_atom_site_label
_atom_site_fract_x
_atom_site_fract_y
_atom_site_fract_z
Si Si1 0.859269 0.948940 0.344120
Si Si2 0.229961 0.319930 0.634745
Si Si3 0.514914 0.615354 0.734154
Si Si4 0.370919 0.589226 0.452495
Si Si5 0.437805 0.814215 0.302612
Si Si6 0.749123 0.985583 0.250669
Si Si7 0.934083 0.255100 0.583470
Si Si8 0.040601 0.763631 0.703705
O O1 0.719611 0.136975 0.418768
O O2 0.801547 0.858644 0.424348
O O3 0.917971 0.790611 0.527803
O O4 0.000000 0.000000 0.000000
O O5 0.341520 0.307925 0.571542
O O6 0.190326 0.537121 0.394839
O O7 0.306618 0.146903 0.602912
O O8 0.079904 0.291258 0.960487
O O9 0.535649 0.452293 0.776705
O O10 0.378641 0.814848 0.715219
O O11 0.500000 0.500000 0.000000
O O12 0.404374 0.764448 0.279155
O O13 0.426397 0.376802 0.663442
O O14 0.195778 0.659721 0.630274
O O15 0.500000 0.000000 0.000000
O O16 0.878069 0.061233 0.894789
O O17 0.962102 0.311884 0.341733
O O18 0.000000 0.000000 0.500000
#
# Coordination Sequence:
#
# PCOD8027565 Si02
#       8
#     2   2   2   2   2   2   2   2
#     4  10  24  45  73 100 144 186 237 296 350 423
#     4  12  26  40  73 103 137 188 234 291 358 426
#     4  12  24  46  70 101 147 181 234 295 353 426
#     4  11  26  47  74 100 145 187 230 299 358 422
#     4  11  26  49  74 107 140 188 241 292 357 431
#     4  11  23  47  67 101 138 189 234 288 358 419
#     4  11  23  45  66 102 141 180 232 298 349 421
#     4  12  24  45  71 104 142 183 240 298 358 420
#
# _framework density 22.448561000000002
#
# number of rings (size 3 to 8) (size 9 to 14) (size 15 to 20)
#    0.000    0.750    5.000    1.500    3.500    2.500 
#    0.000    0.000    0.000    0.000    0.000    0.000 
#    0.000    0.000    0.000    0.000    0.000    0.000 
#
# Total GULP energy -198262.313892 kJ/mol
# GULP energy per Si atom -12391.394618 kJ/mol
# Density = 2.239747 g / cm^3
# Si number density = 22.448561 Si / 1000 Ang^3
#
#
#
# Elastic Constant Matrix: (Units=GPa)
#
#
# Indices 1 2 3 4 5 6 
#
# 1 177.7741 49.7131 46.4724 5.1245 8.8827 9.2484
# 2 49.7131 96.5470 33.5816 10.8774 -2.2825 7.9022
# 3 46.4724 33.5816 63.0737 0.7175 -5.9495 7.0362
# 4 5.1245 10.8774 0.7175 35.8521 1.1307 -2.5674
# 5 8.8827 -2.2825 -5.9495 1.1307 19.9444 -4.3293
# 6 9.2484 7.9022 7.0362 -2.5674 -4.3293 55.2268
#
#
#
# Elastic Compliance Matrix: (Units=1/GPa)
#
#
# Indices 1 2 3 4 5 6 
#
# 1 0.007913 -0.002383 -0.004985 -0.000193 -0.005444 -0.000785
# 2 -0.002383 0.014032 -0.005459 -0.003913 0.001041 -0.001013
# 3 -0.004985 -0.005459 0.023269 0.001596 0.008311 -0.000623
# 4 -0.000193 -0.003913 0.001596 0.029231 -0.001184 0.001655
# 5 -0.005444 0.001041 0.008311 -0.001184 0.056108 0.004047
# 6 -0.000785 -0.001013 -0.000623 0.001655 0.004047 0.018857
#
#
# Mechanical properties :
#
#
# Convention : Reuss Voigt Hill
#
# Bulk Modulus (GPa) = 51.12680 66.32546 58.72613
# Shear Modulus (GPa) = 27.53521 36.04650 31.79085
#
# Velocity S-wave (km/s) = 3.50607 4.01151 3.76728
# Velocity P-wave (km/s) = 6.26216 7.14605 6.71865
#
# Compressibility (1/GPa) = 0.01955922
#
# Stress axis : x y z
#
# Youngs Moduli (GPa) = 126.37171 71.26513 42.97494
#
# Poissons Ratio (x) = 0.16985 0.21424
# Poissons Ratio (y) = 0.30119 0.23461
# Poissons Ratio (z) = 0.62999 0.38905
#
# Static dielectric constant tensor:
#      x y z
#    x 4.352610 -0.233160 0.362040 
#    y -0.233160 4.177830 0.481590 
#    z 0.362040 0.481590 3.135500 
# 
# 
# High freq. dielectric constant tensor:
#      x y z
#    x 1.906290 -0.003900 0.002450 
#    y -0.003900 1.898000 0.009500 
#    z 0.002450 0.009500 1.857590 
# 
# From -- ./inp_files/471650.got.cif
#   From: 2010.06.25/outbox.cif.g09.slc.cpg/sg2_236_cif.got.tgz:471650.got - 2010.06.27 13:26:56.
