data_PCOD8027054
_publ_section_title
;
Structure prediction by ZEFSAII (Michael W. Deem and Ramdas Pophale) SiO2 
 PCOD8027054
Probable space group: P -1
;
_chemical_formula_sum "Si O2"
_cell_formula_units_Z 16
_cell_length_a 6.407561
_cell_length_b 16.319425
_cell_length_c 7.756196
_cell_angle_alpha 102.462453
_cell_angle_beta 61.732671
_cell_angle_gamma 96.405084
_cell_volume 697.455684
_symmetry_space_group_name_H-M "P -1"
_symmetry_group_IT_number 2
_symmetry_cell_setting 'triclinic'
loop_
_space_group_symop_operation_xyz
x,y,z
-x,-y,-z
loop_
_atom_site_type_symbol
_atom_site_label
_atom_site_fract_x
_atom_site_fract_y
_atom_site_fract_z
Si Si1 0.415090 0.013912 0.795816
Si Si2 0.783432 0.585143 0.781766
Si Si3 0.134790 0.603649 0.339329
Si Si4 0.290434 0.118161 0.190463
Si Si5 0.769072 0.096326 0.467598
Si Si6 0.950447 0.673293 0.098853
Si Si7 0.547809 0.289828 0.187297
Si Si8 0.527114 0.267636 0.577070
O O1 0.648273 0.070213 0.683111
O O2 0.499601 0.930166 0.819513
O O3 0.261157 0.985102 0.679840
O O4 0.246000 0.072078 0.004209
O O5 0.736050 0.485683 0.756976
O O6 0.535852 0.629183 0.851726
O O7 0.966733 0.611244 0.573389
O O8 0.883808 0.612613 0.939644
O O9 0.333582 0.675814 0.313041
O O10 0.988385 0.616295 0.227224
O O11 0.373649 0.213202 0.171325
O O12 0.046285 0.117651 0.394474
O O13 0.633953 0.175510 0.477570
O O14 0.742640 0.738941 0.252245
O O15 0.183182 0.728017 0.983933
O O16 0.536846 0.309540 0.403709
#
# Coordination Sequence:
#
# PCOD8027054 Si02
#       8
#     2   2   2   2   2   2   2   2
#     4  10  24  44  66 104 130 178 228 282 348 408
#     4  11  25  47  74 104 140 185 236 291 348 411
#     4  11  25  47  74 104 140 185 236 291 348 411
#     4  11  24  44  70  98 138 177 228 285 342 410
#     4  11  24  44  70  98 138 177 228 285 342 410
#     4  12  27  46  72 102 140 192 234 284 350 412
#     4  12  26  45  70 104 143 186 232 287 347 418
#     4  12  26  45  70 104 143 186 232 287 347 418
#
# _framework density 22.940525000000001
#
# number of rings (size 3 to 8) (size 9 to 14) (size 15 to 20)
#    0.000    0.750    3.750    2.625    3.500    3.500 
#    9.000    0.000    0.000    0.000    0.000    0.000 
#    0.000    0.000    0.000    0.000    0.000    0.000 
#
# Total GULP energy -198482.945771 kJ/mol
# GULP energy per Si atom -12405.184111 kJ/mol
# Density = 2.288831 g / cm^3
# Si number density = 22.940525 Si / 1000 Ang^3
#
#
#
# Elastic Constant Matrix: (Units=GPa)
#
#
# Indices 1 2 3 4 5 6 
#
# 1 81.2574 20.7953 40.7384 10.4665 3.1679 1.1894
# 2 20.7953 79.0703 21.5568 10.5405 5.0776 3.9237
# 3 40.7384 21.5568 109.7485 0.1679 -2.8211 1.4495
# 4 10.4665 10.5405 0.1679 26.3172 -1.8798 -1.1596
# 5 3.1679 5.0776 -2.8211 -1.8798 53.6076 -7.9721
# 6 1.1894 3.9237 1.4495 -1.1596 -7.9721 32.8942
#
#
#
# Elastic Compliance Matrix: (Units=1/GPa)
#
#
# Indices 1 2 3 4 5 6 
#
# 1 0.016506 -0.001852 -0.005782 -0.005916 -0.001412 -0.000672
# 2 -0.001852 0.014686 -0.002209 -0.005367 -0.001919 -0.002242
# 3 -0.005782 -0.002209 0.011716 0.003222 0.001339 0.000394
# 4 -0.005916 -0.005367 0.003222 0.042822 0.002966 0.002941
# 5 -0.001412 -0.001919 0.001339 0.002966 0.019858 0.005138
# 6 -0.000672 -0.002242 0.000394 0.002941 0.005138 0.032024
#
#
# Mechanical properties :
#
#
# Convention : Reuss Voigt Hill
#
# Bulk Modulus (GPa) = 43.05995 48.47303 45.76649
# Shear Modulus (GPa) = 30.29615 35.02950 32.66282
#
# Velocity S-wave (km/s) = 3.63800 3.91189 3.77743
# Velocity P-wave (km/s) = 6.03803 6.44822 6.24649
#
# Compressibility (1/GPa) = 0.02322344
#
# Stress axis : x y z
#
# Youngs Moduli (GPa) = 60.58369 68.09098 85.35371
#
# Poissons Ratio (x) = 0.12612 0.49348
# Poissons Ratio (y) = 0.11221 0.18852
# Poissons Ratio (z) = 0.35027 0.15039
#
# Static dielectric constant tensor:
#      x y z
#    x 3.988700 -0.037300 0.023520 
#    y -0.037300 3.924850 -0.007710 
#    z 0.023520 -0.007710 4.379730 
# 
# 
# High freq. dielectric constant tensor:
#      x y z
#    x 1.900830 -0.001030 0.002110 
#    y -0.001030 1.898740 -0.000850 
#    z 0.002110 -0.000850 1.926410 
# 
# From -- ./inp_files/137787.got.cif
#   From: 2010.06.25/outbox.cif.g09.slc.cpg/sg2_69_cif.got.tgz:137787.got - 2010.06.27 13:26:56.
