data_PCOD8027676
_publ_section_title
;
Structure prediction by ZEFSAII (Michael W. Deem and Ramdas Pophale) SiO2 
 PCOD8027676
Probable space group: P -1
;
_chemical_formula_sum "Si O2"
_cell_formula_units_Z 16
_cell_length_a 17.101074
_cell_length_b 8.358763
_cell_length_c 12.338066
_cell_angle_alpha 147.568748
_cell_angle_beta 129.770370
_cell_angle_gamma 60.917310
_cell_volume 720.738711
_symmetry_space_group_name_H-M "P -1"
_symmetry_group_IT_number 2
_symmetry_cell_setting 'triclinic'
loop_
_space_group_symop_operation_xyz
x,y,z
-x,-y,-z
loop_
_atom_site_type_symbol
_atom_site_label
_atom_site_fract_x
_atom_site_fract_y
_atom_site_fract_z
Si Si1 0.559978 0.386151 0.885826
Si Si2 0.908238 0.065455 0.385009
Si Si3 0.651728 0.417291 0.592406
Si Si4 0.527468 0.698049 0.471064
Si Si5 0.239803 0.137409 0.686279
Si Si6 0.814026 0.934426 0.014755
Si Si7 0.116878 0.413070 0.563437
Si Si8 0.902447 0.755576 0.771936
O O1 0.488776 0.402117 0.725362
O O2 0.583515 0.042584 0.726109
O O3 0.500000 0.500000 0.000000
O O4 0.666817 0.595847 0.081477
O O5 0.930126 0.422253 0.603109
O O6 0.799755 0.933011 0.267325
O O7 0.905549 0.926360 0.180928
O O8 0.000000 0.000000 0.500000
O O9 0.591114 0.460071 0.450769
O O10 0.580338 0.309834 0.568175
O O11 0.727880 0.170019 0.506877
O O12 0.712512 0.742924 0.862542
O O13 0.140299 0.223230 0.580974
O O14 0.801289 0.283219 0.187011
O O15 0.832221 0.791509 0.832790
O O16 0.147849 0.214229 0.374328
O O17 0.000000 0.500000 0.500000
O O18 0.000000 0.000000 0.000000
#
# Coordination Sequence:
#
# PCOD8027676 Si02
#       8
#     2   2   2   2   2   2   2   2
#     4  11  23  45  71 104 133 179 220 274 336 414
#     4  11  26  43  65  94 134 175 222 281 331 387
#     4  11  23  45  68 101 130 181 218 283 336 399
#     4  10  24  46  70  94 144 171 221 272 345 401
#     4  12  24  44  69 102 136 174 231 277 335 398
#     4  11  23  44  64  91 131 172 224 264 337 398
#     4  11  24  44  66  93 134 179 225 277 333 396
#     4  11  23  41  64  89 123 174 220 266 326 393
#
# _framework density 22.199445000000001
#
# number of rings (size 3 to 8) (size 9 to 14) (size 15 to 20)
#    0.000    1.000    3.750    3.000    0.000    3.000 
#    4.500    0.000    0.000    0.000    0.000    0.000 
#    0.000    0.000    0.000    0.000    0.000    0.000 
#
# Total GULP energy -198265.852470 kJ/mol
# GULP energy per Si atom -12391.615779 kJ/mol
# Density = 2.214892 g / cm^3
# Si number density = 22.199445 Si / 1000 Ang^3
#
#
#
# Elastic Constant Matrix: (Units=GPa)
#
#
# Indices 1 2 3 4 5 6 
#
# 1 95.6914 25.9075 48.9880 4.3068 1.0307 19.9201
# 2 25.9075 98.6504 33.3101 -4.5696 -6.3991 9.2916
# 3 48.9880 33.3101 128.7993 2.8039 -6.9348 16.6085
# 4 4.3068 -4.5696 2.8039 33.3096 19.5962 2.1856
# 5 1.0307 -6.3991 -6.9348 19.5962 49.6731 0.5702
# 6 19.9201 9.2916 16.6085 2.1856 0.5702 35.7961
#
#
#
# Elastic Compliance Matrix: (Units=1/GPa)
#
#
# Indices 1 2 3 4 5 6 
#
# 1 0.014336 -0.001900 -0.004276 -0.000996 -0.000684 -0.005429
# 2 -0.001900 0.011577 -0.002142 0.001761 0.000549 -0.001070
# 3 -0.004276 -0.002142 0.010312 -0.001616 0.001910 -0.001781
# 4 -0.000996 0.001761 -0.001616 0.039840 -0.015680 -0.001336
# 5 -0.000684 0.000549 0.001910 -0.015680 0.026670 -0.000116
# 6 -0.005429 -0.001070 -0.001781 -0.001336 -0.000116 0.032144
#
#
# Mechanical properties :
#
#
# Convention : Reuss Voigt Hill
#
# Bulk Modulus (GPa) = 51.05137 59.95024 55.50080
# Shear Modulus (GPa) = 31.63618 38.08480 34.86049
#
# Velocity S-wave (km/s) = 3.77913 4.14644 3.96704
# Velocity P-wave (km/s) = 6.48761 7.07021 6.78517
#
# Compressibility (1/GPa) = 0.01958811
#
# Stress axis : x y z
#
# Youngs Moduli (GPa) = 69.75305 86.37707 96.97292
#
# Poissons Ratio (x) = 0.16413 0.41470
# Poissons Ratio (y) = 0.13254 0.20773
# Poissons Ratio (z) = 0.29829 0.18503
#
# Static dielectric constant tensor:
#      x y z
#    x 4.263190 0.551570 -0.150480 
#    y 0.551570 4.215950 -0.329890 
#    z -0.150480 -0.329890 4.794610 
# 
# 
# High freq. dielectric constant tensor:
#      x y z
#    x 1.876960 0.035170 0.009730 
#    y 0.035170 1.873520 0.000160 
#    z 0.009730 0.000160 1.886230 
# 
# From -- ./inp_files/462635.got.cif
#   From: 2010.06.25/outbox.cif.g09.slc.cpg/sg2_232_cif.got.tgz:462635.got - 2010.06.27 13:26:56.
