data_PCOD8027533
_publ_section_title
;
Structure prediction by ZEFSAII (Michael W. Deem and Ramdas Pophale) SiO2 
 PCOD8027533
Probable space group: P -1
;
_chemical_formula_sum "Si O2"
_cell_formula_units_Z 12
_cell_length_a 6.642559
_cell_length_b 11.737883
_cell_length_c 8.441773
_cell_angle_alpha 101.848676
_cell_angle_beta 72.902157
_cell_angle_gamma 127.050048
_cell_volume 501.757156
_symmetry_space_group_name_H-M "P -1"
_symmetry_group_IT_number 2
_symmetry_cell_setting 'triclinic'
loop_
_space_group_symop_operation_xyz
x,y,z
-x,-y,-z
loop_
_atom_site_type_symbol
_atom_site_label
_atom_site_fract_x
_atom_site_fract_y
_atom_site_fract_z
Si Si1 0.195946 0.245660 0.150877
Si Si2 0.313919 0.857859 0.598744
Si Si3 0.636304 0.943994 0.848975
Si Si4 0.093168 0.249425 0.816441
Si Si5 0.633903 0.479242 0.654769
Si Si6 0.966538 0.392021 0.650910
O O1 0.326763 0.160455 0.084781
O O2 0.392045 0.399441 0.232039
O O3 0.933678 0.149169 0.284875
O O4 0.131767 0.273555 0.000496
O O5 0.467443 0.854422 0.711459
O O6 0.221521 0.725101 0.470057
O O7 0.500000 0.000000 0.500000
O O8 0.915215 0.081901 0.767416
O O9 0.500000 0.000000 0.000000
O O10 0.365872 0.322989 0.683752
O O11 0.955087 0.322353 0.801407
O O12 0.854216 0.486411 0.716125
O O13 0.737194 0.515801 0.458996
#
# Coordination Sequence:
#
# PCOD8027533 Si02
#       6
#     2   2   2   2   2   2
#     4  11  27  45  69 104 137 181 231 280 340 407
#     4  11  24  44  68 102 136 178 227 279 342 404
#     4  12  27  46  70 102 139 179 228 289 338 403
#     4  12  24  42  75  98 137 181 227 282 338 404
#     4  10  25  46  67 102 139 181 226 281 335 412
#     4  10  24  45  71 100 140 177 227 280 343 401
#
# _framework density 23.915952999999998
#
# number of rings (size 3 to 8) (size 9 to 14) (size 15 to 20)
#    0.000    1.000    3.333    1.500    4.667    8.000 
#    0.000    0.000    0.000    0.000    0.000    0.000 
#    0.000    0.000    0.000    0.000    0.000    0.000 
#
# Total GULP energy -148816.429866 kJ/mol
# GULP energy per Si atom -12401.369156 kJ/mol
# Density = 2.386152 g / cm^3
# Si number density = 23.915953 Si / 1000 Ang^3
#
#
#
# Elastic Constant Matrix: (Units=GPa)
#
#
# Indices 1 2 3 4 5 6 
#
# 1 93.1887 51.6827 53.0736 -0.3822 9.3633 -15.3765
# 2 51.6827 119.7837 42.3395 -15.8894 -12.2461 4.7257
# 3 53.0736 42.3395 92.5803 -10.2989 14.7273 -7.6896
# 4 -0.3822 -15.8894 -10.2989 33.8551 -2.6184 -1.5947
# 5 9.3633 -12.2461 14.7273 -2.6184 46.6445 -9.3433
# 6 -15.3765 4.7257 -7.6896 -1.5947 -9.3433 60.6856
#
#
#
# Elastic Compliance Matrix: (Units=1/GPa)
#
#
# Indices 1 2 3 4 5 6 
#
# 1 0.020235 -0.007008 -0.008234 -0.005592 -0.002804 0.004051
# 2 -0.007008 0.013801 -0.002737 0.005913 0.005796 -0.002150
# 3 -0.008234 -0.002737 0.017892 0.003704 -0.004549 -0.000209
# 4 -0.005592 0.005913 0.003704 0.033639 0.003393 -0.000002
# 5 -0.002804 0.005796 -0.004549 0.003393 0.025609 0.002294
# 6 0.004051 -0.002150 -0.000209 -0.000002 0.002294 0.017999
#
#
# Mechanical properties :
#
#
# Convention : Reuss Voigt Hill
#
# Bulk Modulus (GPa) = 62.62199 66.63825 64.63012
# Shear Modulus (GPa) = 29.33304 38.80082 34.06693
#
# Velocity S-wave (km/s) = 3.50595 4.03225 3.77827
# Velocity P-wave (km/s) = 6.52916 7.04292 6.79090
#
# Compressibility (1/GPa) = 0.01596883
#
# Stress axis : x y z
#
# Youngs Moduli (GPa) = 49.42014 72.45728 55.89166
#
# Poissons Ratio (x) = 0.50780 0.46023
# Poissons Ratio (y) = 0.34635 0.15296
# Poissons Ratio (z) = 0.40694 0.19830
#
# Static dielectric constant tensor:
#      x y z
#    x 4.447840 0.208650 0.055330 
#    y 0.208650 4.603140 -0.255290 
#    z 0.055330 -0.255290 4.089310 
# 
# 
# High freq. dielectric constant tensor:
#      x y z
#    x 1.958880 0.005950 0.010060 
#    y 0.005950 1.958060 -0.017470 
#    z 0.010060 -0.017470 1.931910 
# 
# From -- ./inp_files/26097.got.cif
#   From: 2010.06.25/outbox.cif.g09.slc.cpg/sg2_14_cif.got.tgz:26097.got - 2010.06.27 13:26:56.
