data_PCOD8027781
_publ_section_title
;
Structure prediction by ZEFSAII (Michael W. Deem and Ramdas Pophale) SiO2 
 PCOD8027781
Probable space group: P -1
;
_chemical_formula_sum "Si O2"
_cell_formula_units_Z 16
_cell_length_a 14.074573
_cell_length_b 15.294316
_cell_length_c 13.243285
_cell_angle_alpha 128.626722
_cell_angle_beta 144.328159
_cell_angle_gamma 26.423102
_cell_volume 678.670678
_symmetry_space_group_name_H-M "P -1"
_symmetry_group_IT_number 2
_symmetry_cell_setting 'triclinic'
loop_
_space_group_symop_operation_xyz
x,y,z
-x,-y,-z
loop_
_atom_site_type_symbol
_atom_site_label
_atom_site_fract_x
_atom_site_fract_y
_atom_site_fract_z
Si Si1 0.718496 0.070243 0.601300
Si Si2 0.221182 0.534184 0.009184
Si Si3 0.465503 0.575959 0.369244
Si Si4 0.599266 0.800198 0.998389
Si Si5 0.503992 0.010686 0.744036
Si Si6 0.402471 0.676458 0.003533
Si Si7 0.006617 0.750702 0.263611
Si Si8 0.365072 0.265071 0.635850
O O1 0.628527 0.240594 0.594972
O O2 0.698694 0.985028 0.437147
O O3 0.461716 0.184567 0.545632
O O4 0.063886 0.875202 0.803884
O O5 0.306653 0.383435 0.049179
O O6 0.864102 0.769737 0.884129
O O7 0.429962 0.524312 0.199817
O O8 0.326034 0.436610 0.917805
O O9 0.239679 0.641686 0.297011
O O10 0.817446 0.357406 0.555076
O O11 0.851128 0.719511 0.089982
O O12 0.583303 0.869387 0.144630
O O13 0.270468 0.995687 0.795688
O O14 0.448814 0.113203 0.669472
O O15 0.500000 0.500000 0.000000
O O16 0.418141 0.754920 0.165000
O O17 0.000000 0.500000 0.500000
#
# Coordination Sequence:
#
# PCOD8027781 Si02
#       8
#     2   2   2   2   2   2   2   2
#     4  12  26  44  71 105 141 184 229 283 344 413
#     4  12  24  44  74  99 142 184 226 288 345 408
#     4  11  24  45  69 102 140 177 231 288 351 402
#     4  11  24  47  71 101 136 183 235 282 347 404
#     4  12  25  46  70 104 142 181 233 280 338 415
#     4  12  24  42  67 105 142 183 229 280 346 407
#     4  10  24  47  67 100 137 178 236 288 342 412
#     4  12  25  45  72 103 142 183 231 278 339 417
#
# _framework density 23.575499000000001
#
# number of rings (size 3 to 8) (size 9 to 14) (size 15 to 20)
#    0.000    0.500    2.500    6.000    3.500    1.000 
#    9.000    0.000    0.000    0.000    0.000    0.000 
#    0.000    0.000    0.000    0.000    0.000    0.000 
#
# Total GULP energy -198399.048377 kJ/mol
# GULP energy per Si atom -12399.940524 kJ/mol
# Density = 2.352184 g / cm^3
# Si number density = 23.575499 Si / 1000 Ang^3
#
#
#
# Elastic Constant Matrix: (Units=GPa)
#
#
# Indices 1 2 3 4 5 6 
#
# 1 85.6773 39.9789 3.5104 -9.9936 8.6600 18.8451
# 2 39.9789 140.3955 61.2940 -8.5688 2.6396 41.0793
# 3 3.5104 61.2940 134.1179 -15.0055 -4.1172 4.5067
# 4 -9.9936 -8.5688 -15.0055 50.2353 1.4286 1.5516
# 5 8.6600 2.6396 -4.1172 1.4286 29.6815 -7.0509
# 6 18.8451 41.0793 4.5067 1.5516 -7.0509 45.1947
#
#
#
# Elastic Compliance Matrix: (Units=1/GPa)
#
#
# Indices 1 2 3 4 5 6 
#
# 1 0.014996 -0.003419 0.001506 0.003121 -0.005006 -0.004184
# 2 -0.003419 0.014224 -0.006099 0.000390 -0.003867 -0.011511
# 3 0.001506 -0.006099 0.010380 0.002161 0.002433 0.004186
# 4 0.003121 0.000390 0.002161 0.021399 -0.002383 -0.002978
# 5 -0.005006 -0.003867 0.002433 -0.002383 0.038674 0.011475
# 6 -0.004184 -0.011511 0.004186 -0.002978 0.011475 0.035809
#
#
# Mechanical properties :
#
#
# Convention : Reuss Voigt Hill
#
# Bulk Modulus (GPa) = 42.41730 63.30638 52.86184
# Shear Modulus (GPa) = 31.37466 42.04945 36.71205
#
# Velocity S-wave (km/s) = 3.65199 4.22786 3.95043
# Velocity P-wave (km/s) = 5.98447 7.12348 6.57867
#
# Compressibility (1/GPa) = 0.02357528
#
# Stress axis : x y z
#
# Youngs Moduli (GPa) = 66.68592 70.30427 96.33874
#
# Poissons Ratio (x) = 0.24037 -0.14510
# Poissons Ratio (y) = 0.22800 0.58760
# Poissons Ratio (z) = -0.10044 0.42881
#
# Static dielectric constant tensor:
#      x y z
#    x 4.230200 0.011270 0.063130 
#    y 0.011270 4.140390 0.113670 
#    z 0.063130 0.113670 4.495010 
# 
# 
# High freq. dielectric constant tensor:
#      x y z
#    x 1.942220 0.010140 0.003610 
#    y 0.010140 1.939870 -0.008310 
#    z 0.003610 -0.008310 1.946180 
# 
# From -- ./inp_files/135397.got.cif
#   From: 2010.06.25/outbox.cif.g09.slc.cpg/sg2_68_cif.got.tgz:135397.got - 2010.06.27 13:26:56.
