data_PCOD8027793
_publ_section_title
;
Structure prediction by ZEFSAII (Michael W. Deem and Ramdas Pophale) SiO2 
 PCOD8027793
Probable space group: P -1
;
_chemical_formula_sum "Si O2"
_cell_formula_units_Z 12
_cell_length_a 13.486579
_cell_length_b 5.183365
_cell_length_c 8.971739
_cell_angle_alpha 124.665024
_cell_angle_beta 69.786580
_cell_angle_gamma 109.151405
_cell_volume 476.995816
_symmetry_space_group_name_H-M "P -1"
_symmetry_group_IT_number 2
_symmetry_cell_setting 'triclinic'
loop_
_space_group_symop_operation_xyz
x,y,z
-x,-y,-z
loop_
_atom_site_type_symbol
_atom_site_label
_atom_site_fract_x
_atom_site_fract_y
_atom_site_fract_z
Si Si1 0.332624 0.001872 0.364973
Si Si2 0.450780 0.443041 0.216899
Si Si3 0.769596 0.480560 0.281294
Si Si4 0.815763 0.443697 0.908648
Si Si5 0.357903 0.159790 0.883043
Si Si6 0.018501 0.378411 0.612974
O O1 0.427513 0.253094 0.320785
O O2 0.272224 0.182146 0.578951
O O3 0.377632 0.717606 0.329003
O O4 0.248048 0.879583 0.237739
O O5 0.575664 0.615335 0.205061
O O6 0.430216 0.194978 0.007366
O O7 0.861213 0.472771 0.354027
O O8 0.668115 0.203465 0.277114
O O9 0.818964 0.419800 0.076508
O O10 0.936918 0.512447 0.810403
O O11 0.755341 0.731567 0.988237
O O12 0.000000 0.500000 0.500000
O O13 0.000000 0.000000 0.500000
#
# Coordination Sequence:
#
# PCOD8027793 Si02
#       6
#     2   2   2   2   2   2
#     4  11  25  44  76 101 157 190 246 292 367 420
#     4  10  24  47  68 110 151 199 232 307 350 434
#     4  12  27  46  78 111 142 198 249 299 368 441
#     4  11  26  49  74 109 148 192 245 309 365 434
#     4  10  25  42  77 104 151 191 252 286 372 422
#     4  12  30  51  79 106 147 192 243 307 379 434
#
# _framework density 25.157454999999999
#
# number of rings (size 3 to 8) (size 9 to 14) (size 15 to 20)
#    0.000    1.000    3.333    0.500   14.000    4.000 
#    0.000    0.000    0.000    0.000    0.000    0.000 
#    0.000    0.000    0.000    0.000    0.000    0.000 
#
# Total GULP energy -148860.383584 kJ/mol
# GULP energy per Si atom -12405.031965 kJ/mol
# Density = 2.510020 g / cm^3
# Si number density = 25.157455 Si / 1000 Ang^3
#
#
#
# Elastic Constant Matrix: (Units=GPa)
#
#
# Indices 1 2 3 4 5 6 
#
# 1 73.2179 11.2234 31.6561 18.4126 3.7991 12.0860
# 2 11.2234 96.9710 32.2463 8.8323 14.0531 6.1631
# 3 31.6561 32.2463 115.9016 18.8192 -1.6160 12.9843
# 4 18.4126 8.8323 18.8192 42.0204 1.6633 1.1920
# 5 3.7991 14.0531 -1.6160 1.6633 42.0219 -3.1301
# 6 12.0860 6.1631 12.9843 1.1920 -3.1301 34.1186
#
#
#
# Elastic Compliance Matrix: (Units=1/GPa)
#
#
# Indices 1 2 3 4 5 6 
#
# 1 0.017489 0.000223 -0.003339 -0.005999 -0.001914 -0.004931
# 2 0.000223 0.012144 -0.003175 -0.001019 -0.004269 -0.001421
# 3 -0.003339 -0.003175 0.011164 -0.002875 0.001740 -0.002232
# 4 -0.005999 -0.001019 -0.002875 0.027866 -0.000150 0.002416
# 5 -0.001914 -0.004269 0.001740 -0.000150 0.025705 0.003150
# 6 -0.004931 -0.001421 -0.002232 0.002416 0.003150 0.032367
#
#
# Mechanical properties :
#
#
# Convention : Reuss Voigt Hill
#
# Bulk Modulus (GPa) = 35.43952 48.48244 41.96098
# Shear Modulus (GPa) = 33.61964 37.69649 35.65807
#
# Velocity S-wave (km/s) = 3.65960 3.87515 3.76892
# Velocity P-wave (km/s) = 5.65461 6.27182 5.97120
#
# Compressibility (1/GPa) = 0.02821709
#
# Stress axis : x y z
#
# Youngs Moduli (GPa) = 57.17793 82.34539 89.56977
#
# Poissons Ratio (x) = -0.01840 0.29909
# Poissons Ratio (y) = -0.01277 0.28435
# Poissons Ratio (z) = 0.19093 0.26141
#
# Static dielectric constant tensor:
#      x y z
#    x 4.515800 0.204420 -0.082920 
#    y 0.204420 4.482470 0.211810 
#    z -0.082920 0.211810 4.639450 
# 
# 
# High freq. dielectric constant tensor:
#      x y z
#    x 2.004810 0.002570 -0.003520 
#    y 0.002570 1.996720 0.009500 
#    z -0.003520 0.009500 2.010720 
# 
# From -- ./inp_files/33467.got.cif
#   From: 2010.06.25/outbox.cif.g09.slc.cpg/sg2_17_cif.got.tgz:33467.got - 2010.06.27 13:26:56.
