data_PCOD8027291
_publ_section_title
;
Structure prediction by ZEFSAII (Michael W. Deem and Ramdas Pophale) SiO2 
 PCOD8027291
Probable space group: P -1
;
_chemical_formula_sum "Si O2"
_cell_formula_units_Z 16
_cell_length_a 15.710182
_cell_length_b 8.476762
_cell_length_c 9.208247
_cell_angle_alpha 89.252601
_cell_angle_beta 36.174524
_cell_angle_gamma 83.072283
_cell_volume 711.042004
_symmetry_space_group_name_H-M "P -1"
_symmetry_group_IT_number 2
_symmetry_cell_setting 'triclinic'
loop_
_space_group_symop_operation_xyz
x,y,z
-x,-y,-z
loop_
_atom_site_type_symbol
_atom_site_label
_atom_site_fract_x
_atom_site_fract_y
_atom_site_fract_z
Si Si1 0.363840 0.336152 0.932191
Si Si2 0.865074 0.459301 0.272480
Si Si3 0.625992 0.290940 0.046824
Si Si4 0.905115 0.621323 0.516399
Si Si5 0.604247 0.610627 0.425195
Si Si6 0.403543 0.878830 0.202696
Si Si7 0.072822 0.898904 0.270581
Si Si8 0.914029 0.085330 0.251556
O O1 0.357935 0.524070 0.970606
O O2 0.335276 0.306594 0.799613
O O3 0.515004 0.222719 0.773725
O O4 0.234720 0.283590 0.204380
O O5 0.849611 0.539001 0.451942
O O6 0.727967 0.508789 0.355059
O O7 0.880754 0.273085 0.277433
O O8 0.000000 0.500000 0.000000
O O9 0.488904 0.262916 0.335832
O O10 0.611849 0.249685 0.899003
O O11 0.757895 0.167448 0.936776
O O12 0.000000 0.500000 0.500000
O O13 0.998667 0.748808 0.330624
O O14 0.500000 0.500000 0.500000
O O15 0.241721 0.966370 0.484106
O O16 0.500000 0.000000 0.000000
O O17 0.000000 0.000000 0.500000
O O18 0.044439 0.033080 0.185765
O O19 0.000000 0.000000 0.000000
#
# Coordination Sequence:
#
# PCOD8027291 Si02
#       8
#     2   2   2   2   2   2   2   2
#     4  11  23  42  76  99 138 183 245 296 360 430
#     4  12  26  47  75 112 145 191 255 307 368 444
#     4  11  23  45  71  99 141 189 239 295 362 435
#     4  12  23  43  73 106 141 186 247 306 359 435
#     4  10  24  44  72 104 139 184 242 299 359 424
#     4  12  26  48  70 106 146 193 244 299 371 448
#     4  12  25  45  69 104 144 190 236 297 377 440
#     4  12  27  44  72 104 150 192 236 305 378 438
#
# _framework density 22.502188
#
# number of rings (size 3 to 8) (size 9 to 14) (size 15 to 20)
#    0.000    0.500    2.500    6.375    7.000    1.000 
#    0.000    0.625    0.000    0.000    0.000    0.000 
#    0.000    0.000    0.000    0.000    0.000    0.000 
#
# Total GULP energy -198288.252647 kJ/mol
# GULP energy per Si atom -12393.015790 kJ/mol
# Density = 2.245097 g / cm^3
# Si number density = 22.502188 Si / 1000 Ang^3
#
#
#
# Elastic Constant Matrix: (Units=GPa)
#
#
# Indices 1 2 3 4 5 6 
#
# 1 158.5995 58.9355 30.2101 6.9219 15.9085 -35.6669
# 2 58.9355 88.2115 40.9816 9.7963 -9.2885 -25.6990
# 3 30.2101 40.9816 133.8537 1.7107 18.5935 -6.6325
# 4 6.9219 9.7963 1.7107 33.8702 -1.4098 -3.7509
# 5 15.9085 -9.2885 18.5935 -1.4098 45.3593 2.8709
# 6 -35.6669 -25.6990 -6.6325 -3.7509 2.8709 45.4321
#
#
#
# Elastic Compliance Matrix: (Units=1/GPa)
#
#
# Indices 1 2 3 4 5 6 
#
# 1 0.010126 -0.006189 0.000597 0.000007 -0.005372 0.004876
# 2 -0.006189 0.021074 -0.005919 -0.003585 0.008461 0.005367
# 3 0.000597 -0.005919 0.009832 0.000755 -0.005362 -0.001043
# 4 0.000007 -0.003585 0.000755 0.030585 -0.000135 0.000621
# 5 -0.005372 0.008461 -0.005362 -0.000135 0.027983 -0.001994
# 6 0.004876 0.005367 -0.001043 0.000621 -0.001994 0.028900
#
#
# Mechanical properties :
#
#
# Convention : Reuss Voigt Hill
#
# Bulk Modulus (GPa) = 55.52231 71.21324 63.36777
# Shear Modulus (GPa) = 31.74105 41.63481 36.68793
#
# Velocity S-wave (km/s) = 3.75984 4.30613 4.04222
# Velocity P-wave (km/s) = 6.60123 7.51263 7.07163
#
# Compressibility (1/GPa) = 0.01801078
#
# Stress axis : x y z
#
# Youngs Moduli (GPa) = 98.75201 47.45243 101.71097
#
# Poissons Ratio (x) = 0.29367 -0.06073
# Poissons Ratio (y) = 0.61116 0.60201
# Poissons Ratio (z) = -0.05896 0.28086
#
# Static dielectric constant tensor:
#      x y z
#    x 4.595320 -0.172940 0.142840 
#    y -0.172940 4.132400 0.019540 
#    z 0.142840 0.019540 4.710860 
# 
# 
# High freq. dielectric constant tensor:
#      x y z
#    x 1.903240 -0.019840 0.005210 
#    y -0.019840 1.875400 0.004480 
#    z 0.005210 0.004480 1.909000 
# 
# From -- ./inp_files/298471.got.cif
#   From: 2010.06.25/outbox.cif.g09.slc.cpg/sg2_150_cif.got.tgz:298471.got - 2010.06.27 13:26:56.
