data_PCOD8027005
_publ_section_title
;
Structure prediction by ZEFSAII (Michael W. Deem and Ramdas Pophale) SiO2 
 PCOD8027005
Probable space group: P -1
;
_chemical_formula_sum "Si O2"
_cell_formula_units_Z 12
_cell_length_a 13.191189
_cell_length_b 15.856194
_cell_length_c 18.959557
_cell_angle_alpha 159.713873
_cell_angle_beta 24.955143
_cell_angle_gamma 152.886335
_cell_volume 558.313603
_symmetry_space_group_name_H-M "P -1"
_symmetry_group_IT_number 2
_symmetry_cell_setting 'triclinic'
loop_
_space_group_symop_operation_xyz
x,y,z
-x,-y,-z
loop_
_atom_site_type_symbol
_atom_site_label
_atom_site_fract_x
_atom_site_fract_y
_atom_site_fract_z
Si Si1 0.822500 0.456096 0.749535
Si Si2 0.568406 0.249638 0.944630
Si Si3 0.727258 0.347401 0.572852
Si Si4 0.105222 0.404382 0.660295
Si Si5 0.647374 0.884771 0.159710
Si Si6 0.500969 0.899647 0.841722
O O1 0.756293 0.278519 0.582603
O O2 0.589820 0.362819 0.875816
O O3 0.058104 0.431856 0.627405
O O4 0.875404 0.754532 0.925389
O O5 0.392329 0.042093 0.838828
O O6 0.859952 0.305929 0.785747
O O7 0.514236 0.135914 0.967426
O O8 0.478829 0.504843 0.196590
O O9 0.000000 0.500000 0.500000
O O10 0.644348 0.096387 0.382949
O O11 0.250759 0.675813 0.812413
O O12 0.261419 0.200203 0.405671
O O13 0.500000 0.000000 0.000000
#
# Coordination Sequence:
#
# PCOD8027005 Si02
#       6
#     2   2   2   2   2   2
#     4   9  20  38  62  88 123 167 202 252 315 370
#     4  10  24  44  63  94 129 169 206 260 323 370
#     4  11  24  34  62 101 128 164 205 253 315 381
#     4  10  24  44  66  90 127 168 209 265 315 371
#     4   9  20  39  61  90 126 164 203 250 312 382
#     4  11  26  42  67  94 120 164 221 266 313 372
#
# _framework density 21.493297999999999
#
# number of rings (size 3 to 8) (size 9 to 14) (size 15 to 20)
#    0.000    2.000    0.000    2.000    7.000    6.000 
#    0.000    0.000    0.000    0.000    0.000    0.000 
#    0.000    0.000    0.000    0.000    0.000    0.000 
#
# Total GULP energy -148702.664214 kJ/mol
# GULP energy per Si atom -12391.888684 kJ/mol
# Density = 2.144438 g / cm^3
# Si number density = 21.493298 Si / 1000 Ang^3
#
#
#
# Elastic Constant Matrix: (Units=GPa)
#
#
# Indices 1 2 3 4 5 6 
#
# 1 172.4683 34.1276 48.8651 16.6269 20.1609 -8.3699
# 2 34.1276 65.1432 23.0181 -5.9643 -0.0151 0.6670
# 3 48.8651 23.0181 95.8100 10.2512 24.6771 10.2885
# 4 16.6269 -5.9643 10.2512 30.5104 6.3237 2.6770
# 5 20.1609 -0.0151 24.6771 6.3237 39.6300 -0.2420
# 6 -8.3699 0.6670 10.2885 2.6770 -0.2420 32.3302
#
#
#
# Elastic Compliance Matrix: (Units=1/GPa)
#
#
# Indices 1 2 3 4 5 6 
#
# 1 0.008054 -0.003682 -0.002691 -0.004137 -0.001742 0.003347
# 2 -0.003682 0.019425 -0.004351 0.006575 0.003538 -0.000487
# 3 -0.002691 -0.004351 0.015802 -0.002533 -0.008102 -0.005487
# 4 -0.004137 0.006575 -0.002533 0.037976 -0.002397 -0.003563
# 5 -0.001742 0.003538 -0.008102 -0.002397 0.031564 0.002489
# 6 0.003347 -0.000487 -0.005487 -0.003563 0.002489 0.033867
#
#
# Mechanical properties :
#
#
# Convention : Reuss Voigt Hill
#
# Bulk Modulus (GPa) = 45.80362 60.60480 53.20421
# Shear Modulus (GPa) = 28.50380 35.65483 32.07932
#
# Velocity S-wave (km/s) = 3.64561 4.07736 3.86751
# Velocity P-wave (km/s) = 6.25121 7.10104 6.68963
#
# Compressibility (1/GPa) = 0.02183233
#
# Stress axis : x y z
#
# Youngs Moduli (GPa) = 124.15844 51.47972 63.28247
#
# Poissons Ratio (x) = 0.18955 0.17030
# Poissons Ratio (y) = 0.45716 0.27536
# Poissons Ratio (z) = 0.33413 0.22401
#
# Static dielectric constant tensor:
#      x y z
#    x 0.671710 -1.373800 -5.735260 
#    y -1.373800 3.474490 -1.836430 
#    z -5.735260 -1.836430 -4.409790 
# 
# 
# High freq. dielectric constant tensor:
#      x y z
#    x 1.861450 -0.001600 0.001980 
#    y -0.001600 1.842640 -0.007060 
#    z 0.001980 -0.007060 1.837520 
# 
# From -- ./inp_files/21208.got.cif
#   From: 2010.06.25/outbox.cif.g09.slc.cpg/sg2_11_cif.got.tgz:21208.got - 2010.06.27 13:26:56.
