data_PCOD8027827
_publ_section_title
;
Structure prediction by ZEFSAII (Michael W. Deem and Ramdas Pophale) SiO2 
 PCOD8027827
Probable space group: P -1
;
_chemical_formula_sum "Si O2"
_cell_formula_units_Z 14
_cell_length_a 7.532387
_cell_length_b 6.766915
_cell_length_c 16.917875
_cell_angle_alpha 57.120928
_cell_angle_beta 56.360247
_cell_angle_gamma 84.233942
_cell_volume 577.656392
_symmetry_space_group_name_H-M "P -1"
_symmetry_group_IT_number 2
_symmetry_cell_setting 'triclinic'
loop_
_space_group_symop_operation_xyz
x,y,z
-x,-y,-z
loop_
_atom_site_type_symbol
_atom_site_label
_atom_site_fract_x
_atom_site_fract_y
_atom_site_fract_z
Si Si1 0.308910 0.022056 0.597105
Si Si2 0.990967 0.970339 0.101530
Si Si3 0.814883 0.615691 0.553793
Si Si4 0.473772 0.154049 0.687479
Si Si5 0.018231 0.456542 0.182657
Si Si6 0.320152 0.437531 0.986714
Si Si7 0.686521 0.732394 0.731366
O O1 0.145854 0.132920 0.560804
O O2 0.411872 0.206500 0.602299
O O3 0.500000 0.000000 0.500000
O O4 0.214757 0.753107 0.718404
O O5 0.751583 0.996963 0.179943
O O6 0.002325 0.696703 0.180743
O O7 0.000000 0.000000 0.000000
O O8 0.200561 0.150851 0.057192
O O9 0.574372 0.421489 0.642050
O O10 0.810793 0.674339 0.635112
O O11 0.000000 0.500000 0.500000
O O12 0.661403 0.006836 0.674785
O O13 0.167539 0.310782 0.222670
O O14 0.117885 0.532615 0.052549
O O15 0.433635 0.558538 0.850540
O O16 0.500000 0.500000 0.000000
#
# Coordination Sequence:
#
# PCOD8027827 Si02
#       7
#     2   2   2   2   2   2   2
#     4  12  25  46  72 100 145 187 237 293 355 418
#     4  12  26  43  78 111 143 186 245 301 360 428
#     4  12  28  45  71 105 142 188 242 291 353 431
#     4  12  26  45  71 103 143 186 239 294 358 418
#     4  11  26  46  73 104 143 189 238 291 364 428
#     4  10  24  47  72 104 148 187 236 296 368 428
#     4  11  26  46  71 100 144 185 235 288 365 422
#
# _framework density 24.235861
#
# number of rings (size 3 to 8) (size 9 to 14) (size 15 to 20)
#    0.000    0.571    2.857    3.857    6.000    6.857 
#    0.000    0.000    0.000    0.000    0.000    0.000 
#    0.000    0.000    0.000    0.000    0.000    0.000 
#
# Total GULP energy -173463.455646 kJ/mol
# GULP energy per Si atom -12390.246832 kJ/mol
# Density = 2.418070 g / cm^3
# Si number density = 24.235861 Si / 1000 Ang^3
#
#
#
# Elastic Constant Matrix: (Units=GPa)
#
#
# Indices 1 2 3 4 5 6 
#
# 1 60.7093 25.6001 15.9823 6.6291 4.4133 4.6616
# 2 25.6001 122.5165 36.8736 8.9554 -1.2732 0.4521
# 3 15.9823 36.8736 109.3591 25.7452 0.7672 0.4171
# 4 6.6291 8.9554 25.7452 57.1555 4.3985 -8.5669
# 5 4.4133 -1.2732 0.7672 4.3985 34.5664 -0.4168
# 6 4.6616 0.4521 0.4171 -8.5669 -0.4168 47.0291
#
#
#
# Elastic Compliance Matrix: (Units=1/GPa)
#
#
# Indices 1 2 3 4 5 6 
#
# 1 0.018723 -0.003462 -0.001266 -0.001184 -0.002364 -0.002048
# 2 -0.003462 0.009730 -0.002811 0.000123 0.000851 0.000305
# 3 -0.001266 -0.002811 0.011381 -0.004689 0.000393 -0.000799
# 4 -0.001184 0.000123 -0.004689 0.020483 -0.002300 0.003869
# 5 -0.002364 0.000851 0.000393 -0.002300 0.029548 0.000066
# 6 -0.002048 0.000305 -0.000799 0.003869 0.000066 0.022176
#
#
# Mechanical properties :
#
#
# Convention : Reuss Voigt Hill
#
# Bulk Modulus (GPa) = 40.39208 49.94409 45.16809
# Shear Modulus (GPa) = 36.93531 42.02547 39.48039
#
# Velocity S-wave (km/s) = 3.90807 4.16867 4.04047
# Velocity P-wave (km/s) = 6.08822 6.61987 6.35961
#
# Compressibility (1/GPa) = 0.02475733
#
# Stress axis : x y z
#
# Youngs Moduli (GPa) = 53.40914 102.77225 87.86358
#
# Poissons Ratio (x) = 0.35577 0.11123
# Poissons Ratio (y) = 0.18489 0.24699
# Poissons Ratio (z) = 0.06762 0.28890
#
# Static dielectric constant tensor:
#      x y z
#    x 4.042440 0.131590 -0.482750 
#    y 0.131590 4.202390 0.375640 
#    z -0.482750 0.375640 4.540390 
# 
# 
# High freq. dielectric constant tensor:
#      x y z
#    x 1.954210 0.003820 -0.011550 
#    y 0.003820 1.967330 0.007900 
#    z -0.011550 0.007900 1.986720 
# 
# From -- ./inp_files/98680.got.cif
#   From: 2010.06.25/outbox.cif.g09.slc.cpg/sg2_50_cif.got.tgz:98680.got - 2010.06.27 13:26:56.
