data_PCOD8027913
_publ_section_title
;
Structure prediction by ZEFSAII (Michael W. Deem and Ramdas Pophale) SiO2 
 PCOD8027913
Probable space group: P -1
;
_chemical_formula_sum "Si O2"
_cell_formula_units_Z 14
_cell_length_a 18.507778
_cell_length_b 4.943271
_cell_length_c 6.147035
_cell_angle_alpha 90.989745
_cell_angle_beta 98.838896
_cell_angle_gamma 79.889284
_cell_volume 547.049992
_symmetry_space_group_name_H-M "P -1"
_symmetry_group_IT_number 2
_symmetry_cell_setting 'triclinic'
loop_
_space_group_symop_operation_xyz
x,y,z
-x,-y,-z
loop_
_atom_site_type_symbol
_atom_site_label
_atom_site_fract_x
_atom_site_fract_y
_atom_site_fract_z
Si Si1 0.768638 0.685177 0.004346
Si Si2 0.581164 0.685931 0.201759
Si Si3 0.413775 0.835251 0.083253
Si Si4 0.079504 0.488490 0.143475
Si Si5 0.322733 0.571223 0.384515
Si Si6 0.921255 0.004028 0.569952
Si Si7 0.772549 0.188316 0.284134
O O1 0.751828 0.498172 0.194237
O O2 0.744323 0.999047 0.081418
O O3 0.856871 0.626323 0.000154
O O4 0.725760 0.618279 0.769179
O O5 0.585348 0.378073 0.114941
O O6 0.622650 0.654795 0.451713
O O7 0.616998 0.863352 0.035455
O O8 0.496982 0.834948 0.209344
O O9 0.365560 0.758364 0.258462
O O10 0.086124 0.297669 0.356921
O O11 0.090122 0.790730 0.227309
O O12 0.000000 0.500000 0.000000
O O13 0.270418 0.803128 0.507086
O O14 0.859850 0.090470 0.358022
O O15 0.000000 0.000000 0.500000
#
# Coordination Sequence:
#
# PCOD8027913 Si02
#       7
#     2   2   2   2   2   2   2
#     4  12  28  48  71 108 152 196 251 313 369 454
#     4  10  24  48  77 111 148 195 253 308 372 457
#     4  10  24  48  77 111 148 195 253 308 372 457
#     4  12  24  46  74 105 144 194 249 311 371 438
#     4  12  27  48  76 112 156 200 252 306 402 434
#     4  12  24  46  74 105 144 194 249 311 371 438
#     4  12  28  48  71 108 152 196 251 313 369 454
#
# _framework density 25.591812000000001
#
# number of rings (size 3 to 8) (size 9 to 14) (size 15 to 20)
#    0.000    0.571    1.429    5.571    0.000    8.000 
#    0.000    4.286    0.000    2.571    0.000    0.000 
#    0.000    0.000    0.000    0.000    0.000    0.000 
#
# Total GULP energy -173722.288893 kJ/mol
# GULP energy per Si atom -12408.734921 kJ/mol
# Density = 2.553356 g / cm^3
# Si number density = 25.591812 Si / 1000 Ang^3
#
#
#
# Elastic Constant Matrix: (Units=GPa)
#
#
# Indices 1 2 3 4 5 6 
#
# 1 125.8294 32.6057 69.4103 -3.8443 4.9950 9.7952
# 2 32.6057 122.5616 43.8496 -9.2174 4.7884 1.0815
# 3 69.4103 43.8496 136.6412 -5.7263 12.7004 -0.2545
# 4 -3.8443 -9.2174 -5.7263 56.5921 -4.7232 0.1302
# 5 4.9950 4.7884 12.7004 -4.7232 59.7411 -4.4446
# 6 9.7952 1.0815 -0.2545 0.1302 -4.4446 32.2828
#
#
#
# Elastic Compliance Matrix: (Units=1/GPa)
#
#
# Indices 1 2 3 4 5 6 
#
# 1 0.011547 -0.001058 -0.005534 0.000064 0.000040 -0.003507
# 2 -0.001058 0.009401 -0.002424 0.001209 -0.000056 -0.000026
# 3 -0.005534 -0.002424 0.011064 0.000215 -0.001557 0.001632
# 4 0.000064 0.001209 0.000215 0.018000 0.001278 0.000045
# 5 0.000040 -0.000056 -0.001557 0.001278 0.017348 0.002361
# 6 -0.003507 -0.000026 0.001632 0.000045 0.002361 0.032379
#
#
# Mechanical properties :
#
#
# Convention : Reuss Voigt Hill
#
# Bulk Modulus (GPa) = 71.52260 75.19591 73.35926
# Shear Modulus (GPa) = 40.83957 45.66764 43.25360
#
# Velocity S-wave (km/s) = 3.99909 4.22887 4.11558
# Velocity P-wave (km/s) = 7.02366 7.30007 7.16320
#
# Compressibility (1/GPa) = 0.01398159
#
# Stress axis : x y z
#
# Youngs Moduli (GPa) = 86.60021 106.37034 90.38333
#
# Poissons Ratio (x) = 0.11254 0.50016
# Poissons Ratio (y) = 0.09162 0.21906
# Poissons Ratio (z) = 0.47923 0.25780
#
# Static dielectric constant tensor:
#      x y z
#    x 4.956720 -0.069970 0.066700 
#    y -0.069970 4.675860 -0.061230 
#    z 0.066700 -0.061230 4.469760 
# 
# 
# High freq. dielectric constant tensor:
#      x y z
#    x 2.052660 -0.004790 0.004710 
#    y -0.004790 2.029930 -0.004970 
#    z 0.004710 -0.004970 2.021410 
# 
# From -- ./inp_files/102858.got.cif
#   From: 2010.06.25/outbox.cif.g09.slc.cpg/sg2_52_cif.got.tgz:102858.got - 2010.06.27 13:26:56.
