data_PCOD8027546
_publ_section_title
;
Structure prediction by ZEFSAII (Michael W. Deem and Ramdas Pophale) SiO2 
 PCOD8027546
Probable space group: P -1
;
_chemical_formula_sum "Si O2"
_cell_formula_units_Z 14
_cell_length_a 8.537617
_cell_length_b 8.985019
_cell_length_c 20.566528
_cell_angle_alpha 123.986903
_cell_angle_beta 147.641034
_cell_angle_gamma 70.248881
_cell_volume 667.340653
_symmetry_space_group_name_H-M "P -1"
_symmetry_group_IT_number 2
_symmetry_cell_setting 'triclinic'
loop_
_space_group_symop_operation_xyz
x,y,z
-x,-y,-z
loop_
_atom_site_type_symbol
_atom_site_label
_atom_site_fract_x
_atom_site_fract_y
_atom_site_fract_z
Si Si1 0.772326 0.412276 0.073026
Si Si2 0.576191 0.569148 0.836912
Si Si3 0.588231 0.706038 0.552449
Si Si4 0.433263 0.660676 0.339941
Si Si5 0.270892 0.754781 0.114687
Si Si6 0.757201 0.197869 0.147248
Si Si7 0.330505 0.998573 0.590564
O O1 0.821766 0.315406 0.132599
O O2 0.065851 0.588564 0.201629
O O3 0.500000 0.500000 0.000000
O O4 0.701215 0.247220 0.953720
O O5 0.483979 0.499962 0.713534
O O6 0.561187 0.389842 0.832540
O O7 0.340075 0.675976 0.802151
O O8 0.917486 0.709944 0.999214
O O9 0.500000 0.500000 0.500000
O O10 0.597609 0.692709 0.474654
O O11 0.925662 0.831941 0.724770
O O12 0.333551 0.798864 0.512957
O O13 0.534655 0.855366 0.384298
O O14 0.448652 0.956726 0.257408
O O15 0.500000 0.000000 0.000000
O O16 0.000000 0.000000 0.500000
#
# Coordination Sequence:
#
# PCOD8027546 Si02
#       7
#     2   2   2   2   2   2   2
#     4  11  22  39  72  97 132 181 232 277 343 407
#     4   9  19  40  66  97 127 175 223 281 335 396
#     4  12  27  47  66 101 152 176 223 291 354 410
#     4  10  24  45  71  97 133 185 234 281 337 417
#     4   9  19  39  65  94 129 166 232 282 317 397
#     4  12  26  42  67 102 140 181 226 284 352 405
#     4  11  26  44  71  99 134 183 238 278 335 415
#
# _framework density 20.978791999999999
#
# number of rings (size 3 to 8) (size 9 to 14) (size 15 to 20)
#    0.000    1.429    2.857    2.143    8.000    1.714 
#    2.571    2.143    0.000    0.000    0.000    0.000 
#    0.000    0.000    0.000    0.000    0.000    0.000 
#
# Total GULP energy -173586.117356 kJ/mol
# GULP energy per Si atom -12399.008383 kJ/mol
# Density = 2.093104 g / cm^3
# Si number density = 20.978792 Si / 1000 Ang^3
#
#
#
# Elastic Constant Matrix: (Units=GPa)
#
#
# Indices 1 2 3 4 5 6 
#
# 1 139.8566 65.8352 64.0348 -0.6172 -9.9193 -6.8219
# 2 65.8352 82.6732 35.8465 6.5146 -3.4340 -8.4130
# 3 64.0348 35.8465 129.8375 0.3048 -19.4339 2.7409
# 4 -0.6172 6.5146 0.3048 32.7270 2.7214 1.1566
# 5 -9.9193 -3.4340 -19.4339 2.7214 40.5035 1.9950
# 6 -6.8219 -8.4130 2.7409 1.1566 1.9950 32.0190
#
#
#
# Elastic Compliance Matrix: (Units=1/GPa)
#
#
# Indices 1 2 3 4 5 6 
#
# 1 0.013247 -0.008857 -0.004052 0.001993 0.000379 0.000746
# 2 -0.008857 0.020493 -0.001520 -0.004280 -0.001063 0.003848
# 3 -0.004052 -0.001520 0.010799 -0.000137 0.004190 -0.002443
# 4 0.001993 -0.004280 -0.000137 0.031672 -0.001984 -0.001709
# 5 0.000379 -0.001063 0.004190 -0.001984 0.026942 -0.002164
# 6 0.000746 0.003848 -0.002443 -0.001709 -0.002164 0.032807
#
#
# Mechanical properties :
#
#
# Convention : Reuss Voigt Hill
#
# Bulk Modulus (GPa) = 63.77138 75.97778 69.87458
# Shear Modulus (GPa) = 29.40414 33.49327 31.44871
#
# Velocity S-wave (km/s) = 3.74787 4.00000 3.87598
# Velocity P-wave (km/s) = 7.01375 7.59134 7.30825
#
# Compressibility (1/GPa) = 0.01568102
#
# Stress axis : x y z
#
# Youngs Moduli (GPa) = 75.49016 48.79734 92.60382
#
# Poissons Ratio (x) = 0.43222 0.37519
# Poissons Ratio (y) = 0.66865 0.14073
# Poissons Ratio (z) = 0.30585 0.07416
#
# Static dielectric constant tensor:
#      x y z
#    x 4.112190 -0.077050 -0.379430 
#    y -0.077050 3.572210 0.087680 
#    z -0.379430 0.087680 4.017390 
# 
# 
# High freq. dielectric constant tensor:
#      x y z
#    x 1.837060 -0.009090 -0.009110 
#    y -0.009090 1.796220 0.006230 
#    z -0.009110 0.006230 1.834150 
# 
# From -- ./inp_files/222900.got.cif
#   From: 2010.06.25/outbox.cif.g09.slc.cpg/sg2_112_cif.got.tgz:222900.got - 2010.06.27 13:26:56.
