data_PCOD8027489
_publ_section_title
;
Structure prediction by ZEFSAII (Michael W. Deem and Ramdas Pophale) SiO2 
 PCOD8027489
Probable space group: P -1
;
_chemical_formula_sum "Si O2"
_cell_formula_units_Z 14
_cell_length_a 12.373421
_cell_length_b 12.283638
_cell_length_c 13.349901
_cell_angle_alpha 145.757593
_cell_angle_beta 144.810824
_cell_angle_gamma 37.946013
_cell_volume 616.721540
_symmetry_space_group_name_H-M "P -1"
_symmetry_group_IT_number 2
_symmetry_cell_setting 'triclinic'
loop_
_space_group_symop_operation_xyz
x,y,z
-x,-y,-z
loop_
_atom_site_type_symbol
_atom_site_label
_atom_site_fract_x
_atom_site_fract_y
_atom_site_fract_z
Si Si1 0.635536 0.805014 0.396138
Si Si2 0.585199 0.832541 0.019478
Si Si3 0.019303 0.134983 0.707585
Si Si4 0.417278 0.562935 0.374265
Si Si5 0.340643 0.919828 0.092271
Si Si6 0.944039 0.194067 0.349442
Si Si7 0.722113 0.651589 0.551822
O O1 0.490338 0.767718 0.172244
O O2 0.704410 0.629276 0.400448
O O3 0.823472 0.854595 0.532175
O O4 0.500000 0.000000 0.500000
O O5 0.495451 0.931877 0.132485
O O6 0.823722 0.761737 0.133268
O O7 0.518424 0.638682 0.800222
O O8 0.500000 0.000000 0.000000
O O9 0.818423 0.323929 0.719518
O O10 0.000000 0.000000 0.500000
O O11 0.087746 0.982335 0.738524
O O12 0.500000 0.500000 0.500000
O O13 0.517245 0.706289 0.501505
O O14 0.215950 0.150732 0.218749
O O15 0.180065 0.818712 0.855033
O O16 0.871048 0.422417 0.520235
#
# Coordination Sequence:
#
# PCOD8027489 Si02
#       7
#     2   2   2   2   2   2   2
#     4  10  24  45  70 100 140 177 231 284 341 406
#     4  12  22  43  65 101 135 175 229 277 338 412
#     4  12  24  41  67  96 138 180 224 283 344 405
#     4  12  25  43  69  98 136 179 223 284 346 405
#     4  11  24  45  71  99 141 180 228 286 338 405
#     4  12  24  46  70 101 136 181 231 280 345 410
#     4  11  23  45  70 100 136 181 227 284 344 405
#
# _framework density 22.700683999999999
#
# number of rings (size 3 to 8) (size 9 to 14) (size 15 to 20)
#    0.000    0.571    2.857    6.857    0.000    2.857 
#    5.143    0.000    0.000    0.000    0.000    0.000 
#    0.000    0.000    0.000    0.000    0.000    0.000 
#
# Total GULP energy -173484.530751 kJ/mol
# GULP energy per Si atom -12391.752196 kJ/mol
# Density = 2.264902 g / cm^3
# Si number density = 22.700684 Si / 1000 Ang^3
#
#
#
# Elastic Constant Matrix: (Units=GPa)
#
#
# Indices 1 2 3 4 5 6 
#
# 1 75.9514 13.5894 13.3647 -8.6588 -9.8515 -3.5789
# 2 13.5894 96.4707 29.0541 6.3154 -10.2294 -11.7804
# 3 13.3647 29.0541 111.1104 -4.1679 -12.7124 -5.5580
# 4 -8.6588 6.3154 -4.1679 40.3061 -1.3793 -3.8402
# 5 -9.8515 -10.2294 -12.7124 -1.3793 38.2453 -8.5857
# 6 -3.5789 -11.7804 -5.5580 -3.8402 -8.5857 42.4598
#
#
#
# Elastic Compliance Matrix: (Units=1/GPa)
#
#
# Indices 1 2 3 4 5 6 
#
# 1 0.014517 -0.001456 -0.000726 0.003566 0.003637 0.001783
# 2 -0.001456 0.012178 -0.002619 -0.002090 0.002669 0.003264
# 3 -0.000726 -0.002619 0.010219 0.001529 0.002848 0.001264
# 4 0.003566 -0.002090 0.001529 0.026413 0.002450 0.002805
# 5 0.003637 0.002669 0.002848 0.002450 0.030590 0.007827
# 6 0.001783 0.003264 0.001264 0.002805 0.007827 0.026609
#
#
# Mechanical properties :
#
#
# Convention : Reuss Voigt Hill
#
# Bulk Modulus (GPa) = 36.61584 43.94988 40.28286
# Shear Modulus (GPa) = 35.91116 39.37053 37.64085
#
# Velocity S-wave (km/s) = 3.98168 4.16905 4.07644
# Velocity P-wave (km/s) = 6.10763 6.52513 6.31983
#
# Compressibility (1/GPa) = 0.02731059
#
# Stress axis : x y z
#
# Youngs Moduli (GPa) = 68.88477 82.11451 97.86018
#
# Poissons Ratio (x) = 0.11958 0.07107
# Poissons Ratio (y) = 0.10032 0.25630
# Poissons Ratio (z) = 0.05003 0.21506
#
# Static dielectric constant tensor:
#      x y z
#    x 3.307580 -0.595310 -0.435520 
#    y -0.595310 3.445330 -0.005800 
#    z -0.435520 -0.005800 3.407170 
# 
# 
# High freq. dielectric constant tensor:
#      x y z
#    x 1.908360 -0.005030 -0.005960 
#    y -0.005030 1.899110 -0.001400 
#    z -0.005960 -0.001400 1.889560 
# 
# From -- ./inp_files/293936.got.cif
#   From: 2010.06.25/outbox.cif.g09.slc.cpg/sg2_147_cif.got.tgz:293936.got - 2010.06.27 13:26:56.
