data_PCOD8027471
_publ_section_title
;
Structure prediction by ZEFSAII (Michael W. Deem and Ramdas Pophale) SiO2 
 PCOD8027471
Probable space group: P -1
;
_chemical_formula_sum "Si O2"
_cell_formula_units_Z 16
_cell_length_a 8.432820
_cell_length_b 9.153562
_cell_length_c 11.281089
_cell_angle_alpha 117.627756
_cell_angle_beta 112.172323
_cell_angle_gamma 81.511972
_cell_volume 714.053715
_symmetry_space_group_name_H-M "P -1"
_symmetry_group_IT_number 2
_symmetry_cell_setting 'triclinic'
loop_
_space_group_symop_operation_xyz
x,y,z
-x,-y,-z
loop_
_atom_site_type_symbol
_atom_site_label
_atom_site_fract_x
_atom_site_fract_y
_atom_site_fract_z
Si Si1 0.303213 0.731405 0.796338
Si Si2 0.737004 0.992715 0.287779
Si Si3 0.092449 0.291312 0.281359
Si Si4 0.633384 0.139293 0.559100
Si Si5 0.932593 0.062505 0.775527
Si Si6 0.111667 0.364617 0.046945
Si Si7 0.438125 0.326177 0.970440
Si Si8 0.596133 0.564883 0.439175
O O1 0.343760 0.898741 0.798465
O O2 0.392636 0.576879 0.706528
O O3 0.103942 0.683724 0.732820
O O4 0.394070 0.756681 0.958539
O O5 0.719003 0.096800 0.441628
O O6 0.643712 0.809447 0.196681
O O7 0.938493 0.980448 0.311570
O O8 0.130818 0.383853 0.201816
O O9 0.213224 0.370566 0.447063
O O10 0.128529 0.095892 0.223157
O O11 0.775504 0.153058 0.706011
O O12 0.527650 0.302343 0.599362
O O13 0.500000 0.000000 0.500000
O O14 0.021378 0.185910 0.939641
O O15 0.299662 0.365289 0.045932
O O16 0.000000 0.500000 0.000000
O O17 0.500000 0.500000 0.000000
O O18 0.500000 0.500000 0.500000
#
# Coordination Sequence:
#
# PCOD8027471 Si02
#       8
#     2   2   2   2   2   2   2   2
#     4  11  24  44  70  96 133 179 221 276 334 400
#     4  10  24  46  67  96 135 178 220 271 335 400
#     4  11  24  46  67  97 135 177 224 272 336 400
#     4  12  25  42  69 100 134 173 224 277 329 399
#     4  10  24  45  69  96 133 179 220 272 336 398
#     4  11  25  42  68 100 135 173 221 278 333 396
#     4  11  25  43  67 100 135 174 223 274 332 399
#     4  12  25  44  67 101 134 176 223 277 335 395
#
# _framework density 22.407278000000002
#
# number of rings (size 3 to 8) (size 9 to 14) (size 15 to 20)
#    0.000    1.000    2.500    3.000    5.250    1.000 
#    0.000    0.000    0.000    0.000    0.000    0.000 
#    0.000    0.000    0.000    0.000    0.000    0.000 
#
# Total GULP energy -198378.346209 kJ/mol
# GULP energy per Si atom -12398.646638 kJ/mol
# Density = 2.235628 g / cm^3
# Si number density = 22.407278 Si / 1000 Ang^3
#
#
#
# Elastic Constant Matrix: (Units=GPa)
#
#
# Indices 1 2 3 4 5 6 
#
# 1 77.7762 32.0013 18.6854 -3.1507 13.3851 -13.0058
# 2 32.0013 131.9917 14.4298 -9.9500 14.0524 -3.2233
# 3 18.6854 14.4298 57.0336 -7.3418 13.5018 -4.8524
# 4 -3.1507 -9.9500 -7.3418 42.2040 -4.1875 7.7789
# 5 13.3851 14.0524 13.5018 -4.1875 39.6918 -0.9987
# 6 -13.0058 -3.2233 -4.8524 7.7789 -0.9987 44.5784
#
#
#
# Elastic Compliance Matrix: (Units=1/GPa)
#
#
# Indices 1 2 3 4 5 6 
#
# 1 0.016236 -0.003202 -0.003561 -0.001262 -0.003156 0.004267
# 2 -0.003202 0.008702 -0.000610 0.001673 -0.001635 -0.000700
# 3 -0.003561 -0.000610 0.020476 0.002521 -0.005268 0.000588
# 4 -0.001262 0.001673 0.002521 0.025392 0.001544 -0.004369
# 5 -0.003156 -0.001635 -0.005268 0.001544 0.028761 -0.001237
# 6 0.004267 -0.000700 0.000588 -0.004369 -0.001237 0.024425
#
#
# Mechanical properties :
#
#
# Convention : Reuss Voigt Hill
#
# Bulk Modulus (GPa) = 32.60725 44.11493 38.36109
# Shear Modulus (GPa) = 33.56563 38.74050 36.15306
#
# Velocity S-wave (km/s) = 3.87457 4.16254 4.02114
# Velocity P-wave (km/s) = 5.88218 6.54468 6.22226
#
# Compressibility (1/GPa) = 0.03066802
#
# Stress axis : x y z
#
# Youngs Moduli (GPa) = 61.59131 114.91182 48.83715
#
# Poissons Ratio (x) = 0.36795 0.17393
# Poissons Ratio (y) = 0.19722 0.02978
# Poissons Ratio (z) = 0.21935 0.07008
#
# Static dielectric constant tensor:
#      x y z
#    x 4.134480 -0.040210 0.088340 
#    y -0.040210 4.089140 0.053110 
#    z 0.088340 0.053110 4.018680 
# 
# 
# High freq. dielectric constant tensor:
#      x y z
#    x 1.891780 -0.003170 0.013930 
#    y -0.003170 1.897720 0.000720 
#    z 0.013930 0.000720 1.880610 
# 
# From -- ./inp_files/185039.got.cif
#   From: 2010.06.25/outbox.cif.g09.slc.cpg/sg2_93_cif.got.tgz:185039.got - 2010.06.27 13:26:56.
