data_PCOD8027705
_publ_section_title
;
Structure prediction by ZEFSAII (Michael W. Deem and Ramdas Pophale) SiO2 
 PCOD8027705
Probable space group: P -1
;
_chemical_formula_sum "Si O2"
_cell_formula_units_Z 16
_cell_length_a 16.556088
_cell_length_b 11.477654
_cell_length_c 11.234461
_cell_angle_alpha 27.840971
_cell_angle_beta 140.321923
_cell_angle_gamma 135.085247
_cell_volume 633.828390
_symmetry_space_group_name_H-M "P -1"
_symmetry_group_IT_number 2
_symmetry_cell_setting 'triclinic'
loop_
_space_group_symop_operation_xyz
x,y,z
-x,-y,-z
loop_
_atom_site_type_symbol
_atom_site_label
_atom_site_fract_x
_atom_site_fract_y
_atom_site_fract_z
Si Si1 0.856575 0.903635 0.213347
Si Si2 0.323133 0.714760 0.318930
Si Si3 0.985530 0.801319 0.060541
Si Si4 0.246206 0.577023 0.865611
Si Si5 0.571153 0.629144 0.574491
Si Si6 0.203079 0.317870 0.371970
Si Si7 0.092018 0.782148 0.696736
Si Si8 0.774290 0.445602 0.403919
O O1 0.773013 0.740307 0.167488
O O2 0.760993 0.073542 0.021355
O O3 0.969550 0.086003 0.117464
O O4 0.937522 0.733372 0.546859
O O5 0.470313 0.791748 0.379714
O O6 0.275927 0.435287 0.467087
O O7 0.307598 0.716517 0.442937
O O8 0.076373 0.589161 0.391000
O O9 0.840232 0.688560 0.988489
O O10 0.000000 0.000000 0.000000
O O11 0.166046 0.781747 0.653816
O O12 0.281244 0.638180 0.712384
O O13 0.379304 0.561980 0.099197
O O14 0.500000 0.500000 0.500000
O O15 0.695924 0.775294 0.525671
O O16 0.118266 0.057167 0.540435
O O17 0.128201 0.543566 0.029595
#
# Coordination Sequence:
#
# PCOD8027705 Si02
#       8
#     2   2   2   2   2   2   2   2
#     4  11  22  38  61  96 142 181 218 279 356 414
#     4  10  25  44  62  93 139 184 226 286 341 417
#     4  11  20  37  66  98 141 178 223 281 344 416
#     4  11  21  41  72 102 133 179 231 289 343 412
#     4   9  21  47  69  95 131 179 241 289 334 398
#     4  10  24  46  71  99 132 180 242 294 343 401
#     4  11  23  41  71 105 132 179 236 289 350 408
#     4  11  23  38  62 102 137 175 221 279 361 413
#
# _framework density 25.243425999999999
#
# number of rings (size 3 to 8) (size 9 to 14) (size 15 to 20)
#    0.000    1.500    2.500    2.625    3.500    1.500 
#    4.500    6.250    0.000    0.000    0.000    0.000 
#    0.000    0.000    0.000    0.000    0.000    0.000 
#
# Total GULP energy -198262.178891 kJ/mol
# GULP energy per Si atom -12391.386181 kJ/mol
# Density = 2.518597 g / cm^3
# Si number density = 25.243426 Si / 1000 Ang^3
#
#
#
# Elastic Constant Matrix: (Units=GPa)
#
#
# Indices 1 2 3 4 5 6 
#
# 1 124.6791 12.5151 56.4674 19.0336 15.8503 -21.5335
# 2 12.5151 91.2596 48.2206 0.8608 4.1219 -22.1953
# 3 56.4674 48.2206 127.7279 12.2991 19.7047 -1.7005
# 4 19.0336 0.8608 12.2991 50.3718 -4.0400 -1.2483
# 5 15.8503 4.1219 19.7047 -4.0400 48.4375 4.5170
# 6 -21.5335 -22.1953 -1.7005 -1.2483 4.5170 39.3818
#
#
#
# Elastic Compliance Matrix: (Units=1/GPa)
#
#
# Indices 1 2 3 4 5 6 
#
# 1 0.013039 0.004012 -0.006326 -0.003475 -0.003199 0.009374
# 2 0.004012 0.017674 -0.008249 0.000448 -0.000531 0.011873
# 3 -0.006326 -0.008249 0.014140 -0.001294 -0.002411 -0.007262
# 4 -0.003475 0.000448 -0.001294 0.021725 0.003571 -0.001425
# 5 -0.003199 -0.000531 -0.002411 0.003571 0.023457 -0.004730
# 6 0.009374 0.011873 -0.007262 -0.001425 -0.004730 0.037394
#
#
# Mechanical properties :
#
#
# Convention : Reuss Voigt Hill
#
# Bulk Modulus (GPa) = 42.14776 64.23029 53.18903
# Shear Modulus (GPa) = 31.95628 42.73579 37.34603
#
# Velocity S-wave (km/s) = 3.56184 4.11901 3.85052
# Velocity P-wave (km/s) = 5.80073 6.93695 6.39412
#
# Compressibility (1/GPa) = 0.02372605
#
# Stress axis : x y z
#
# Youngs Moduli (GPa) = 76.69155 56.58119 70.72151
#
# Poissons Ratio (x) = -0.22698 0.44739
# Poissons Ratio (y) = -0.30766 0.58338
# Poissons Ratio (z) = 0.48516 0.46674
#
# Static dielectric constant tensor:
#      x y z
#    x 3.100160 1.113160 -1.080070 
#    y 1.113160 3.600170 1.081440 
#    z -1.080070 1.081440 3.672200 
# 
# 
# High freq. dielectric constant tensor:
#      x y z
#    x 2.024080 -0.027010 0.002870 
#    y -0.027010 1.988140 0.001770 
#    z 0.002870 0.001770 1.995980 
# 
# From -- ./inp_files/362959.got.cif
#   From: 2010.06.25/outbox.cif.g09.slc.cpg/sg2_182_cif.got.tgz:362959.got - 2010.06.27 13:26:56.
