data_PCOD8027303
_publ_section_title
;
Structure prediction by ZEFSAII (Michael W. Deem and Ramdas Pophale) SiO2 
 PCOD8027303
Probable space group: P -1
;
_chemical_formula_sum "Si O2"
_cell_formula_units_Z 16
_cell_length_a 9.572898
_cell_length_b 11.403076
_cell_length_c 9.208348
_cell_angle_alpha 82.505471
_cell_angle_beta 131.553688
_cell_angle_gamma 100.186628
_cell_volume 740.241921
_symmetry_space_group_name_H-M "P -1"
_symmetry_group_IT_number 2
_symmetry_cell_setting 'triclinic'
loop_
_space_group_symop_operation_xyz
x,y,z
-x,-y,-z
loop_
_atom_site_type_symbol
_atom_site_label
_atom_site_fract_x
_atom_site_fract_y
_atom_site_fract_z
Si Si1 0.499227 0.065883 0.336639
Si Si2 0.123348 0.889097 0.596941
Si Si3 0.361346 0.921502 0.020192
Si Si4 0.449965 0.317003 0.360035
Si Si5 0.058690 0.380187 0.482481
Si Si6 0.651710 0.303169 0.804738
Si Si7 0.541033 0.525430 0.190569
Si Si8 0.961491 0.617586 0.871823
O O1 0.703188 0.073970 0.398585
O O2 0.430300 0.191758 0.290384
O O3 0.500000 0.000000 0.500000
O O4 0.333240 0.999949 0.131162
O O5 0.030988 0.754547 0.508009
O O6 0.178566 0.876649 0.806655
O O7 0.000000 0.000000 0.500000
O O8 0.458261 0.809931 0.169387
O O9 0.500000 0.000000 0.000000
O O10 0.574423 0.319637 0.589365
O O11 0.566072 0.404601 0.312072
O O12 0.243066 0.347728 0.243368
O O13 0.277221 0.379474 0.671967
O O14 0.000000 0.500000 0.500000
O O15 0.018673 0.398487 0.283596
O O16 0.635016 0.421025 0.868549
O O17 0.873789 0.284540 0.965057
O O18 0.500000 0.500000 0.000000
O O19 0.000000 0.500000 0.000000
#
# Coordination Sequence:
#
# PCOD8027303 Si02
#       8
#     2   2   2   2   2   2   2   2
#     4  11  25  47  75 105 146 194 249 305 370 448
#     4  11  27  48  74 110 149 194 252 308 376 447
#     4  10  24  44  72  97 139 192 240 293 367 439
#     4  12  26  48  72 108 150 193 245 310 381 444
#     4  12  26  46  72 107 148 188 251 311 366 444
#     4  12  23  46  72 102 145 190 241 301 370 448
#     4  12  27  43  72 103 142 192 242 304 375 438
#     4  12  25  45  72 106 146 195 244 303 381 449
#
# _framework density 21.614556
#
# number of rings (size 3 to 8) (size 9 to 14) (size 15 to 20)
#    0.000    0.500    5.000    2.625    8.750    0.000 
#    2.250    1.250    0.000    0.000    0.000    0.000 
#    0.000    0.000    0.000    0.000    0.000    0.000 
#
# Total GULP energy -198218.835193 kJ/mol
# GULP energy per Si atom -12388.677200 kJ/mol
# Density = 2.156536 g / cm^3
# Si number density = 21.614556 Si / 1000 Ang^3
#
#
#
# Elastic Constant Matrix: (Units=GPa)
#
#
# Indices 1 2 3 4 5 6 
#
# 1 87.2578 45.1528 61.6960 -3.6688 -8.6878 -0.0494
# 2 45.1528 161.9990 61.8318 -2.3580 -15.8157 -0.6773
# 3 61.6960 61.8318 180.6396 5.9232 -19.4660 5.6527
# 4 -3.6688 -2.3580 5.9232 39.7614 7.4321 -6.3834
# 5 -8.6878 -15.8157 -19.4660 7.4321 43.0940 -0.8365
# 6 -0.0494 -0.6773 5.6527 -6.3834 -0.8365 41.8653
#
#
#
# Elastic Compliance Matrix: (Units=1/GPa)
#
#
# Indices 1 2 3 4 5 6 
#
# 1 0.016308 -0.002710 -0.004771 0.002252 -0.000232 0.000958
# 2 -0.002710 0.007677 -0.001556 0.000212 0.001539 0.000394
# 3 -0.004771 -0.001556 0.008094 -0.002441 0.002516 -0.001446
# 4 0.002252 0.000212 -0.002441 0.027417 -0.005213 0.004412
# 5 -0.000232 0.001539 0.002516 -0.005213 0.025748 -0.000596
# 6 0.000958 0.000394 -0.001446 0.004412 -0.000596 0.024750
#
#
# Mechanical properties :
#
#
# Convention : Reuss Voigt Hill
#
# Bulk Modulus (GPa) = 71.39877 85.25085 78.32481
# Shear Modulus (GPa) = 37.66876 42.35853 40.01364
#
# Velocity S-wave (km/s) = 4.17915 4.43168 4.30727
# Velocity P-wave (km/s) = 7.50943 8.10638 7.81361
#
# Compressibility (1/GPa) = 0.01400584
#
# Stress axis : x y z
#
# Youngs Moduli (GPa) = 61.31841 130.25825 123.54402
#
# Poissons Ratio (x) = 0.35304 0.58944
# Poissons Ratio (y) = 0.16619 0.19218
# Poissons Ratio (z) = 0.29255 0.20262
#
# Static dielectric constant tensor:
#      x y z
#    x 3.976330 0.171150 -0.107360 
#    y 0.171150 4.370280 0.188580 
#    z -0.107360 0.188580 4.456930 
# 
# 
# High freq. dielectric constant tensor:
#      x y z
#    x 1.840760 0.011350 -0.010600 
#    y 0.011350 1.872380 0.000940 
#    z -0.010600 0.000940 1.864890 
# 
# From -- ./inp_files/187084.got.cif
#   From: 2010.06.25/outbox.cif.g09.slc.cpg/sg2_94_cif.got.tgz:187084.got - 2010.06.27 13:26:56.
