data_PCOD8027208
_publ_section_title
;
Structure prediction by ZEFSAII (Michael W. Deem and Ramdas Pophale) SiO2 
 PCOD8027208
Probable space group: P -1
;
_chemical_formula_sum "Si O2"
_cell_formula_units_Z 12
_cell_length_a 19.067405
_cell_length_b 12.703711
_cell_length_c 22.139583
_cell_angle_alpha 160.683971
_cell_angle_beta 162.596195
_cell_angle_gamma 28.267579
_cell_volume 519.890094
_symmetry_space_group_name_H-M "P -1"
_symmetry_group_IT_number 2
_symmetry_cell_setting 'triclinic'
loop_
_space_group_symop_operation_xyz
x,y,z
-x,-y,-z
loop_
_atom_site_type_symbol
_atom_site_label
_atom_site_fract_x
_atom_site_fract_y
_atom_site_fract_z
Si Si1 0.435851 0.177407 0.233670
Si Si2 0.388614 0.372086 0.666960
Si Si3 0.058903 0.817510 0.390808
Si Si4 0.869485 0.148634 0.919352
Si Si5 0.728049 0.496714 0.224818
Si Si6 0.190941 0.954340 0.799961
O O1 0.500000 0.500000 0.500000
O O2 0.677053 0.044605 0.343639
O O3 0.262208 0.885852 0.968490
O O4 0.292181 0.231067 0.083229
O O5 0.654822 0.305653 0.853844
O O6 0.282567 0.344456 0.632198
O O7 0.392467 0.732118 0.836799
O O8 0.220135 0.118351 0.348688
O O9 0.000000 0.000000 0.500000
O O10 0.858945 0.855947 0.197747
O O11 0.053484 0.440084 0.196421
O O12 0.000000 0.000000 0.000000
O O13 0.958848 0.693064 0.487807
O O14 0.500000 0.500000 0.000000
#
# Coordination Sequence:
#
# PCOD8027208 Si02
#       6
#     2   2   2   2   2   2
#     4  11  26  43  69 108 140 181 231 288 350 410
#     4  10  24  44  70 102 133 185 234 276 352 408
#     4  12  26  44  70 102 140 185 235 287 350 410
#     4  11  26  44  70 100 140 183 230 290 341 415
#     4  11  23  44  73  99 138 188 226 281 349 417
#     4  11  25  46  73  99 144 182 232 286 345 420
#
# _framework density 23.081802
#
# number of rings (size 3 to 8) (size 9 to 14) (size 15 to 20)
#    0.000    1.000    1.667    5.000    7.000    7.333 
#    0.000    0.000    0.000    0.000    0.000    0.000 
#    0.000    0.000    0.000    0.000    0.000    0.000 
#
# Total GULP energy -148778.955575 kJ/mol
# GULP energy per Si atom -12398.246298 kJ/mol
# Density = 2.302927 g / cm^3
# Si number density = 23.081802 Si / 1000 Ang^3
#
#
#
# Elastic Constant Matrix: (Units=GPa)
#
#
# Indices 1 2 3 4 5 6 
#
# 1 96.3121 62.6786 50.4978 8.3484 -26.0714 17.4290
# 2 62.6786 148.1906 49.4558 -12.8552 -18.9064 31.6091
# 3 50.4978 49.4558 126.2484 1.2100 -29.3776 7.3723
# 4 8.3484 -12.8552 1.2100 39.5159 4.4325 -7.3641
# 5 -26.0714 -18.9064 -29.3776 4.4325 43.1507 -6.5984
# 6 17.4290 31.6091 7.3723 -7.3641 -6.5984 51.2368
#
#
#
# Elastic Compliance Matrix: (Units=1/GPa)
#
#
# Indices 1 2 3 4 5 6 
#
# 1 0.019103 -0.006186 -0.003410 -0.007151 0.006888 -0.002332
# 2 -0.006186 0.011092 -0.001978 0.004376 -0.001284 -0.003990
# 3 -0.003410 -0.001978 0.011131 -0.000567 0.004912 0.001330
# 4 -0.007151 0.004376 -0.000567 0.029481 -0.005302 0.003369
# 5 0.006888 -0.001284 0.004912 -0.005302 0.030807 0.000948
# 6 -0.002332 -0.003990 0.001330 0.003369 0.000948 0.023187
#
#
# Mechanical properties :
#
#
# Convention : Reuss Voigt Hill
#
# Bulk Modulus (GPa) = 55.01687 77.33506 66.17596
# Shear Modulus (GPa) = 32.46576 40.65526 36.56051
#
# Velocity S-wave (km/s) = 3.75447 4.20140 3.98421
# Velocity P-wave (km/s) = 6.53315 7.55733 7.06383
#
# Compressibility (1/GPa) = 0.01817624
#
# Stress axis : x y z
#
# Youngs Moduli (GPa) = 52.34780 90.15860 89.84022
#
# Poissons Ratio (x) = 0.55770 0.30638
# Poissons Ratio (y) = 0.32381 0.17775
# Poissons Ratio (z) = 0.17852 0.17838
#
# Static dielectric constant tensor:
#      x y z
#    x 4.196160 0.023740 -0.046470 
#    y 0.023740 4.536450 -0.268380 
#    z -0.046470 -0.268380 4.405780 
# 
# 
# High freq. dielectric constant tensor:
#      x y z
#    x 1.911810 0.005650 -0.011080 
#    y 0.005650 1.914570 -0.014090 
#    z -0.011080 -0.014090 1.931340 
# 
# From -- ./inp_files/204656.got.cif
#   From: 2010.06.25/outbox.cif.g09.slc.cpg/sg2_103_cif.got.tgz:204656.got - 2010.06.27 13:26:56.
