data_PCOD8027476
_publ_section_title
;
Structure prediction by ZEFSAII (Michael W. Deem and Ramdas Pophale) SiO2 
 PCOD8027476
Probable space group: P -1
;
_chemical_formula_sum "Si O2"
_cell_formula_units_Z 16
_cell_length_a 25.814612
_cell_length_b 14.705132
_cell_length_c 8.999546
_cell_angle_alpha 130.506565
_cell_angle_beta 38.457379
_cell_angle_gamma 158.966320
_cell_volume 710.134146
_symmetry_space_group_name_H-M "P -1"
_symmetry_group_IT_number 2
_symmetry_cell_setting 'triclinic'
loop_
_space_group_symop_operation_xyz
x,y,z
-x,-y,-z
loop_
_atom_site_type_symbol
_atom_site_label
_atom_site_fract_x
_atom_site_fract_y
_atom_site_fract_z
Si Si1 0.489708 0.688245 0.175132
Si Si2 0.079934 0.990070 0.719760
Si Si3 0.500661 0.460774 0.743038
Si Si4 0.179563 0.979201 0.762481
Si Si5 0.830911 0.539889 0.282728
Si Si6 0.815768 0.276865 0.583228
Si Si7 0.834530 0.512611 0.562964
Si Si8 0.603528 0.036618 0.098546
O O1 0.574330 0.741642 0.193804
O O2 0.293114 0.501713 0.455375
O O3 0.644170 0.972421 0.043868
O O4 0.449080 0.524115 0.986742
O O5 0.275946 0.274753 0.500520
O O6 0.126480 0.940147 0.671332
O O7 0.922203 0.741312 0.692291
O O8 0.000000 0.000000 0.000000
O O9 0.377728 0.297403 0.695724
O O10 0.222360 0.894653 0.598475
O O11 0.005228 0.800033 0.062938
O O12 0.928779 0.618634 0.300491
O O13 0.696912 0.269981 0.216169
O O14 0.850122 0.418540 0.531298
O O15 0.000000 0.500000 0.500000
O O16 0.655217 0.099666 0.875471
O O17 0.620459 0.250479 0.711626
#
# Coordination Sequence:
#
# PCOD8027476 Si02
#       8
#     2   2   2   2   2   2   2   2
#     4  10  24  45  69  97 136 174 228 279 331 396
#     4  12  27  47  68  98 138 182 230 272 330 406
#     4  11  27  43  69  99 136 180 226 276 335 390
#     4  12  27  43  70 101 136 180 223 278 339 396
#     4  11  25  45  72 102 134 174 228 276 342 401
#     4  12  24  44  67 101 140 169 221 284 338 401
#     4  11  26  43  71  98 133 182 221 278 337 395
#     4  11  24  46  71  99 136 176 224 277 341 402
#
# _framework density 22.530953
#
# number of rings (size 3 to 8) (size 9 to 14) (size 15 to 20)
#    0.000    0.750    2.500    3.750   12.250    1.000 
#    0.000    0.000    0.000    0.000    0.000    0.000 
#    0.000    0.000    0.000    0.000    0.000    0.000 
#
# Total GULP energy -198302.923043 kJ/mol
# GULP energy per Si atom -12393.932690 kJ/mol
# Density = 2.247967 g / cm^3
# Si number density = 22.530953 Si / 1000 Ang^3
#
#
#
# Elastic Constant Matrix: (Units=GPa)
#
#
# Indices 1 2 3 4 5 6 
#
# 1 89.4236 35.5677 21.3185 4.0323 7.9282 -3.7518
# 2 35.5677 104.2203 36.1178 7.5918 -11.1045 11.6843
# 3 21.3185 36.1178 101.9483 20.4429 -1.5787 0.6485
# 4 4.0323 7.5918 20.4429 32.4338 -8.0000 3.2681
# 5 7.9282 -11.1045 -1.5787 -8.0000 31.0761 6.0431
# 6 -3.7518 11.6843 0.6485 3.2681 6.0431 34.1577
#
#
#
# Elastic Compliance Matrix: (Units=1/GPa)
#
#
# Indices 1 2 3 4 5 6 
#
# 1 0.014736 -0.006045 -0.000601 -0.002446 -0.007606 0.005277
# 2 -0.006045 0.014729 -0.004368 0.002980 0.008801 -0.007462
# 3 -0.000601 -0.004368 0.013062 -0.008223 -0.003359 0.002561
# 4 -0.002446 0.002980 -0.008223 0.039512 0.012840 -0.007184
# 5 -0.007606 0.008801 -0.003359 0.012840 0.042848 -0.012591
# 6 0.005277 -0.007462 0.002561 -0.007184 -0.012591 0.035274
#
#
# Mechanical properties :
#
#
# Convention : Reuss Voigt Hill
#
# Bulk Modulus (GPa) = 48.77839 53.51113 51.14476
# Shear Modulus (GPa) = 26.45184 33.03940 29.74562
#
# Velocity S-wave (km/s) = 3.43012 3.83352 3.63741
# Velocity P-wave (km/s) = 6.11425 6.58757 6.35532
#
# Compressibility (1/GPa) = 0.02050088
#
# Stress axis : x y z
#
# Youngs Moduli (GPa) = 67.85950 67.89370 76.55527
#
# Poissons Ratio (x) = 0.41040 0.04600
# Poissons Ratio (y) = 0.41020 0.33438
# Poissons Ratio (z) = 0.04077 0.29655
#
# Static dielectric constant tensor:
#      x y z
#    x 3.315240 0.219640 -0.033810 
#    y 0.219640 3.932830 0.034730 
#    z -0.033810 0.034730 4.009670 
# 
# 
# High freq. dielectric constant tensor:
#      x y z
#    x 1.901120 -0.005080 0.015010 
#    y -0.005080 1.892350 0.002150 
#    z 0.015010 0.002150 1.894610 
# 
# From -- ./inp_files/357422.got.cif
#   From: 2010.06.25/outbox.cif.g09.slc.cpg/sg2_179_cif.got.tgz:357422.got - 2010.06.27 13:26:56.
