data_PCOD8027127
_publ_section_title
;
Structure prediction by ZEFSAII (Michael W. Deem and Ramdas Pophale) SiO2 
 PCOD8027127
Probable space group: P -1
;
_chemical_formula_sum "Si O2"
_cell_formula_units_Z 16
_cell_length_a 16.200006
_cell_length_b 9.129289
_cell_length_c 11.789946
_cell_angle_alpha 39.445448
_cell_angle_beta 115.256920
_cell_angle_gamma 135.144655
_cell_volume 752.472020
_symmetry_space_group_name_H-M "P -1"
_symmetry_group_IT_number 2
_symmetry_cell_setting 'triclinic'
loop_
_space_group_symop_operation_xyz
x,y,z
-x,-y,-z
loop_
_atom_site_type_symbol
_atom_site_label
_atom_site_fract_x
_atom_site_fract_y
_atom_site_fract_z
Si Si1 0.721050 0.797218 0.314775
Si Si2 0.750000 0.157015 0.329282
Si Si3 0.104932 0.295281 0.452494
Si Si4 0.496076 0.132777 0.534389
Si Si5 0.492118 0.263072 0.061059
Si Si6 0.236120 0.954525 0.041058
Si Si7 0.069752 0.803571 0.427175
Si Si8 0.761057 0.688827 0.959652
O O1 0.780026 0.675503 0.482233
O O2 0.588523 0.500667 0.369255
O O3 0.710215 0.982803 0.289497
O O4 0.801692 0.007402 0.126816
O O5 0.854188 0.177108 0.435715
O O6 0.636753 0.981550 0.454143
O O7 0.800443 0.498533 0.133928
O O8 0.146187 0.598147 0.233398
O O9 0.042921 0.234536 0.573037
O O10 0.000000 0.000000 0.500000
O O11 0.500000 0.000000 0.500000
O O12 0.533806 0.013972 0.721838
O O13 0.374210 0.095025 0.013470
O O14 0.500000 0.500000 0.000000
O O15 0.624488 0.460400 0.962128
O O16 0.230452 0.134206 0.030425
O O17 0.000000 0.500000 0.500000
O O18 0.153064 0.092490 0.221750
#
# Coordination Sequence:
#
# PCOD8027127 Si02
#       8
#     2   2   2   2   2   2   2   2
#     4  12  26  45  70 103 144 186 226 290 355 421
#     4  11  27  45  67 107 142 180 231 289 356 412
#     4  12  27  49  67 102 141 190 239 278 353 421
#     4  11  23  42  73 103 141 180 234 292 345 418
#     4   9  19  39  65 103 134 166 227 285 342 406
#     4  11  24  43  73 101 137 185 235 289 347 416
#     4  12  27  45  73  97 141 189 235 293 334 419
#     4  10  24  44  68 105 135 178 236 291 347 408
#
# _framework density 21.263248999999998
#
# number of rings (size 3 to 8) (size 9 to 14) (size 15 to 20)
#    0.000    1.000    3.750    2.625   10.500    2.000 
#    0.000    1.250    0.000    0.000    0.000    0.000 
#    0.000    0.000    0.000    0.000    0.000    0.000 
#
# Total GULP energy -198336.400816 kJ/mol
# GULP energy per Si atom -12396.025051 kJ/mol
# Density = 2.121485 g / cm^3
# Si number density = 21.263249 Si / 1000 Ang^3
#
#
#
# Elastic Constant Matrix: (Units=GPa)
#
#
# Indices 1 2 3 4 5 6 
#
# 1 84.7772 21.5115 36.6864 -11.1353 -8.2633 -13.2036
# 2 21.5115 104.9689 35.8642 -18.9967 -8.4990 -16.8574
# 3 36.6864 35.8642 144.9672 -23.1856 -15.3972 -5.5572
# 4 -11.1353 -18.9967 -23.1856 30.3858 1.8836 1.3968
# 5 -8.2633 -8.4990 -15.3972 1.8836 37.3329 1.4359
# 6 -13.2036 -16.8574 -5.5572 1.3968 1.4359 35.6441
#
#
#
# Elastic Compliance Matrix: (Units=1/GPa)
#
#
# Indices 1 2 3 4 5 6 
#
# 1 0.014311 -0.000738 -0.002717 0.002410 0.001589 0.004370
# 2 -0.000738 0.012180 -0.001543 0.005846 0.001487 0.004957
# 3 -0.002717 -0.001543 0.008974 0.004758 0.002532 -0.000626
# 4 0.002410 0.005846 0.004758 0.040851 0.001661 0.002732
# 5 0.001589 0.001487 0.002532 0.001661 0.028419 0.000477
# 6 0.004370 0.004957 -0.000626 0.002732 0.000477 0.031795
#
#
# Mechanical properties :
#
#
# Convention : Reuss Voigt Hill
#
# Bulk Modulus (GPa) = 39.26584 58.09305 48.67945
# Shear Modulus (GPa) = 32.25515 36.71597 34.48556
#
# Velocity S-wave (km/s) = 3.89902 4.15991 4.03157
# Velocity P-wave (km/s) = 6.22707 7.10305 6.67944
#
# Compressibility (1/GPa) = 0.02546743
#
# Stress axis : x y z
#
# Youngs Moduli (GPa) = 69.87734 82.10352 111.43818
#
# Poissons Ratio (x) = 0.06056 0.30281
# Poissons Ratio (y) = 0.05154 0.17200
# Poissons Ratio (z) = 0.18987 0.12673
#
# Static dielectric constant tensor:
#      x y z
#    x 4.222240 0.481980 0.297510 
#    y 0.481980 4.331890 0.119720 
#    z 0.297510 0.119720 3.993360 
# 
# 
# High freq. dielectric constant tensor:
#      x y z
#    x 1.839090 0.002720 0.002190 
#    y 0.002720 1.830510 -0.012760 
#    z 0.002190 -0.012760 1.846450 
# 
# From -- ./inp_files/398706.got.cif
#   From: 2010.06.25/outbox.cif.g09.slc.cpg/sg2_200_cif.got.tgz:398706.got - 2010.06.27 13:26:56.
