data_PCOD8027091
_publ_section_title
;
Structure prediction by ZEFSAII (Michael W. Deem and Ramdas Pophale) SiO2 
 PCOD8027091
Probable space group: P -1
;
_chemical_formula_sum "Si O2"
_cell_formula_units_Z 16
_cell_length_a 10.571881
_cell_length_b 13.530275
_cell_length_c 8.148055
_cell_angle_alpha 57.433904
_cell_angle_beta 72.746747
_cell_angle_gamma 40.614888
_cell_volume 625.949277
_symmetry_space_group_name_H-M "P -1"
_symmetry_group_IT_number 2
_symmetry_cell_setting 'triclinic'
loop_
_space_group_symop_operation_xyz
x,y,z
-x,-y,-z
loop_
_atom_site_type_symbol
_atom_site_label
_atom_site_fract_x
_atom_site_fract_y
_atom_site_fract_z
Si Si1 0.434514 0.620971 0.137740
Si Si2 0.883887 0.076668 0.808422
Si Si3 0.913361 0.934843 0.525368
Si Si4 0.207846 0.113865 0.010589
Si Si5 0.825442 0.428856 0.687590
Si Si6 0.189131 0.565309 0.700107
Si Si7 0.489999 0.240919 0.291797
Si Si8 0.388398 0.193647 0.061761
O O1 0.343609 0.756106 0.202904
O O2 0.294446 0.604188 0.169792
O O3 0.645734 0.448039 0.290717
O O4 0.453669 0.681315 0.907435
O O5 0.984991 0.121466 0.644803
O O6 0.886892 0.946982 0.823606
O O7 0.000000 0.000000 0.000000
O O8 0.995213 0.749138 0.703119
O O9 0.675107 0.090358 0.474027
O O10 0.000000 0.000000 0.500000
O O11 0.404893 0.947400 0.988021
O O12 0.258668 0.165232 0.095440
O O13 0.050015 0.278874 0.802876
O O14 0.830385 0.438160 0.483301
O O15 0.703289 0.617244 0.645204
O O16 0.253342 0.397448 0.897812
O O17 0.442218 0.162239 0.261980
#
# Coordination Sequence:
#
# PCOD8027091 Si02
#       8
#     2   2   2   2   2   2   2   2
#     4  11  21  37  62  94 127 162 205 254 313 379
#     4  12  19  39  68  95 122 162 209 255 318 378
#     4  12  25  39  65  99 134 164 201 265 327 376
#     4  11  22  42  69  91 118 171 223 258 306 375
#     4  12  23  36  65  95 131 161 204 267 320 375
#     4  11  23  40  62  94 131 167 202 259 324 381
#     4  11  23  41  59  93 130 169 212 254 310 373
#     4  10  24  44  67  88 121 172 224 258 300 380
#
# _framework density 25.561178999999999
#
# number of rings (size 3 to 8) (size 9 to 14) (size 15 to 20)
#    0.000    0.750    6.250    2.250    1.750    4.000 
#    0.000    0.000    0.000    4.500    0.000    0.000 
#    0.000    0.000    0.000    0.000    0.000    0.000 
#
# Total GULP energy -198214.307273 kJ/mol
# GULP energy per Si atom -12388.394205 kJ/mol
# Density = 2.550300 g / cm^3
# Si number density = 25.561179 Si / 1000 Ang^3
#
#
#
# Elastic Constant Matrix: (Units=GPa)
#
#
# Indices 1 2 3 4 5 6 
#
# 1 136.7609 38.8506 25.1792 -13.0353 30.1719 25.4559
# 2 38.8506 134.7339 29.3067 -30.7821 0.7141 18.0749
# 3 25.1792 29.3067 47.8974 -27.2339 18.2977 -6.9406
# 4 -13.0353 -30.7821 -27.2339 36.7992 -6.5133 4.6217
# 5 30.1719 0.7141 18.2977 -6.5133 34.5040 4.5922
# 6 25.4559 18.0749 -6.9406 4.6217 4.5922 42.9019
#
#
#
# Elastic Compliance Matrix: (Units=1/GPa)
#
#
# Indices 1 2 3 4 5 6 
#
# 1 0.010949 -0.001901 -0.002734 -0.000389 -0.007453 -0.005298
# 2 -0.001901 0.011484 -0.005523 0.006739 0.006426 -0.006018
# 3 -0.002734 -0.005523 0.050397 0.026602 -0.020723 0.011455
# 4 -0.000389 0.006739 0.026602 0.052171 -0.003587 -0.003541
# 5 -0.007453 0.006426 -0.020723 -0.003587 0.046508 -0.006230
# 6 -0.005298 -0.006018 0.011455 -0.003541 -0.006230 0.031890
#
#
# Mechanical properties :
#
#
# Convention : Reuss Voigt Hill
#
# Bulk Modulus (GPa) = 19.04257 56.22948 37.63602
# Shear Modulus (GPa) = 20.72796 37.91137 29.31967
#
# Velocity S-wave (km/s) = 2.85075 3.85536 3.39047
# Velocity P-wave (km/s) = 4.27804 6.47025 5.48479
#
# Compressibility (1/GPa) = 0.05251392
#
# Stress axis : x y z
#
# Youngs Moduli (GPa) = 91.33352 87.07467 19.84250
#
# Poissons Ratio (x) = 0.16553 0.05426
# Poissons Ratio (y) = 0.17362 0.10959
# Poissons Ratio (z) = 0.24974 0.48089
#
# Static dielectric constant tensor:
#      x y z
#    x 5.042930 1.205630 -0.109130 
#    y 1.205630 7.799230 -0.771380 
#    z -0.109130 -0.771380 4.894360 
# 
# 
# High freq. dielectric constant tensor:
#      x y z
#    x 2.013940 0.008640 0.019760 
#    y 0.008640 2.049300 -0.002150 
#    z 0.019760 -0.002150 2.014000 
# 
# From -- ./inp_files/269757.got.cif
#   From: 2010.06.25/outbox.cif.g09.slc.cpg/sg2_135_cif.got.tgz:269757.got - 2010.06.27 13:26:56.
