data_PCOD8027374
_publ_section_title
;
Structure prediction by ZEFSAII (Michael W. Deem and Ramdas Pophale) SiO2 
 PCOD8027374
Probable space group: P -1
;
_chemical_formula_sum "Si O2"
_cell_formula_units_Z 10
_cell_length_a 10.936930
_cell_length_b 8.959294
_cell_length_c 7.668661
_cell_angle_alpha 132.962727
_cell_angle_beta 132.476124
_cell_angle_gamma 50.684880
_cell_volume 384.088805
_symmetry_space_group_name_H-M "P -1"
_symmetry_group_IT_number 2
_symmetry_cell_setting 'triclinic'
loop_
_space_group_symop_operation_xyz
x,y,z
-x,-y,-z
loop_
_atom_site_type_symbol
_atom_site_label
_atom_site_fract_x
_atom_site_fract_y
_atom_site_fract_z
Si Si1 0.022578 0.411452 0.734664
Si Si2 0.316504 0.988272 0.753019
Si Si3 0.667932 0.444978 0.490264
Si Si4 0.435565 0.811817 0.358949
Si Si5 0.108620 0.756645 0.872690
O O1 0.851629 0.485730 0.761966
O O2 0.944829 0.323126 0.422752
O O3 0.086928 0.607853 0.894926
O O4 0.176033 0.222168 0.822107
O O5 0.273857 0.811997 0.697428
O O6 0.322055 0.902442 0.493720
O O7 0.500000 0.000000 0.000000
O O8 0.500000 0.500000 0.500000
O O9 0.603921 0.600783 0.386219
O O10 0.500000 0.000000 0.500000
O O11 0.312213 0.742714 0.048796
O O12 0.000000 0.000000 0.000000
#
# Coordination Sequence:
#
# PCOD8027374 Si02
#       5
#     2   2   2   2   2
#     4  11  24  44  75 104 142 193 238 295 361 427
#     4  11  24  45  67 105 146 187 240 291 363 431
#     4  10  24  45  66 102 143 188 237 292 361 423
#     4  11  24  44  71 104 146 187 239 299 355 425
#     4  11  23  43  72 109 143 179 245 301 357 424
#
# _framework density 26.035644999999999
#
# number of rings (size 3 to 8) (size 9 to 14) (size 15 to 20)
#    0.000    1.200    2.000    3.000    5.600    0.800 
#    0.000    8.000    0.000    0.000    0.000    0.000 
#    0.000    0.000    0.000    0.000    0.000    0.000 
#
# Total GULP energy -123941.832345 kJ/mol
# GULP energy per Si atom -12394.183235 kJ/mol
# Density = 2.597639 g / cm^3
# Si number density = 26.035645 Si / 1000 Ang^3
#
#
#
# Elastic Constant Matrix: (Units=GPa)
#
#
# Indices 1 2 3 4 5 6 
#
# 1 100.8203 64.1975 28.3681 1.8096 35.8710 3.1865
# 2 64.1975 283.6260 56.0357 5.0750 40.9880 17.5613
# 3 28.3681 56.0357 88.9099 4.9600 39.2764 2.0407
# 4 1.8096 5.0750 4.9600 50.7253 -6.9881 19.9723
# 5 35.8710 40.9880 39.2764 -6.9881 68.9597 4.2856
# 6 3.1865 17.5613 2.0407 19.9723 4.2856 50.1772
#
#
#
# Elastic Compliance Matrix: (Units=1/GPa)
#
#
# Indices 1 2 3 4 5 6 
#
# 1 0.013424 -0.002184 -0.000335 -0.001393 -0.005695 0.000966
# 2 -0.002184 0.004548 -0.002033 0.000372 -0.000279 -0.001494
# 3 -0.000335 -0.002033 0.016540 -0.003422 -0.008518 0.002150
# 4 -0.001393 0.000372 -0.003422 0.024885 0.005613 -0.010287
# 5 -0.005695 -0.000279 -0.008518 0.005613 0.023262 -0.003415
# 6 0.000966 -0.001494 0.002150 -0.010287 -0.003415 0.024690
#
#
# Mechanical properties :
#
#
# Convention : Reuss Voigt Hill
#
# Bulk Modulus (GPa) = 39.35823 85.61764 62.48794
# Shear Modulus (GPa) = 40.02472 55.62277 47.82375
#
# Velocity S-wave (km/s) = 3.92510 4.62714 4.29051
# Velocity P-wave (km/s) = 5.97426 7.84241 6.97120
#
# Compressibility (1/GPa) = 0.02540765
#
# Stress axis : x y z
#
# Youngs Moduli (GPa) = 74.49077 219.88054 60.45967
#
# Poissons Ratio (x) = 0.48027 0.02028
# Poissons Ratio (y) = 0.16270 0.12290
# Poissons Ratio (z) = 0.02498 0.44696
#
# Static dielectric constant tensor:
#      x y z
#    x 5.122820 0.024740 0.236380 
#    y 0.024740 4.162100 -0.080650 
#    z 0.236380 -0.080650 4.966450 
# 
# 
# High freq. dielectric constant tensor:
#      x y z
#    x 2.036780 0.004330 0.018890 
#    y 0.004330 2.073070 0.000800 
#    z 0.018890 0.000800 2.056820 
# 
# From -- ./inp_files/15970.got.cif
#   From: 2010.06.25/outbox.cif.g09.slc.cpg/sg2_8_cif.got.tgz:15970.got - 2010.06.27 13:26:56.
