data_PCOD8027485
_publ_section_title
;
Structure prediction by ZEFSAII (Michael W. Deem and Ramdas Pophale) SiO2 
 PCOD8027485
Probable space group: P -1
;
_chemical_formula_sum "Si O2"
_cell_formula_units_Z 16
_cell_length_a 10.750017
_cell_length_b 8.936006
_cell_length_c 25.451173
_cell_angle_alpha 31.344772
_cell_angle_beta 146.193269
_cell_angle_gamma 136.499131
_cell_volume 706.578298
_symmetry_space_group_name_H-M "P -1"
_symmetry_group_IT_number 2
_symmetry_cell_setting 'triclinic'
loop_
_space_group_symop_operation_xyz
x,y,z
-x,-y,-z
loop_
_atom_site_type_symbol
_atom_site_label
_atom_site_fract_x
_atom_site_fract_y
_atom_site_fract_z
Si Si1 0.989875 0.761296 0.844866
Si Si2 0.779115 0.653289 0.392195
Si Si3 0.996169 0.780087 0.723282
Si Si4 0.664192 0.082263 0.695124
Si Si5 0.443339 0.530397 0.115155
Si Si6 0.323957 0.343129 0.946766
Si Si7 0.585150 0.292484 0.837685
Si Si8 0.440398 0.391681 0.432650
O O1 0.786340 0.528215 0.837315
O O2 0.042319 0.883856 0.768387
O O3 0.910555 0.013843 0.779810
O O4 0.196763 0.608255 0.987690
O O5 0.603043 0.610762 0.296419
O O6 0.665544 0.517125 0.445455
O O7 0.000000 0.500000 0.500000
O O8 0.855726 0.988583 0.328890
O O9 0.082709 0.461908 0.839327
O O10 0.733057 0.769876 0.620129
O O11 0.504478 0.156508 0.568219
O O12 0.687754 0.350876 0.662224
O O13 0.553976 0.807273 0.769258
O O14 0.621771 0.598205 0.112452
O O15 0.515843 0.724934 0.133228
O O16 0.500000 0.500000 0.000000
O O17 0.318434 0.005521 0.057932
#
# Coordination Sequence:
#
# PCOD8027485 Si02
#       8
#     2   2   2   2   2   2   2   2
#     4  11  23  43  73 100 136 182 230 280 345 412
#     4  12  26  45  72 103 137 182 236 280 335 414
#     4  12  26  43  73 104 134 184 231 279 346 403
#     4  10  24  45  69  99 136 180 228 282 342 402
#     4  11  24  44  69 100 140 178 232 282 341 416
#     4  12  24  43  64 101 140 171 225 286 340 409
#     4  11  24  43  66 103 136 186 225 281 351 400
#     4  11  26  48  70  99 140 183 229 286 337 404
#
# _framework density 22.644341000000001
#
# number of rings (size 3 to 8) (size 9 to 14) (size 15 to 20)
#    0.000    0.750    3.750    3.375    7.000    1.500 
#    4.500    3.125    0.000    0.000    0.000    0.000 
#    0.000    0.000    0.000    0.000    0.000    0.000 
#
# Total GULP energy -198461.481945 kJ/mol
# GULP energy per Si atom -12403.842622 kJ/mol
# Density = 2.259280 g / cm^3
# Si number density = 22.644341 Si / 1000 Ang^3
#
#
#
# Elastic Constant Matrix: (Units=GPa)
#
#
# Indices 1 2 3 4 5 6 
#
# 1 102.2322 9.6504 29.4430 2.0297 3.6009 0.1857
# 2 9.6504 56.2258 25.5258 0.8524 -4.0506 -2.9520
# 3 29.4430 25.5258 123.4783 1.3440 -3.5523 -1.5538
# 4 2.0297 0.8524 1.3440 29.9423 -5.4115 0.7853
# 5 3.6009 -4.0506 -3.5523 -5.4115 35.6803 0.5701
# 6 0.1857 -2.9520 -1.5538 0.7853 0.5701 30.4827
#
#
#
# Elastic Compliance Matrix: (Units=1/GPa)
#
#
# Indices 1 2 3 4 5 6 
#
# 1 0.010623 -0.000844 -0.002396 -0.000860 -0.001533 -0.000218
# 2 -0.000844 0.019900 -0.003835 -0.000033 0.001930 0.001702
# 3 -0.002396 -0.003835 0.009486 -0.000022 0.000746 0.000113
# 4 -0.000860 -0.000033 -0.000022 0.034445 0.005321 -0.000986
# 5 -0.001533 0.001930 0.000746 0.005321 0.029289 -0.000451
# 6 -0.000218 0.001702 0.000113 -0.000986 -0.000451 0.033011
#
#
# Mechanical properties :
#
#
# Convention : Reuss Voigt Hill
#
# Bulk Modulus (GPa) = 38.67273 45.68606 42.17939
# Shear Modulus (GPa) = 31.34305 33.70888 32.52597
#
# Velocity S-wave (km/s) = 3.72445 3.86245 3.79408
# Velocity P-wave (km/s) = 5.96747 6.33330 6.15310
#
# Compressibility (1/GPa) = 0.02585802
#
# Stress axis : x y z
#
# Youngs Moduli (GPa) = 94.13655 50.25020 105.42039
#
# Poissons Ratio (x) = 0.04243 0.25258
# Poissons Ratio (y) = 0.07949 0.40431
# Poissons Ratio (z) = 0.22554 0.19272
#
# Static dielectric constant tensor:
#      x y z
#    x 4.549660 -0.300940 -0.003960 
#    y -0.300940 4.056860 -0.207790 
#    z -0.003960 -0.207790 4.354340 
# 
# 
# High freq. dielectric constant tensor:
#      x y z
#    x 1.898540 -0.007470 -0.003950 
#    y -0.007470 1.887130 -0.005100 
#    z -0.003950 -0.005100 1.909300 
# 
# From -- ./inp_files/272449.got.cif
#   From: 2010.06.25/outbox.cif.g09.slc.cpg/sg2_137_cif.got.tgz:272449.got - 2010.06.27 13:26:56.
