data_PCOD8027864
_publ_section_title
;
Structure prediction by ZEFSAII (Michael W. Deem and Ramdas Pophale) SiO2 
 PCOD8027864
Probable space group: P -1
;
_chemical_formula_sum "Si O2"
_cell_formula_units_Z 14
_cell_length_a 13.421802
_cell_length_b 12.336057
_cell_length_c 8.757499
_cell_angle_alpha 122.420059
_cell_angle_beta 96.352664
_cell_angle_gamma 129.234214
_cell_volume 688.167024
_symmetry_space_group_name_H-M "P -1"
_symmetry_group_IT_number 2
_symmetry_cell_setting 'triclinic'
loop_
_space_group_symop_operation_xyz
x,y,z
-x,-y,-z
loop_
_atom_site_type_symbol
_atom_site_label
_atom_site_fract_x
_atom_site_fract_y
_atom_site_fract_z
Si Si1 0.307785 0.030408 0.441088
Si Si2 0.727175 0.494602 0.322132
Si Si3 0.620085 0.300743 0.487437
Si Si4 0.942425 0.294344 0.366758
Si Si5 0.000341 0.257060 0.022881
Si Si6 0.869737 0.906154 0.540234
Si Si7 0.592520 0.978137 0.239896
O O1 0.465697 0.209934 0.481463
O O2 0.268582 0.132542 0.577196
O O3 0.361470 0.987275 0.547814
O O4 0.128693 0.791955 0.143631
O O5 0.656446 0.414760 0.423148
O O6 0.755239 0.670033 0.410138
O O7 0.912497 0.614029 0.425968
O O8 0.588101 0.286063 0.024860
O O9 0.796691 0.483022 0.759809
O O10 0.564070 0.096560 0.283728
O O11 0.000000 0.500000 0.500000
O O12 0.933864 0.200378 0.142010
O O13 0.750233 0.083729 0.248714
O O14 0.982725 0.090173 0.837362
O O15 0.000000 0.000000 0.500000
#
# Coordination Sequence:
#
# PCOD8027864 Si02
#       7
#     2   2   2   2   2   2   2
#     4  10  25  42  64  97 134 175 217 270 333 377
#     4  11  25  41  69  96 133 175 219 272 322 393
#     4  11  23  42  65 102 129 172 217 273 335 387
#     4  11  22  43  67 100 131 174 212 271 333 386
#     4   9  23  44  66  91 135 167 224 268 320 393
#     4  10  24  48  66  95 132 177 225 272 323 386
#     4  12  24  40  68 102 136 171 215 274 332 396
#
# _framework density 20.343897999999999
#
# number of rings (size 3 to 8) (size 9 to 14) (size 15 to 20)
#    0.857    0.571    2.857    2.571    4.000    4.000 
#    2.571    0.000    0.000    0.000    0.000    0.000 
#    0.000    0.000    0.000    0.000    0.000    0.000 
#
# Total GULP energy -173569.332433 kJ/mol
# GULP energy per Si atom -12397.809459 kJ/mol
# Density = 2.029759 g / cm^3
# Si number density = 20.343898 Si / 1000 Ang^3
#
#
#
# Elastic Constant Matrix: (Units=GPa)
#
#
# Indices 1 2 3 4 5 6 
#
# 1 108.8490 41.3800 28.5350 3.2807 -1.6801 23.6266
# 2 41.3800 98.6155 32.6866 1.4676 -11.3734 3.7889
# 3 28.5350 32.6866 137.0580 1.3595 1.1048 2.6092
# 4 3.2807 1.4676 1.3595 25.3021 -10.6657 -2.9157
# 5 -1.6801 -11.3734 1.1048 -10.6657 34.4623 -0.6386
# 6 23.6266 3.7889 2.6092 -2.9157 -0.6386 36.2800
#
#
#
# Elastic Compliance Matrix: (Units=1/GPa)
#
#
# Indices 1 2 3 4 5 6 
#
# 1 0.013330 -0.005013 -0.001372 -0.003217 -0.002111 -0.008355
# 2 -0.005013 0.013456 -0.002274 0.002386 0.005050 0.002304
# 3 -0.001372 -0.002274 0.008131 -0.000601 -0.001255 0.000476
# 4 -0.003217 0.002386 -0.000601 0.046964 0.015295 0.005932
# 5 -0.002111 0.005050 -0.001255 0.015295 0.035407 0.002790
# 6 -0.008355 0.002304 0.000476 0.005932 0.002790 0.033255
#
#
# Mechanical properties :
#
#
# Convention : Reuss Voigt Hill
#
# Bulk Modulus (GPa) = 56.81829 61.08065 58.94947
# Shear Modulus (GPa) = 28.78067 35.33695 32.05881
#
# Velocity S-wave (km/s) = 3.76534 4.17223 3.97400
# Velocity P-wave (km/s) = 6.84787 7.30063 7.07787
#
# Compressibility (1/GPa) = 0.01759997
#
# Stress axis : x y z
#
# Youngs Moduli (GPa) = 75.01682 74.31555 122.98589
#
# Poissons Ratio (x) = 0.37258 0.16870
# Poissons Ratio (y) = 0.37610 0.27962
# Poissons Ratio (z) = 0.10290 0.16896
#
# Static dielectric constant tensor:
#      x y z
#    x 3.798210 0.170290 0.136100 
#    y 0.170290 3.548500 -0.021870 
#    z 0.136100 -0.021870 3.732720 
# 
# 
# High freq. dielectric constant tensor:
#      x y z
#    x 1.798840 0.012320 0.008310 
#    y 0.012320 1.787420 -0.001710 
#    z 0.008310 -0.001710 1.796740 
# 
# From -- ./inp_files/305758.got.cif
#   From: 2010.06.25/outbox.cif.g09.slc.cpg/sg2_153_cif.got.tgz:305758.got - 2010.06.27 13:26:56.
