data_PCOD8027893
_publ_section_title
;
Structure prediction by ZEFSAII (Michael W. Deem and Ramdas Pophale) SiO2 
 PCOD8027893
Probable space group: P -1
;
_chemical_formula_sum "Si O2"
_cell_formula_units_Z 12
_cell_length_a 11.604740
_cell_length_b 20.341142
_cell_length_c 17.134597
_cell_angle_alpha 21.015709
_cell_angle_beta 160.202261
_cell_angle_gamma 149.769262
_cell_volume 487.874456
_symmetry_space_group_name_H-M "P -1"
_symmetry_group_IT_number 2
_symmetry_cell_setting 'triclinic'
loop_
_space_group_symop_operation_xyz
x,y,z
-x,-y,-z
loop_
_atom_site_type_symbol
_atom_site_label
_atom_site_fract_x
_atom_site_fract_y
_atom_site_fract_z
Si Si1 0.864885 0.078189 0.643351
Si Si2 0.016168 0.460641 0.362567
Si Si3 0.695651 0.708714 0.745841
Si Si4 0.620513 0.118784 0.283953
Si Si5 0.963791 0.279495 0.774427
Si Si6 0.210730 0.647579 0.009722
O O1 0.911295 0.133055 0.521047
O O2 0.897463 0.255973 0.521073
O O3 0.500000 0.000000 0.500000
O O4 0.126837 0.905896 0.031976
O O5 0.910757 0.570563 0.252792
O O6 0.422140 0.448603 0.620868
O O7 0.814814 0.564578 0.048361
O O8 0.385972 0.630073 0.588932
O O9 0.554187 0.906438 0.471532
O O10 0.012928 0.734206 0.863055
O O11 0.752692 0.190255 0.208079
O O12 0.259849 0.234880 0.948297
O O13 0.000000 0.500000 0.000000
#
# Coordination Sequence:
#
# PCOD8027893 Si02
#       6
#     2   2   2   2   2   2
#     4  10  24  48  72 113 152 190 245 304 374 444
#     4  12  26  49  81 109 149 199 250 309 371 442
#     4  12  25  49  81 106 153 203 248 306 374 444
#     4  11  25  47  75 111 149 198 247 311 373 437
#     4  11  25  51  75 113 151 192 252 309 373 441
#     4  12  26  50  72 111 150 198 256 301 370 449
#
# _framework density 24.596491
#
# number of rings (size 3 to 8) (size 9 to 14) (size 15 to 20)
#    0.000    0.667    3.333    3.500    0.000    4.667 
#    9.000    2.500    0.000    0.000    0.000    0.000 
#    0.000    0.000    0.000    0.000    0.000    0.000 
#
# Total GULP energy -148841.205432 kJ/mol
# GULP energy per Si atom -12403.433786 kJ/mol
# Density = 2.454051 g / cm^3
# Si number density = 24.596491 Si / 1000 Ang^3
#
#
#
# Elastic Constant Matrix: (Units=GPa)
#
#
# Indices 1 2 3 4 5 6 
#
# 1 96.1951 45.9197 45.6075 -4.6945 6.2864 -12.2106
# 2 45.9197 155.0659 65.3770 -10.7076 -6.9653 -19.9750
# 3 45.6075 65.3770 141.4533 7.6066 -17.9619 -7.5500
# 4 -4.6945 -10.7076 7.6066 48.5464 -2.3861 3.0763
# 5 6.2864 -6.9653 -17.9619 -2.3861 51.4763 0.5755
# 6 -12.2106 -19.9750 -7.5500 3.0763 0.5755 36.0497
#
#
#
# Elastic Compliance Matrix: (Units=1/GPa)
#
#
# Indices 1 2 3 4 5 6 
#
# 1 0.013855 -0.002250 -0.003765 0.001106 -0.003288 0.002616
# 2 -0.002250 0.009146 -0.003385 0.002133 0.000392 0.003409
# 3 -0.003765 -0.003385 0.010386 -0.002513 0.003518 -0.000817
# 4 0.001106 0.002133 -0.002513 0.021636 0.000289 -0.000821
# 5 -0.003288 0.000392 0.003518 0.000289 0.021128 -0.000522
# 6 0.002616 0.003409 -0.000817 -0.000821 -0.000522 0.030421
#
#
# Mechanical properties :
#
#
# Convention : Reuss Voigt Hill
#
# Bulk Modulus (GPa) = 68.54707 78.50252 73.52479
# Shear Modulus (GPa) = 38.39206 42.93517 40.66361
#
# Velocity S-wave (km/s) = 3.95508 4.18255 4.07040
# Velocity P-wave (km/s) = 6.98470 7.43709 7.21444
#
# Compressibility (1/GPa) = 0.01458852
#
# Stress axis : x y z
#
# Youngs Moduli (GPa) = 72.17355 109.33470 96.28401
#
# Poissons Ratio (x) = 0.24602 0.36248
# Poissons Ratio (y) = 0.16240 0.32589
# Poissons Ratio (z) = 0.27171 0.37007
#
# Static dielectric constant tensor:
#      x y z
#    x 4.893970 -0.182500 -0.428560 
#    y -0.182500 4.439810 0.052020 
#    z -0.428560 0.052020 4.988720 
# 
# 
# High freq. dielectric constant tensor:
#      x y z
#    x 1.982770 -0.016070 -0.018810 
#    y -0.016070 1.981490 -0.009340 
#    z -0.018810 -0.009340 1.991400 
# 
# From -- ./inp_files/262439.got.cif
#   From: 2010.06.25/outbox.cif.g09.slc.cpg/sg2_132_cif.got.tgz:262439.got - 2010.06.27 13:26:56.
