data_PCOD8027244
_publ_section_title
;
Structure prediction by ZEFSAII (Michael W. Deem and Ramdas Pophale) SiO2 
 PCOD8027244
Probable space group: P -1
;
_chemical_formula_sum "Si O2"
_cell_formula_units_Z 16
_cell_length_a 26.047418
_cell_length_b 8.866910
_cell_length_c 10.265156
_cell_angle_alpha 44.664657
_cell_angle_beta 26.256170
_cell_angle_gamma 47.797212
_cell_volume 732.883174
_symmetry_space_group_name_H-M "P -1"
_symmetry_group_IT_number 2
_symmetry_cell_setting 'triclinic'
loop_
_space_group_symop_operation_xyz
x,y,z
-x,-y,-z
loop_
_atom_site_type_symbol
_atom_site_label
_atom_site_fract_x
_atom_site_fract_y
_atom_site_fract_z
Si Si1 0.012839 0.581279 0.564684
Si Si2 0.592612 0.079335 0.139731
Si Si3 0.994756 0.174800 0.017278
Si Si4 0.751552 0.908012 0.406233
Si Si5 0.424257 0.880349 0.145632
Si Si6 0.236899 0.745770 0.041621
Si Si7 0.156050 0.991472 0.324005
Si Si8 0.603121 0.513975 0.982835
O O1 0.000000 0.500000 0.500000
O O2 0.150342 0.604483 0.249610
O O3 0.933203 0.802944 0.633303
O O4 0.972411 0.412792 0.863216
O O5 0.500000 0.000000 0.500000
O O6 0.555734 0.050306 0.091778
O O7 0.716763 0.938964 0.970289
O O8 0.609740 0.331236 0.968568
O O9 0.887645 0.143631 0.373803
O O10 0.111641 0.154143 0.850202
O O11 0.000000 0.000000 0.000000
O O12 0.688971 0.696074 0.645587
O O13 0.707562 0.043547 0.554138
O O14 0.723850 0.061713 0.251474
O O15 0.468771 0.625925 0.222327
O O16 0.500000 0.000000 0.000000
O O17 0.165034 0.836077 0.275365
O O18 0.355302 0.597009 0.905987
#
# Coordination Sequence:
#
# PCOD8027244 Si02
#       8
#     2   2   2   2   2   2   2   2
#     4  12  24  42  70 103 139 183 229 278 347 416
#     4  11  26  50  71 102 142 180 237 295 341 417
#     4  12  23  43  68 101 144 179 225 286 344 409
#     4  11  23  44  72  99 148 178 228 294 336 419
#     4  10  24  44  71 102 135 183 234 283 351 406
#     4  11  24  44  68 104 140 182 231 281 344 416
#     4  11  26  44  70 100 139 183 228 280 350 415
#     4  10  24  45  72 100 139 183 231 286 348 411
#
# _framework density 21.831583999999999
#
# number of rings (size 3 to 8) (size 9 to 14) (size 15 to 20)
#    0.000    1.000    3.750    1.500    7.000    3.000 
#    9.000    0.000    0.000    0.000    0.000    0.000 
#    0.000    0.000    0.000    0.000    0.000    0.000 
#
# Total GULP energy -198378.828097 kJ/mol
# GULP energy per Si atom -12398.676756 kJ/mol
# Density = 2.178189 g / cm^3
# Si number density = 21.831584 Si / 1000 Ang^3
#
#
#
# Elastic Constant Matrix: (Units=GPa)
#
#
# Indices 1 2 3 4 5 6 
#
# 1 129.5806 25.7119 47.5825 -5.5234 16.3116 -0.8096
# 2 25.7119 84.2078 33.4521 -14.8272 13.0997 -11.9288
# 3 47.5825 33.4521 135.2352 -11.5929 20.1487 -6.6760
# 4 -5.5234 -14.8272 -11.5929 43.7601 -5.5639 2.8996
# 5 16.3116 13.0997 20.1487 -5.5639 42.5955 -2.5925
# 6 -0.8096 -11.9288 -6.6760 2.8996 -2.5925 44.6206
#
#
#
# Elastic Compliance Matrix: (Units=1/GPa)
#
#
# Indices 1 2 3 4 5 6 
#
# 1 0.009224 -0.001639 -0.002622 -0.000273 -0.001870 -0.000754
# 2 -0.001639 0.014715 -0.002269 0.003693 -0.002147 0.003200
# 3 -0.002622 -0.002269 0.009375 0.001022 -0.002567 0.000533
# 4 -0.000273 0.003693 0.001022 0.024576 0.001674 -0.000365
# 5 -0.001870 -0.002147 -0.002567 0.001674 0.026312 0.000428
# 6 -0.000754 0.003200 0.000533 -0.000365 0.000428 0.023381
#
#
# Mechanical properties :
#
#
# Convention : Reuss Voigt Hill
#
# Bulk Modulus (GPa) = 49.37348 62.50184 55.93766
# Shear Modulus (GPa) = 39.24830 42.34706 40.79768
#
# Velocity S-wave (km/s) = 4.24462 4.40900 4.32759
# Velocity P-wave (km/s) = 6.83280 7.38988 7.11679
#
# Compressibility (1/GPa) = 0.02025379
#
# Stress axis : x y z
#
# Youngs Moduli (GPa) = 108.40942 67.95939 106.67006
#
# Poissons Ratio (x) = 0.11138 0.27972
# Poissons Ratio (y) = 0.17768 0.24200
# Poissons Ratio (z) = 0.28428 0.15418
#
# Static dielectric constant tensor:
#      x y z
#    x 2.302080 2.152630 0.529000 
#    y 2.152630 1.424280 -0.458340 
#    z 0.529000 -0.458340 3.951790 
# 
# 
# High freq. dielectric constant tensor:
#      x y z
#    x 1.875330 -0.010010 -0.002710 
#    y -0.010010 1.864410 0.002150 
#    z -0.002710 0.002150 1.848340 
# 
# From -- ./inp_files/352014.got.cif
#   From: 2010.06.25/outbox.cif.g09.slc.cpg/sg2_177_cif.got.tgz:352014.got - 2010.06.27 13:26:56.
