data_PCOD8027001
_publ_section_title
;
Structure prediction by ZEFSAII (Michael W. Deem and Ramdas Pophale) SiO2 
 PCOD8027001
Probable space group: P -1
;
_chemical_formula_sum "Si O2"
_cell_formula_units_Z 16
_cell_length_a 11.533147
_cell_length_b 14.010694
_cell_length_c 8.780347
_cell_angle_alpha 81.785914
_cell_angle_beta 88.048324
_cell_angle_gamma 147.701417
_cell_volume 717.455041
_symmetry_space_group_name_H-M "P -1"
_symmetry_group_IT_number 2
_symmetry_cell_setting 'triclinic'
loop_
_space_group_symop_operation_xyz
x,y,z
-x,-y,-z
loop_
_atom_site_type_symbol
_atom_site_label
_atom_site_fract_x
_atom_site_fract_y
_atom_site_fract_z
Si Si1 0.220259 0.180460 0.282277
Si Si2 0.262969 0.083674 0.041861
Si Si3 0.070552 0.797161 0.340349
Si Si4 0.694128 0.552403 0.661231
Si Si5 0.933013 0.522405 0.215548
Si Si6 0.563158 0.851879 0.571207
Si Si7 0.266203 0.130650 0.699060
Si Si8 0.222850 0.555779 0.088095
O O1 0.265694 0.190803 0.098617
O O2 0.326899 0.357852 0.284337
O O3 0.351172 0.190819 0.363907
O O4 0.946318 0.984210 0.366876
O O5 0.093949 0.893884 0.185663
O O6 0.169367 0.026069 0.888943
O O7 0.518946 0.224576 0.998253
O O8 0.851246 0.664963 0.480057
O O9 0.052545 0.680547 0.290463
O O10 0.293162 0.958996 0.402210
O O11 0.444133 0.344004 0.665421
O O12 0.791221 0.550844 0.787080
O O13 0.698868 0.317616 0.345119
O O14 0.095485 0.547347 0.189189
O O15 0.893560 0.544458 0.048175
O O16 0.612259 0.876151 0.382798
#
# Coordination Sequence:
#
# PCOD8027001 Si02
#       8
#     2   2   2   2   2   2   2   2
#     4  11  23  41  64  96 141 169 208 271 319 388
#     4  10  24  44  63 100 136 166 219 267 319 392
#     4  11  23  41  69  95 129 173 215 262 329 383
#     4  11  25  42  67 100 129 173 219 260 327 392
#     4  11  23  46  72  91 131 174 211 277 328 366
#     4  11  23  44  63 101 134 165 221 268 315 393
#     4  11  23  41  63  95 135 174 210 265 319 382
#     4  10  24  47  68  96 131 166 223 272 315 388
#
# _framework density 22.301047000000001
#
# number of rings (size 3 to 8) (size 9 to 14) (size 15 to 20)
#    0.000    1.250    5.000    0.750    3.500    5.500 
#    0.000    0.625    0.000    0.000    0.000    0.000 
#    0.000    0.000    0.000    0.000    0.000    0.000 
#
# Total GULP energy -198396.222904 kJ/mol
# GULP energy per Si atom -12399.763931 kJ/mol
# Density = 2.225029 g / cm^3
# Si number density = 22.301047 Si / 1000 Ang^3
#
#
#
# Elastic Constant Matrix: (Units=GPa)
#
#
# Indices 1 2 3 4 5 6 
#
# 1 66.7205 24.8336 13.2640 2.0907 -22.6753 10.0251
# 2 24.8336 131.6455 21.0541 4.2158 -13.6242 -8.8252
# 3 13.2640 21.0541 112.4564 -5.9139 -21.5489 -4.6994
# 4 2.0907 4.2158 -5.9139 40.5967 -4.4822 -14.6891
# 5 -22.6753 -13.6242 -21.5489 -4.4822 37.8875 2.1021
# 6 10.0251 -8.8252 -4.6994 -14.6891 2.1021 31.6980
#
#
#
# Elastic Compliance Matrix: (Units=1/GPa)
#
#
# Indices 1 2 3 4 5 6 
#
# 1 0.022043 -0.003461 -0.000249 -0.003196 0.011996 -0.010249
# 2 -0.003461 0.008664 -0.000975 0.000460 0.000347 0.003553
# 3 -0.000249 -0.000975 0.010462 0.003149 0.005688 0.002441
# 4 -0.003196 0.000460 0.003149 0.031281 0.002862 0.015912
# 5 0.011996 0.000347 0.005688 0.002862 0.037495 -0.004015
# 6 -0.010249 0.003553 0.002441 0.015912 -0.004015 0.043780
#
#
# Mechanical properties :
#
#
# Convention : Reuss Voigt Hill
#
# Bulk Modulus (GPa) = 31.44877 47.68066 39.56472
# Shear Modulus (GPa) = 28.78599 38.81448 33.80023
#
# Velocity S-wave (km/s) = 3.59666 4.17643 3.89734
# Velocity P-wave (km/s) = 5.60183 6.68458 6.16701
#
# Compressibility (1/GPa) = 0.03179775
#
# Stress axis : x y z
#
# Youngs Moduli (GPa) = 45.36596 115.41538 95.58691
#
# Poissons Ratio (x) = 0.39951 0.02385
# Poissons Ratio (y) = 0.15703 0.09317
# Poissons Ratio (z) = 0.01132 0.11249
#
# Static dielectric constant tensor:
#      x y z
#    x 3.808220 -0.007330 -0.368430 
#    y -0.007330 4.081060 0.214600 
#    z -0.368430 0.214600 4.505860 
# 
# 
# High freq. dielectric constant tensor:
#      x y z
#    x 1.855920 0.006820 -0.026120 
#    y 0.006820 1.880870 0.010940 
#    z -0.026120 0.010940 1.900740 
# 
# From -- ./inp_files/272927.got.cif
#   From: 2010.06.25/outbox.cif.g09.slc.cpg/sg2_137_cif.got.tgz:272927.got - 2010.06.27 13:26:56.
