data_PCOD8027867
_publ_section_title
;
Structure prediction by ZEFSAII (Michael W. Deem and Ramdas Pophale) SiO2 
 PCOD8027867
Probable space group: P -1
;
_chemical_formula_sum "Si O2"
_cell_formula_units_Z 14
_cell_length_a 9.030675
_cell_length_b 26.791637
_cell_length_c 6.958802
_cell_angle_alpha 127.017200
_cell_angle_beta 115.785432
_cell_angle_gamma 28.254728
_cell_volume 615.825554
_symmetry_space_group_name_H-M "P -1"
_symmetry_group_IT_number 2
_symmetry_cell_setting 'triclinic'
loop_
_space_group_symop_operation_xyz
x,y,z
-x,-y,-z
loop_
_atom_site_type_symbol
_atom_site_label
_atom_site_fract_x
_atom_site_fract_y
_atom_site_fract_z
Si Si1 0.659170 0.311911 0.069385
Si Si2 0.581768 0.727887 0.958413
Si Si3 0.257239 0.632134 0.408508
Si Si4 0.191543 0.075089 0.613135
Si Si5 0.247789 0.874592 0.741712
Si Si6 0.516316 0.860547 0.504187
Si Si7 0.301736 0.481525 0.934870
O O1 0.631044 0.259887 0.062278
O O2 0.639011 0.379999 0.348466
O O3 0.372883 0.407037 0.968032
O O4 0.008529 0.193166 0.885126
O O5 0.524820 0.757128 0.767984
O O6 0.458842 0.830222 0.231189
O O7 0.952810 0.590496 0.894620
O O8 0.357061 0.528278 0.187084
O O9 0.878433 0.767268 0.487533
O O10 0.437829 0.614362 0.308515
O O11 0.940134 0.123336 0.442425
O O12 0.500000 0.000000 0.500000
O O13 0.290863 0.993677 0.646778
O O14 0.435095 0.853957 0.642355
O O15 0.000000 0.000000 0.000000
#
# Coordination Sequence:
#
# PCOD8027867 Si02
#       7
#     2   2   2   2   2   2   2
#     4  12  25  43  69 103 139 180 231 285 340 404
#     4  11  25  44  73  99 137 181 229 280 343 404
#     4  10  25  43  73  98 137 180 234 276 350 399
#     4  12  27  45  71 104 144 175 230 288 338 406
#     4  12  25  45  72  98 138 186 228 272 346 412
#     4  11  24  48  69 103 140 183 221 281 343 412
#     4  10  24  48  67  99 140 178 233 285 336 409
#
# _framework density 22.733712000000001
#
# number of rings (size 3 to 8) (size 9 to 14) (size 15 to 20)
#    0.000    0.857    2.857    3.000    6.000    6.857 
#    0.000    0.000    0.000    0.000    0.000    0.000 
#    0.000    0.000    0.000    0.000    0.000    0.000 
#
# Total GULP energy -173634.818844 kJ/mol
# GULP energy per Si atom -12402.487060 kJ/mol
# Density = 2.268197 g / cm^3
# Si number density = 22.733712 Si / 1000 Ang^3
#
#
#
# Elastic Constant Matrix: (Units=GPa)
#
#
# Indices 1 2 3 4 5 6 
#
# 1 84.6043 44.1566 40.8978 -7.1115 -23.3296 0.9726
# 2 44.1566 138.0081 69.4052 -13.1416 -22.3486 15.4691
# 3 40.8978 69.4052 128.3983 -5.4439 -19.7856 -13.1345
# 4 -7.1115 -13.1416 -5.4439 33.2571 5.4666 -14.2503
# 5 -23.3296 -22.3486 -19.7856 5.4666 29.5099 -3.0262
# 6 0.9726 15.4691 -13.1345 -14.2503 -3.0262 35.6977
#
#
#
# Elastic Compliance Matrix: (Units=1/GPa)
#
#
# Indices 1 2 3 4 5 6 
#
# 1 0.017168 -0.002775 -0.002285 0.001077 0.009859 0.001160
# 2 -0.002775 0.012503 -0.006306 -0.000322 0.002328 -0.007594
# 3 -0.002285 -0.006306 0.013394 0.002603 0.002839 0.009003
# 4 0.001077 -0.000322 0.002603 0.037933 -0.003038 0.015953
# 5 0.009859 0.002328 0.002839 -0.003038 0.046163 0.002468
# 6 0.001160 -0.007594 0.009003 0.015953 0.002468 0.041162
#
#
# Mechanical properties :
#
#
# Convention : Reuss Voigt Hill
#
# Bulk Modulus (GPa) = 49.18273 73.32552 61.25413
# Shear Modulus (GPa) = 25.27398 32.79634 29.03516
#
# Velocity S-wave (km/s) = 3.33789 3.80232 3.57765
# Velocity P-wave (km/s) = 6.04455 7.18338 6.63843
#
# Compressibility (1/GPa) = 0.02033234
#
# Stress axis : x y z
#
# Youngs Moduli (GPa) = 58.24682 79.98304 74.66258
#
# Poissons Ratio (x) = 0.22194 0.17061
# Poissons Ratio (y) = 0.16163 0.47083
# Poissons Ratio (z) = 0.13310 0.50438
#
# Static dielectric constant tensor:
#      x y z
#    x 3.999170 0.039770 -0.165340 
#    y 0.039770 4.055680 0.009440 
#    z -0.165340 0.009440 4.220090 
# 
# 
# High freq. dielectric constant tensor:
#      x y z
#    x 1.893910 0.004150 -0.006870 
#    y 0.004150 1.907240 0.000180 
#    z -0.006870 0.000180 1.904590 
# 
# From -- ./inp_files/48679.got.cif
#   From: 2010.06.25/outbox.cif.g09.slc.cpg/sg2_25_cif.got.tgz:48679.got - 2010.06.27 13:26:56.
