data_PCOD8027821
_publ_section_title
;
Structure prediction by ZEFSAII (Michael W. Deem and Ramdas Pophale) SiO2 
 PCOD8027821
Probable space group: P -1
;
_chemical_formula_sum "Si O2"
_cell_formula_units_Z 16
_cell_length_a 8.885583
_cell_length_b 14.701926
_cell_length_c 8.699952
_cell_angle_alpha 110.676049
_cell_angle_beta 135.712243
_cell_angle_gamma 69.749033
_cell_volume 734.851126
_symmetry_space_group_name_H-M "P -1"
_symmetry_group_IT_number 2
_symmetry_cell_setting 'triclinic'
loop_
_space_group_symop_operation_xyz
x,y,z
-x,-y,-z
loop_
_atom_site_type_symbol
_atom_site_label
_atom_site_fract_x
_atom_site_fract_y
_atom_site_fract_z
Si Si1 0.014470 0.519851 0.198520
Si Si2 0.986121 0.845835 0.424998
Si Si3 0.928958 0.986418 0.186697
Si Si4 0.667298 0.328740 0.493415
Si Si5 0.652782 0.602879 0.438594
Si Si6 0.662966 0.053985 0.749108
Si Si7 0.388673 0.252267 0.758487
Si Si8 0.531989 0.584722 0.890685
O O1 0.138762 0.611605 0.369642
O O2 0.139399 0.424254 0.316870
O O3 0.000000 0.500000 0.000000
O O4 0.773869 0.545591 0.103834
O O5 0.802074 0.779033 0.293064
O O6 0.024383 0.912579 0.639683
O O7 0.221197 0.784208 0.514167
O O8 0.890503 0.910046 0.246681
O O9 0.721114 0.004446 0.930110
O O10 0.127158 0.940861 0.197674
O O11 0.565927 0.352136 0.601347
O O12 0.474167 0.368487 0.257174
O O13 0.722595 0.686216 0.429956
O O14 0.606155 0.505775 0.252112
O O15 0.552748 0.163081 0.762479
O O16 0.500000 0.000000 0.500000
O O17 0.543400 0.322012 0.998798
#
# Coordination Sequence:
#
# PCOD8027821 Si02
#       8
#     2   2   2   2   2   2   2   2
#     4  11  19  40  64  89 125 171 220 261 310 376
#     4  11  23  44  67 101 131 171 218 266 330 394
#     4  10  24  47  71  92 135 172 209 275 334 387
#     4  11  21  40  66  93 125 170 220 260 314 389
#     4  11  24  40  65  94 131 175 215 264 320 377
#     4  11  23  48  71  98 130 169 219 271 331 392
#     4  12  25  43  63 101 131 167 217 268 323 387
#     4  11  22  42  65  90 133 174 214 266 319 375
#
# _framework density 21.773116999999999
#
# number of rings (size 3 to 8) (size 9 to 14) (size 15 to 20)
#    0.000    1.000    5.000    2.625    0.000    1.000 
#   11.250    0.000    0.000    0.000    0.000    0.000 
#    0.000    0.000    0.000    0.000    0.000    0.000 
#
# Total GULP energy -198349.115066 kJ/mol
# GULP energy per Si atom -12396.819692 kJ/mol
# Density = 2.172356 g / cm^3
# Si number density = 21.773117 Si / 1000 Ang^3
#
#
#
# Elastic Constant Matrix: (Units=GPa)
#
#
# Indices 1 2 3 4 5 6 
#
# 1 73.4775 63.0027 44.4320 3.2343 -20.0090 4.9717
# 2 63.0027 149.4335 66.7635 -7.1633 -11.1336 -5.8046
# 3 44.4320 66.7635 136.5951 -19.0872 -13.1834 0.3405
# 4 3.2343 -7.1633 -19.0872 25.6539 0.2504 -14.9211
# 5 -20.0090 -11.1336 -13.1834 0.2504 25.0137 -0.3853
# 6 4.9717 -5.8046 0.3405 -14.9211 -0.3853 45.5168
#
#
#
# Elastic Compliance Matrix: (Units=1/GPa)
#
#
# Indices 1 2 3 4 5 6 
#
# 1 0.033817 -0.011421 -0.006194 -0.018682 0.018719 -0.011070
# 2 -0.011421 0.012547 -0.001982 0.006370 -0.004584 0.004912
# 3 -0.006194 -0.001982 0.011940 0.011495 0.000404 0.004106
# 4 -0.018682 0.006370 0.011495 0.065866 -0.006335 0.024305
# 5 0.018719 -0.004584 0.000404 -0.006335 0.053123 -0.004259
# 6 -0.011070 0.004912 0.004106 0.024305 -0.004259 0.031706
#
#
# Mechanical properties :
#
#
# Convention : Reuss Voigt Hill
#
# Bulk Modulus (GPa) = 52.33070 78.65583 65.49327
# Shear Modulus (GPa) = 19.64149 31.59074 25.61611
#
# Velocity S-wave (km/s) = 3.00675 3.81321 3.43374
# Velocity P-wave (km/s) = 6.01172 7.45594 6.77244
#
# Compressibility (1/GPa) = 0.01910924
#
# Stress axis : x y z
#
# Youngs Moduli (GPa) = 29.57088 79.69741 83.75482
#
# Poissons Ratio (x) = 0.91023 0.51879
# Poissons Ratio (y) = 0.33773 0.16602
# Poissons Ratio (z) = 0.18317 0.15798
#
# Static dielectric constant tensor:
#      x y z
#    x 4.023110 -0.394680 -0.522970 
#    y -0.394680 4.298820 0.067170 
#    z -0.522970 0.067170 4.173220 
# 
# 
# High freq. dielectric constant tensor:
#      x y z
#    x 1.852190 -0.013100 -0.017910 
#    y -0.013100 1.864150 -0.009170 
#    z -0.017910 -0.009170 1.858390 
# 
# From -- ./inp_files/135467.got.cif
#   From: 2010.06.25/outbox.cif.g09.slc.cpg/sg2_68_cif.got.tgz:135467.got - 2010.06.27 13:26:56.
