data_PCOD8027116
_publ_section_title
;
Structure prediction by ZEFSAII (Michael W. Deem and Ramdas Pophale) SiO2 
 PCOD8027116
Probable space group: P -1
;
_chemical_formula_sum "Si O2"
_cell_formula_units_Z 14
_cell_length_a 8.850819
_cell_length_b 9.104927
_cell_length_c 15.387421
_cell_angle_alpha 83.492953
_cell_angle_beta 34.339625
_cell_angle_gamma 71.280282
_cell_volume 635.225116
_symmetry_space_group_name_H-M "P -1"
_symmetry_group_IT_number 2
_symmetry_cell_setting 'triclinic'
loop_
_space_group_symop_operation_xyz
x,y,z
-x,-y,-z
loop_
_atom_site_type_symbol
_atom_site_label
_atom_site_fract_x
_atom_site_fract_y
_atom_site_fract_z
Si Si1 0.800956 0.348449 0.880645
Si Si2 0.195049 0.986172 0.141971
Si Si3 0.715123 0.716240 0.213188
Si Si4 0.984168 0.148053 0.056045
Si Si5 0.939234 0.656661 0.415152
Si Si6 0.154294 0.997469 0.518626
Si Si7 0.538575 0.530119 0.707184
O O1 0.675566 0.293648 0.171637
O O2 0.959312 0.349507 0.895890
O O3 0.500000 0.500000 0.000000
O O4 0.732447 0.192012 0.914791
O O5 0.034936 0.022104 0.309195
O O6 0.994996 0.111624 0.156124
O O7 0.500000 0.000000 0.000000
O O8 0.954471 0.657391 0.304654
O O9 0.641256 0.562632 0.243628
O O10 0.468993 0.847403 0.381559
O O11 0.748229 0.801306 0.101603
O O12 0.000000 0.000000 0.000000
O O13 0.791944 0.838972 0.510246
O O14 0.763628 0.548775 0.529614
O O15 0.275515 0.573499 0.293797
O O16 0.000000 0.000000 0.500000
#
# Coordination Sequence:
#
# PCOD8027116 Si02
#       7
#     2   2   2   2   2   2   2
#     4  11  26  45  67 101 140 181 231 290 344 409
#     4  11  27  44  71 102 136 184 230 283 346 413
#     4  12  25  44  73 100 139 187 229 284 353 403
#     4  12  25  46  69 102 140 180 230 284 343 413
#     4  10  24  44  68 100 138 178 234 282 347 412
#     4  11  23  47  73 101 139 179 233 289 345 413
#     4  11  25  43  70 100 135 186 228 286 344 415
#
# _framework density 22.039431
#
# number of rings (size 3 to 8) (size 9 to 14) (size 15 to 20)
#    0.000    0.857    2.857    3.000    6.000    2.857 
#    0.000    0.000    0.000    0.000    0.000    0.000 
#    0.000    0.000    0.000    0.000    0.000    0.000 
#
# Total GULP energy -173633.734975 kJ/mol
# GULP energy per Si atom -12402.409641 kJ/mol
# Density = 2.198927 g / cm^3
# Si number density = 22.039431 Si / 1000 Ang^3
#
#
#
# Elastic Constant Matrix: (Units=GPa)
#
#
# Indices 1 2 3 4 5 6 
#
# 1 108.9813 49.3163 48.9470 -6.2980 1.0866 0.2504
# 2 49.3163 136.1555 53.7089 5.4094 -6.4697 4.0097
# 3 48.9470 53.7089 102.5588 -10.0945 -0.7067 -1.2183
# 4 -6.2980 5.4094 -10.0945 53.1689 -7.2764 -9.8134
# 5 1.0866 -6.4697 -0.7067 -7.2764 39.9408 -2.5523
# 6 0.2504 4.0097 -1.2183 -9.8134 -2.5523 34.0164
#
#
#
# Elastic Compliance Matrix: (Units=1/GPa)
#
#
# Indices 1 2 3 4 5 6 
#
# 1 0.012501 -0.002883 -0.004369 0.000904 -0.000700 0.000300
# 2 -0.002883 0.010273 -0.004256 -0.002404 0.001104 -0.001953
# 3 -0.004369 -0.004256 0.014392 0.003060 0.000367 0.001960
# 4 0.000904 -0.002404 0.003060 0.021564 0.004010 0.006908
# 5 -0.000700 0.001104 0.000367 0.004010 0.026164 0.003008
# 6 0.000300 -0.001953 0.001960 0.006908 0.003008 0.031914
#
#
# Mechanical properties :
#
#
# Convention : Reuss Voigt Hill
#
# Bulk Modulus (GPa) = 70.67157 72.40445 71.53801
# Shear Modulus (GPa) = 34.59213 38.47346 36.53279
#
# Velocity S-wave (km/s) = 3.96606 4.18265 4.07579
# Velocity P-wave (km/s) = 7.28755 7.49997 7.39453
#
# Compressibility (1/GPa) = 0.01414996
#
# Stress axis : x y z
#
# Youngs Moduli (GPa) = 79.99302 97.34124 69.48490
#
# Poissons Ratio (x) = 0.28059 0.30358
# Poissons Ratio (y) = 0.23059 0.29576
# Poissons Ratio (z) = 0.34949 0.41432
#
# Static dielectric constant tensor:
#      x y z
#    x 4.019780 -0.265620 0.076930 
#    y -0.265620 4.254960 -0.082290 
#    z 0.076930 -0.082290 4.239130 
# 
# 
# High freq. dielectric constant tensor:
#      x y z
#    x 1.861560 -0.008080 0.000430 
#    y -0.008080 1.882200 -0.007210 
#    z 0.000430 -0.007210 1.880950 
# 
# From -- ./inp_files/494786.got.cif
#   From: 2010.06.25/outbox.cif.g09.slc.cpg/sg2_248_cif.got.tgz:494786.got - 2010.06.27 13:26:56.
