data_PCOD8027019
_publ_section_title
;
Structure prediction by ZEFSAII (Michael W. Deem and Ramdas Pophale) SiO2 
 PCOD8027019
Probable space group: P -1
;
_chemical_formula_sum "Si O2"
_cell_formula_units_Z 12
_cell_length_a 7.675797
_cell_length_b 15.925922
_cell_length_c 5.023585
_cell_angle_alpha 66.776343
_cell_angle_beta 70.405405
_cell_angle_gamma 53.728788
_cell_volume 450.649983
_symmetry_space_group_name_H-M "P -1"
_symmetry_group_IT_number 2
_symmetry_cell_setting 'triclinic'
loop_
_space_group_symop_operation_xyz
x,y,z
-x,-y,-z
loop_
_atom_site_type_symbol
_atom_site_label
_atom_site_fract_x
_atom_site_fract_y
_atom_site_fract_z
Si Si1 0.865475 0.171942 0.901682
Si Si2 0.748112 0.915486 0.536084
Si Si3 0.376648 0.615577 0.547822
Si Si4 0.690757 0.681765 0.524460
Si Si5 0.919717 0.683386 0.904727
Si Si6 0.727417 0.107617 0.553908
O O1 0.717187 0.298248 0.751345
O O2 0.786889 0.109004 0.830405
O O3 0.117030 0.127773 0.755606
O O4 0.834763 0.157421 0.245182
O O5 0.790749 0.813702 0.811882
O O6 0.500000 0.000000 0.500000
O O7 0.826191 0.983591 0.581432
O O8 0.500000 0.500000 0.500000
O O9 0.544514 0.629956 0.623471
O O10 0.178166 0.631280 0.812335
O O11 0.822424 0.641609 0.781957
O O12 0.534249 0.813240 0.446671
O O13 0.875189 0.644419 0.252391
#
# Coordination Sequence:
#
# PCOD8027019 Si02
#       6
#     2   2   2   2   2   2
#     4  10  24  44  64  94 132 170 222 278 324 397
#     4  11  23  39  65  99 132 176 219 264 331 401
#     4  10  25  47  74 101 133 180 229 282 345 400
#     4  11  24  46  70  99 143 175 223 285 336 397
#     4  11  26  46  68 104 140 176 227 280 331 406
#     4  11  22  43  66  93 134 177 217 267 332 394
#
# _framework density 26.628202000000002
#
# number of rings (size 3 to 8) (size 9 to 14) (size 15 to 20)
#    0.000    1.333    1.667    3.000    0.000   12.667 
#    0.000   11.667    0.000    0.000    0.000    0.000 
#    0.000    0.000    0.000    0.000    0.000    0.000 
#
# Total GULP energy -148834.756568 kJ/mol
# GULP energy per Si atom -12402.896381 kJ/mol
# Density = 2.656760 g / cm^3
# Si number density = 26.628202 Si / 1000 Ang^3
#
#
#
# Elastic Constant Matrix: (Units=GPa)
#
#
# Indices 1 2 3 4 5 6 
#
# 1 118.1452 53.5598 36.9450 7.3156 -23.9032 6.8623
# 2 53.5598 146.2583 16.1627 17.9182 -8.9956 12.0621
# 3 36.9450 16.1627 97.8705 22.0535 -8.2446 0.9772
# 4 7.3156 17.9182 22.0535 20.0617 -3.3562 -2.0060
# 5 -23.9032 -8.9956 -8.2446 -3.3562 35.1698 8.1743
# 6 6.8623 12.0621 0.9772 -2.0060 8.1743 32.6136
#
#
#
# Elastic Compliance Matrix: (Units=1/GPa)
#
#
# Indices 1 2 3 4 5 6 
#
# 1 0.013376 -0.004299 -0.004843 0.005349 0.008008 -0.002758
# 2 -0.004299 0.009639 0.002288 -0.009904 -0.000094 -0.003315
# 3 -0.004843 0.002288 0.015621 -0.017649 -0.000433 -0.001272
# 4 0.005349 -0.009904 -0.017649 0.077306 0.002680 0.007149
# 5 0.008008 -0.000094 -0.000433 0.002680 0.036473 -0.010614
# 6 -0.002758 -0.003315 -0.001272 0.007149 -0.010614 0.035606
#
#
# Mechanical properties :
#
#
# Convention : Reuss Voigt Hill
#
# Bulk Modulus (GPa) = 40.11326 63.95654 52.03490
# Shear Modulus (GPa) = 23.80504 34.60946 29.20725
#
# Velocity S-wave (km/s) = 2.99319 3.60909 3.31547
# Velocity P-wave (km/s) = 5.20024 6.43722 5.85151
#
# Compressibility (1/GPa) = 0.02492941
#
# Stress axis : x y z
#
# Youngs Moduli (GPa) = 74.75845 103.74000 64.01646
#
# Poissons Ratio (x) = 0.44594 0.31002
# Poissons Ratio (y) = 0.32136 -0.14645
# Poissons Ratio (z) = 0.36204 -0.23732
#
# Static dielectric constant tensor:
#      x y z
#    x 5.038280 0.103350 -0.219020 
#    y 0.103350 4.952460 0.212340 
#    z -0.219020 0.212340 4.522980 
# 
# 
# High freq. dielectric constant tensor:
#      x y z
#    x 2.085140 -0.004430 -0.007840 
#    y -0.004430 2.068790 0.018820 
#    z -0.007840 0.018820 2.055880 
# 
# From -- ./inp_files/41700.got.cif
#   From: 2010.06.25/outbox.cif.g09.slc.cpg/sg2_21_cif.got.tgz:41700.got - 2010.06.27 13:26:56.
