data_PCOD8027158
_publ_section_title
;
Structure prediction by ZEFSAII (Michael W. Deem and Ramdas Pophale) SiO2 
 PCOD8027158
Probable space group: P -1
;
_chemical_formula_sum "Si O2"
_cell_formula_units_Z 12
_cell_length_a 15.583095
_cell_length_b 10.419381
_cell_length_c 5.069756
_cell_angle_alpha 76.716359
_cell_angle_beta 76.910210
_cell_angle_gamma 38.204484
_cell_volume 494.032680
_symmetry_space_group_name_H-M "P -1"
_symmetry_group_IT_number 2
_symmetry_cell_setting 'triclinic'
loop_
_space_group_symop_operation_xyz
x,y,z
-x,-y,-z
loop_
_atom_site_type_symbol
_atom_site_label
_atom_site_fract_x
_atom_site_fract_y
_atom_site_fract_z
Si Si1 0.302946 0.066126 0.752533
Si Si2 0.285998 0.248724 0.164241
Si Si3 0.415760 0.361630 0.151565
Si Si4 0.009249 0.353746 0.724306
Si Si5 0.057947 0.009907 0.700952
Si Si6 0.359423 0.581422 0.579632
O O1 0.287294 0.128756 0.431396
O O2 0.149297 0.189684 0.885401
O O3 0.419651 0.816673 0.806374
O O4 0.349069 0.125908 0.901274
O O5 0.375407 0.255834 0.245040
O O6 0.132321 0.482372 0.084884
O O7 0.328857 0.548990 0.332863
O O8 0.385094 0.438194 0.840807
O O9 0.000000 0.500000 0.500000
O O10 0.007697 0.219942 0.620819
O O11 0.226409 0.819308 0.653996
O O12 0.000000 0.000000 0.500000
O O13 0.000000 0.000000 0.000000
O O14 0.500000 0.500000 0.500000
#
# Coordination Sequence:
#
# PCOD8027158 Si02
#       6
#     2   2   2   2   2   2
#     4  11  23  40  65  98 134 176 223 279 341 412
#     4  11  22  40  64  98 133 175 225 281 343 410
#     4  12  24  43  67  96 136 181 227 285 346 411
#     4  10  24  44  69 100 136 180 231 286 344 410
#     4  12  27  48  74 105 142 186 235 289 350 417
#     4  12  26  45  68  99 135 182 233 288 345 412
#
# _framework density 24.289892999999999
#
# number of rings (size 3 to 8) (size 9 to 14) (size 15 to 20)
#    0.000    0.667    0.000    8.000    0.000    9.333 
#    0.000    0.000    0.000    0.000    0.000    0.000 
#    0.000    0.000    0.000    0.000    0.000    0.000 
#
# Total GULP energy -148766.106754 kJ/mol
# GULP energy per Si atom -12397.175563 kJ/mol
# Density = 2.423461 g / cm^3
# Si number density = 24.289893 Si / 1000 Ang^3
#
#
#
# Elastic Constant Matrix: (Units=GPa)
#
#
# Indices 1 2 3 4 5 6 
#
# 1 84.1409 21.5411 28.4531 5.2993 -3.3494 11.6049
# 2 21.5411 132.3265 26.9979 8.6032 -18.4348 -2.0364
# 3 28.4531 26.9979 108.1644 12.0264 5.2099 8.3673
# 4 5.2993 8.6032 12.0264 37.2310 -0.5875 1.7103
# 5 -3.3494 -18.4348 5.2099 -0.5875 28.0108 7.5266
# 6 11.6049 -2.0364 8.3673 1.7103 7.5266 55.6960
#
#
#
# Elastic Compliance Matrix: (Units=1/GPa)
#
#
# Indices 1 2 3 4 5 6 
#
# 1 0.013769 -0.001324 -0.003127 -0.000486 0.002075 -0.002713
# 2 -0.001324 0.009144 -0.002114 -0.001149 0.006195 0.000126
# 3 -0.003127 -0.002114 0.011115 -0.002693 -0.003753 -0.000506
# 4 -0.000486 -0.001149 -0.002693 0.028091 0.000397 -0.000452
# 5 0.002075 0.006195 -0.003753 0.000397 0.042170 -0.005353
# 6 -0.002713 0.000126 -0.000506 -0.000452 -0.005353 0.019338
#
#
# Mechanical properties :
#
#
# Convention : Reuss Voigt Hill
#
# Bulk Modulus (GPa) = 47.85740 53.17956 50.51848
# Shear Modulus (GPa) = 34.78896 40.69685 37.74291
#
# Velocity S-wave (km/s) = 3.78860 4.09768 3.94617
# Velocity P-wave (km/s) = 6.23565 6.65802 6.45030
#
# Compressibility (1/GPa) = 0.02089541
#
# Stress axis : x y z
#
# Youngs Moduli (GPa) = 72.62760 109.36526 89.96964
#
# Poissons Ratio (x) = 0.14484 0.28137
# Poissons Ratio (y) = 0.09618 0.19021
# Poissons Ratio (z) = 0.22714 0.23122
#
# Static dielectric constant tensor:
#      x y z
#    x 4.747590 -0.413310 -0.222560 
#    y -0.413310 4.883180 0.271530 
#    z -0.222560 0.271530 4.141170 
# 
# 
# High freq. dielectric constant tensor:
#      x y z
#    x 1.973600 -0.014220 0.006190 
#    y -0.014220 1.985220 0.011280 
#    z 0.006190 0.011280 1.946810 
# 
# From -- ./inp_files/90055.got.cif
#   From: 2010.06.25/outbox.cif.g09.slc.cpg/sg2_46_cif.got.tgz:90055.got - 2010.06.27 13:26:56.
