data_PCOD8027191
_publ_section_title
;
Structure prediction by ZEFSAII (Michael W. Deem and Ramdas Pophale) SiO2 
 PCOD8027191
Probable space group: P -1
;
_chemical_formula_sum "Si O2"
_cell_formula_units_Z 14
_cell_length_a 14.477890
_cell_length_b 13.667500
_cell_length_c 13.192738
_cell_angle_alpha 43.850676
_cell_angle_beta 41.562989
_cell_angle_gamma 20.503930
_cell_volume 604.325335
_symmetry_space_group_name_H-M "P -1"
_symmetry_group_IT_number 2
_symmetry_cell_setting 'triclinic'
loop_
_space_group_symop_operation_xyz
x,y,z
-x,-y,-z
loop_
_atom_site_type_symbol
_atom_site_label
_atom_site_fract_x
_atom_site_fract_y
_atom_site_fract_z
Si Si1 0.412045 0.929144 0.672264
Si Si2 0.434889 0.356393 0.049631
Si Si3 0.973342 0.056114 0.647824
Si Si4 0.209510 0.385752 0.834542
Si Si5 0.893531 0.762933 0.117440
Si Si6 0.571958 0.354109 0.256546
Si Si7 0.201095 0.015871 0.307635
O O1 0.621958 0.665308 0.776634
O O2 0.357894 0.864992 0.675370
O O3 0.500000 0.000000 0.500000
O O4 0.143849 0.204038 0.753709
O O5 0.221639 0.484780 0.043376
O O6 0.734451 0.041896 0.996649
O O7 0.421586 0.538738 0.922624
O O8 0.734090 0.372438 0.647147
O O9 0.810588 0.069547 0.719166
O O10 0.180559 0.821046 0.740345
O O11 0.183427 0.942764 0.479836
O O12 0.238180 0.259526 0.808024
O O13 0.514671 0.143963 0.809954
O O14 0.074748 0.648884 0.713953
O O15 0.000000 0.500000 0.000000
#
# Coordination Sequence:
#
# PCOD8027191 Si02
#       7
#     2   2   2   2   2   2   2
#     4  10  27  45  71 103 146 184 234 289 364 421
#     4  10  24  44  69  98 144 180 236 291 345 421
#     4  11  27  44  75 102 137 192 237 300 349 421
#     4  12  26  43  75 104 144 192 230 293 364 418
#     4  10  25  43  69 101 142 182 234 288 352 424
#     4  12  25  44  76 102 137 190 241 287 359 424
#     4  11  26  48  67 104 148 178 245 295 354 422
#
# _framework density 23.166329000000001
#
# number of rings (size 3 to 8) (size 9 to 14) (size 15 to 20)
#    0.857    0.286    0.000    4.286   12.000    3.429 
#    0.000    0.000    0.000    0.000    0.000    0.000 
#    0.000    0.000    0.000    0.000    0.000    0.000 
#
# Total GULP energy -173454.457263 kJ/mol
# GULP energy per Si atom -12389.604090 kJ/mol
# Density = 2.311360 g / cm^3
# Si number density = 23.166329 Si / 1000 Ang^3
#
#
#
# Elastic Constant Matrix: (Units=GPa)
#
#
# Indices 1 2 3 4 5 6 
#
# 1 128.6290 42.3693 52.4647 1.6759 -6.4383 5.2317
# 2 42.3693 110.0823 29.0215 7.6806 8.1904 -12.7993
# 3 52.4647 29.0215 125.5153 -11.4093 -7.6969 -5.4731
# 4 1.6759 7.6806 -11.4093 33.4507 -1.1151 -9.0386
# 5 -6.4383 8.1904 -7.6969 -1.1151 31.8486 -2.5213
# 6 5.2317 -12.7993 -5.4731 -9.0386 -2.5213 44.5122
#
#
#
# Elastic Compliance Matrix: (Units=1/GPa)
#
#
# Indices 1 2 3 4 5 6 
#
# 1 0.010731 -0.003469 -0.003867 -0.001809 0.001826 -0.002998
# 2 -0.003469 0.011624 -0.001572 -0.002393 -0.003929 0.002849
# 3 -0.003867 -0.001572 0.010661 0.004942 0.002567 0.002462
# 4 -0.001809 -0.002393 0.004942 0.034294 0.003221 0.007278
# 5 0.001826 -0.003929 0.002567 0.003221 0.033632 0.001530
# 6 -0.002998 0.002849 0.002462 0.007278 0.001530 0.025505
#
#
# Mechanical properties :
#
#
# Convention : Reuss Voigt Hill
#
# Bulk Modulus (GPa) = 65.78566 67.99305 66.88936
# Shear Modulus (GPa) = 33.48309 37.98705 35.73507
#
# Velocity S-wave (km/s) = 3.80588 4.05378 3.93178
# Velocity P-wave (km/s) = 6.91171 7.16411 7.03904
#
# Compressibility (1/GPa) = 0.01520088
#
# Stress axis : x y z
#
# Youngs Moduli (GPa) = 93.18807 86.02765 93.80192
#
# Poissons Ratio (x) = 0.29844 0.36269
# Poissons Ratio (y) = 0.32328 0.14744
# Poissons Ratio (z) = 0.36032 0.13522
#
# Static dielectric constant tensor:
#      x y z
#    x 4.126690 0.107870 0.008640 
#    y 0.107870 4.260620 -0.131050 
#    z 0.008640 -0.131050 4.102130 
# 
# 
# High freq. dielectric constant tensor:
#      x y z
#    x 1.913530 -0.003610 0.002060 
#    y -0.003610 1.922560 -0.007530 
#    z 0.002060 -0.007530 1.913660 
# 
# From -- ./inp_files/534244.got.cif
#   From: 2010.06.25/outbox.cif.g09.slc.cpg/sg2_268_cif.got.tgz:534244.got - 2010.06.27 13:26:56.
