data_PCOD8027222
_publ_section_title
;
Structure prediction by ZEFSAII (Michael W. Deem and Ramdas Pophale) SiO2 
 PCOD8027222
Probable space group: P -1
;
_chemical_formula_sum "Si O2"
_cell_formula_units_Z 12
_cell_length_a 12.337311
_cell_length_b 15.077754
_cell_length_c 9.837783
_cell_angle_alpha 132.724201
_cell_angle_beta 37.580816
_cell_angle_gamma 151.688009
_cell_volume 528.159725
_symmetry_space_group_name_H-M "P -1"
_symmetry_group_IT_number 2
_symmetry_cell_setting 'triclinic'
loop_
_space_group_symop_operation_xyz
x,y,z
-x,-y,-z
loop_
_atom_site_type_symbol
_atom_site_label
_atom_site_fract_x
_atom_site_fract_y
_atom_site_fract_z
Si Si1 0.735955 0.928046 0.242591
Si Si2 0.962089 0.795261 0.235691
Si Si3 0.970999 0.526722 0.906411
Si Si4 0.583622 0.856153 0.032452
Si Si5 0.094294 0.220819 0.404925
Si Si6 0.449368 0.638386 0.437477
O O1 0.602435 0.921223 0.234898
O O2 0.544233 0.720971 0.277103
O O3 0.817611 0.064054 0.423856
O O4 0.000000 0.000000 0.000000
O O5 0.992564 0.818442 0.391716
O O6 0.718978 0.759686 0.391818
O O7 0.879680 0.618629 0.085325
O O8 0.254099 0.978391 0.066414
O O9 0.270543 0.661685 0.683475
O O10 0.740853 0.319326 0.855692
O O11 0.000000 0.500000 0.000000
O O12 0.704673 0.785201 0.829232
O O13 0.254665 0.422015 0.407191
#
# Coordination Sequence:
#
# PCOD8027222 Si02
#       6
#     2   2   2   2   2   2
#     4  10  24  44  70 104 136 188 233 274 345 418
#     4  12  24  45  75 101 139 184 228 291 343 405
#     4  12  27  44  69 110 140 173 236 288 346 405
#     4  11  25  45  70 103 141 183 232 281 347 413
#     4  11  22  40  74 101 134 183 234 279 343 405
#     4  12  24  44  75 102 138 185 230 284 345 408
#
# _framework density 22.720400999999999
#
# number of rings (size 3 to 8) (size 9 to 14) (size 15 to 20)
#    0.000    0.667    6.667    2.000    2.333    6.667 
#    0.000    1.667    0.000    0.000    0.000    0.000 
#    0.000    0.000    0.000    0.000    0.000    0.000 
#
# Total GULP energy -148759.848540 kJ/mol
# GULP energy per Si atom -12396.654045 kJ/mol
# Density = 2.266869 g / cm^3
# Si number density = 22.720401 Si / 1000 Ang^3
#
#
#
# Elastic Constant Matrix: (Units=GPa)
#
#
# Indices 1 2 3 4 5 6 
#
# 1 91.1417 66.2575 51.6588 -16.0974 36.4246 11.6223
# 2 66.2575 111.5774 58.2682 -13.5636 33.9612 7.8516
# 3 51.6588 58.2682 94.3414 -20.4874 24.5184 0.0411
# 4 -16.0974 -13.5636 -20.4874 37.8290 -2.3663 7.5127
# 5 36.4246 33.9612 24.5184 -2.3663 48.7724 -8.9221
# 6 11.6223 7.8516 0.0411 7.5127 -8.9221 39.4716
#
#
#
# Elastic Compliance Matrix: (Units=1/GPa)
#
#
# Indices 1 2 3 4 5 6 
#
# 1 0.028474 -0.007914 -0.005098 0.007905 -0.014947 -0.011688
# 2 -0.007914 0.018120 -0.005705 0.000225 -0.004243 -0.002270
# 3 -0.005098 -0.005705 0.018319 0.005374 -0.000915 0.001387
# 4 0.007905 0.000225 0.005374 0.034401 -0.009101 -0.010983
# 5 -0.014947 -0.004243 -0.000915 -0.009101 0.037465 0.015447
# 6 -0.011688 -0.002270 0.001387 -0.010983 0.015447 0.034808
#
#
# Mechanical properties :
#
#
# Convention : Reuss Voigt Hill
#
# Bulk Modulus (GPa) = 36.39110 72.15884 54.27497
# Shear Modulus (GPa) = 22.91670 33.27300 28.09485
#
# Velocity S-wave (km/s) = 3.17935 3.83097 3.52027
# Velocity P-wave (km/s) = 5.43410 7.16916 6.36107
#
# Compressibility (1/GPa) = 0.02747924
#
# Stress axis : x y z
#
# Youngs Moduli (GPa) = 35.11914 55.18778 54.58771
#
# Poissons Ratio (x) = 0.43675 0.27828
# Poissons Ratio (y) = 0.27793 0.31145
# Poissons Ratio (z) = 0.17903 0.31487
#
# Static dielectric constant tensor:
#      x y z
#    x 4.336140 -0.380760 0.097670 
#    y -0.380760 4.105150 0.054630 
#    z 0.097670 0.054630 4.136880 
# 
# 
# High freq. dielectric constant tensor:
#      x y z
#    x 1.895060 -0.000930 0.009500 
#    y -0.000930 1.907420 -0.009650 
#    z 0.009500 -0.009650 1.894330 
# 
# From -- ./inp_files/243820.got.cif
#   From: 2010.06.25/outbox.cif.g09.slc.cpg/sg2_122_cif.got.tgz:243820.got - 2010.06.27 13:26:56.
