data_PCOD8027890
_publ_section_title
;
Structure prediction by ZEFSAII (Michael W. Deem and Ramdas Pophale) SiO2 
 PCOD8027890
Probable space group: P -1
;
_chemical_formula_sum "Si O2"
_cell_formula_units_Z 16
_cell_length_a 8.750096
_cell_length_b 11.601731
_cell_length_c 14.597455
_cell_angle_alpha 52.619516
_cell_angle_beta 129.192090
_cell_angle_gamma 138.726174
_cell_volume 731.863572
_symmetry_space_group_name_H-M "P -1"
_symmetry_group_IT_number 2
_symmetry_cell_setting 'triclinic'
loop_
_space_group_symop_operation_xyz
x,y,z
-x,-y,-z
loop_
_atom_site_type_symbol
_atom_site_label
_atom_site_fract_x
_atom_site_fract_y
_atom_site_fract_z
Si Si1 0.351944 0.558995 0.463819
Si Si2 0.581628 0.840730 0.928543
Si Si3 0.251323 0.231535 0.155744
Si Si4 0.768593 0.872140 0.181441
Si Si5 0.921403 0.206873 0.554428
Si Si6 0.536456 0.810972 0.571046
Si Si7 0.653937 0.209693 0.802831
Si Si8 0.118884 0.484740 0.962828
O O1 0.500000 0.500000 0.500000
O O2 0.508192 0.662975 0.564127
O O3 0.347924 0.701524 0.333760
O O4 0.075004 0.379902 0.462759
O O5 0.729916 0.831984 0.906488
O O6 0.291355 0.680186 0.885589
O O7 0.618478 0.028082 0.850041
O O8 0.667180 0.806126 0.072884
O O9 0.443456 0.239299 0.293297
O O10 0.292980 0.422314 0.080281
O O11 0.973794 0.087613 0.156364
O O12 0.554654 0.828298 0.188996
O O13 0.888563 0.774140 0.308179
O O14 0.711943 0.205359 0.527783
O O15 0.778280 0.014072 0.539272
O O16 0.916277 0.344506 0.882814
O O17 0.000000 0.500000 0.000000
#
# Coordination Sequence:
#
# PCOD8027890 Si02
#       8
#     2   2   2   2   2   2   2   2
#     4  12  27  46  71 105 138 186 237 285 348 421
#     4  12  26  46  74 103 145 182 237 289 353 416
#     4  11  26  46  72 107 140 187 234 291 349 417
#     4  11  22  47  72  99 146 180 229 288 353 409
#     4  10  24  48  72 101 138 189 228 294 348 409
#     4  10  26  47  72 100 145 180 236 288 356 403
#     4  12  27  46  71 106 143 186 233 288 354 418
#     4  12  26  45  72 104 143 188 228 287 355 419
#
# _framework density 21.861996999999999
#
# number of rings (size 3 to 8) (size 9 to 14) (size 15 to 20)
#    0.000    0.750    3.750    2.250   10.500    0.500 
#    0.000    0.000    0.000    0.000    0.000    0.000 
#    0.000    0.000    0.000    0.000    0.000    0.000 
#
# Total GULP energy -198448.455427 kJ/mol
# GULP energy per Si atom -12403.028464 kJ/mol
# Density = 2.181224 g / cm^3
# Si number density = 21.861997 Si / 1000 Ang^3
#
#
#
# Elastic Constant Matrix: (Units=GPa)
#
#
# Indices 1 2 3 4 5 6 
#
# 1 115.1099 67.0254 62.7440 0.4131 -0.7121 -12.5952
# 2 67.0254 165.1417 55.0647 -15.0548 -1.6440 1.1106
# 3 62.7440 55.0647 117.2945 -2.4011 3.1525 -5.5805
# 4 0.4131 -15.0548 -2.4011 17.1843 2.9240 -3.4012
# 5 -0.7121 -1.6440 3.1525 2.9240 34.6316 -2.6919
# 6 -12.5952 1.1106 -5.5805 -3.4012 -2.6919 43.4397
#
#
#
# Elastic Compliance Matrix: (Units=1/GPa)
#
#
# Indices 1 2 3 4 5 6 
#
# 1 0.014895 -0.004550 -0.005801 -0.004699 0.001279 0.003401
# 2 -0.004550 0.009206 -0.001780 0.007730 -0.000240 -0.001193
# 3 -0.005801 -0.001780 0.012509 0.000551 -0.001395 -0.000073
# 4 -0.004699 0.007730 0.000551 0.066707 -0.005147 0.003415
# 5 0.001279 -0.000240 -0.001395 -0.005147 0.029578 0.001628
# 6 0.003401 -0.001193 -0.000073 0.003415 0.001628 0.024396
#
#
# Mechanical properties :
#
#
# Convention : Reuss Voigt Hill
#
# Bulk Modulus (GPa) = 80.97436 85.24602 83.11019
# Shear Modulus (GPa) = 26.92958 33.23192 30.08075
#
# Velocity S-wave (km/s) = 3.51351 3.90305 3.71339
# Velocity P-wave (km/s) = 7.31976 7.70643 7.51559
#
# Compressibility (1/GPa) = 0.01234959
#
# Stress axis : x y z
#
# Youngs Moduli (GPa) = 67.13462 108.62560 79.93951
#
# Poissons Ratio (x) = 0.49423 0.46371
# Poissons Ratio (y) = 0.30545 0.14229
# Poissons Ratio (z) = 0.38943 0.19335
#
# Static dielectric constant tensor:
#      x y z
#    x 3.365000 0.176580 1.125120 
#    y 0.176580 4.296870 -0.106340 
#    z 1.125120 -0.106340 1.501660 
# 
# 
# High freq. dielectric constant tensor:
#      x y z
#    x 1.856840 0.004420 0.004840 
#    y 0.004420 1.879200 -0.005900 
#    z 0.004840 -0.005900 1.862940 
# 
# From -- ./inp_files/306163.got.cif
#   From: 2010.06.25/outbox.cif.g09.slc.cpg/sg2_154_cif.got.tgz:306163.got - 2010.06.27 13:26:56.
