data_PCOD8027096
_publ_section_title
;
Structure prediction by ZEFSAII (Michael W. Deem and Ramdas Pophale) SiO2 
 PCOD8027096
Probable space group: P -1
;
_chemical_formula_sum "Si O2"
_cell_formula_units_Z 16
_cell_length_a 9.711391
_cell_length_b 15.732873
_cell_length_c 15.215246
_cell_angle_alpha 151.582826
_cell_angle_beta 89.108777
_cell_angle_gamma 110.572167
_cell_volume 779.274989
_symmetry_space_group_name_H-M "P -1"
_symmetry_group_IT_number 2
_symmetry_cell_setting 'triclinic'
loop_
_space_group_symop_operation_xyz
x,y,z
-x,-y,-z
loop_
_atom_site_type_symbol
_atom_site_label
_atom_site_fract_x
_atom_site_fract_y
_atom_site_fract_z
Si Si1 0.233385 0.164646 0.547589
Si Si2 0.948054 0.576805 0.435630
Si Si3 0.671595 0.683611 0.733064
Si Si4 0.007381 0.749244 0.787161
Si Si5 0.697532 0.020635 0.322002
Si Si6 0.419990 0.605908 0.813976
Si Si7 0.223896 0.265149 0.834201
Si Si8 0.548567 0.185049 0.593415
O O1 0.305998 0.350296 0.635594
O O2 0.277276 0.306045 0.767773
O O3 0.344125 0.076222 0.460571
O O4 0.005094 0.918161 0.315187
O O5 0.944415 0.360489 0.244145
O O6 0.728616 0.434962 0.287695
O O7 0.023049 0.714361 0.653259
O O8 0.091562 0.779193 0.543234
O O9 0.500000 0.500000 0.500000
O O10 0.594796 0.683130 0.826037
O O11 0.786832 0.607059 0.682846
O O12 0.828079 0.951870 0.925594
O O13 0.698139 0.847922 0.227870
O O14 0.666314 0.181055 0.516078
O O15 0.519666 0.839786 0.090632
O O16 0.324346 0.529917 0.116366
O O17 0.500000 0.000000 0.500000
#
# Coordination Sequence:
#
# PCOD8027096 Si02
#       8
#     2   2   2   2   2   2   2   2
#     4  11  24  44  70 101 134 183 225 278 336 397
#     4  11  24  44  65  96 130 174 223 282 334 401
#     4  11  23  43  69  98 130 177 221 277 343 408
#     4  10  24  44  67  93 134 170 223 280 346 397
#     4  12  25  44  67 101 138 178 225 281 337 397
#     4  12  24  42  69  97 134 176 232 275 333 404
#     4  11  24  47  71  94 144 182 219 282 340 392
#     4  12  25  43  69 100 135 182 231 270 338 407
#
# _framework density 20.531904999999998
#
# number of rings (size 3 to 8) (size 9 to 14) (size 15 to 20)
#    0.000    0.750    6.250    1.125    1.750    3.000 
#    2.250    0.000    0.000    0.000    0.000    0.000 
#    0.000    0.000    0.000    0.000    0.000    0.000 
#
# Total GULP energy -198436.821949 kJ/mol
# GULP energy per Si atom -12402.301372 kJ/mol
# Density = 2.048517 g / cm^3
# Si number density = 20.531905 Si / 1000 Ang^3
#
#
#
# Elastic Constant Matrix: (Units=GPa)
#
#
# Indices 1 2 3 4 5 6 
#
# 1 146.7975 49.6469 42.9370 6.4274 -6.5141 4.0844
# 2 49.6469 80.6240 28.3683 12.0035 2.8264 -5.0538
# 3 42.9370 28.3683 87.2198 -1.1293 -4.5909 3.3743
# 4 6.4274 12.0035 -1.1293 25.0167 -2.1046 2.0923
# 5 -6.5141 2.8264 -4.5909 -2.1046 32.8337 3.1773
# 6 4.0844 -5.0538 3.3743 2.0923 3.1773 34.1696
#
#
#
# Elastic Compliance Matrix: (Units=1/GPa)
#
#
# Indices 1 2 3 4 5 6 
#
# 1 0.009490 -0.005059 -0.002843 0.000190 0.002108 -0.001810
# 2 -0.005059 0.018681 -0.004099 -0.008593 -0.004189 0.004688
# 3 -0.002843 -0.004099 0.014447 0.003717 0.002253 -0.002130
# 4 0.000190 -0.008593 0.003717 0.045012 0.004652 -0.004849
# 5 0.002108 -0.004189 0.002253 0.004652 0.032272 -0.004380
# 6 -0.001810 0.004688 -0.002130 -0.004849 -0.004380 0.031090
#
#
# Mechanical properties :
#
#
# Convention : Reuss Voigt Hill
#
# Bulk Modulus (GPa) = 53.71518 61.83843 57.77680
# Shear Modulus (GPa) = 27.59384 31.31661 29.45523
#
# Velocity S-wave (km/s) = 3.66997 3.90970 3.79173
# Velocity P-wave (km/s) = 6.64657 7.11088 6.88264
#
# Compressibility (1/GPa) = 0.01861671
#
# Stress axis : x y z
#
# Youngs Moduli (GPa) = 105.37121 53.53086 69.21840
#
# Poissons Ratio (x) = 0.27082 0.19679
# Poissons Ratio (y) = 0.53309 0.28369
# Poissons Ratio (z) = 0.29957 0.21940
#
# Static dielectric constant tensor:
#      x y z
#    x 4.276510 0.194530 0.013250 
#    y 0.194530 3.839310 0.011190 
#    z 0.013250 0.011190 3.718960 
# 
# 
# High freq. dielectric constant tensor:
#      x y z
#    x 1.819780 0.004100 0.008340 
#    y 0.004100 1.808870 0.004990 
#    z 0.008340 0.004990 1.803240 
# 
# From -- ./inp_files/315080.got.cif
#   From: 2010.06.25/outbox.cif.g09.slc.cpg/sg2_158_cif.got.tgz:315080.got - 2010.06.27 13:26:56.
