data_PCOD8027713
_publ_section_title
;
Structure prediction by ZEFSAII (Michael W. Deem and Ramdas Pophale) SiO2 
 PCOD8027713
Probable space group: P -1
;
_chemical_formula_sum "Si O2"
_cell_formula_units_Z 10
_cell_length_a 8.940980
_cell_length_b 11.778478
_cell_length_c 9.134530
_cell_angle_alpha 58.181039
_cell_angle_beta 148.885132
_cell_angle_gamma 108.899473
_cell_volume 404.204611
_symmetry_space_group_name_H-M "P -1"
_symmetry_group_IT_number 2
_symmetry_cell_setting 'triclinic'
loop_
_space_group_symop_operation_xyz
x,y,z
-x,-y,-z
loop_
_atom_site_type_symbol
_atom_site_label
_atom_site_fract_x
_atom_site_fract_y
_atom_site_fract_z
Si Si1 0.161102 0.427327 0.829000
Si Si2 0.536959 0.797407 0.970887
Si Si3 0.710771 0.058442 0.822420
Si Si4 0.031664 0.694399 0.689277
Si Si5 0.064227 0.241390 0.108791
O O1 0.000000 0.500000 0.500000
O O2 0.429222 0.296159 0.084971
O O3 0.259681 0.543075 0.930597
O O4 0.962287 0.359711 0.816925
O O5 0.734138 0.719236 0.325336
O O6 0.189526 0.817630 0.712072
O O7 0.615586 0.939960 0.911990
O O8 0.408008 0.145917 0.424743
O O9 0.820878 0.154264 0.965725
O O10 0.000000 0.000000 0.000000
O O11 0.939342 0.687997 0.784319
#
# Coordination Sequence:
#
# PCOD8027713 Si02
#       5
#     2   2   2   2   2
#     4  10  24  46  72 101 138 184 230 280 334 415
#     4  11  24  44  71  98 142 180 228 274 339 408
#     4  12  26  45  72 103 136 181 233 282 335 414
#     4  11  25  44  68 107 138 178 224 284 344 403
#     4  12  26  44  74 101 141 179 226 288 345 395
#
# _framework density 24.739944999999999
#
# number of rings (size 3 to 8) (size 9 to 14) (size 15 to 20)
#    0.000    0.800    2.000    4.200    2.800    8.000 
#    0.000    7.000    0.000    0.000    0.000    0.000 
#    0.000    0.000    0.000    0.000    0.000    0.000 
#
# Total GULP energy -123910.175502 kJ/mol
# GULP energy per Si atom -12391.017550 kJ/mol
# Density = 2.468364 g / cm^3
# Si number density = 24.739945 Si / 1000 Ang^3
#
#
#
# Elastic Constant Matrix: (Units=GPa)
#
#
# Indices 1 2 3 4 5 6 
#
# 1 135.1196 54.0915 27.7675 -15.3149 -21.4373 14.8793
# 2 54.0915 135.9579 32.0960 -5.4971 -7.1157 18.2353
# 3 27.7675 32.0960 75.6253 -7.5146 -0.6332 8.7405
# 4 -15.3149 -5.4971 -7.5146 16.7497 20.3951 1.3982
# 5 -21.4373 -7.1157 -0.6332 20.3951 33.2666 8.6832
# 6 14.8793 18.2353 8.7405 1.3982 8.6832 30.3730
#
#
#
# Elastic Compliance Matrix: (Units=1/GPa)
#
#
# Indices 1 2 3 4 5 6 
#
# 1 0.010764 -0.002498 -0.002614 -0.005031 0.010984 -0.005929
# 2 -0.002498 0.009949 -0.003566 -0.009707 0.007841 -0.005518
# 3 -0.002614 -0.003566 0.018259 0.031146 -0.021983 0.003018
# 4 -0.005031 -0.009707 0.031146 0.325317 -0.216222 0.046168
# 5 0.010984 0.007841 -0.021983 -0.216222 0.182998 -0.046126
# 6 -0.005929 -0.005518 0.003018 0.046168 -0.046126 0.049334
#
#
# Mechanical properties :
#
#
# Convention : Reuss Voigt Hill
#
# Bulk Modulus (GPa) = 46.26821 63.84585 55.05703
# Shear Modulus (GPa) = 8.04915 31.59436 19.82175
#
# Velocity S-wave (km/s) = 1.80570 3.57747 2.83363
# Velocity P-wave (km/s) = 4.80519 6.55189 5.74531
#
# Compressibility (1/GPa) = 0.02161311
#
# Stress axis : x y z
#
# Youngs Moduli (GPa) = 92.90506 100.51076 54.76880
#
# Poissons Ratio (x) = 0.25112 0.14319
# Poissons Ratio (y) = 0.23212 0.19532
# Poissons Ratio (z) = 0.24289 0.35845
#
# Static dielectric constant tensor:
#      x y z
#    x 4.424700 -0.181440 -0.014310 
#    y -0.181440 4.958880 -0.109690 
#    z -0.014310 -0.109690 4.259270 
# 
# 
# High freq. dielectric constant tensor:
#      x y z
#    x 1.993210 0.001020 -0.012760 
#    y 0.001020 2.000260 0.005310 
#    z -0.012760 0.005310 1.960130 
# 
# From -- ./inp_files/20607.got.cif
#   From: 2010.06.25/outbox.cif.g09.slc.cpg/sg2_11_cif.got.tgz:20607.got - 2010.06.27 13:26:56.
