data_PCOD8027835
_publ_section_title
;
Structure prediction by ZEFSAII (Michael W. Deem and Ramdas Pophale) SiO2 
 PCOD8027835
Probable space group: P -1
;
_chemical_formula_sum "Si O2"
_cell_formula_units_Z 16
_cell_length_a 9.085594
_cell_length_b 11.210843
_cell_length_c 20.480587
_cell_angle_alpha 30.325209
_cell_angle_beta 130.802058
_cell_angle_gamma 141.149342
_cell_volume 659.555508
_symmetry_space_group_name_H-M "P -1"
_symmetry_group_IT_number 2
_symmetry_cell_setting 'triclinic'
loop_
_space_group_symop_operation_xyz
x,y,z
-x,-y,-z
loop_
_atom_site_type_symbol
_atom_site_label
_atom_site_fract_x
_atom_site_fract_y
_atom_site_fract_z
Si Si1 0.239784 0.538217 0.679122
Si Si2 0.851797 0.774257 0.618207
Si Si3 0.468202 0.855342 0.474851
Si Si4 0.449313 0.852695 0.208672
Si Si5 0.042222 0.696959 0.839167
Si Si6 0.247048 0.145365 0.962979
Si Si7 0.752580 0.638827 0.902883
Si Si8 0.264630 0.854186 0.287151
O O1 0.259739 0.599706 0.578333
O O2 0.242688 0.267761 0.832988
O O3 0.975273 0.444777 0.663040
O O4 0.456214 0.820483 0.643927
O O5 0.696714 0.872976 0.558071
O O6 0.667370 0.480574 0.666489
O O7 0.005971 0.749690 0.728898
O O8 0.000000 0.000000 0.500000
O O9 0.398093 0.786901 0.411512
O O10 0.425278 0.976071 0.212392
O O11 0.726465 0.018915 0.197263
O O12 0.313440 0.913698 0.084637
O O13 0.823613 0.639010 0.847165
O O14 0.088217 0.444529 0.971799
O O15 0.472983 0.410276 0.941835
O O16 0.000000 0.000000 0.000000
O O17 0.809758 0.940615 0.802331
#
# Coordination Sequence:
#
# PCOD8027835 Si02
#       8
#     2   2   2   2   2   2   2   2
#     4  11  24  44  68 106 137 182 235 298 351 415
#     4  12  27  45  71  98 148 196 233 290 358 433
#     4  11  26  45  69 101 145 187 240 288 355 425
#     4  11  27  44  70 110 140 192 238 293 358 431
#     4  10  25  49  71 102 148 186 239 290 361 431
#     4  11  22  44  72 104 145 177 241 299 351 421
#     4  10  24  47  73 107 142 186 233 306 359 416
#     4  12  24  44  74 105 141 184 241 298 353 415
#
# _framework density 24.258762999999998
#
# number of rings (size 3 to 8) (size 9 to 14) (size 15 to 20)
#    0.000    1.000    2.500    2.625    5.250    6.000 
#    0.000    2.500    0.000    0.000    0.000    0.000 
#    0.000    0.000    0.000    0.000    0.000    0.000 
#
# Total GULP energy -198237.683168 kJ/mol
# GULP energy per Si atom -12389.855198 kJ/mol
# Density = 2.420355 g / cm^3
# Si number density = 24.258763 Si / 1000 Ang^3
#
#
#
# Elastic Constant Matrix: (Units=GPa)
#
#
# Indices 1 2 3 4 5 6 
#
# 1 76.1019 18.7050 31.4766 -3.7198 -8.1475 15.8916
# 2 18.7050 82.7875 40.4419 9.8264 -11.7434 21.8620
# 3 31.4766 40.4419 159.0524 10.5026 -22.4687 1.5919
# 4 -3.7198 9.8264 10.5026 45.0909 2.6994 -5.1836
# 5 -8.1475 -11.7434 -22.4687 2.6994 34.3889 -0.8806
# 6 15.8916 21.8620 1.5919 -5.1836 -0.8806 36.3292
#
#
#
# Elastic Compliance Matrix: (Units=1/GPa)
#
#
# Indices 1 2 3 4 5 6 
#
# 1 0.015988 -0.000476 -0.002851 0.001265 0.001500 -0.006365
# 2 -0.000476 0.017876 -0.003503 -0.004605 0.003784 -0.010961
# 3 -0.002851 -0.003503 0.008328 -0.001303 0.003746 0.002895
# 4 0.001265 -0.004605 -0.001303 0.024475 -0.003900 0.005673
# 5 0.001500 0.003784 0.003746 -0.003900 0.033408 -0.002844
# 6 -0.006365 -0.010961 0.002895 0.005673 -0.002844 0.037520
#
#
# Mechanical properties :
#
#
# Convention : Reuss Voigt Hill
#
# Bulk Modulus (GPa) = 35.04739 55.46545 45.25642
# Shear Modulus (GPa) = 31.10137 38.31636 34.70887
#
# Velocity S-wave (km/s) = 3.58448 3.97859 3.78666
# Velocity P-wave (km/s) = 5.62228 6.63470 6.14936
#
# Compressibility (1/GPa) = 0.02853280
#
# Stress axis : x y z
#
# Youngs Moduli (GPa) = 62.54631 55.94238 120.07179
#
# Poissons Ratio (x) = 0.02663 0.34231
# Poissons Ratio (y) = 0.02978 0.42057
# Poissons Ratio (z) = 0.17831 0.19594
#
# Static dielectric constant tensor:
#      x y z
#    x 3.918560 0.269390 0.057660 
#    y 0.269390 4.168770 0.042080 
#    z 0.057660 0.042080 4.638190 
# 
# 
# High freq. dielectric constant tensor:
#      x y z
#    x 1.942130 0.028390 -0.008510 
#    y 0.028390 1.961380 0.001870 
#    z -0.008510 0.001870 1.987450 
# 
# From -- ./inp_files/570804.got.cif
#   From: 2010.06.25/outbox.cif.g09.slc.cpg/sg2_286_cif.got.tgz:570804.got - 2010.06.27 13:26:56.
