data_PCOD8027324
_publ_section_title
;
Structure prediction by ZEFSAII (Michael W. Deem and Ramdas Pophale) SiO2 
 PCOD8027324
Probable space group: P -1
;
_chemical_formula_sum "Si O2"
_cell_formula_units_Z 16
_cell_length_a 5.273388
_cell_length_b 14.885214
_cell_length_c 12.501013
_cell_angle_alpha 138.328736
_cell_angle_beta 86.971125
_cell_angle_gamma 99.607689
_cell_volume 639.380943
_symmetry_space_group_name_H-M "P -1"
_symmetry_group_IT_number 2
_symmetry_cell_setting 'triclinic'
loop_
_space_group_symop_operation_xyz
x,y,z
-x,-y,-z
loop_
_atom_site_type_symbol
_atom_site_label
_atom_site_fract_x
_atom_site_fract_y
_atom_site_fract_z
Si Si1 0.542701 0.684533 0.917921
Si Si2 0.988670 0.319538 0.379954
Si Si3 0.960423 0.873327 0.966778
Si Si4 0.345568 0.348829 0.885144
Si Si5 0.517745 0.406334 0.550584
Si Si6 0.310233 0.841394 0.581936
Si Si7 0.183018 0.788694 0.303204
Si Si8 0.267147 0.899260 0.185000
O O1 0.470064 0.534420 0.734857
O O2 0.665900 0.799010 0.929670
O O3 0.727497 0.677215 0.010577
O O4 0.296358 0.740725 0.019167
O O5 0.294442 0.378845 0.441048
O O6 0.198502 0.567831 0.494292
O O7 0.921584 0.249778 0.202669
O O8 0.918065 0.196579 0.359906
O O9 0.073682 0.933240 0.130328
O O10 0.000000 0.000000 0.000000
O O11 0.537944 0.252266 0.753789
O O12 0.076006 0.328760 0.807591
O O13 0.500000 0.500000 0.000000
O O14 0.510192 0.276302 0.515776
O O15 0.181169 0.848104 0.474806
O O16 0.467619 0.992153 0.738589
O O17 0.161903 0.903211 0.313013
#
# Coordination Sequence:
#
# PCOD8027324 Si02
#       8
#     2   2   2   2   2   2   2   2
#     4  11  26  44  74 107 147 186 242 303 357 431
#     4  10  26  44  72 104 139 194 241 290 358 425
#     4  12  26  47  76 102 148 192 246 300 361 427
#     4  11  24  43  71 108 145 193 233 291 365 429
#     4  10  25  46  71 106 143 186 242 294 360 427
#     4  10  24  44  74 103 150 191 240 291 363 430
#     4  11  24  43  69 108 142 188 238 298 353 432
#     4  11  25  47  70 108 143 192 244 299 359 429
#
# _framework density 25.024206
#
# number of rings (size 3 to 8) (size 9 to 14) (size 15 to 20)
#    0.750    0.500    1.250    3.000    7.000    2.000 
#    0.000    1.875    0.000    0.000    0.000    0.000 
#    0.000    0.000    0.000    0.000    0.000    0.000 
#
# Total GULP energy -198261.201848 kJ/mol
# GULP energy per Si atom -12391.325115 kJ/mol
# Density = 2.496725 g / cm^3
# Si number density = 25.024206 Si / 1000 Ang^3
#
#
#
# Elastic Constant Matrix: (Units=GPa)
#
#
# Indices 1 2 3 4 5 6 
#
# 1 94.6330 16.4006 15.6789 7.5101 24.4789 11.1066
# 2 16.4006 62.7860 6.0621 -14.4245 1.0671 -20.6217
# 3 15.6789 6.0621 85.7214 0.0878 23.2941 -8.1034
# 4 7.5101 -14.4245 0.0878 44.1335 -7.0314 1.0759
# 5 24.4789 1.0671 23.2941 -7.0314 31.5974 -3.0881
# 6 11.1066 -20.6217 -8.1034 1.0759 -3.0881 32.9015
#
#
#
# Elastic Compliance Matrix: (Units=1/GPa)
#
#
# Indices 1 2 3 4 5 6 
#
# 1 0.020666 -0.012986 0.001135 -0.010609 -0.020372 -0.016401
# 2 -0.012986 0.030332 -0.001827 0.014069 0.015857 0.023973
# 3 0.001135 -0.001827 0.015080 -0.002832 -0.012457 0.001109
# 4 -0.010609 0.014069 -0.002832 0.031647 0.018083 0.012364
# 5 -0.020372 0.015857 -0.012457 0.018083 0.061956 0.018971
# 6 -0.016401 0.023973 0.001109 0.012364 0.018971 0.052606
#
#
# Mechanical properties :
#
#
# Convention : Reuss Voigt Hill
#
# Bulk Modulus (GPa) = 25.82478 35.49150 30.65814
# Shear Modulus (GPa) = 19.79794 35.39308 27.59551
#
# Velocity S-wave (km/s) = 2.81579 3.76487 3.32437
# Velocity P-wave (km/s) = 4.57317 5.75436 5.19743
#
# Compressibility (1/GPa) = 0.03872250
#
# Stress axis : x y z
#
# Youngs Moduli (GPa) = 48.38803 32.96822 66.31267
#
# Poissons Ratio (x) = 0.42812 -0.07525
# Poissons Ratio (y) = 0.62836 0.12115
# Poissons Ratio (z) = -0.05491 0.06023
#
# Static dielectric constant tensor:
#      x y z
#    x 1.419530 1.535060 2.659930 
#    y 1.535060 3.910170 -1.649640 
#    z 2.659930 -1.649640 2.063710 
# 
# 
# High freq. dielectric constant tensor:
#      x y z
#    x 1.979470 0.003980 0.002130 
#    y 0.003980 2.013000 -0.008900 
#    z 0.002130 -0.008900 1.999000 
# 
# From -- ./inp_files/368080.got.cif
#   From: 2010.06.25/outbox.cif.g09.slc.cpg/sg2_185_cif.got.tgz:368080.got - 2010.06.27 13:26:56.
