data_PCOD8027190
_publ_section_title
;
Structure prediction by ZEFSAII (Michael W. Deem and Ramdas Pophale) SiO2 
 PCOD8027190
Probable space group: P -1
;
_chemical_formula_sum "Si O2"
_cell_formula_units_Z 16
_cell_length_a 11.871309
_cell_length_b 8.894973
_cell_length_c 14.294384
_cell_angle_alpha 82.153230
_cell_angle_beta 29.484374
_cell_angle_gamma 72.589340
_cell_volume 683.744639
_symmetry_space_group_name_H-M "P -1"
_symmetry_group_IT_number 2
_symmetry_cell_setting 'triclinic'
loop_
_space_group_symop_operation_xyz
x,y,z
-x,-y,-z
loop_
_atom_site_type_symbol
_atom_site_label
_atom_site_fract_x
_atom_site_fract_y
_atom_site_fract_z
Si Si1 0.824565 0.942755 0.192818
Si Si2 0.034230 0.341960 0.549429
Si Si3 0.332011 0.934175 0.504755
Si Si4 0.065449 0.436917 0.234219
Si Si5 0.365123 0.156222 0.179849
Si Si6 0.441262 0.574760 0.434518
Si Si7 0.164163 0.912732 0.255856
Si Si8 0.121056 0.567331 0.989264
O O1 0.551539 0.004583 0.338329
O O2 0.802097 0.029950 0.301365
O O3 0.948703 0.747395 0.129474
O O4 0.000000 0.000000 0.000000
O O5 0.295257 0.215970 0.331498
O O6 0.000000 0.500000 0.500000
O O7 0.033128 0.387642 0.655479
O O8 0.820282 0.263844 0.698177
O O9 0.481418 0.744153 0.392798
O O10 0.122883 0.010199 0.571892
O O11 0.268766 0.297654 0.158594
O O12 0.841124 0.378084 0.390452
O O13 0.170600 0.454969 0.055552
O O14 0.247271 0.017157 0.262909
O O15 0.660068 0.095743 0.960498
O O16 0.500000 0.500000 0.500000
O O17 0.612527 0.450356 0.243358
O O18 0.000000 0.500000 0.000000
#
# Coordination Sequence:
#
# PCOD8027190 Si02
#       8
#     2   2   2   2   2   2   2   2
#     4  11  25  43  67 100 139 180 228 282 354 423
#     4  10  24  44  69  98 139 182 236 293 349 413
#     4  11  24  43  67 101 138 180 228 292 346 414
#     4  11  24  43  68 100 137 182 230 286 354 409
#     4  10  24  45  70 102 138 190 238 288 348 419
#     4  12  23  42  71  98 141 181 234 284 348 427
#     4  11  23  44  71 101 142 179 241 291 350 421
#     4  12  24  42  68 100 135 179 231 285 349 419
#
# _framework density 23.400549000000002
#
# number of rings (size 3 to 8) (size 9 to 14) (size 15 to 20)
#    0.000    1.000    3.750    1.875    0.000   10.000 
#    4.500    0.000    0.000    0.000    0.000    0.000 
#    0.000    0.000    0.000    0.000    0.000    0.000 
#
# Total GULP energy -198284.847511 kJ/mol
# GULP energy per Si atom -12392.802969 kJ/mol
# Density = 2.334729 g / cm^3
# Si number density = 23.400549 Si / 1000 Ang^3
#
#
#
# Elastic Constant Matrix: (Units=GPa)
#
#
# Indices 1 2 3 4 5 6 
#
# 1 74.9012 30.5208 33.0766 -5.0197 13.0734 0.1451
# 2 30.5208 98.5933 26.3119 -15.0794 2.7268 11.5960
# 3 33.0766 26.3119 126.0617 -8.1186 11.9354 1.1068
# 4 -5.0197 -15.0794 -8.1186 43.1210 4.8338 6.7800
# 5 13.0734 2.7268 11.9354 4.8338 47.4514 8.1093
# 6 0.1451 11.5960 1.1068 6.7800 8.1093 30.5144
#
#
#
# Elastic Compliance Matrix: (Units=1/GPa)
#
#
# Indices 1 2 3 4 5 6 
#
# 1 0.017450 -0.004826 -0.003216 -0.000269 -0.004215 0.003048
# 2 -0.004826 0.013435 -0.001319 0.004739 0.001516 -0.006491
# 3 -0.003216 -0.001319 0.009260 0.001023 -0.001533 0.000361
# 4 -0.000269 0.004739 0.001023 0.026353 -0.001912 -0.007184
# 5 -0.004215 0.001516 -0.001533 -0.001912 0.023824 -0.006407
# 6 0.003048 -0.006491 0.000361 -0.007184 -0.006407 0.038509
#
#
# Mechanical properties :
#
#
# Convention : Reuss Voigt Hill
#
# Bulk Modulus (GPa) = 46.68363 53.26388 49.97376
# Shear Modulus (GPa) = 32.32197 38.19382 35.25790
#
# Velocity S-wave (km/s) = 3.72055 4.04440 3.88585
# Velocity P-wave (km/s) = 6.20079 6.67988 6.44479
#
# Compressibility (1/GPa) = 0.02142078
#
# Stress axis : x y z
#
# Youngs Moduli (GPa) = 57.30793 74.43241 107.99513
#
# Poissons Ratio (x) = 0.35924 0.34733
# Poissons Ratio (y) = 0.27659 0.14247
# Poissons Ratio (z) = 0.18431 0.09819
#
# Static dielectric constant tensor:
#      x y z
#    x 4.122150 0.393890 0.327110 
#    y 0.393890 4.642050 0.154480 
#    z 0.327110 0.154480 4.620860 
# 
# 
# High freq. dielectric constant tensor:
#      x y z
#    x 1.910660 0.014710 0.011170 
#    y 0.014710 1.930470 -0.001280 
#    z 0.011170 -0.001280 1.944170 
# 
# From -- ./inp_files/515490.got.cif
#   From: 2010.06.25/outbox.cif.g09.slc.cpg/sg2_258_cif.got.tgz:515490.got - 2010.06.27 13:26:56.
