data_PCOD8027056
_publ_section_title
;
Structure prediction by ZEFSAII (Michael W. Deem and Ramdas Pophale) SiO2 
 PCOD8027056
Probable space group: P -1
;
_chemical_formula_sum "Si O2"
_cell_formula_units_Z 14
_cell_length_a 6.452728
_cell_length_b 9.747664
_cell_length_c 17.372022
_cell_angle_alpha 125.809797
_cell_angle_beta 123.576492
_cell_angle_gamma 45.227416
_cell_volume 609.917980
_symmetry_space_group_name_H-M "P -1"
_symmetry_group_IT_number 2
_symmetry_cell_setting 'triclinic'
loop_
_space_group_symop_operation_xyz
x,y,z
-x,-y,-z
loop_
_atom_site_type_symbol
_atom_site_label
_atom_site_fract_x
_atom_site_fract_y
_atom_site_fract_z
Si Si1 0.550439 0.008888 0.742732
Si Si2 0.252897 0.721639 0.791337
Si Si3 0.614226 0.579505 0.145981
Si Si4 0.241116 0.555875 0.572687
Si Si5 0.996479 0.264454 0.005638
Si Si6 0.264348 0.812774 0.538378
Si Si7 0.561222 0.975551 0.103185
O O1 0.392201 0.238392 0.750037
O O2 0.386729 0.054844 0.806175
O O3 0.492048 0.869782 0.632664
O O4 0.903608 0.894176 0.788089
O O5 0.388163 0.571320 0.843198
O O6 0.299392 0.588811 0.682336
O O7 0.421568 0.833976 0.855874
O O8 0.901008 0.455199 0.105930
O O9 0.315180 0.704978 0.072199
O O10 0.130628 0.757570 0.564605
O O11 0.561958 0.374899 0.546234
O O12 0.000000 0.500000 0.500000
O O13 0.223681 0.052217 0.030732
O O14 0.184700 0.237825 0.957352
O O15 0.000000 0.000000 0.500000
#
# Coordination Sequence:
#
# PCOD8027056 Si02
#       7
#     2   2   2   2   2   2   2
#     4  12  25  46  67 103 142 175 228 285 343 404
#     4  12  25  46  69 103 139 182 224 284 346 400
#     4  11  26  42  72 101 139 181 233 284 338 402
#     4  11  25  46  73 101 140 177 221 280 345 408
#     4  10  24  44  66 107 132 183 238 282 337 402
#     4  11  27  45  72 107 136 175 228 281 337 414
#     4  11  24  44  73  93 143 185 222 289 346 393
#
# _framework density 22.953906
#
# number of rings (size 3 to 8) (size 9 to 14) (size 15 to 20)
#    0.000    0.857    5.714    0.000    2.000   12.000 
#    0.000    0.000    0.000    0.000    0.000    0.000 
#    0.000    0.000    0.000    0.000    0.000    0.000 
#
# Total GULP energy -173528.644915 kJ/mol
# GULP energy per Si atom -12394.903208 kJ/mol
# Density = 2.290166 g / cm^3
# Si number density = 22.953906 Si / 1000 Ang^3
#
#
#
# Elastic Constant Matrix: (Units=GPa)
#
#
# Indices 1 2 3 4 5 6 
#
# 1 80.9843 45.0497 20.7441 3.8906 -11.3535 -5.3515
# 2 45.0497 125.9632 26.7076 1.3237 -4.9982 -0.4157
# 3 20.7441 26.7076 77.4551 6.4961 -23.7332 -7.5745
# 4 3.8906 1.3237 6.4961 38.3359 -3.6828 -0.0737
# 5 -11.3535 -4.9982 -23.7332 -3.6828 40.1130 6.6743
# 6 -5.3515 -0.4157 -7.5745 -0.0737 6.6743 44.4150
#
#
#
# Elastic Compliance Matrix: (Units=1/GPa)
#
#
# Indices 1 2 3 4 5 6 
#
# 1 0.016222 -0.005372 -0.001441 -0.000948 0.002776 0.001240
# 2 -0.005372 0.010373 -0.002774 0.000493 -0.001696 -0.000768
# 3 -0.001441 -0.002774 0.017330 -0.001817 0.009103 0.001385
# 4 -0.000948 0.000493 -0.001817 0.026592 0.001253 -0.000564
# 5 0.002776 -0.001696 0.009103 0.001253 0.031480 -0.002857
# 6 0.001240 -0.000768 0.001385 -0.000564 -0.002857 0.023322
#
#
# Mechanical properties :
#
#
# Convention : Reuss Voigt Hill
#
# Bulk Modulus (GPa) = 40.40181 52.15615 46.27898
# Shear Modulus (GPa) = 32.73448 37.36620 35.05034
#
# Velocity S-wave (km/s) = 3.78047 4.03908 3.91191
# Velocity P-wave (km/s) = 6.05767 6.67260 6.37256
#
# Compressibility (1/GPa) = 0.02475137
#
# Stress axis : x y z
#
# Youngs Moduli (GPa) = 61.64414 96.40146 57.70243
#
# Poissons Ratio (x) = 0.51787 0.08314
# Poissons Ratio (y) = 0.33115 0.16008
# Poissons Ratio (z) = 0.08882 0.26745
#
# Static dielectric constant tensor:
#      x y z
#    x 4.482940 0.077470 0.359180 
#    y 0.077470 4.288750 0.552370 
#    z 0.359180 0.552370 5.197770 
# 
# 
# High freq. dielectric constant tensor:
#      x y z
#    x 1.905710 -0.010890 -0.013300 
#    y -0.010890 1.908700 0.011430 
#    z -0.013300 0.011430 1.913440 
# 
# From -- ./inp_files/106149.got.cif
#   From: 2010.06.25/outbox.cif.g09.slc.cpg/sg2_54_cif.got.tgz:106149.got - 2010.06.27 13:26:56.
