data_PCOD8027643
_publ_section_title
;
Structure prediction by ZEFSAII (Michael W. Deem and Ramdas Pophale) SiO2 
 PCOD8027643
Probable space group: P -1
;
_chemical_formula_sum "Si O2"
_cell_formula_units_Z 16
_cell_length_a 15.808098
_cell_length_b 9.276712
_cell_length_c 19.755533
_cell_angle_alpha 140.351357
_cell_angle_beta 26.495117
_cell_angle_gamma 142.964359
_cell_volume 761.644215
_symmetry_space_group_name_H-M "P -1"
_symmetry_group_IT_number 2
_symmetry_cell_setting 'triclinic'
loop_
_space_group_symop_operation_xyz
x,y,z
-x,-y,-z
loop_
_atom_site_type_symbol
_atom_site_label
_atom_site_fract_x
_atom_site_fract_y
_atom_site_fract_z
Si Si1 0.551580 0.115785 0.669470
Si Si2 0.526377 0.664592 0.605408
Si Si3 0.385650 0.420750 0.121274
Si Si4 0.980491 0.896564 0.400915
Si Si5 0.341837 0.743014 0.048563
Si Si6 0.808449 0.800250 0.104770
Si Si7 0.856767 0.648438 0.160702
Si Si8 0.038869 0.922409 0.662797
O O1 0.601166 0.361407 0.762176
O O2 0.373321 0.097762 0.737145
O O3 0.756187 0.128995 0.488545
O O4 0.486728 0.901725 0.694483
O O5 0.500000 0.500000 0.500000
O O6 0.747980 0.709210 0.493049
O O7 0.374870 0.541766 0.731094
O O8 0.144350 0.263893 0.229329
O O9 0.500000 0.500000 0.000000
O O10 0.510127 0.266200 0.002251
O O11 0.136919 0.762009 0.231690
O O12 0.017643 0.091906 0.382577
O O13 0.000000 0.000000 0.500000
O O14 0.264767 0.488239 0.968223
O O15 0.500000 0.000000 0.000000
O O16 0.869313 0.811679 0.144273
O O17 0.000000 0.000000 0.000000
O O18 0.924394 0.810150 0.238522
O O19 0.000000 0.500000 0.000000
#
# Coordination Sequence:
#
# PCOD8027643 Si02
#       8
#     2   2   2   2   2   2   2   2
#     4  10  24  46  68  96 148 177 229 294 350 427
#     4  11  24  47  71 104 140 185 235 292 354 423
#     4  11  26  42  69  99 138 186 224 287 354 414
#     4  11  25  42  73 104 137 181 235 297 348 413
#     4  11  25  46  70 100 140 179 240 292 339 425
#     4  11  27  45  70 105 143 185 232 296 357 417
#     4  12  26  42  77 102 137 187 234 293 349 425
#     4  11  24  46  67 102 138 183 233 282 353 424
#
# _framework density 21.007182
#
# number of rings (size 3 to 8) (size 9 to 14) (size 15 to 20)
#    0.000    1.000    3.750    1.875   12.250    0.500 
#    2.250    0.000    0.000    0.000    0.000    0.000 
#    0.000    0.000    0.000    0.000    0.000    0.000 
#
# Total GULP energy -198222.414478 kJ/mol
# GULP energy per Si atom -12388.900905 kJ/mol
# Density = 2.095937 g / cm^3
# Si number density = 21.007182 Si / 1000 Ang^3
#
#
#
# Elastic Constant Matrix: (Units=GPa)
#
#
# Indices 1 2 3 4 5 6 
#
# 1 125.9925 57.6222 76.5434 -4.3276 -7.5906 -2.3010
# 2 57.6222 127.3993 57.2202 -29.9585 -8.4400 -9.7371
# 3 76.5434 57.2202 161.4603 -15.7998 -18.7260 -6.0305
# 4 -4.3276 -29.9585 -15.7998 43.0189 -9.7136 1.1687
# 5 -7.5906 -8.4400 -18.7260 -9.7136 32.7259 1.4580
# 6 -2.3010 -9.7371 -6.0305 1.1687 1.4580 34.2133
#
#
#
# Elastic Compliance Matrix: (Units=1/GPa)
#
#
# Indices 1 2 3 4 5 6 
#
# 1 0.013001 -0.004856 -0.005221 -0.004528 -0.002516 -0.001166
# 2 -0.004856 0.013089 -0.000819 0.009246 0.004403 0.002751
# 3 -0.005221 -0.000819 0.009980 0.003760 0.005368 0.000818
# 4 -0.004528 0.009246 0.003760 0.033602 0.013403 0.001271
# 5 -0.002516 0.004403 0.005368 0.013403 0.038161 -0.000054
# 6 -0.001166 0.002751 0.000818 0.001271 -0.000054 0.030036
#
#
# Mechanical properties :
#
#
# Convention : Reuss Voigt Hill
#
# Bulk Modulus (GPa) = 70.03184 88.62483 79.32834
# Shear Modulus (GPa) = 30.40990 36.88939 33.64965
#
# Velocity S-wave (km/s) = 3.80886 4.19506 4.00661
# Velocity P-wave (km/s) = 7.26310 8.10827 7.69730
#
# Compressibility (1/GPa) = 0.01427922
#
# Stress axis : x y z
#
# Youngs Moduli (GPa) = 76.91482 76.39717 100.20282
#
# Poissons Ratio (x) = 0.37099 0.52317
# Poissons Ratio (y) = 0.37350 0.08202
# Poissons Ratio (z) = 0.40158 0.06254
#
# Static dielectric constant tensor:
#      x y z
#    x 3.990760 -0.183100 -0.416440 
#    y -0.183100 4.859740 0.197000 
#    z -0.416440 0.197000 4.285480 
# 
# 
# High freq. dielectric constant tensor:
#      x y z
#    x 1.824100 0.001520 -0.014060 
#    y 0.001520 1.832200 -0.007430 
#    z -0.014060 -0.007430 1.839820 
# 
# From -- ./inp_files/572926.got.cif
#   From: 2010.06.25/outbox.cif.g09.slc.cpg/sg2_287_cif.got.tgz:572926.got - 2010.06.27 13:26:56.
