data_PCOD8027090
_publ_section_title
;
Structure prediction by ZEFSAII (Michael W. Deem and Ramdas Pophale) SiO2 
 PCOD8027090
Probable space group: P -1
;
_chemical_formula_sum "Si O2"
_cell_formula_units_Z 14
_cell_length_a 8.342284
_cell_length_b 7.862668
_cell_length_c 9.744841
_cell_angle_alpha 104.477253
_cell_angle_beta 79.795313
_cell_angle_gamma 67.595225
_cell_volume 545.030020
_symmetry_space_group_name_H-M "P -1"
_symmetry_group_IT_number 2
_symmetry_cell_setting 'triclinic'
loop_
_space_group_symop_operation_xyz
x,y,z
-x,-y,-z
loop_
_atom_site_type_symbol
_atom_site_label
_atom_site_fract_x
_atom_site_fract_y
_atom_site_fract_z
Si Si1 0.160311 0.282812 0.946563
Si Si2 0.392888 0.631271 0.844513
Si Si3 0.806896 0.819529 0.592543
Si Si4 0.850457 0.960998 0.343901
Si Si5 0.020233 0.783038 0.791315
Si Si6 0.554510 0.226853 0.858928
Si Si7 0.512682 0.696887 0.575103
O O1 0.353005 0.275535 0.954427
O O2 0.179820 0.191583 0.776591
O O3 0.000000 0.500000 0.000000
O O4 0.116478 0.158397 0.046123
O O5 0.217730 0.640360 0.790120
O O6 0.530226 0.401487 0.793664
O O7 0.485277 0.730010 0.750887
O O8 0.337060 0.752100 0.019531
O O9 0.702211 0.704522 0.516302
O O10 0.948618 0.685016 0.662059
O O11 0.922007 0.862533 0.462782
O O12 0.660759 0.018350 0.729380
O O13 0.983920 0.028956 0.254499
O O14 0.652432 0.133117 0.445187
O O15 0.500000 0.500000 0.500000
#
# Coordination Sequence:
#
# PCOD8027090 Si02
#       7
#     2   2   2   2   2   2   2
#     4  12  25  45  74 104 147 193 244 302 365 438
#     4  10  24  44  67 109 143 196 242 305 354 444
#     4  12  26  45  75 110 146 197 245 305 367 443
#     4  11  26  45  72 108 146 194 243 302 373 428
#     4  11  26  46  70 109 149 191 242 302 364 434
#     4  11  24  44  75 106 146 192 254 291 375 432
#     4  11  24  43  73 102 148 192 252 298 369 434
#
# _framework density 25.686658000000001
#
# number of rings (size 3 to 8) (size 9 to 14) (size 15 to 20)
#    0.000    0.857    2.857    3.000    8.000    1.143 
#    0.000   10.714    0.000    0.000    0.000    0.000 
#    0.000    0.000    0.000    0.000    0.000    0.000 
#
# Total GULP energy -173523.843134 kJ/mol
# GULP energy per Si atom -12394.560224 kJ/mol
# Density = 2.562819 g / cm^3
# Si number density = 25.686658 Si / 1000 Ang^3
#
#
#
# Elastic Constant Matrix: (Units=GPa)
#
#
# Indices 1 2 3 4 5 6 
#
# 1 111.0683 26.0655 32.3818 -12.9590 4.4060 6.8738
# 2 26.0655 74.9020 43.2380 -8.3184 9.1823 -0.4968
# 3 32.3818 43.2380 125.0406 -24.9752 12.9794 -2.0473
# 4 -12.9590 -8.3184 -24.9752 54.1236 8.8779 4.7018
# 5 4.4060 9.1823 12.9794 8.8779 38.6359 -9.2981
# 6 6.8738 -0.4968 -2.0473 4.7018 -9.2981 35.7641
#
#
#
# Elastic Compliance Matrix: (Units=1/GPa)
#
#
# Indices 1 2 3 4 5 6 
#
# 1 0.010427 -0.002491 -0.001374 0.001913 -0.001222 -0.002686
# 2 -0.002491 0.017470 -0.005154 0.000083 -0.002193 -0.000155
# 3 -0.001374 -0.005154 0.011488 0.004867 -0.003782 -0.000773
# 4 0.001913 0.000083 0.004867 0.023040 -0.008446 -0.005313
# 5 -0.001222 -0.002193 -0.003782 -0.008446 0.032022 0.009423
# 6 -0.002686 -0.000155 -0.000773 -0.005313 0.009423 0.031579
#
#
# Mechanical properties :
#
#
# Convention : Reuss Voigt Hill
#
# Bulk Modulus (GPa) = 46.84655 57.15349 52.00002
# Shear Modulus (GPa) = 33.07340 39.65976 36.36658
#
# Velocity S-wave (km/s) = 3.59217 3.93362 3.76676
# Velocity P-wave (km/s) = 5.95669 6.55208 6.26146
#
# Compressibility (1/GPa) = 0.02134629
#
# Stress axis : x y z
#
# Youngs Moduli (GPa) = 95.90916 57.24115 87.05072
#
# Poissons Ratio (x) = 0.14258 0.11959
# Poissons Ratio (y) = 0.23890 0.44868
# Poissons Ratio (z) = 0.13176 0.29503
#
# Static dielectric constant tensor:
#      x y z
#    x 4.719140 0.180940 0.087280 
#    y 0.180940 4.416090 -0.541320 
#    z 0.087280 -0.541320 4.831860 
# 
# 
# High freq. dielectric constant tensor:
#      x y z
#    x 2.027040 0.004910 0.007640 
#    y 0.004910 2.019150 -0.020360 
#    z 0.007640 -0.020360 2.037380 
# 
# From -- ./inp_files/159735.got.cif
#   From: 2010.06.25/outbox.cif.g09.slc.cpg/sg2_80_cif.got.tgz:159735.got - 2010.06.27 13:26:56.
