data_PCOD8027009
_publ_section_title
;
Structure prediction by ZEFSAII (Michael W. Deem and Ramdas Pophale) SiO2 
 PCOD8027009
Probable space group: P -1
;
_chemical_formula_sum "Si O2"
_cell_formula_units_Z 14
_cell_length_a 13.273672
_cell_length_b 9.454221
_cell_length_c 13.820068
_cell_angle_alpha 146.070193
_cell_angle_beta 120.712134
_cell_angle_gamma 82.206390
_cell_volume 665.533989
_symmetry_space_group_name_H-M "P -1"
_symmetry_group_IT_number 2
_symmetry_cell_setting 'triclinic'
loop_
_space_group_symop_operation_xyz
x,y,z
-x,-y,-z
loop_
_atom_site_type_symbol
_atom_site_label
_atom_site_fract_x
_atom_site_fract_y
_atom_site_fract_z
Si Si1 0.424464 0.293165 0.437556
Si Si2 0.579487 0.659402 0.910934
Si Si3 0.865856 0.185754 0.800191
Si Si4 0.329941 0.674577 0.099774
Si Si5 0.696987 0.540886 0.243389
Si Si6 0.874837 0.856159 0.780588
Si Si7 0.169801 0.658923 0.652924
O O1 0.500000 0.500000 0.500000
O O2 0.474203 0.494547 0.673602
O O3 0.255250 0.133858 0.241459
O O4 0.450789 0.024425 0.311119
O O5 0.609294 0.432594 0.849723
O O6 0.479322 0.694629 0.955640
O O7 0.732088 0.974904 0.125899
O O8 0.782660 0.286912 0.879966
O O9 0.761529 0.900270 0.511005
O O10 0.940443 0.067264 0.835889
O O11 0.000000 0.500000 0.000000
O O12 0.267736 0.438744 0.842649
O O13 0.766809 0.391810 0.248590
O O14 0.817013 0.502869 0.525897
O O15 0.000000 0.000000 0.000000
O O16 0.000000 0.500000 0.500000
#
# Coordination Sequence:
#
# PCOD8027009 Si02
#       7
#     2   2   2   2   2   2   2
#     4  11  24  43  72 100 131 183 222 283 342 401
#     4  12  24  46  69 100 142 175 228 293 334 405
#     4  10  24  44  67  97 142 177 221 288 338 402
#     4  11  25  42  72 101 135 181 229 274 351 401
#     4  11  24  47  68 100 139 177 234 280 339 408
#     4  10  24  44  63  98 132 172 229 273 337 405
#     4  11  26  42  69  98 135 181 226 280 341 407
#
# _framework density 21.035739
#
# number of rings (size 3 to 8) (size 9 to 14) (size 15 to 20)
#    0.000    1.143    4.286    2.143   12.000    1.714 
#    0.000    0.000    0.000    0.000    0.000    0.000 
#    0.000    0.000    0.000    0.000    0.000    0.000 
#
# Total GULP energy -173456.200626 kJ/mol
# GULP energy per Si atom -12389.728616 kJ/mol
# Density = 2.098786 g / cm^3
# Si number density = 21.035739 Si / 1000 Ang^3
#
#
#
# Elastic Constant Matrix: (Units=GPa)
#
#
# Indices 1 2 3 4 5 6 
#
# 1 107.3490 50.0416 52.0552 6.6702 -0.2611 1.3002
# 2 50.0416 133.3438 52.3655 6.9748 9.5121 -2.4150
# 3 52.0552 52.3655 101.5035 6.1486 7.8172 8.5976
# 4 6.6702 6.9748 6.1486 43.2473 11.1799 2.6245
# 5 -0.2611 9.5121 7.8172 11.1799 42.6630 -4.5180
# 6 1.3002 -2.4150 8.5976 2.6245 -4.5180 36.8500
#
#
#
# Elastic Compliance Matrix: (Units=1/GPa)
#
#
# Indices 1 2 3 4 5 6 
#
# 1 0.013463 -0.002935 -0.005561 -0.001454 0.002243 0.001009
# 2 -0.002935 0.010226 -0.003772 -0.000406 -0.001340 0.001518
# 3 -0.005561 -0.003772 0.015156 0.000176 -0.002429 -0.003897
# 4 -0.001454 -0.000406 0.000176 0.025325 -0.006869 -0.002662
# 5 0.002243 -0.001340 -0.002429 -0.006869 0.026434 0.004130
# 6 0.001009 0.001518 -0.003897 -0.002662 0.004130 0.028806
#
#
# Mechanical properties :
#
#
# Convention : Reuss Voigt Hill
#
# Bulk Modulus (GPa) = 69.87254 72.34677 71.10965
# Shear Modulus (GPa) = 33.62125 37.06764 35.34445
#
# Velocity S-wave (km/s) = 4.00220 4.20232 4.10348
# Velocity P-wave (km/s) = 7.39223 7.61663 7.50527
#
# Compressibility (1/GPa) = 0.01431177
#
# Stress axis : x y z
#
# Youngs Moduli (GPa) = 74.27494 97.78877 65.98046
#
# Poissons Ratio (x) = 0.28696 0.36691
# Poissons Ratio (y) = 0.21796 0.24885
# Poissons Ratio (z) = 0.41303 0.36881
#
# Static dielectric constant tensor:
#      x y z
#    x 3.876800 0.177530 0.060680 
#    y 0.177530 4.128400 0.155920 
#    z 0.060680 0.155920 4.036420 
# 
# 
# High freq. dielectric constant tensor:
#      x y z
#    x 1.825880 0.001450 -0.008930 
#    y 0.001450 1.836450 0.005880 
#    z -0.008930 0.005880 1.821050 
# 
# From -- ./inp_files/318164.got.cif
#   From: 2010.06.25/outbox.cif.g09.slc.cpg/sg2_160_cif.got.tgz:318164.got - 2010.06.27 13:26:56.
