data_PCOD8027709
_publ_section_title
;
Structure prediction by ZEFSAII (Michael W. Deem and Ramdas Pophale) SiO2 
 PCOD8027709
Probable space group: P -1
;
_chemical_formula_sum "Si O2"
_cell_formula_units_Z 12
_cell_length_a 10.617895
_cell_length_b 11.970725
_cell_length_c 8.478570
_cell_angle_alpha 83.282362
_cell_angle_beta 138.149339
_cell_angle_gamma 67.181314
_cell_volume 497.915119
_symmetry_space_group_name_H-M "P -1"
_symmetry_group_IT_number 2
_symmetry_cell_setting 'triclinic'
loop_
_space_group_symop_operation_xyz
x,y,z
-x,-y,-z
loop_
_atom_site_type_symbol
_atom_site_label
_atom_site_fract_x
_atom_site_fract_y
_atom_site_fract_z
Si Si1 0.353256 0.751062 0.801883
Si Si2 0.335893 0.176547 0.387381
Si Si3 0.770635 0.392815 0.667670
Si Si4 0.244186 0.851961 0.354849
Si Si5 0.154397 0.597020 0.611959
Si Si6 0.590800 0.842132 0.175395
O O1 0.265509 0.873353 0.556582
O O2 0.152794 0.730355 0.644593
O O3 0.639378 0.564547 0.063567
O O4 0.371407 0.833841 0.949479
O O5 0.477645 0.231482 0.456181
O O6 0.338765 0.169277 0.577033
O O7 0.500000 0.000000 0.500000
O O8 0.025089 0.319366 0.022863
O O9 0.500000 0.500000 0.500000
O O10 0.818864 0.250188 0.670887
O O11 0.759586 0.466979 0.480697
O O12 0.000000 0.000000 0.000000
O O13 0.850182 0.686248 0.345147
O O14 0.500000 0.000000 0.000000
#
# Coordination Sequence:
#
# PCOD8027709 Si02
#       6
#     2   2   2   2   2   2
#     4  10  24  46  71  99 143 183 236 290 356 421
#     4  12  26  46  70 103 148 184 237 296 354 427
#     4  11  26  45  74 104 142 186 240 293 355 423
#     4  11  24  45  74  99 141 191 233 295 357 419
#     4  10  24  48  71  99 146 185 237 292 355 427
#     4  12  27  42  73 105 140 191 235 294 359 423
#
# _framework density 24.100493
#
# number of rings (size 3 to 8) (size 9 to 14) (size 15 to 20)
#    0.000    1.000    1.667    3.500   11.667    1.333 
#    0.000    0.000    0.000    0.000    0.000    0.000 
#    0.000    0.000    0.000    0.000    0.000    0.000 
#
# Total GULP energy -148667.149046 kJ/mol
# GULP energy per Si atom -12388.929087 kJ/mol
# Density = 2.404564 g / cm^3
# Si number density = 24.100493 Si / 1000 Ang^3
#
#
#
# Elastic Constant Matrix: (Units=GPa)
#
#
# Indices 1 2 3 4 5 6 
#
# 1 99.4264 17.5960 51.4128 17.7074 -2.5180 -11.1250
# 2 17.5960 71.4118 26.5112 23.6897 -12.3501 -3.5028
# 3 51.4128 26.5112 155.5491 22.0318 -11.0029 -11.7457
# 4 17.7074 23.6897 22.0318 41.0365 1.8412 2.4806
# 5 -2.5180 -12.3501 -11.0029 1.8412 42.0053 0.3037
# 6 -11.1250 -3.5028 -11.7457 2.4806 0.3037 42.5612
#
#
#
# Elastic Compliance Matrix: (Units=1/GPa)
#
#
# Indices 1 2 3 4 5 6 
#
# 1 0.012865 -0.000640 -0.003473 -0.003463 -0.000193 0.002555
# 2 -0.000640 0.019131 -0.001013 -0.010586 0.005773 0.001704
# 3 -0.003473 -0.001013 0.008349 -0.002566 0.001783 0.001450
# 4 -0.003463 -0.010586 -0.002566 0.033863 -0.005445 -0.004419
# 5 -0.000193 0.005773 0.001783 -0.005445 0.026190 0.001047
# 6 0.002555 0.001704 0.001450 -0.004419 0.001047 0.024954
#
#
# Mechanical properties :
#
#
# Convention : Reuss Voigt Hill
#
# Bulk Modulus (GPa) = 33.23155 57.49191 45.36173
# Shear Modulus (GPa) = 34.33286 40.51177 37.42231
#
# Velocity S-wave (km/s) = 3.77844 4.10439 3.94478
# Velocity P-wave (km/s) = 5.73186 6.80942 6.29374
#
# Compressibility (1/GPa) = 0.03009189
#
# Stress axis : x y z
#
# Youngs Moduli (GPa) = 77.73263 52.27254 119.78139
#
# Poissons Ratio (x) = 0.03345 0.41604
# Poissons Ratio (y) = 0.04974 0.12130
# Poissons Ratio (z) = 0.26999 0.05294
#
# Static dielectric constant tensor:
#      x y z
#    x 4.271980 0.264320 0.144730 
#    y 0.264320 4.296460 0.344150 
#    z 0.144730 0.344150 4.430150 
# 
# 
# High freq. dielectric constant tensor:
#      x y z
#    x 1.956620 0.018530 -0.007350 
#    y 0.018530 1.949290 0.018570 
#    z -0.007350 0.018570 1.976860 
# 
# From -- ./inp_files/253784.got.cif
#   From: 2010.06.25/outbox.cif.g09.slc.cpg/sg2_127_cif.got.tgz:253784.got - 2010.06.27 13:26:56.
