data_PCOD8027277
_publ_section_title
;
Structure prediction by ZEFSAII (Michael W. Deem and Ramdas Pophale) SiO2 
 PCOD8027277
Probable space group: P -1
;
_chemical_formula_sum "Si O2"
_cell_formula_units_Z 16
_cell_length_a 16.139821
_cell_length_b 15.633739
_cell_length_c 8.161986
_cell_angle_alpha 70.568058
_cell_angle_beta 91.644097
_cell_angle_gamma 151.956213
_cell_volume 732.151380
_symmetry_space_group_name_H-M "P -1"
_symmetry_group_IT_number 2
_symmetry_cell_setting 'triclinic'
loop_
_space_group_symop_operation_xyz
x,y,z
-x,-y,-z
loop_
_atom_site_type_symbol
_atom_site_label
_atom_site_fract_x
_atom_site_fract_y
_atom_site_fract_z
Si Si1 0.838915 0.294973 0.762474
Si Si2 0.996766 0.902485 0.653111
Si Si3 0.501000 0.409144 0.957084
Si Si4 0.391719 0.868311 0.841801
Si Si5 0.536337 0.174168 0.430028
Si Si6 0.049412 0.322539 0.742452
Si Si7 0.805232 0.042387 0.596967
Si Si8 0.144585 0.062831 0.908179
O O1 0.000000 0.500000 0.500000
O O2 0.928535 0.288523 0.830943
O O3 0.599960 0.035559 0.838440
O O4 0.806155 0.321324 0.913220
O O5 0.102991 0.924953 0.561436
O O6 0.745439 0.618592 0.840521
O O7 0.149651 0.075318 0.706905
O O8 0.000000 0.000000 0.500000
O O9 0.392395 0.320402 0.829835
O O10 0.500000 0.500000 0.000000
O O11 0.360573 0.186464 0.164500
O O12 0.330957 0.742715 0.762903
O O13 0.465846 0.039044 0.661698
O O14 0.693246 0.409084 0.369906
O O15 0.315027 0.992804 0.461721
O O16 0.006331 0.279378 0.571724
O O17 0.967394 0.146006 0.924761
O O18 0.000000 0.000000 0.000000
#
# Coordination Sequence:
#
# PCOD8027277 Si02
#       8
#     2   2   2   2   2   2   2   2
#     4  11  22  47  70  99 141 183 230 287 350 418
#     4  12  24  43  69  98 131 184 229 285 352 404
#     4  11  22  45  67  92 136 180 221 285 343 399
#     4  10  24  44  71  99 140 180 225 292 353 418
#     4  11  23  45  70 104 136 180 234 286 356 416
#     4  11  24  44  70  99 137 185 227 284 349 411
#     4  11  25  44  64  98 140 167 236 285 330 423
#     4  11  24  43  70 100 140 182 232 283 345 417
#
# _framework density 21.853404000000001
#
# number of rings (size 3 to 8) (size 9 to 14) (size 15 to 20)
#    0.000    1.000    5.000    1.500    1.750    2.000 
#    6.750    0.000    0.000    0.000    0.000    0.000 
#    0.000    0.000    0.000    0.000    0.000    0.000 
#
# Total GULP energy -198311.560917 kJ/mol
# GULP energy per Si atom -12394.472557 kJ/mol
# Density = 2.180367 g / cm^3
# Si number density = 21.853404 Si / 1000 Ang^3
#
#
#
# Elastic Constant Matrix: (Units=GPa)
#
#
# Indices 1 2 3 4 5 6 
#
# 1 110.0313 19.2459 32.4377 11.0260 -1.8419 -4.5454
# 2 19.2459 150.3940 39.4587 18.2100 -0.4583 -3.6337
# 3 32.4377 39.4587 97.3417 15.8601 -18.1964 -8.4316
# 4 11.0260 18.2100 15.8601 31.5935 -6.6195 3.9944
# 5 -1.8419 -0.4583 -18.1964 -6.6195 38.1849 6.1616
# 6 -4.5454 -3.6337 -8.4316 3.9944 6.1616 35.6448
#
#
#
# Elastic Compliance Matrix: (Units=1/GPa)
#
#
# Indices 1 2 3 4 5 6 
#
# 1 0.010314 -0.000175 -0.003186 -0.002374 -0.001610 0.001088
# 2 -0.000175 0.007868 -0.002854 -0.003575 -0.002032 0.000856
# 3 -0.003186 -0.002854 0.014306 -0.003499 0.005685 0.002096
# 4 -0.002374 -0.003575 -0.003499 0.038404 0.005934 -0.006824
# 5 -0.001610 -0.002032 0.005685 0.005934 0.030635 -0.005028
# 6 0.001088 0.000856 0.002096 -0.006824 -0.005028 0.030410
#
#
# Mechanical properties :
#
#
# Convention : Reuss Voigt Hill
#
# Bulk Modulus (GPa) = 49.85663 60.00573 54.93118
# Shear Modulus (GPa) = 33.10086 38.85962 35.98024
#
# Velocity S-wave (km/s) = 3.89611 4.22144 4.06203
# Velocity P-wave (km/s) = 6.56530 7.16091 6.86957
#
# Compressibility (1/GPa) = 0.02005751
#
# Stress axis : x y z
#
# Youngs Moduli (GPa) = 96.95481 127.09990 69.90093
#
# Poissons Ratio (x) = 0.02226 0.22270
# Poissons Ratio (y) = 0.01698 0.19951
# Poissons Ratio (z) = 0.30889 0.36276
#
# Static dielectric constant tensor:
#      x y z
#    x 3.610530 -0.625640 0.308600 
#    y -0.625640 3.609900 0.720920 
#    z 0.308600 0.720920 3.508650 
# 
# 
# High freq. dielectric constant tensor:
#      x y z
#    x 1.872820 0.005390 0.003940 
#    y 0.005390 1.881340 0.010200 
#    z 0.003940 0.010200 1.836610 
# 
# From -- ./inp_files/314953.got.cif
#   From: 2010.06.25/outbox.cif.g09.slc.cpg/sg2_158_cif.got.tgz:314953.got - 2010.06.27 13:26:56.
