data_PCOD8027164
_publ_section_title
;
Structure prediction by ZEFSAII (Michael W. Deem and Ramdas Pophale) SiO2 
 PCOD8027164
Probable space group: P -1
;
_chemical_formula_sum "Si O2"
_cell_formula_units_Z 16
_cell_length_a 11.588639
_cell_length_b 20.394950
_cell_length_c 9.659940
_cell_angle_alpha 135.465238
_cell_angle_beta 75.978728
_cell_angle_gamma 140.775991
_cell_volume 724.268922
_symmetry_space_group_name_H-M "P -1"
_symmetry_group_IT_number 2
_symmetry_cell_setting 'triclinic'
loop_
_space_group_symop_operation_xyz
x,y,z
-x,-y,-z
loop_
_atom_site_type_symbol
_atom_site_label
_atom_site_fract_x
_atom_site_fract_y
_atom_site_fract_z
Si Si1 0.982462 0.579870 0.714321
Si Si2 0.940542 0.193500 0.411511
Si Si3 0.520575 0.753775 0.477271
Si Si4 0.396954 0.645667 0.036235
Si Si5 0.294207 0.309656 0.970203
Si Si6 0.801879 0.763304 0.410580
Si Si7 0.438669 0.874720 0.224517
Si Si8 0.941397 0.176084 0.068045
O O1 0.057013 0.712926 0.788002
O O2 0.000000 0.500000 0.500000
O O3 0.696836 0.401042 0.577807
O O4 0.165127 0.703722 0.979856
O O5 0.973852 0.124855 0.395157
O O6 0.968481 0.175487 0.221155
O O7 0.133833 0.413472 0.715952
O O8 0.652797 0.027184 0.272296
O O9 0.389923 0.651320 0.212560
O O10 0.735812 0.824967 0.554817
O O11 0.672838 0.956098 0.751357
O O12 0.642727 0.751366 0.084151
O O13 0.427136 0.766916 0.140894
O O14 0.113802 0.185225 0.698744
O O15 0.559457 0.532528 0.172205
O O16 0.178059 0.290342 0.096195
O O17 0.500000 0.000000 0.500000
#
# Coordination Sequence:
#
# PCOD8027164 Si02
#       8
#     2   2   2   2   2   2   2   2
#     4  12  27  47  66  92 143 184 223 271 336 407
#     4  11  26  44  66 106 138 173 225 283 337 398
#     4  11  24  43  71 103 129 182 226 276 335 404
#     4  10  24  44  69 101 135 175 223 285 333 394
#     4   9  20  41  70 100 135 177 220 273 342 404
#     4   9  20  41  71  98 139 170 222 281 333 401
#     4  12  27  44  71  99 133 183 230 279 324 402
#     4  12  26  42  70 104 135 180 222 277 344 401
#
# _framework density 22.091242999999999
#
# number of rings (size 3 to 8) (size 9 to 14) (size 15 to 20)
#    0.000    1.250    1.250    3.750    5.250    9.500 
#    2.250    0.000    0.000    0.000    0.000    0.000 
#    0.000    0.000    0.000    0.000    0.000    0.000 
#
# Total GULP energy -198420.768650 kJ/mol
# GULP energy per Si atom -12401.298041 kJ/mol
# Density = 2.204096 g / cm^3
# Si number density = 22.091243 Si / 1000 Ang^3
#
#
#
# Elastic Constant Matrix: (Units=GPa)
#
#
# Indices 1 2 3 4 5 6 
#
# 1 91.3673 33.0455 16.2624 4.2025 -16.8253 -5.4861
# 2 33.0455 89.6798 21.7674 -11.7570 -14.3721 9.6825
# 3 16.2624 21.7674 90.7379 -2.4247 -15.7325 10.9571
# 4 4.2025 -11.7570 -2.4247 28.3047 -0.3830 -7.9522
# 5 -16.8253 -14.3721 -15.7325 -0.3830 34.1467 2.8108
# 6 -5.4861 9.6825 10.9571 -7.9522 2.8108 32.7704
#
#
#
# Elastic Compliance Matrix: (Units=1/GPa)
#
#
# Indices 1 2 3 4 5 6 
#
# 1 0.014032 -0.005036 -0.001067 -0.003360 0.004016 0.003034
# 2 -0.005036 0.015114 -0.001505 0.005912 0.003555 -0.003676
# 3 -0.001067 -0.001505 0.013028 -0.000595 0.005222 -0.004682
# 4 -0.003360 0.005912 -0.000595 0.040390 0.000381 0.007658
# 5 0.004016 0.003555 0.005222 0.000381 0.035589 -0.005084
# 6 0.003034 -0.003676 -0.004682 0.007658 -0.005084 0.035969
#
#
# Mechanical properties :
#
#
# Convention : Reuss Voigt Hill
#
# Bulk Modulus (GPa) = 37.09432 45.99283 41.54357
# Shear Modulus (GPa) = 28.03882 32.42503 30.23193
#
# Velocity S-wave (km/s) = 3.56649 3.83531 3.70334
# Velocity P-wave (km/s) = 5.81271 6.36220 6.09365
#
# Compressibility (1/GPa) = 0.02695830
#
# Stress axis : x y z
#
# Youngs Moduli (GPa) = 71.26348 66.16595 76.75861
#
# Poissons Ratio (x) = 0.33323 0.08188
# Poissons Ratio (y) = 0.35891 0.11550
# Poissons Ratio (z) = 0.07602 0.09956
#
# Static dielectric constant tensor:
#      x y z
#    x 4.351600 -0.199730 -0.062310 
#    y -0.199730 3.980990 0.045890 
#    z -0.062310 0.045890 4.023730 
# 
# 
# High freq. dielectric constant tensor:
#      x y z
#    x 1.876130 -0.001520 -0.008340 
#    y -0.001520 1.874690 0.007960 
#    z -0.008340 0.007960 1.874110 
# 
# From -- ./inp_files/279872.got.cif
#   From: 2010.06.25/outbox.cif.g09.slc.cpg/sg2_140_cif.got.tgz:279872.got - 2010.06.27 13:26:56.
