data_PCOD8027782
_publ_section_title
;
Structure prediction by ZEFSAII (Michael W. Deem and Ramdas Pophale) SiO2 
 PCOD8027782
Probable space group: P -1
;
_chemical_formula_sum "Si O2"
_cell_formula_units_Z 14
_cell_length_a 8.744172
_cell_length_b 15.701297
_cell_length_c 15.684121
_cell_angle_alpha 23.938897
_cell_angle_beta 119.530451
_cell_angle_gamma 132.548578
_cell_volume 584.554441
_symmetry_space_group_name_H-M "P -1"
_symmetry_group_IT_number 2
_symmetry_cell_setting 'triclinic'
loop_
_space_group_symop_operation_xyz
x,y,z
-x,-y,-z
loop_
_atom_site_type_symbol
_atom_site_label
_atom_site_fract_x
_atom_site_fract_y
_atom_site_fract_z
Si Si1 0.268054 0.059579 0.429200
Si Si2 0.757430 0.362320 0.304376
Si Si3 0.198000 0.097061 0.556326
Si Si4 0.486306 0.280808 0.907867
Si Si5 0.113201 0.719477 0.407471
Si Si6 0.279255 0.262575 0.706547
Si Si7 0.224211 0.865830 0.934614
O O1 0.533361 0.340418 0.251442
O O2 0.207661 0.949671 0.611863
O O3 0.278088 0.889899 0.516614
O O4 0.069312 0.070804 0.338771
O O5 0.816667 0.381189 0.404040
O O6 0.959249 0.618195 0.071752
O O7 0.333301 0.417704 0.276424
O O8 0.317066 0.078752 0.686899
O O9 0.314217 0.282683 0.799415
O O10 0.631056 0.236342 0.927219
O O11 0.337591 0.028430 0.162951
O O12 0.000000 0.500000 0.500000
O O13 0.924961 0.738041 0.373286
O O14 0.500000 0.500000 0.500000
O O15 0.231097 0.988731 0.914018
#
# Coordination Sequence:
#
# PCOD8027782 Si02
#       7
#     2   2   2   2   2   2   2
#     4  10  24  47  67 100 143 181 235 287 335 417
#     4  11  24  46  70 103 140 181 234 285 348 401
#     4  11  24  46  70 103 136 183 237 279 352 405
#     4  12  25  45  70 104 144 184 230 283 349 414
#     4  12  27  46  73 106 141 183 231 286 349 420
#     4  12  24  43  71 103 141 180 227 285 351 411
#     4  12  24  44  74 101 143 182 230 290 345 414
#
# _framework density 23.949867000000001
#
# number of rings (size 3 to 8) (size 9 to 14) (size 15 to 20)
#    0.000    0.571    2.857    5.143    4.000    1.143 
#   10.286    0.000    0.000    0.000    0.000    0.000 
#    0.000    0.000    0.000    0.000    0.000    0.000 
#
# Total GULP energy -173490.109868 kJ/mol
# GULP energy per Si atom -12392.150705 kJ/mol
# Density = 2.389536 g / cm^3
# Si number density = 23.949867 Si / 1000 Ang^3
#
#
#
# Elastic Constant Matrix: (Units=GPa)
#
#
# Indices 1 2 3 4 5 6 
#
# 1 92.4662 20.7115 9.3524 -14.4674 -15.5894 7.8411
# 2 20.7115 103.9564 16.7931 -4.5467 5.9222 -4.8156
# 3 9.3524 16.7931 94.9937 -6.8349 -13.4762 13.1094
# 4 -14.4674 -4.5467 -6.8349 27.8478 6.1783 -13.2523
# 5 -15.5894 5.9222 -13.4762 6.1783 29.3741 -7.4622
# 6 7.8411 -4.8156 13.1094 -13.2523 -7.4622 40.3443
#
#
#
# Elastic Compliance Matrix: (Units=1/GPa)
#
#
# Indices 1 2 3 4 5 6 
#
# 1 0.013367 -0.002937 0.000563 0.004975 0.006839 -0.000232
# 2 -0.002937 0.011082 -0.002546 0.001881 -0.004730 0.002463
# 3 0.000563 -0.002546 0.012170 0.000052 0.005540 -0.003326
# 4 0.004975 0.001881 0.000052 0.046205 -0.003956 0.013686
# 5 0.006839 -0.004730 0.005540 -0.003956 0.042740 0.002912
# 6 -0.000232 0.002463 -0.003326 0.013686 0.002912 0.031241
#
#
# Mechanical properties :
#
#
# Convention : Reuss Voigt Hill
#
# Bulk Modulus (GPa) = 37.34059 42.79225 40.06642
# Shear Modulus (GPa) = 28.47871 35.81718 32.14795
#
# Velocity S-wave (km/s) = 3.45207 3.87137 3.66772
# Velocity P-wave (km/s) = 5.61374 6.15545 5.89082
#
# Compressibility (1/GPa) = 0.02678051
#
# Stress axis : x y z
#
# Youngs Moduli (GPa) = 74.81227 90.23964 82.16780
#
# Poissons Ratio (x) = 0.26502 -0.04630
# Poissons Ratio (y) = 0.21972 0.20917
# Poissons Ratio (z) = -0.04215 0.22971
#
# Static dielectric constant tensor:
#      x y z
#    x 4.301010 0.560670 -0.639130 
#    y 0.560670 3.925470 0.520810 
#    z -0.639130 0.520810 3.225980 
# 
# 
# High freq. dielectric constant tensor:
#      x y z
#    x 1.963840 0.003240 -0.016530 
#    y 0.003240 1.959980 -0.014310 
#    z -0.016530 -0.014310 1.927420 
# 
# From -- ./inp_files/40163.got.cif
#   From: 2010.06.25/outbox.cif.g09.slc.cpg/sg2_21_cif.got.tgz:40163.got - 2010.06.27 13:26:56.
