data_PCOD8027858
_publ_section_title
;
Structure prediction by ZEFSAII (Michael W. Deem and Ramdas Pophale) SiO2 
 PCOD8027858
Probable space group: P -1
;
_chemical_formula_sum "Si O2"
_cell_formula_units_Z 10
_cell_length_a 11.877495
_cell_length_b 5.137426
_cell_length_c 7.677054
_cell_angle_alpha 83.041818
_cell_angle_beta 131.000519
_cell_angle_gamma 90.340672
_cell_volume 349.243803
_symmetry_space_group_name_H-M "P -1"
_symmetry_group_IT_number 2
_symmetry_cell_setting 'triclinic'
loop_
_space_group_symop_operation_xyz
x,y,z
-x,-y,-z
loop_
_atom_site_type_symbol
_atom_site_label
_atom_site_fract_x
_atom_site_fract_y
_atom_site_fract_z
Si Si1 0.318773 0.939895 0.838200
Si Si2 0.417423 0.786553 0.327985
Si Si3 0.349355 0.459503 0.653474
Si Si4 0.051021 0.289188 0.427459
Si Si5 0.093103 0.742071 0.045970
O O1 0.408359 0.179290 0.832077
O O2 0.138207 0.020062 0.616363
O O3 0.368102 0.682238 0.795446
O O4 0.343769 0.920700 0.070607
O O5 0.500000 0.000000 0.500000
O O6 0.535202 0.533701 0.399071
O O7 0.268000 0.714570 0.291773
O O8 0.176078 0.434346 0.426858
O O9 0.000000 0.500000 0.500000
O O10 0.909542 0.233011 0.170348
O O11 0.000000 0.500000 0.000000
O O12 0.000000 0.000000 0.000000
#
# Coordination Sequence:
#
# PCOD8027858 Si02
#       5
#     2   2   2   2   2
#     4  10  25  47  82 116 149 204 264 317 393 461
#     4  12  27  51  82 119 162 207 259 330 395 471
#     4  10  24  47  78 115 153 200 262 321 389 467
#     4  10  25  48  82 111 156 200 265 321 384 465
#     4  12  31  52  77 114 161 210 261 324 398 462
#
# _framework density 28.633296999999999
#
# number of rings (size 3 to 8) (size 9 to 14) (size 15 to 20)
#    1.200    0.000    0.000    3.600    5.600    3.200 
#    0.000    8.000    0.000    0.000    0.000    0.000 
#    0.000    0.000    0.000    0.000    0.000    0.000 
#
# Total GULP energy -123983.728693 kJ/mol
# GULP energy per Si atom -12398.372869 kJ/mol
# Density = 2.856813 g / cm^3
# Si number density = 28.633297 Si / 1000 Ang^3
#
#
#
# Elastic Constant Matrix: (Units=GPa)
#
#
# Indices 1 2 3 4 5 6 
#
# 1 148.7531 65.3435 69.6997 -3.3738 25.2391 -15.3896
# 2 65.3435 249.1268 81.2860 13.8318 16.6931 -36.1151
# 3 69.6997 81.2860 182.6621 33.6769 38.3332 -16.0005
# 4 -3.3738 13.8318 33.6769 51.3922 -12.0678 0.8956
# 5 25.2391 16.6931 38.3332 -12.0678 48.6674 7.7987
# 6 -15.3896 -36.1151 -16.0005 0.8956 7.7987 57.9272
#
#
#
# Elastic Compliance Matrix: (Units=1/GPa)
#
#
# Indices 1 2 3 4 5 6 
#
# 1 0.009093 -0.001329 -0.002963 0.002541 -0.001444 0.000924
# 2 -0.001329 0.005271 -0.001275 -0.000898 -0.000770 0.002699
# 3 -0.002963 -0.001275 0.011232 -0.009545 -0.009717 0.002976
# 4 0.002541 -0.000898 -0.009545 0.029649 0.014655 -0.004953
# 5 -0.001444 -0.000770 -0.009717 0.014655 0.034191 -0.008377
# 6 0.000924 0.002699 0.002976 -0.004953 -0.008377 0.021218
#
#
# Mechanical properties :
#
#
# Convention : Reuss Voigt Hill
#
# Bulk Modulus (GPa) = 69.14107 112.57780 90.85944
# Shear Modulus (GPa) = 39.49200 55.87822 47.68511
#
# Velocity S-wave (km/s) = 3.71783 4.42238 4.08533
# Velocity P-wave (km/s) = 6.52910 8.09192 7.35215
#
# Compressibility (1/GPa) = 0.01446318
#
# Stress axis : x y z
#
# Youngs Moduli (GPa) = 109.97918 189.70826 89.02793
#
# Poissons Ratio (x) = 0.25203 0.26376
# Poissons Ratio (y) = 0.14611 0.11354
# Poissons Ratio (z) = 0.32583 0.24194
#
# Static dielectric constant tensor:
#      x y z
#    x 5.978860 0.391290 0.072920 
#    y 0.391290 5.044870 -0.467580 
#    z 0.072920 -0.467580 6.042220 
# 
# 
# High freq. dielectric constant tensor:
#      x y z
#    x 2.215270 0.019300 0.004420 
#    y 0.019300 2.161410 -0.023330 
#    z 0.004420 -0.023330 2.220080 
# 
# From -- ./inp_files/228278.got.cif
#   From: 2010.06.25/outbox.cif.g09.slc.cpg/sg2_115_cif.got.tgz:228278.got - 2010.06.27 13:26:56.
