data_PCOD8027480
_publ_section_title
;
Structure prediction by ZEFSAII (Michael W. Deem and Ramdas Pophale) SiO2 
 PCOD8027480
Probable space group: P -1
;
_chemical_formula_sum "Si O2"
_cell_formula_units_Z 16
_cell_length_a 15.255106
_cell_length_b 12.057999
_cell_length_c 11.736076
_cell_angle_alpha 142.350313
_cell_angle_beta 47.812540
_cell_angle_gamma 146.343985
_cell_volume 730.313247
_symmetry_space_group_name_H-M "P -1"
_symmetry_group_IT_number 2
_symmetry_cell_setting 'triclinic'
loop_
_space_group_symop_operation_xyz
x,y,z
-x,-y,-z
loop_
_atom_site_type_symbol
_atom_site_label
_atom_site_fract_x
_atom_site_fract_y
_atom_site_fract_z
Si Si1 0.192567 0.489566 0.605156
Si Si2 0.910481 0.199916 0.789175
Si Si3 0.417023 0.983083 0.720994
Si Si4 0.045950 0.622487 0.437733
Si Si5 0.894155 0.544325 0.969384
Si Si6 0.639128 0.905911 0.369229
Si Si7 0.626332 0.666634 0.621591
Si Si8 0.592852 0.443722 0.088729
O O1 0.286376 0.779250 0.760393
O O2 0.323691 0.468123 0.471702
O O3 0.075905 0.346176 0.696756
O O4 0.089511 0.376705 0.486511
O O5 0.833427 0.313841 0.913107
O O6 0.781977 0.919033 0.638600
O O7 0.952293 0.223141 0.906350
O O8 0.494266 0.878754 0.518397
O O9 0.326781 0.002763 0.716831
O O10 0.550313 0.250274 0.874078
O O11 0.058249 0.472554 0.212319
O O12 0.000000 0.500000 0.500000
O O13 0.208776 0.899380 0.527037
O O14 0.761105 0.563033 0.093914
O O15 0.600565 0.653041 0.200586
O O16 0.500000 0.500000 0.500000
O O17 0.543566 0.709243 0.821854
#
# Coordination Sequence:
#
# PCOD8027480 Si02
#       8
#     2   2   2   2   2   2   2   2
#     4  11  24  44  71  98 140 185 235 288 356 411
#     4  10  25  45  69  95 143 188 233 292 349 419
#     4  11  24  46  70 101 146 185 233 286 354 424
#     4  11  23  44  73 100 139 189 231 284 361 421
#     4  10  24  45  69  98 138 185 234 287 354 406
#     4  11  24  46  70 102 144 188 231 288 352 422
#     4  12  28  43  69 106 138 183 242 292 355 415
#     4  12  26  42  73 104 139 181 241 289 347 421
#
# _framework density 21.908405999999999
#
# number of rings (size 3 to 8) (size 9 to 14) (size 15 to 20)
#    0.000    1.000    3.750    1.500   12.250    0.500 
#    2.250    0.625    0.000    0.000    0.000    0.000 
#    0.000    0.000    0.000    0.000    0.000    0.000 
#
# Total GULP energy -198361.069356 kJ/mol
# GULP energy per Si atom -12397.566835 kJ/mol
# Density = 2.185854 g / cm^3
# Si number density = 21.908406 Si / 1000 Ang^3
#
#
#
# Elastic Constant Matrix: (Units=GPa)
#
#
# Indices 1 2 3 4 5 6 
#
# 1 168.5910 43.0666 57.1799 3.4254 -1.8773 5.5358
# 2 43.0666 114.5395 48.3912 10.8038 6.1198 -4.2930
# 3 57.1799 48.3912 99.8249 9.7336 5.2771 -3.8476
# 4 3.4254 10.8038 9.7336 40.0833 2.9994 5.5679
# 5 -1.8773 6.1198 5.2771 2.9994 42.3829 0.6275
# 6 5.5358 -4.2930 -3.8476 5.5679 0.6275 28.4986
#
#
#
# Elastic Compliance Matrix: (Units=1/GPa)
#
#
# Indices 1 2 3 4 5 6 
#
# 1 0.007720 -0.001471 -0.003952 0.000963 0.001015 -0.002465
# 2 -0.001471 0.011456 -0.004382 -0.002076 -0.001054 0.001849
# 3 -0.003952 -0.004382 0.014800 -0.002341 -0.001258 0.002591
# 4 0.000963 -0.002076 -0.002341 0.026923 -0.001182 -0.006050
# 5 0.001015 -0.001054 -0.001258 -0.001182 0.024044 -0.000824
# 6 -0.002465 0.001849 0.002591 -0.006050 -0.000824 0.037397
#
#
# Mechanical properties :
#
#
# Convention : Reuss Voigt Hill
#
# Bulk Modulus (GPa) = 69.59931 75.58118 72.59024
# Shear Modulus (GPa) = 34.07456 37.81413 35.94434
#
# Velocity S-wave (km/s) = 3.94803 4.15903 4.05491
# Velocity P-wave (km/s) = 7.25396 7.59191 7.42485
#
# Compressibility (1/GPa) = 0.01436796
#
# Stress axis : x y z
#
# Youngs Moduli (GPa) = 129.53108 87.28882 67.56844
#
# Poissons Ratio (x) = 0.12837 0.26701
# Poissons Ratio (y) = 0.19049 0.29607
# Poissons Ratio (z) = 0.51187 0.38248
#
# Static dielectric constant tensor:
#      x y z
#    x 4.212320 0.046160 0.089570 
#    y 0.046160 3.971500 0.033610 
#    z 0.089570 0.033610 3.845170 
# 
# 
# High freq. dielectric constant tensor:
#      x y z
#    x 1.877960 0.004740 0.006650 
#    y 0.004740 1.860530 0.003330 
#    z 0.006650 0.003330 1.849900 
# 
# From -- ./inp_files/452630.got.cif
#   From: 2010.06.25/outbox.cif.g09.slc.cpg/sg2_227_cif.got.tgz:452630.got - 2010.06.27 13:26:56.
