data_PCOD8027733
_publ_section_title
;
Structure prediction by ZEFSAII (Michael W. Deem and Ramdas Pophale) SiO2 
 PCOD8027733
Probable space group: P -1
;
_chemical_formula_sum "Si O2"
_cell_formula_units_Z 14
_cell_length_a 16.197962
_cell_length_b 8.657403
_cell_length_c 8.881034
_cell_angle_alpha 57.809189
_cell_angle_beta 37.352635
_cell_angle_gamma 50.810307
_cell_volume 584.415189
_symmetry_space_group_name_H-M "P -1"
_symmetry_group_IT_number 2
_symmetry_cell_setting 'triclinic'
loop_
_space_group_symop_operation_xyz
x,y,z
-x,-y,-z
loop_
_atom_site_type_symbol
_atom_site_label
_atom_site_fract_x
_atom_site_fract_y
_atom_site_fract_z
Si Si1 0.324482 0.325081 0.305218
Si Si2 0.699290 0.392755 0.385623
Si Si3 0.351794 0.973158 0.276817
Si Si4 0.483868 0.791664 0.653204
Si Si5 0.772980 0.322734 0.972960
Si Si6 0.083289 0.583678 0.727340
Si Si7 0.949004 0.872343 0.527560
O O1 0.486458 0.263358 0.181736
O O2 0.302773 0.477149 0.121521
O O3 0.222699 0.401488 0.556992
O O4 0.286165 0.138183 0.414604
O O5 0.609460 0.249304 0.601034
O O6 0.589528 0.617032 0.475767
O O7 0.843730 0.293138 0.340131
O O8 0.237883 0.610828 0.872043
O O9 0.225884 0.025674 0.304242
O O10 0.500000 0.000000 0.000000
O O11 0.500000 0.000000 0.500000
O O12 0.315230 0.818270 0.853861
O O13 0.944863 0.197219 0.738504
O O14 0.975979 0.682319 0.691826
O O15 0.000000 0.500000 0.000000
O O16 0.000000 0.000000 0.500000
#
# Coordination Sequence:
#
# PCOD8027733 Si02
#       7
#     2   2   2   2   2   2   2
#     4  10  25  44  69 106 143 196 241 301 375 433
#     4  11  25  47  71 113 144 196 245 309 367 439
#     4  12  27  47  76 107 154 192 253 305 367 445
#     4  11  24  46  73 106 149 197 248 297 378 443
#     4  11  25  45  75 106 152 188 253 309 363 445
#     4  10  24  46  73 100 149 189 249 305 363 441
#     4  11  26  47  74 107 144 204 246 303 380 426
#
# _framework density 23.955572
#
# number of rings (size 3 to 8) (size 9 to 14) (size 15 to 20)
#    0.000    1.143    1.429    2.571    6.000    6.286 
#    2.571    0.000    0.000    0.000    0.000    0.000 
#    0.000    0.000    0.000    0.000    0.000    0.000 
#
# Total GULP energy -173445.662538 kJ/mol
# GULP energy per Si atom -12388.975896 kJ/mol
# Density = 2.390105 g / cm^3
# Si number density = 23.955572 Si / 1000 Ang^3
#
#
#
# Elastic Constant Matrix: (Units=GPa)
#
#
# Indices 1 2 3 4 5 6 
#
# 1 143.7054 45.3760 62.3938 12.4859 0.4500 7.4127
# 2 45.3760 119.4472 56.7092 -19.2652 2.9318 16.3363
# 3 62.3938 56.7092 153.2801 -4.5893 5.9148 0.7936
# 4 12.4859 -19.2652 -4.5893 32.3394 -0.6051 -13.0223
# 5 0.4500 2.9318 5.9148 -0.6051 40.6441 1.4561
# 6 7.4127 16.3363 0.7936 -13.0223 1.4561 34.3544
#
#
#
# Elastic Compliance Matrix: (Units=1/GPa)
#
#
# Indices 1 2 3 4 5 6 
#
# 1 0.010191 -0.003096 -0.003237 -0.007671 0.000596 -0.003585
# 2 -0.003096 0.012551 -0.003146 0.007223 -0.000217 -0.002480
# 3 -0.003237 -0.003146 0.009087 0.001726 -0.001130 0.002687
# 4 -0.007671 0.007223 0.001726 0.044489 -0.000565 0.015068
# 5 0.000596 -0.000217 -0.001130 -0.000565 0.024814 -0.001265
# 6 -0.003585 -0.002480 0.002687 0.015068 -0.001265 0.036765
#
#
# Mechanical properties :
#
#
# Convention : Reuss Voigt Hill
#
# Bulk Modulus (GPa) = 77.69218 82.82118 80.25668
# Shear Modulus (GPa) = 31.02784 38.26449 34.64616
#
# Velocity S-wave (km/s) = 3.60283 4.00097 3.80711
# Velocity P-wave (km/s) = 7.05757 7.48275 7.27327
#
# Compressibility (1/GPa) = 0.01287131
#
# Stress axis : x y z
#
# Youngs Moduli (GPa) = 98.12227 79.67404 110.04874
#
# Poissons Ratio (x) = 0.24669 0.35623
# Poissons Ratio (y) = 0.30381 0.34618
# Poissons Ratio (z) = 0.31763 0.25063
#
# Static dielectric constant tensor:
#      x y z
#    x 28.312080 -13.005040 -2.455070 
#    y -13.005040 13.102870 1.172290 
#    z -2.455070 1.172290 4.377670 
# 
# 
# High freq. dielectric constant tensor:
#      x y z
#    x 1.973290 0.007940 -0.003040 
#    y 0.007940 1.953130 -0.002010 
#    z -0.003040 -0.002010 1.942850 
# 
# From -- ./inp_files/461862.got.cif
#   From: 2010.06.25/outbox.cif.g09.slc.cpg/sg2_231_cif.got.tgz:461862.got - 2010.06.27 13:26:56.
