data_PCOD8027292
_publ_section_title
;
Structure prediction by ZEFSAII (Michael W. Deem and Ramdas Pophale) SiO2 
 PCOD8027292
Probable space group: P -1
;
_chemical_formula_sum "Si O2"
_cell_formula_units_Z 12
_cell_length_a 11.776828
_cell_length_b 13.934658
_cell_length_c 9.630059
_cell_angle_alpha 106.681945
_cell_angle_beta 108.400865
_cell_angle_gamma 20.858867
_cell_volume 533.793956
_symmetry_space_group_name_H-M "P -1"
_symmetry_group_IT_number 2
_symmetry_cell_setting 'triclinic'
loop_
_space_group_symop_operation_xyz
x,y,z
-x,-y,-z
loop_
_atom_site_type_symbol
_atom_site_label
_atom_site_fract_x
_atom_site_fract_y
_atom_site_fract_z
Si Si1 0.398793 0.566407 0.328585
Si Si2 0.884782 0.850319 0.381214
Si Si3 0.584780 0.941331 0.849290
Si Si4 0.649609 0.288947 0.045236
Si Si5 0.552545 0.661433 0.419505
Si Si6 0.683931 0.642643 0.168382
O O1 0.500000 0.500000 0.500000
O O2 0.650894 0.310552 0.221077
O O3 0.371835 0.700336 0.314021
O O4 0.066075 0.761751 0.282932
O O5 0.130220 0.609363 0.482956
O O6 0.646676 0.950320 0.281091
O O7 0.696470 0.084987 0.479717
O O8 0.947068 0.621410 0.835145
O O9 0.542113 0.087666 0.841647
O O10 0.500000 0.000000 0.000000
O O11 0.500000 0.500000 0.000000
O O12 0.432455 0.360475 0.968039
O O13 0.000000 0.000000 0.000000
O O14 0.656667 0.645115 0.321919
#
# Coordination Sequence:
#
# PCOD8027292 Si02
#       6
#     2   2   2   2   2   2
#     4  10  24  44  72 104 144 185 234 296 352 422
#     4  11  25  44  71 102 144 189 236 287 355 427
#     4  12  27  47  70  98 142 191 239 289 351 430
#     4  12  26  44  72 106 144 181 235 293 362 421
#     4  11  24  43  72 106 140 181 239 295 364 413
#     4  12  26  45  74 101 144 182 238 299 351 425
#
# _framework density 22.480585000000001
#
# number of rings (size 3 to 8) (size 9 to 14) (size 15 to 20)
#    0.000    0.667    1.667    5.000    4.667    9.333 
#    0.000    0.000    0.000    0.000    0.000    0.000 
#    0.000    0.000    0.000    0.000    0.000    0.000 
#
# Total GULP energy -148824.071309 kJ/mol
# GULP energy per Si atom -12402.005942 kJ/mol
# Density = 2.242942 g / cm^3
# Si number density = 22.480585 Si / 1000 Ang^3
#
#
#
# Elastic Constant Matrix: (Units=GPa)
#
#
# Indices 1 2 3 4 5 6 
#
# 1 112.9553 26.4261 38.1169 1.7148 14.9357 -9.7008
# 2 26.4261 134.5284 52.3291 23.2553 -4.3295 0.7531
# 3 38.1169 52.3291 131.8068 27.5015 3.6777 -12.2434
# 4 1.7148 23.2553 27.5015 47.1778 -6.6914 -3.9327
# 5 14.9357 -4.3295 3.6777 -6.6914 48.9102 8.8062
# 6 -9.7008 0.7531 -12.2434 -3.9327 8.8062 38.6607
#
#
#
# Elastic Compliance Matrix: (Units=1/GPa)
#
#
# Indices 1 2 3 4 5 6 
#
# 1 0.010736 -0.001557 -0.002438 0.001538 -0.003548 0.002917
# 2 -0.001557 0.009437 -0.002946 -0.002840 0.001530 -0.002145
# 3 -0.002438 -0.002946 0.010732 -0.004697 -0.001452 0.002697
# 4 0.001538 -0.002840 -0.004697 0.025778 0.002998 0.000893
# 5 -0.003548 0.001530 -0.001452 0.002998 0.023334 -0.006390
# 6 0.002917 -0.002145 0.002697 0.000893 -0.006390 0.029040
#
#
# Mechanical properties :
#
#
# Convention : Reuss Voigt Hill
#
# Bulk Modulus (GPa) = 58.73826 68.11497 63.42662
# Shear Modulus (GPa) = 38.87593 44.44430 41.66012
#
# Velocity S-wave (km/s) = 4.16301 4.45118 4.30950
# Velocity P-wave (km/s) = 7.02088 7.53542 7.28269
#
# Compressibility (1/GPa) = 0.01702468
#
# Stress axis : x y z
#
# Youngs Moduli (GPa) = 93.14276 105.96257 93.17665
#
# Poissons Ratio (x) = 0.16501 0.22712
# Poissons Ratio (y) = 0.14504 0.27448
# Poissons Ratio (z) = 0.22704 0.31214
#
# Static dielectric constant tensor:
#      x y z
#    x 4.562240 -0.157650 0.097610 
#    y -0.157650 4.165380 0.169590 
#    z 0.097610 0.169590 4.036780 
# 
# 
# High freq. dielectric constant tensor:
#      x y z
#    x 1.905470 -0.003630 0.000620 
#    y -0.003630 1.892600 0.012220 
#    z 0.000620 0.012220 1.898920 
# 
# From -- ./inp_files/59618.got.cif
#   From: 2010.06.25/outbox.cif.g09.slc.cpg/sg2_30_cif.got.tgz:59618.got - 2010.06.27 13:26:56.
