data_PCOD8027854
_publ_section_title
;
Structure prediction by ZEFSAII (Michael W. Deem and Ramdas Pophale) SiO2 
 PCOD8027854
Probable space group: P -1
;
_chemical_formula_sum "Si O2"
_cell_formula_units_Z 10
_cell_length_a 8.726796
_cell_length_b 14.906002
_cell_length_c 7.556258
_cell_angle_alpha 141.340830
_cell_angle_beta 48.236050
_cell_angle_gamma 144.623144
_cell_volume 354.315995
_symmetry_space_group_name_H-M "P -1"
_symmetry_group_IT_number 2
_symmetry_cell_setting 'triclinic'
loop_
_space_group_symop_operation_xyz
x,y,z
-x,-y,-z
loop_
_atom_site_type_symbol
_atom_site_label
_atom_site_fract_x
_atom_site_fract_y
_atom_site_fract_z
Si Si1 0.696379 0.353422 0.456768
Si Si2 0.994063 0.887354 0.571363
Si Si3 0.160950 0.885261 0.062838
Si Si4 0.634230 0.709744 0.056560
Si Si5 0.218982 0.489286 0.739151
O O1 0.516964 0.354965 0.738672
O O2 0.650993 0.399653 0.369777
O O3 0.000000 0.500000 0.500000
O O4 0.623581 0.146343 0.194310
O O5 0.081453 0.838533 0.256476
O O6 0.891873 0.722434 0.533463
O O7 0.252183 0.079984 0.754489
O O8 0.774838 0.917042 0.732000
O O9 0.891079 0.721212 0.907220
O O10 0.453431 0.573665 0.829547
O O11 0.000000 0.500000 0.000000
#
# Coordination Sequence:
#
# PCOD8027854 Si02
#       5
#     2   2   2   2   2
#     4  12  24  44  75 103 138 185 236 284 348 417
#     4   9  21  46  72  96 147 182 224 296 344 405
#     4   9  21  47  71  98 143 185 228 287 346 417
#     4  10  24  47  76  95 142 191 225 281 365 400
#     4  12  23  45  72 106 142 176 237 297 335 413
#
# _framework density 28.223393000000002
#
# number of rings (size 3 to 8) (size 9 to 14) (size 15 to 20)
#    1.200    0.400    4.000    0.000    0.000    4.800 
#    0.000    9.000    4.400    0.000    0.000    0.000 
#    0.000    0.000    0.000    0.000    0.000    0.000 
#
# Total GULP energy -123966.588862 kJ/mol
# GULP energy per Si atom -12396.658886 kJ/mol
# Density = 2.815916 g / cm^3
# Si number density = 28.223393 Si / 1000 Ang^3
#
#
#
# Elastic Constant Matrix: (Units=GPa)
#
#
# Indices 1 2 3 4 5 6 
#
# 1 80.3820 33.7687 58.7390 1.8150 -7.1888 -30.2708
# 2 33.7687 143.1156 42.4666 12.9899 -1.4028 -41.0921
# 3 58.7390 42.4666 119.5115 4.7349 -32.7107 -18.2215
# 4 1.8150 12.9899 4.7349 40.9030 -0.2638 3.7149
# 5 -7.1888 -1.4028 -32.7107 -0.2638 65.3337 2.9460
# 6 -30.2708 -41.0921 -18.2215 3.7149 2.9460 33.9936
#
#
#
# Elastic Compliance Matrix: (Units=1/GPa)
#
#
# Indices 1 2 3 4 5 6 
#
# 1 0.029547 0.004585 -0.013358 -0.003564 -0.004502 0.025473
# 2 0.004585 0.012894 -0.004499 -0.005432 -0.002307 0.018051
# 3 -0.013358 -0.004499 0.017181 0.000886 0.007439 -0.008867
# 4 -0.003564 -0.005432 0.000886 0.027350 0.000600 -0.012305
# 5 -0.004502 -0.002307 0.007439 0.000600 0.018691 -0.004496
# 6 0.025473 0.018051 -0.008867 -0.012305 -0.004496 0.070903
#
#
# Mechanical properties :
#
#
# Convention : Reuss Voigt Hill
#
# Bulk Modulus (GPa) = 30.23303 68.10639 49.16971
# Shear Modulus (GPa) = 23.34970 41.91505 32.63238
#
# Velocity S-wave (km/s) = 2.87943 3.85790 3.40401
# Velocity P-wave (km/s) = 4.66799 6.63537 5.73665
#
# Compressibility (1/GPa) = 0.03307641
#
# Stress axis : x y z
#
# Youngs Moduli (GPa) = 33.84495 77.55574 58.20436
#
# Poissons Ratio (x) = -0.35563 0.77752
# Poissons Ratio (y) = -0.15519 0.26189
# Poissons Ratio (z) = 0.45212 0.34896
#
# Static dielectric constant tensor:
#      x y z
#    x 5.049540 0.170840 -0.138690 
#    y 0.170840 5.652000 0.297340 
#    z -0.138690 0.297340 5.475530 
# 
# 
# High freq. dielectric constant tensor:
#      x y z
#    x 2.142970 0.015230 -0.008710 
#    y 0.015230 2.162870 0.021500 
#    z -0.008710 0.021500 2.160510 
# 
# From -- ./inp_files/203998.got.cif
#   From: 2010.06.25/outbox.cif.g09.slc.cpg/sg2_102_cif.got.tgz:203998.got - 2010.06.27 13:26:56.
