data_PCOD8027748
_publ_section_title
;
Structure prediction by ZEFSAII (Michael W. Deem and Ramdas Pophale) SiO2 
 PCOD8027748
Probable space group: P -1
;
_chemical_formula_sum "Si O2"
_cell_formula_units_Z 16
_cell_length_a 6.547929
_cell_length_b 12.925527
_cell_length_c 21.269807
_cell_angle_alpha 156.582024
_cell_angle_beta 103.060484
_cell_angle_gamma 76.795145
_cell_volume 695.915687
_symmetry_space_group_name_H-M "P -1"
_symmetry_group_IT_number 2
_symmetry_cell_setting 'triclinic'
loop_
_space_group_symop_operation_xyz
x,y,z
-x,-y,-z
loop_
_atom_site_type_symbol
_atom_site_label
_atom_site_fract_x
_atom_site_fract_y
_atom_site_fract_z
Si Si1 0.035439 0.085390 0.480675
Si Si2 0.891031 0.143619 0.322791
Si Si3 0.788778 0.463451 0.193665
Si Si4 0.381071 0.683458 0.227381
Si Si5 0.719232 0.102268 0.088538
Si Si6 0.382903 0.985995 0.662647
Si Si7 0.927320 0.732319 0.996356
Si Si8 0.738728 0.550071 0.439843
O O1 0.813055 0.059402 0.419702
O O2 0.091213 0.383660 0.658662
O O3 0.000000 0.000000 0.500000
O O4 0.233505 0.928261 0.375592
O O5 0.718353 0.978551 0.255066
O O6 0.771658 0.383444 0.412700
O O7 0.064151 0.258612 0.446464
O O8 0.006736 0.945289 0.169935
O O9 0.556074 0.600569 0.245441
O O10 0.800109 0.174459 0.064385
O O11 0.884998 0.454461 0.124013
O O12 0.489430 0.768497 0.216369
O O13 0.238127 0.436042 0.071479
O O14 0.711708 0.364340 0.275468
O O15 0.841898 0.870008 0.003800
O O16 0.500000 0.000000 0.000000
O O17 0.526351 0.722579 0.527733
#
# Coordination Sequence:
#
# PCOD8027748 Si02
#       8
#     2   2   2   2   2   2   2   2
#     4  12  25  42  69 100 140 180 223 278 339 416
#     4  10  24  49  68 100 137 179 239 277 327 402
#     4  12  24  42  68  98 139 182 218 280 345 408
#     4  12  24  42  65 103 133 176 226 273 345 399
#     4  11  23  42  69 103 138 170 221 285 348 407
#     4  12  24  42  72 100 133 184 230 278 337 394
#     4  11  25  44  66  99 141 180 224 284 338 402
#     4  10  24  46  73  99 135 181 229 283 333 406
#
# _framework density 22.991291
#
# number of rings (size 3 to 8) (size 9 to 14) (size 15 to 20)
#    0.000    0.750    3.750    3.375    3.500    1.500 
#    6.750    4.375    0.000    0.000    0.000    0.000 
#    0.000    0.000    0.000    0.000    0.000    0.000 
#
# Total GULP energy -198256.246885 kJ/mol
# GULP energy per Si atom -12391.015430 kJ/mol
# Density = 2.293896 g / cm^3
# Si number density = 22.991291 Si / 1000 Ang^3
#
#
#
# Elastic Constant Matrix: (Units=GPa)
#
#
# Indices 1 2 3 4 5 6 
#
# 1 130.3650 56.7674 53.8040 0.5208 7.1839 9.4893
# 2 56.7674 89.3066 29.2381 13.7974 4.4390 13.3636
# 3 53.8040 29.2381 111.8836 0.5334 8.5544 0.3449
# 4 0.5208 13.7974 0.5334 29.7337 2.9553 5.1671
# 5 7.1839 4.4390 8.5544 2.9553 37.1521 12.1374
# 6 9.4893 13.3636 0.3449 5.1671 12.1374 42.1045
#
#
#
# Elastic Compliance Matrix: (Units=1/GPa)
#
#
# Indices 1 2 3 4 5 6 
#
# 1 0.012484 -0.006928 -0.004158 0.003273 -0.000627 -0.000801
# 2 -0.006928 0.017665 -0.001335 -0.007575 0.001273 -0.003472
# 3 -0.004158 -0.001335 0.011456 0.000389 -0.002322 0.001889
# 4 0.003273 -0.007575 0.000389 0.037698 -0.002040 -0.002375
# 5 -0.000627 0.001273 -0.002322 -0.002040 0.030448 -0.008770
# 6 -0.000801 -0.003472 0.001889 -0.002375 -0.008770 0.027837
#
#
# Mechanical properties :
#
#
# Convention : Reuss Voigt Hill
#
# Bulk Modulus (GPa) = 59.65855 67.90827 63.78341
# Shear Modulus (GPa) = 29.75875 34.58108 32.16992
#
# Velocity S-wave (km/s) = 3.60161 3.88247 3.74468
# Velocity P-wave (km/s) = 6.58028 7.04974 6.81905
#
# Compressibility (1/GPa) = 0.01676206
#
# Stress axis : x y z
#
# Youngs Moduli (GPa) = 80.10509 56.60912 87.28965
#
# Poissons Ratio (x) = 0.39221 0.36294
# Poissons Ratio (y) = 0.55500 0.11653
# Poissons Ratio (z) = 0.33307 0.07557
#
# Static dielectric constant tensor:
#      x y z
#    x 4.326170 0.055090 0.056700 
#    y 0.055090 4.886140 0.564600 
#    z 0.056700 0.564600 3.997560 
# 
# 
# High freq. dielectric constant tensor:
#      x y z
#    x 1.912230 0.008880 0.006840 
#    y 0.008880 1.928510 0.017330 
#    z 0.006840 0.017330 1.898220 
# 
# From -- ./inp_files/69163.got.cif
#   From: 2010.06.25/outbox.cif.g09.slc.cpg/sg2_35_cif.got.tgz:69163.got - 2010.06.27 13:26:56.
