data_PCOD8027622
_publ_section_title
;
Structure prediction by ZEFSAII (Michael W. Deem and Ramdas Pophale) SiO2 
 PCOD8027622
Probable space group: P -1
;
_chemical_formula_sum "Si O2"
_cell_formula_units_Z 16
_cell_length_a 16.708591
_cell_length_b 19.254998
_cell_length_c 9.094486
_cell_angle_alpha 135.047979
_cell_angle_beta 138.376741
_cell_angle_gamma 21.900230
_cell_volume 723.723491
_symmetry_space_group_name_H-M "P -1"
_symmetry_group_IT_number 2
_symmetry_cell_setting 'triclinic'
loop_
_space_group_symop_operation_xyz
x,y,z
-x,-y,-z
loop_
_atom_site_type_symbol
_atom_site_label
_atom_site_fract_x
_atom_site_fract_y
_atom_site_fract_z
Si Si1 0.849036 0.076442 0.039288
Si Si2 0.290414 0.583006 0.276581
Si Si3 0.922204 0.974906 0.466255
Si Si4 0.266046 0.246170 0.699688
Si Si5 0.400393 0.491384 0.966399
Si Si6 0.242948 0.424089 0.473067
Si Si7 0.395359 0.317840 0.198990
Si Si8 0.412695 0.926721 0.385584
O O1 0.016972 0.008480 0.281726
O O2 0.603867 0.295700 0.035184
O O3 0.797119 0.994832 0.848473
O O4 0.000000 0.000000 0.000000
O O5 0.500000 0.500000 0.500000
O O6 0.329017 0.443357 0.170107
O O7 0.057955 0.779201 0.331313
O O8 0.261708 0.622776 0.119080
O O9 0.655240 0.142081 0.342782
O O10 0.000000 0.000000 0.500000
O O11 0.396223 0.193801 0.656810
O O12 0.997346 0.458060 0.633952
O O13 0.305720 0.102398 0.557874
O O14 0.358347 0.236264 0.956678
O O15 0.245264 0.528169 0.710814
O O16 0.500000 0.500000 0.000000
O O17 0.246420 0.434897 0.317502
O O18 0.460657 0.209694 0.504668
#
# Coordination Sequence:
#
# PCOD8027622 Si02
#       8
#     2   2   2   2   2   2   2   2
#     4  11  24  41  67 103 142 176 223 291 345 415
#     4  12  24  44  67 101 144 181 228 283 348 425
#     4  12  24  40  68  98 140 184 222 281 351 408
#     4  11  25  46  72  94 140 187 237 289 339 413
#     4  11  24  42  66 101 138 178 230 282 347 426
#     4  11  25  43  69  98 136 180 234 289 348 411
#     4  12  26  45  67 105 138 182 236 285 349 421
#     4  10  24  46  67 102 134 180 243 283 345 418
#
# _framework density 22.107890999999999
#
# number of rings (size 3 to 8) (size 9 to 14) (size 15 to 20)
#    0.000    0.750    2.500    5.250    3.500    4.500 
#    0.000    0.000    0.000    0.000    0.000    0.000 
#    0.000    0.000    0.000    0.000    0.000    0.000 
#
# Total GULP energy -198281.281722 kJ/mol
# GULP energy per Si atom -12392.580108 kJ/mol
# Density = 2.205757 g / cm^3
# Si number density = 22.107891 Si / 1000 Ang^3
#
#
#
# Elastic Constant Matrix: (Units=GPa)
#
#
# Indices 1 2 3 4 5 6 
#
# 1 111.2177 26.4625 60.5584 5.2808 -9.7324 -5.7457
# 2 26.4625 86.6149 47.4208 -0.4487 10.7514 -8.1059
# 3 60.5584 47.4208 186.8130 -1.2084 -1.0408 -1.2116
# 4 5.2808 -0.4487 -1.2084 31.9466 -1.3012 7.0425
# 5 -9.7324 10.7514 -1.0408 -1.3012 46.8529 -1.2862
# 6 -5.7457 -8.1059 -1.2116 7.0425 -1.2862 36.1987
#
#
#
# Elastic Compliance Matrix: (Units=1/GPa)
#
#
# Indices 1 2 3 4 5 6 
#
# 1 0.011700 -0.001961 -0.003283 -0.002384 0.002793 0.001871
# 2 -0.001961 0.014544 -0.003061 -0.000352 -0.003746 0.002778
# 3 -0.003283 -0.003061 0.007194 0.001035 0.000177 -0.001161
# 4 -0.002384 -0.000352 0.001035 0.033262 0.000343 -0.006882
# 5 0.002793 -0.003746 0.000177 0.000343 0.022806 0.000354
# 6 0.001871 0.002778 -0.001161 -0.006882 0.000354 0.029857
#
#
# Mechanical properties :
#
#
# Convention : Reuss Voigt Hill
#
# Bulk Modulus (GPa) = 59.42545 72.61432 66.01989
# Shear Modulus (GPa) = 35.31536 39.67991 37.49763
#
# Velocity S-wave (km/s) = 4.00110 4.24114 4.12287
# Velocity P-wave (km/s) = 6.94861 7.54319 7.25200
#
# Compressibility (1/GPa) = 0.01682781
#
# Stress axis : x y z
#
# Youngs Moduli (GPa) = 85.47309 68.75822 139.00035
#
# Poissons Ratio (x) = 0.13485 0.45627
# Poissons Ratio (y) = 0.16763 0.42550
# Poissons Ratio (z) = 0.28057 0.21048
#
# Static dielectric constant tensor:
#      x y z
#    x 3.979680 0.140420 0.130700 
#    y 0.140420 3.464920 -0.015500 
#    z 0.130700 -0.015500 4.258120 
# 
# 
# High freq. dielectric constant tensor:
#      x y z
#    x 1.874580 -0.010260 -0.005060 
#    y -0.010260 1.871260 0.001900 
#    z -0.005060 0.001900 1.888060 
# 
# From -- ./inp_files/338217.got.cif
#   From: 2010.06.25/outbox.cif.g09.slc.cpg/sg2_170_cif.got.tgz:338217.got - 2010.06.27 13:26:56.
