data_PCOD8027760
_publ_section_title
;
Structure prediction by ZEFSAII (Michael W. Deem and Ramdas Pophale) SiO2 
 PCOD8027760
Probable space group: P -1
;
_chemical_formula_sum "Si O2"
_cell_formula_units_Z 12
_cell_length_a 24.096386
_cell_length_b 26.612072
_cell_length_c 9.894150
_cell_angle_alpha 151.817304
_cell_angle_beta 149.554259
_cell_angle_gamma 9.727060
_cell_volume 504.502609
_symmetry_space_group_name_H-M "P -1"
_symmetry_group_IT_number 2
_symmetry_cell_setting 'triclinic'
loop_
_space_group_symop_operation_xyz
x,y,z
-x,-y,-z
loop_
_atom_site_type_symbol
_atom_site_label
_atom_site_fract_x
_atom_site_fract_y
_atom_site_fract_z
Si Si1 0.920536 0.949517 0.031711
Si Si2 0.638079 0.794491 0.909375
Si Si3 0.564625 0.235720 0.702479
Si Si4 0.275328 0.799679 0.296207
Si Si5 0.567029 0.191348 0.117485
Si Si6 0.090340 0.297750 0.170055
O O1 0.285642 0.578828 0.961730
O O2 0.772297 0.018624 0.758168
O O3 0.953421 0.042817 0.269747
O O4 0.682926 0.156176 0.150545
O O5 0.640479 0.676933 0.569998
O O6 0.000000 0.500000 0.000000
O O7 0.500000 0.000000 0.000000
O O8 0.428645 0.989774 0.068598
O O9 0.815255 0.046308 0.660977
O O10 0.462524 0.705551 0.570316
O O11 0.500000 0.500000 0.000000
O O12 0.203974 0.479732 0.009874
O O13 0.827629 0.855205 0.892918
O O14 0.000000 0.500000 0.500000
#
# Coordination Sequence:
#
# PCOD8027760 Si02
#       6
#     2   2   2   2   2   2
#     4  11  25  43  73 106 143 189 236 289 361 435
#     4  12  27  45  76 103 142 187 252 298 359 430
#     4  11  24  45  70 104 144 187 241 298 353 425
#     4  10  24  46  75 105 146 192 244 297 360 429
#     4  12  26  48  74 108 152 189 239 300 368 435
#     4  12  29  49  75 107 150 193 240 303 371 430
#
# _framework density 23.785802
#
# number of rings (size 3 to 8) (size 9 to 14) (size 15 to 20)
#    0.000    0.667    1.667    4.500   11.667    2.667 
#    0.000    5.833    0.000    0.000    0.000    0.000 
#    0.000    0.000    0.000    0.000    0.000    0.000 
#
# Total GULP energy -148788.550499 kJ/mol
# GULP energy per Si atom -12399.045875 kJ/mol
# Density = 2.373166 g / cm^3
# Si number density = 23.785802 Si / 1000 Ang^3
#
#
#
# Elastic Constant Matrix: (Units=GPa)
#
#
# Indices 1 2 3 4 5 6 
#
# 1 139.1883 36.1862 35.0791 -2.9828 -9.1586 -0.0807
# 2 36.1862 121.8306 45.8360 -19.8808 0.0896 3.4872
# 3 35.0791 45.8360 121.2937 -11.8749 1.3680 -5.5172
# 4 -2.9828 -19.8808 -11.8749 28.4287 -1.2270 0.0000
# 5 -9.1586 0.0896 1.3680 -1.2270 40.9157 -2.4708
# 6 -0.0807 3.4872 -5.5172 0.0000 -2.4708 40.8140
#
#
#
# Elastic Compliance Matrix: (Units=1/GPa)
#
#
# Indices 1 2 3 4 5 6 
#
# 1 0.008243 -0.001977 -0.001770 -0.001176 0.001877 0.000060
# 2 -0.001977 0.010987 -0.003033 0.006198 -0.000262 -0.001368
# 3 -0.001770 -0.003033 0.010169 0.001916 -0.000576 0.001595
# 4 -0.001176 0.006198 0.001916 0.040224 0.000852 -0.000221
# 5 0.001877 -0.000262 -0.000576 0.000852 0.024994 0.001461
# 6 0.000060 -0.001368 0.001595 -0.000221 0.001461 0.024923
#
#
# Mechanical properties :
#
#
# Convention : Reuss Voigt Hill
#
# Bulk Modulus (GPa) = 63.13634 68.50168 65.81901
# Shear Modulus (GPa) = 36.13231 39.71245 37.92238
#
# Velocity S-wave (km/s) = 3.90175 4.09049 3.99724
# Velocity P-wave (km/s) = 6.84833 7.15342 7.00253
#
# Compressibility (1/GPa) = 0.01583874
#
# Stress axis : x y z
#
# Youngs Moduli (GPa) = 121.31367 91.01532 98.33687
#
# Poissons Ratio (x) = 0.17997 0.17409
# Poissons Ratio (y) = 0.23988 0.29822
# Poissons Ratio (z) = 0.21477 0.27601
#
# Static dielectric constant tensor:
#      x y z
#    x 5.043370 -0.072870 0.327050 
#    y -0.072870 4.090840 -0.125400 
#    z 0.327050 -0.125400 4.360280 
# 
# 
# High freq. dielectric constant tensor:
#      x y z
#    x 1.967600 -0.001540 0.007130 
#    y -0.001540 1.935190 -0.014920 
#    z 0.007130 -0.014920 1.944010 
# 
# From -- ./inp_files/93586.got.cif
#   From: 2010.06.25/outbox.cif.g09.slc.cpg/sg2_47_cif.got.tgz:93586.got - 2010.06.27 13:26:56.
