data_PCOD8027213
_publ_section_title
;
Structure prediction by ZEFSAII (Michael W. Deem and Ramdas Pophale) SiO2 
 PCOD8027213
Probable space group: P -1
;
_chemical_formula_sum "Si O2"
_cell_formula_units_Z 16
_cell_length_a 8.764934
_cell_length_b 28.078300
_cell_length_c 13.672076
_cell_angle_alpha 158.827814
_cell_angle_beta 56.511775
_cell_angle_gamma 136.947894
_cell_volume 705.669784
_symmetry_space_group_name_H-M "P -1"
_symmetry_group_IT_number 2
_symmetry_cell_setting 'triclinic'
loop_
_space_group_symop_operation_xyz
x,y,z
-x,-y,-z
loop_
_atom_site_type_symbol
_atom_site_label
_atom_site_fract_x
_atom_site_fract_y
_atom_site_fract_z
Si Si1 0.791961 0.798057 0.130294
Si Si2 0.123279 0.535307 0.166571
Si Si3 0.598222 0.902879 0.800629
Si Si4 0.196953 0.817946 0.275315
Si Si5 0.084433 0.408447 0.248527
Si Si6 0.106060 0.047982 0.815529
Si Si7 0.248993 0.461070 0.788296
Si Si8 0.655253 0.777500 0.727661
O O1 0.734573 0.816183 0.075006
O O2 0.517332 0.645431 0.993042
O O3 0.000000 0.000000 0.500000
O O4 0.911462 0.712815 0.910630
O O5 0.347497 0.680327 0.444352
O O6 0.010437 0.612083 0.309775
O O7 0.264611 0.518578 0.003677
O O8 0.869553 0.334243 0.918891
O O9 0.707187 0.923407 0.911141
O O10 0.837417 0.991505 0.813028
O O11 0.500000 0.000000 0.000000
O O12 0.500000 0.000000 0.500000
O O13 0.042099 0.863279 0.460660
O O14 0.110260 0.735825 0.041835
O O15 0.000000 0.500000 0.500000
O O16 0.365456 0.578205 0.429120
O O17 0.290643 0.148728 0.039284
O O18 0.179886 0.269463 0.444170
#
# Coordination Sequence:
#
# PCOD8027213 Si02
#       8
#     2   2   2   2   2   2   2   2
#     4  11  23  44  71 104 143 187 253 299 365 439
#     4  11  24  44  72 104 143 193 242 302 365 437
#     4  12  27  45  73 105 150 192 250 299 370 437
#     4  12  25  45  73 107 146 192 248 301 373 441
#     4  11  25  43  70 102 145 189 238 306 366 431
#     4  12  26  44  75 105 144 199 242 307 364 440
#     4  10  24  44  70 102 145 191 239 300 370 437
#     4  11  25  47  68 103 145 188 244 296 367 436
#
# _framework density 22.673496
#
# number of rings (size 3 to 8) (size 9 to 14) (size 15 to 20)
#    0.000    0.750    2.500    4.125    3.500    6.000 
#    0.000    0.000    0.000    0.000    0.000    0.000 
#    0.000    0.000    0.000    0.000    0.000    0.000 
#
# Total GULP energy -198322.205136 kJ/mol
# GULP energy per Si atom -12395.137821 kJ/mol
# Density = 2.262189 g / cm^3
# Si number density = 22.673496 Si / 1000 Ang^3
#
#
#
# Elastic Constant Matrix: (Units=GPa)
#
#
# Indices 1 2 3 4 5 6 
#
# 1 105.8704 51.7379 55.8849 -14.0380 -6.4195 -22.5464
# 2 51.7379 110.2602 46.2168 4.2516 7.2982 -10.3912
# 3 55.8849 46.2168 110.6287 -12.3952 2.5363 -3.2200
# 4 -14.0380 4.2516 -12.3952 47.5011 5.3496 -1.4327
# 5 -6.4195 7.2982 2.5363 5.3496 51.4168 0.0290
# 6 -22.5464 -10.3912 -3.2200 -1.4327 0.0290 43.1625
#
#
#
# Elastic Compliance Matrix: (Units=1/GPa)
#
#
# Indices 1 2 3 4 5 6 
#
# 1 0.017550 -0.005334 -0.006033 0.003999 0.002825 0.007564
# 2 -0.005334 0.013149 -0.003125 -0.003339 -0.002031 0.000037
# 3 -0.006033 -0.003125 0.013572 0.002088 -0.001195 -0.002821
# 4 0.003999 -0.003339 0.002088 0.023320 -0.001557 0.002216
# 5 0.002825 -0.002031 -0.001195 -0.001557 0.020310 0.000833
# 6 0.007564 0.000037 -0.002821 0.002216 0.000833 0.026991
#
#
# Mechanical properties :
#
#
# Convention : Reuss Voigt Hill
#
# Bulk Modulus (GPa) = 65.42372 70.49316 67.95844
# Shear Modulus (GPa) = 33.56348 39.94404 36.75376
#
# Velocity S-wave (km/s) = 3.85164 4.20182 4.03053
# Velocity P-wave (km/s) = 6.97836 7.39584 7.19013
#
# Compressibility (1/GPa) = 0.01528498
#
# Stress axis : x y z
#
# Youngs Moduli (GPa) = 56.98162 76.05140 73.68272
#
# Poissons Ratio (x) = 0.40568 0.44455
# Poissons Ratio (y) = 0.30396 0.23026
# Poissons Ratio (z) = 0.34379 0.23766
#
# Static dielectric constant tensor:
#      x y z
#    x 4.001260 -0.132020 -0.077620 
#    y -0.132020 3.935900 0.046580 
#    z -0.077620 0.046580 4.131960 
# 
# 
# High freq. dielectric constant tensor:
#      x y z
#    x 1.908540 0.002600 -0.004100 
#    y 0.002600 1.894920 0.002600 
#    z -0.004100 0.002600 1.906390 
# 
# From -- ./inp_files/509154.got.cif
#   From: 2010.06.25/outbox.cif.g09.slc.cpg/sg2_255_cif.got.tgz:509154.got - 2010.06.27 13:26:56.
