data_PCOD8027383
_publ_section_title
;
Structure prediction by ZEFSAII (Michael W. Deem and Ramdas Pophale) SiO2 
 PCOD8027383
Probable space group: P -1
;
_chemical_formula_sum "Si O2"
_cell_formula_units_Z 14
_cell_length_a 11.843783
_cell_length_b 18.298294
_cell_length_c 9.086076
_cell_angle_alpha 129.842294
_cell_angle_beta 41.671473
_cell_angle_gamma 151.602840
_cell_volume 621.791841
_symmetry_space_group_name_H-M "P -1"
_symmetry_group_IT_number 2
_symmetry_cell_setting 'triclinic'
loop_
_space_group_symop_operation_xyz
x,y,z
-x,-y,-z
loop_
_atom_site_type_symbol
_atom_site_label
_atom_site_fract_x
_atom_site_fract_y
_atom_site_fract_z
Si Si1 0.637915 0.135176 0.649421
Si Si2 0.356547 0.177431 0.595021
Si Si3 0.635053 0.655903 0.415030
Si Si4 0.793519 0.378150 0.669064
Si Si5 0.444632 0.591234 0.833403
Si Si6 0.827579 0.921088 0.922745
Si Si7 0.270307 0.940309 0.254012
O O1 0.861710 0.300630 0.559928
O O2 0.772124 0.142519 0.666128
O O3 0.500000 0.000000 0.500000
O O4 0.420159 0.115408 0.895935
O O5 0.468011 0.313219 0.564015
O O6 0.493035 0.242432 0.708736
O O7 0.416043 0.103664 0.364167
O O8 0.026398 0.037467 0.745781
O O9 0.428366 0.581246 0.658201
O O10 0.574911 0.524842 0.237497
O O11 0.963088 0.812562 0.323019
O O12 0.000000 0.500000 0.500000
O O13 0.787487 0.449377 0.905009
O O14 0.736706 0.770704 0.806477
O O15 0.000000 0.000000 0.000000
O O16 0.500000 0.000000 0.000000
#
# Coordination Sequence:
#
# PCOD8027383 Si02
#       7
#     2   2   2   2   2   2   2
#     4  11  23  43  70 101 132 174 225 279 337 391
#     4  12  24  45  69 100 131 179 234 272 336 407
#     4  11  26  44  69  99 138 182 222 277 339 415
#     4  11  26  44  67 101 138 173 226 289 341 393
#     4  10  24  45  66  98 133 179 230 270 343 399
#     4  11  20  43  72  96 128 173 225 276 322 405
#     4  12  26  42  69 105 139 174 225 281 339 406
#
# _framework density 22.515573
#
# number of rings (size 3 to 8) (size 9 to 14) (size 15 to 20)
#    0.000    0.857    5.714    1.286    6.000    4.000 
#    0.000    3.571    0.000    0.000    0.000    0.000 
#    0.000    0.000    0.000    0.000    0.000    0.000 
#
# Total GULP energy -173471.773818 kJ/mol
# GULP energy per Si atom -12390.840987 kJ/mol
# Density = 2.246433 g / cm^3
# Si number density = 22.515573 Si / 1000 Ang^3
#
#
#
# Elastic Constant Matrix: (Units=GPa)
#
#
# Indices 1 2 3 4 5 6 
#
# 1 95.6397 25.1706 6.2979 15.8439 2.4540 -35.2388
# 2 25.1706 122.0365 39.1254 18.9027 0.4509 -42.3297
# 3 6.2979 39.1254 117.8225 9.9036 8.7635 -19.4079
# 4 15.8439 18.9027 9.9036 53.6883 -5.2915 -2.1434
# 5 2.4540 0.4509 8.7635 -5.2915 23.5535 -2.9930
# 6 -35.2388 -42.3297 -19.4079 -2.1434 -2.9930 49.7971
#
#
#
# Elastic Compliance Matrix: (Units=1/GPa)
#
#
# Indices 1 2 3 4 5 6 
#
# 1 0.015389 0.001469 0.001258 -0.004962 -0.001649 0.012316
# 2 0.001469 0.013151 -0.002330 -0.004092 0.000965 0.011192
# 3 0.001258 -0.002330 0.010038 -0.001685 -0.003880 0.002517
# 4 -0.004962 -0.004092 -0.001685 0.022118 0.005382 -0.006371
# 5 -0.001649 0.000965 -0.003880 0.005382 0.045402 0.001101
# 6 0.012316 0.011192 0.002517 -0.006371 0.001101 0.039084
#
#
# Mechanical properties :
#
#
# Convention : Reuss Voigt Hill
#
# Bulk Modulus (GPa) = 25.39808 52.96516 39.18162
# Shear Modulus (GPa) = 31.74389 43.06811 37.40600
#
# Velocity S-wave (km/s) = 3.75889 4.37832 4.08037
# Velocity P-wave (km/s) = 5.49033 7.00959 6.29596
#
# Compressibility (1/GPa) = 0.03937305
#
# Stress axis : x y z
#
# Youngs Moduli (GPa) = 64.98308 76.04268 99.61702
#
# Poissons Ratio (x) = -0.11174 -0.12532
# Poissons Ratio (y) = -0.09549 0.23207
# Poissons Ratio (z) = -0.08175 0.17715
#
# Static dielectric constant tensor:
#      x y z
#    x 4.023840 -0.189040 0.104270 
#    y -0.189040 5.110830 -0.140890 
#    z 0.104270 -0.140890 4.186910 
# 
# 
# High freq. dielectric constant tensor:
#      x y z
#    x 1.872220 -0.021130 0.012090 
#    y -0.021130 1.902440 0.004430 
#    z 0.012090 0.004430 1.897970 
# 
# From -- ./inp_files/154198.got.cif
#   From: 2010.06.25/outbox.cif.g09.slc.cpg/sg2_78_cif.got.tgz:154198.got - 2010.06.27 13:26:56.
