data_PCOD8027435
_publ_section_title
;
Structure prediction by ZEFSAII (Michael W. Deem and Ramdas Pophale) SiO2 
 PCOD8027435
Probable space group: P -1
;
_chemical_formula_sum "Si O2"
_cell_formula_units_Z 16
_cell_length_a 9.374872
_cell_length_b 14.386480
_cell_length_c 12.360792
_cell_angle_alpha 113.885218
_cell_angle_beta 36.346945
_cell_angle_gamma 129.835617
_cell_volume 735.779779
_symmetry_space_group_name_H-M "P -1"
_symmetry_group_IT_number 2
_symmetry_cell_setting 'triclinic'
loop_
_space_group_symop_operation_xyz
x,y,z
-x,-y,-z
loop_
_atom_site_type_symbol
_atom_site_label
_atom_site_fract_x
_atom_site_fract_y
_atom_site_fract_z
Si Si1 0.779083 0.883832 0.155199
Si Si2 0.400391 0.393178 0.160127
Si Si3 0.302640 0.016993 0.545950
Si Si4 0.229276 0.343138 0.006043
Si Si5 0.192036 0.645030 0.979114
Si Si6 0.242867 0.354081 0.600281
Si Si7 0.105343 0.770306 0.466380
Si Si8 0.391645 0.752115 0.677185
O O1 0.840312 0.932799 0.265112
O O2 0.854621 0.783292 0.058387
O O3 0.444739 0.818259 0.285861
O O4 0.000000 0.000000 0.000000
O O5 0.583981 0.542254 0.138210
O O6 0.072222 0.331231 0.377830
O O7 0.411743 0.368820 0.015330
O O8 0.538541 0.328262 0.100875
O O9 0.473671 0.110008 0.385024
O O10 0.500000 0.000000 0.500000
O O11 0.077203 0.884482 0.562884
O O12 0.936712 0.335391 0.213660
O O13 0.986443 0.674870 0.179810
O O14 0.342952 0.739034 0.830172
O O15 0.000000 0.500000 0.000000
O O16 0.500000 0.500000 0.500000
O O17 0.403306 0.289686 0.506032
O O18 0.054114 0.294864 0.578773
#
# Coordination Sequence:
#
# PCOD8027435 Si02
#       8
#     2   2   2   2   2   2   2   2
#     4  11  23  43  72 104 139 194 242 296 366 426
#     4  11  22  42  65 101 145 187 228 314 352 422
#     4  10  24  45  68  96 141 184 237 303 347 416
#     4  11  23  38  69 103 141 183 249 292 361 424
#     4  12  23  46  68 100 148 187 231 297 358 431
#     4  12  25  43  74 105 145 193 235 290 368 431
#     4  11  23  45  69  97 146 186 239 298 361 420
#     4  12  25  45  72 103 142 189 242 289 360 425
#
# _framework density 21.745638
#
# number of rings (size 3 to 8) (size 9 to 14) (size 15 to 20)
#    0.000    0.750    3.750    4.500    1.750    2.000 
#    0.000    0.625    0.000    0.000    0.000    0.000 
#    0.000    0.000    0.000    0.000    0.000    0.000 
#
# Total GULP energy -198335.257836 kJ/mol
# GULP energy per Si atom -12395.953615 kJ/mol
# Density = 2.169614 g / cm^3
# Si number density = 21.745638 Si / 1000 Ang^3
#
#
#
# Elastic Constant Matrix: (Units=GPa)
#
#
# Indices 1 2 3 4 5 6 
#
# 1 111.6341 48.8277 51.9560 -2.2372 7.8467 -10.5419
# 2 48.8277 131.2240 72.2120 -6.8569 13.2697 -4.7664
# 3 51.9560 72.2120 160.8101 -10.5252 8.8058 -13.9274
# 4 -2.2372 -6.8569 -10.5252 45.6474 -2.5081 8.2502
# 5 7.8467 13.2697 8.8058 -2.5081 44.9843 -6.1860
# 6 -10.5419 -4.7664 -13.9274 8.2502 -6.1860 40.0943
#
#
#
# Elastic Compliance Matrix: (Units=1/GPa)
#
#
# Indices 1 2 3 4 5 6 
#
# 1 0.011502 -0.002972 -0.002236 -0.000782 -0.000463 0.001984
# 2 -0.002972 0.011125 -0.003986 0.000728 -0.002124 -0.001321
# 3 -0.002236 -0.003986 0.008952 0.001027 0.000126 0.001856
# 4 -0.000782 0.000728 0.001027 0.023040 0.000394 -0.004442
# 5 -0.000463 -0.002124 0.000126 0.000394 0.023374 0.003195
# 6 0.001984 -0.001321 0.001856 -0.004442 0.003195 0.027357
#
#
# Mechanical properties :
#
#
# Convention : Reuss Voigt Hill
#
# Bulk Modulus (GPa) = 75.80283 83.29549 79.54916
# Shear Modulus (GPa) = 39.02176 41.52337 40.27256
#
# Velocity S-wave (km/s) = 4.24071 4.37453 4.30814
# Velocity P-wave (km/s) = 7.67546 7.99393 7.83631
#
# Compressibility (1/GPa) = 0.01319212
#
# Stress axis : x y z
#
# Youngs Moduli (GPa) = 86.93835 89.89168 111.70893
#
# Poissons Ratio (x) = 0.26712 0.24978
# Poissons Ratio (y) = 0.25834 0.44525
# Poissons Ratio (z) = 0.19439 0.35829
#
# Static dielectric constant tensor:
#      x y z
#    x 3.979810 -0.006580 0.004270 
#    y -0.006580 4.224200 0.081050 
#    z 0.004270 0.081050 4.154100 
# 
# 
# High freq. dielectric constant tensor:
#      x y z
#    x 1.855510 -0.004060 0.004350 
#    y -0.004060 1.853640 -0.007450 
#    z 0.004350 -0.007450 1.864180 
# 
# From -- ./inp_files/274509.got.cif
#   From: 2010.06.25/outbox.cif.g09.slc.cpg/sg2_138_cif.got.tgz:274509.got - 2010.06.27 13:26:56.
