data_PCOD8027652
_publ_section_title
;
Structure prediction by ZEFSAII (Michael W. Deem and Ramdas Pophale) SiO2 
 PCOD8027652
Probable space group: P -1
;
_chemical_formula_sum "Si O2"
_cell_formula_units_Z 16
_cell_length_a 17.393469
_cell_length_b 11.840316
_cell_length_c 8.764069
_cell_angle_alpha 84.172324
_cell_angle_beta 50.148083
_cell_angle_gamma 44.695432
_cell_volume 735.922736
_symmetry_space_group_name_H-M "P -1"
_symmetry_group_IT_number 2
_symmetry_cell_setting 'triclinic'
loop_
_space_group_symop_operation_xyz
x,y,z
-x,-y,-z
loop_
_atom_site_type_symbol
_atom_site_label
_atom_site_fract_x
_atom_site_fract_y
_atom_site_fract_z
Si Si1 0.025301 0.843686 0.961826
Si Si2 0.610846 0.875462 0.722453
Si Si3 0.006695 0.418294 0.350746
Si Si4 0.698535 0.313537 0.863531
Si Si5 0.612508 0.490189 0.275110
Si Si6 0.356119 0.066121 0.774454
Si Si7 0.974445 0.860006 0.666950
Si Si8 0.315892 0.962396 0.565395
O O1 0.229557 0.613739 0.795772
O O2 0.984369 0.852721 0.838213
O O3 0.876744 0.917552 0.245993
O O4 0.000000 0.000000 0.000000
O O5 0.801038 0.622757 0.514859
O O6 0.656111 0.954833 0.584668
O O7 0.473282 0.925715 0.795445
O O8 0.500000 0.000000 0.000000
O O9 0.050239 0.244338 0.350628
O O10 0.000000 0.500000 0.500000
O O11 0.163878 0.313310 0.043604
O O12 0.828181 0.276868 0.614416
O O13 0.500000 0.500000 0.000000
O O14 0.691223 0.363632 0.038051
O O15 0.799123 0.094343 0.780393
O O16 0.500000 0.500000 0.500000
O O17 0.488541 0.714772 0.352306
O O18 0.302839 0.005711 0.756456
O O19 0.500000 0.000000 0.500000
#
# Coordination Sequence:
#
# PCOD8027652 Si02
#       8
#     2   2   2   2   2   2   2   2
#     4  12  23  46  72 103 146 184 240 299 366 441
#     4  11  26  47  70 103 144 194 253 303 369 440
#     4  12  26  46  74 103 146 194 245 308 368 429
#     4  11  26  45  71 105 150 189 238 296 372 443
#     4  12  25  43  72 105 143 190 241 293 369 440
#     4  10  24  46  69 102 143 181 251 297 360 437
#     4  11  26  46  70 109 142 190 245 302 365 443
#     4  11  26  43  71 105 143 190 237 306 368 440
#
# _framework density 21.741413999999999
#
# number of rings (size 3 to 8) (size 9 to 14) (size 15 to 20)
#    0.000    0.750    5.000    0.750    3.500    7.000 
#    0.000    0.000    0.000    0.000    0.000    0.000 
#    0.000    0.000    0.000    0.000    0.000    0.000 
#
# Total GULP energy -198299.937870 kJ/mol
# GULP energy per Si atom -12393.746117 kJ/mol
# Density = 2.169193 g / cm^3
# Si number density = 21.741414 Si / 1000 Ang^3
#
#
#
# Elastic Constant Matrix: (Units=GPa)
#
#
# Indices 1 2 3 4 5 6 
#
# 1 119.7974 45.0328 49.9299 0.0194 -5.5281 3.6452
# 2 45.0328 106.3877 51.6548 8.6550 -10.4168 6.7184
# 3 49.9299 51.6548 161.5442 9.2621 -11.6529 0.1872
# 4 0.0194 8.6550 9.2621 40.1680 -5.3686 -3.5610
# 5 -5.5281 -10.4168 -11.6529 -5.3686 45.3723 8.6707
# 6 3.6452 6.7184 0.1872 -3.5610 8.6707 44.6498
#
#
#
# Elastic Compliance Matrix: (Units=1/GPa)
#
#
# Indices 1 2 3 4 5 6 
#
# 1 0.010596 -0.003479 -0.002226 0.001251 0.000118 -0.000255
# 2 -0.003479 0.012687 -0.002721 -0.002034 0.001962 -0.002157
# 3 -0.002226 -0.002721 0.007878 -0.001077 0.000945 0.000289
# 4 0.001251 -0.002034 -0.001077 0.026032 0.002132 0.001871
# 5 0.000118 0.001962 0.000945 0.002132 0.023913 -0.004783
# 6 -0.000255 -0.002157 0.000289 0.001871 -0.004783 0.023819
#
#
# Mechanical properties :
#
#
# Convention : Reuss Voigt Hill
#
# Bulk Modulus (GPa) = 69.88064 75.66270 72.77167
# Shear Modulus (GPa) = 39.51183 42.11212 40.81197
#
# Velocity S-wave (km/s) = 4.26767 4.40586 4.33731
# Velocity P-wave (km/s) = 7.51635 7.79480 7.65684
#
# Compressibility (1/GPa) = 0.01431011
#
# Stress axis : x y z
#
# Youngs Moduli (GPa) = 94.37881 78.82183 126.93996
#
# Poissons Ratio (x) = 0.27419 0.28251
# Poissons Ratio (y) = 0.32830 0.34540
# Poissons Ratio (z) = 0.21004 0.21447
#
# Static dielectric constant tensor:
#      x y z
#    x 4.884570 -0.344560 -0.072240 
#    y -0.344560 3.660830 0.022240 
#    z -0.072240 0.022240 4.183420 
# 
# 
# High freq. dielectric constant tensor:
#      x y z
#    x 1.868030 -0.004910 -0.006530 
#    y -0.004910 1.844240 0.001810 
#    z -0.006530 0.001810 1.881970 
# 
# From -- ./inp_files/333219.got.cif
#   From: 2010.06.25/outbox.cif.g09.slc.cpg/sg2_167_cif.got.tgz:333219.got - 2010.06.27 13:26:56.
