data_PCOD8027638
_publ_section_title
;
Structure prediction by ZEFSAII (Michael W. Deem and Ramdas Pophale) SiO2 
 PCOD8027638
Probable space group: P -1
;
_chemical_formula_sum "Si O2"
_cell_formula_units_Z 16
_cell_length_a 13.724091
_cell_length_b 6.750129
_cell_length_c 13.435365
_cell_angle_alpha 119.333823
_cell_angle_beta 45.038698
_cell_angle_gamma 110.727980
_cell_volume 767.707783
_symmetry_space_group_name_H-M "P -1"
_symmetry_group_IT_number 2
_symmetry_cell_setting 'triclinic'
loop_
_space_group_symop_operation_xyz
x,y,z
-x,-y,-z
loop_
_atom_site_type_symbol
_atom_site_label
_atom_site_fract_x
_atom_site_fract_y
_atom_site_fract_z
Si Si1 0.353575 0.585549 0.095414
Si Si2 0.959789 0.292907 0.339939
Si Si3 0.326215 0.952187 0.508164
Si Si4 0.790337 0.848896 0.972815
Si Si5 0.372020 0.757721 0.902648
Si Si6 0.377842 0.249961 0.733859
Si Si7 0.927159 0.786113 0.546639
Si Si8 0.334617 0.046803 0.309087
O O1 0.257514 0.363703 0.113478
O O2 0.302175 0.775175 0.256558
O O3 0.500000 0.500000 0.000000
O O4 0.353773 0.708850 0.019366
O O5 0.800721 0.220336 0.427170
O O6 0.972776 0.564895 0.398266
O O7 0.043333 0.179894 0.158932
O O8 0.031888 0.206947 0.366796
O O9 0.466685 0.810710 0.363044
O O10 0.331308 0.129380 0.637483
O O11 0.308230 0.101061 0.457663
O O12 0.728043 0.828146 0.122866
O O13 0.751824 0.090081 0.011817
O O14 0.372476 0.519469 0.784562
O O15 0.510036 0.901732 0.820982
O O16 0.762563 0.808066 0.656906
O O17 0.000000 0.000000 0.500000
#
# Coordination Sequence:
#
# PCOD8027638 Si02
#       8
#     2   2   2   2   2   2   2   2
#     4  11  22  35  59  96 135 161 203 263 320 377
#     4  11  25  41  65  92 133 171 202 260 325 380
#     4  11  23  46  66  93 128 167 216 268 315 372
#     4  11  23  42  63  93 129 168 211 260 319 378
#     4  11  22  40  64  95 124 168 212 265 315 368
#     4  10  24  46  68  90 125 165 223 274 305 366
#     4  11  23  40  60  94 135 168 207 249 318 394
#     4  12  21  38  67  95 128 167 213 256 319 383
#
# _framework density 20.841260999999999
#
# number of rings (size 3 to 8) (size 9 to 14) (size 15 to 20)
#    0.000    1.000    3.750    3.375    3.500    2.000 
#    2.250    0.625    0.000    0.000    0.000    0.000 
#    0.000    0.000    0.000    0.000    0.000    0.000 
#
# Total GULP energy -198415.116872 kJ/mol
# GULP energy per Si atom -12400.944804 kJ/mol
# Density = 2.079383 g / cm^3
# Si number density = 20.841261 Si / 1000 Ang^3
#
#
#
# Elastic Constant Matrix: (Units=GPa)
#
#
# Indices 1 2 3 4 5 6 
#
# 1 87.1412 32.1924 44.2035 6.3563 6.9481 1.6651
# 2 32.1924 111.3179 37.5971 14.2146 3.3795 -4.2519
# 3 44.2035 37.5971 129.6391 6.0138 -3.8523 -0.2094
# 4 6.3563 14.2146 6.0138 37.7841 3.5957 -6.6763
# 5 6.9481 3.3795 -3.8523 3.5957 30.4128 1.4812
# 6 1.6651 -4.2519 -0.2094 -6.6763 1.4812 25.1429
#
#
#
# Elastic Compliance Matrix: (Units=1/GPa)
#
#
# Indices 1 2 3 4 5 6 
#
# 1 0.015094 -0.002724 -0.004430 -0.000734 -0.003548 -0.001483
# 2 -0.002724 0.010940 -0.002117 -0.003048 -0.000561 0.001236
# 3 -0.004430 -0.002117 0.009929 -0.000320 0.002553 -0.000217
# 4 -0.000734 -0.003048 -0.000320 0.029443 -0.003383 0.007548
# 5 -0.003548 -0.000561 0.002553 -0.003383 0.034612 -0.002776
# 6 -0.001483 0.001236 -0.000217 0.007548 -0.002776 0.042246
#
#
# Mechanical properties :
#
#
# Convention : Reuss Voigt Hill
#
# Bulk Modulus (GPa) = 57.40745 61.78714 59.59730
# Shear Modulus (GPa) = 30.00962 32.94164 31.47563
#
# Velocity S-wave (km/s) = 3.79874 3.97999 3.89042
# Velocity P-wave (km/s) = 6.84437 7.12961 6.98844
#
# Compressibility (1/GPa) = 0.01741934
#
# Stress axis : x y z
#
# Youngs Moduli (GPa) = 66.25096 91.41090 100.71753
#
# Poissons Ratio (x) = 0.24900 0.44623
# Poissons Ratio (y) = 0.18047 0.21323
# Poissons Ratio (z) = 0.29352 0.19353
#
# Static dielectric constant tensor:
#      x y z
#    x 4.112660 -0.490260 -0.089140 
#    y -0.490260 4.721660 -0.044050 
#    z -0.089140 -0.044050 3.956890 
# 
# 
# High freq. dielectric constant tensor:
#      x y z
#    x 1.802980 -0.002560 -0.007250 
#    y -0.002560 1.822200 0.003020 
#    z -0.007250 0.003020 1.828130 
# 
# From -- ./inp_files/95073.got.cif
#   From: 2010.06.25/outbox.cif.g09.slc.cpg/sg2_48_cif.got.tgz:95073.got - 2010.06.27 13:26:56.
