data_PCOD8027729
_publ_section_title
;
Structure prediction by ZEFSAII (Michael W. Deem and Ramdas Pophale) SiO2 
 PCOD8027729
Probable space group: P -1
;
_chemical_formula_sum "Si O2"
_cell_formula_units_Z 16
_cell_length_a 8.094774
_cell_length_b 15.220235
_cell_length_c 12.291564
_cell_angle_alpha 45.611383
_cell_angle_beta 80.280327
_cell_angle_gamma 113.929527
_cell_volume 713.269839
_symmetry_space_group_name_H-M "P -1"
_symmetry_group_IT_number 2
_symmetry_cell_setting 'triclinic'
loop_
_space_group_symop_operation_xyz
x,y,z
-x,-y,-z
loop_
_atom_site_type_symbol
_atom_site_label
_atom_site_fract_x
_atom_site_fract_y
_atom_site_fract_z
Si Si1 0.886433 0.408826 0.263409
Si Si2 0.145561 0.533971 0.349545
Si Si3 0.590531 0.910878 0.062537
Si Si4 0.162277 0.112515 0.094661
Si Si5 0.396914 0.178805 0.617630
Si Si6 0.221955 0.467030 0.013103
Si Si7 0.752740 0.806972 0.749465
Si Si8 0.533360 0.507234 0.617533
O O1 0.597473 0.214097 0.490336
O O2 0.902594 0.537226 0.073870
O O3 0.004678 0.502939 0.285716
O O4 0.041494 0.384875 0.209499
O O5 0.203393 0.419187 0.446592
O O6 0.000000 0.500000 0.500000
O O7 0.412785 0.744477 0.140878
O O8 0.844580 0.010624 0.882459
O O9 0.582761 0.851083 0.234074
O O10 0.500000 0.000000 0.000000
O O11 0.280241 0.144624 0.171826
O O12 0.293473 0.303042 0.863894
O O13 0.875761 0.996868 0.246535
O O14 0.463336 0.358903 0.441685
O O15 0.496505 0.680156 0.817740
O O16 0.224959 0.325159 0.113247
O O17 0.000000 0.000000 0.500000
O O18 0.500000 0.500000 0.500000
#
# Coordination Sequence:
#
# PCOD8027729 Si02
#       8
#     2   2   2   2   2   2   2   2
#     4  11  23  44  69 100 136 182 224 280 349 404
#     4  11  22  40  64  96 132 173 221 270 339 408
#     4  11  25  40  60  96 138 178 222 278 336 409
#     4  11  25  43  66 100 136 178 231 288 338 413
#     4  12  24  42  66  98 137 184 226 271 343 411
#     4  10  24  46  72  98 137 174 233 291 335 409
#     4  11  24  46  73 102 129 177 236 287 349 399
#     4  11  22  41  68  94 132 183 228 275 334 406
#
# _framework density 22.431902999999998
#
# number of rings (size 3 to 8) (size 9 to 14) (size 15 to 20)
#    0.000    1.000    3.750    3.375    1.750    6.000 
#    0.000    6.875    0.000    0.000    0.000    0.000 
#    0.000    0.000    0.000    0.000    0.000    0.000 
#
# Total GULP energy -198300.667739 kJ/mol
# GULP energy per Si atom -12393.791734 kJ/mol
# Density = 2.238085 g / cm^3
# Si number density = 22.431903 Si / 1000 Ang^3
#
#
#
# Elastic Constant Matrix: (Units=GPa)
#
#
# Indices 1 2 3 4 5 6 
#
# 1 107.2667 34.9645 24.0968 0.4781 -1.5723 5.4703
# 2 34.9645 82.7236 37.2804 17.8524 7.5825 7.2959
# 3 24.0968 37.2804 94.0110 6.6874 -11.6609 5.1198
# 4 0.4781 17.8524 6.6874 42.1165 -1.5162 0.4889
# 5 -1.5723 7.5825 -11.6609 -1.5162 42.9748 5.5673
# 6 5.4703 7.2959 5.1198 0.4889 5.5673 40.1136
#
#
#
# Elastic Compliance Matrix: (Units=1/GPa)
#
#
# Indices 1 2 3 4 5 6 
#
# 1 0.011135 -0.004789 -0.000920 0.002100 0.001170 -0.000718
# 2 -0.004789 0.019193 -0.006478 -0.007234 -0.005423 -0.001170
# 3 -0.000920 -0.006478 0.014091 0.000717 0.005115 -0.001213
# 4 0.002100 -0.007234 0.000717 0.026758 0.002457 0.000271
# 5 0.001170 -0.005423 0.005115 0.002457 0.026196 -0.003492
# 6 -0.000718 -0.001170 -0.001213 0.000271 -0.003492 0.025876
#
#
# Mechanical properties :
#
#
# Convention : Reuss Voigt Hill
#
# Bulk Modulus (GPa) = 49.88662 52.96499 51.42581
# Shear Modulus (GPa) = 32.40329 37.55161 34.97745
#
# Velocity S-wave (km/s) = 3.80480 4.09593 3.95305
# Velocity P-wave (km/s) = 6.44899 6.78465 6.61895
#
# Compressibility (1/GPa) = 0.02004546
#
# Stress axis : x y z
#
# Youngs Moduli (GPa) = 89.81049 52.10121 70.96499
#
# Poissons Ratio (x) = 0.24949 0.06531
# Poissons Ratio (y) = 0.43006 0.45972
# Poissons Ratio (z) = 0.08265 0.33752
#
# Static dielectric constant tensor:
#      x y z
#    x 0.368140 -1.712710 4.629130 
#    y -1.712710 3.535730 2.071090 
#    z 4.629130 2.071090 -1.443160 
# 
# 
# High freq. dielectric constant tensor:
#      x y z
#    x 1.894540 0.006170 -0.014690 
#    y 0.006170 1.877440 0.021070 
#    z -0.014690 0.021070 1.889310 
# 
# From -- ./inp_files/398578.got.cif
#   From: 2010.06.25/outbox.cif.g09.slc.cpg/sg2_200_cif.got.tgz:398578.got - 2010.06.27 13:26:56.
