data_PCOD8027483
_publ_section_title
;
Structure prediction by ZEFSAII (Michael W. Deem and Ramdas Pophale) SiO2 
 PCOD8027483
Probable space group: P -1
;
_chemical_formula_sum "Si O2"
_cell_formula_units_Z 16
_cell_length_a 8.633118
_cell_length_b 14.105918
_cell_length_c 19.794442
_cell_angle_alpha 151.997400
_cell_angle_beta 140.125268
_cell_angle_gamma 42.170452
_cell_volume 709.235566
_symmetry_space_group_name_H-M "P -1"
_symmetry_group_IT_number 2
_symmetry_cell_setting 'triclinic'
loop_
_space_group_symop_operation_xyz
x,y,z
-x,-y,-z
loop_
_atom_site_type_symbol
_atom_site_label
_atom_site_fract_x
_atom_site_fract_y
_atom_site_fract_z
Si Si1 0.329604 0.839090 0.823545
Si Si2 0.795047 0.636545 0.375087
Si Si3 0.637684 0.999422 0.200664
Si Si4 0.684120 0.908390 0.382391
Si Si5 0.612509 0.574552 0.853798
Si Si6 0.201574 0.184984 0.363975
Si Si7 0.996228 0.219117 0.708701
Si Si8 0.694178 0.631949 0.620545
O O1 0.483309 0.621861 0.766759
O O2 0.053285 0.876310 0.786272
O O3 0.287775 0.845680 0.733013
O O4 0.500000 0.000000 0.000000
O O5 0.731814 0.827461 0.423082
O O6 0.550564 0.543636 0.229584
O O7 0.843498 0.701373 0.507861
O O8 0.036037 0.473409 0.327053
O O9 0.851083 0.953308 0.298699
O O10 0.383501 0.130228 0.229382
O O11 0.613289 0.783899 0.025196
O O12 0.828233 0.745942 0.273067
O O13 0.397094 0.968157 0.302969
O O14 0.772125 0.126448 0.545693
O O15 0.887606 0.435830 0.846562
O O16 0.289862 0.342061 0.439197
O O17 0.500000 0.500000 0.500000
#
# Coordination Sequence:
#
# PCOD8027483 Si02
#       8
#     2   2   2   2   2   2   2   2
#     4  10  24  45  69  99 132 182 230 278 349 412
#     4  12  26  41  69 104 138 177 233 286 349 406
#     4  11  25  46  68  96 139 185 230 279 349 411
#     4  11  25  41  69 104 135 179 227 297 339 404
#     4  11  25  44  67  99 135 186 229 281 344 423
#     4  12  23  46  70 102 141 174 234 291 344 408
#     4  11  23  45  68  97 140 180 233 280 349 405
#     4  12  26  42  72 103 138 178 229 287 349 408
#
# _framework density 22.559498000000001
#
# number of rings (size 3 to 8) (size 9 to 14) (size 15 to 20)
#    0.000    0.750    3.750    3.375    7.000    0.500 
#    0.000    0.625    0.000    0.000    0.000    0.000 
#    0.000    0.000    0.000    0.000    0.000    0.000 
#
# Total GULP energy -198309.447733 kJ/mol
# GULP energy per Si atom -12394.340483 kJ/mol
# Density = 2.250815 g / cm^3
# Si number density = 22.559498 Si / 1000 Ang^3
#
#
#
# Elastic Constant Matrix: (Units=GPa)
#
#
# Indices 1 2 3 4 5 6 
#
# 1 135.6285 62.4566 37.8125 1.6315 2.8366 -1.2069
# 2 62.4566 144.4774 17.2018 6.2512 -2.7395 -10.5886
# 3 37.8125 17.2018 63.5430 4.7054 1.4542 -15.1952
# 4 1.6315 6.2512 4.7054 27.9587 -5.5620 -10.3092
# 5 2.8366 -2.7395 1.4542 -5.5620 27.2887 1.4267
# 6 -1.2069 -10.5886 -15.1952 -10.3092 1.4267 55.9358
#
#
#
# Elastic Compliance Matrix: (Units=1/GPa)
#
#
# Indices 1 2 3 4 5 6 
#
# 1 0.010954 -0.004222 -0.005870 0.000314 -0.001077 -0.002072
# 2 -0.004222 0.008859 0.000531 -0.001068 0.001003 0.001508
# 3 -0.005870 0.000531 0.020484 -0.001472 -0.001005 0.005293
# 4 0.000314 -0.001068 -0.001472 0.040226 0.007791 0.006620
# 5 -0.001077 0.001003 -0.001005 0.007791 0.038481 0.000348
# 6 -0.002072 0.001508 0.005293 0.006620 0.000348 0.020767
#
#
# Mechanical properties :
#
#
# Convention : Reuss Voigt Hill
#
# Bulk Modulus (GPa) = 47.22400 64.28786 55.75593
# Shear Modulus (GPa) = 30.12897 37.31518 33.72207
#
# Velocity S-wave (km/s) = 3.65846 4.07145 3.87047
# Velocity P-wave (km/s) = 6.23092 7.11766 6.68900
#
# Compressibility (1/GPa) = 0.02117567
#
# Stress axis : x y z
#
# Youngs Moduli (GPa) = 91.28872 112.87482 48.81826
#
# Poissons Ratio (x) = 0.47661 0.28654
# Poissons Ratio (y) = 0.38547 -0.02592
# Poissons Ratio (z) = 0.53583 -0.05994
#
# Static dielectric constant tensor:
#      x y z
#    x 4.496630 0.066780 0.005130 
#    y 0.066780 4.501520 -0.098700 
#    z 0.005130 -0.098700 3.732420 
# 
# 
# High freq. dielectric constant tensor:
#      x y z
#    x 1.901690 0.001150 0.000570 
#    y 0.001150 1.912200 -0.001670 
#    z 0.000570 -0.001670 1.854580 
# 
# From -- ./inp_files/590329.got.cif
#   From: 2010.06.25/outbox.cif.g09.slc.cpg/sg2_296_cif.got.tgz:590329.got - 2010.06.27 13:26:56.
