data_PCOD8027188
_publ_section_title
;
Structure prediction by ZEFSAII (Michael W. Deem and Ramdas Pophale) SiO2 
 PCOD8027188
Probable space group: P -1
;
_chemical_formula_sum "Si O2"
_cell_formula_units_Z 16
_cell_length_a 18.589792
_cell_length_b 6.196359
_cell_length_c 11.516498
_cell_angle_alpha 103.215700
_cell_angle_beta 150.701978
_cell_angle_gamma 75.582064
_cell_volume 628.532708
_symmetry_space_group_name_H-M "P -1"
_symmetry_group_IT_number 2
_symmetry_cell_setting 'triclinic'
loop_
_space_group_symop_operation_xyz
x,y,z
-x,-y,-z
loop_
_atom_site_type_symbol
_atom_site_label
_atom_site_fract_x
_atom_site_fract_y
_atom_site_fract_z
Si Si1 0.751237 0.295686 0.195885
Si Si2 0.602486 0.102732 0.563963
Si Si3 0.115315 0.182606 0.162657
Si Si4 0.957713 0.998515 0.581732
Si Si5 0.494899 0.035359 0.167380
Si Si6 0.801307 0.344472 0.028585
Si Si7 0.697778 0.751025 0.265781
Si Si8 0.017005 0.575758 0.210470
O O1 0.735509 0.436007 0.070337
O O2 0.734807 0.482257 0.299027
O O3 0.913790 0.134197 0.411048
O O4 0.622648 0.140710 0.004646
O O5 0.500000 0.000000 0.500000
O O6 0.725953 0.921888 0.665187
O O7 0.509403 0.174045 0.325179
O O8 0.676421 0.306051 0.752472
O O9 0.120995 0.340189 0.306342
O O10 0.068123 0.359603 0.018855
O O11 0.000000 0.000000 0.000000
O O12 0.843250 0.821511 0.417776
O O13 0.116971 0.898530 0.844427
O O14 0.902062 0.212688 0.610969
O O15 0.650863 0.890997 0.333808
O O16 0.443414 0.208775 0.015118
O O17 0.901943 0.523171 0.142957
#
# Coordination Sequence:
#
# PCOD8027188 Si02
#       8
#     2   2   2   2   2   2   2   2
#     4  11  24  44  69  98 139 187 234 288 360 423
#     4  12  25  46  72 101 149 191 224 292 365 426
#     4  11  24  45  72 102 143 182 240 298 346 431
#     4  11  24  42  71 101 137 178 236 302 356 410
#     4  10  24  44  69  96 140 183 231 294 348 429
#     4  12  25  45  66 107 143 178 238 295 359 431
#     4  10  24  46  68 103 132 183 242 291 351 422
#     4  11  24  42  71 106 134 185 235 297 361 417
#
# _framework density 25.456112000000001
#
# number of rings (size 3 to 8) (size 9 to 14) (size 15 to 20)
#    0.000    1.000    3.750    1.500    5.250    5.000 
#    2.250    1.250    0.000    0.000    0.000    0.000 
#    0.000    0.000    0.000    0.000    0.000    0.000 
#
# Total GULP energy -198232.293354 kJ/mol
# GULP energy per Si atom -12389.518335 kJ/mol
# Density = 2.539817 g / cm^3
# Si number density = 25.456112 Si / 1000 Ang^3
#
#
#
# Elastic Constant Matrix: (Units=GPa)
#
#
# Indices 1 2 3 4 5 6 
#
# 1 68.4602 4.1466 -2.7984 -4.1060 -6.0542 30.0664
# 2 4.1466 75.4901 15.0456 11.0200 3.2036 -2.9417
# 3 -2.7984 15.0456 57.1024 18.1863 -5.0878 5.5866
# 4 -4.1060 11.0200 18.1863 30.2119 -8.1269 -6.2108
# 5 -6.0542 3.2036 -5.0878 -8.1269 45.1376 5.1164
# 6 30.0664 -2.9417 5.5866 -6.2108 5.1164 21.4838
#
#
#
# Elastic Compliance Matrix: (Units=1/GPa)
#
#
# Indices 1 2 3 4 5 6 
#
# 1 0.065270 -0.010950 0.024736 -0.018851 0.021373 -0.109816
# 2 -0.010950 0.016418 -0.007287 -0.000406 -0.005880 0.020750
# 3 0.024736 -0.007287 0.033986 -0.022820 0.009603 -0.053337
# 4 -0.018851 -0.000406 -0.022820 0.054097 -0.000782 0.048086
# 5 0.021373 -0.005880 0.009603 -0.000782 0.031008 -0.040825
# 6 -0.109816 0.020750 -0.053337 0.048086 -0.040825 0.240568
#
#
# Mechanical properties :
#
#
# Convention : Reuss Voigt Hill
#
# Bulk Modulus (GPa) = 7.77166 25.98226 16.87696
# Shear Modulus (GPa) = 10.61031 31.67727 21.14379
#
# Velocity S-wave (km/s) = 2.04380 3.53141 2.88514
# Velocity P-wave (km/s) = 2.93753 5.18234 4.21223
#
# Compressibility (1/GPa) = 0.12867264
#
# Stress axis : x y z
#
# Youngs Moduli (GPa) = 15.32100 60.90877 29.42354
#
# Poissons Ratio (x) = 0.66692 -0.72781
# Poissons Ratio (y) = 0.16776 0.21441
# Poissons Ratio (z) = -0.37898 0.44384
#
# Static dielectric constant tensor:
#      x y z
#    x 4.768650 -0.387260 -0.403310 
#    y -0.387260 4.256980 -0.161350 
#    z -0.403310 -0.161350 4.903610 
# 
# 
# High freq. dielectric constant tensor:
#      x y z
#    x 2.029160 -0.012440 -0.024540 
#    y -0.012440 2.013710 -0.011830 
#    z -0.024540 -0.011830 2.029980 
# 
# From -- ./inp_files/468418.got.cif
#   From: 2010.06.25/outbox.cif.g09.slc.cpg/sg2_235_cif.got.tgz:468418.got - 2010.06.27 13:26:56.
