data_PCOD8027304
_publ_section_title
;
Structure prediction by ZEFSAII (Michael W. Deem and Ramdas Pophale) SiO2 
 PCOD8027304
Probable space group: P -1
;
_chemical_formula_sum "Si O2"
_cell_formula_units_Z 12
_cell_length_a 8.986507
_cell_length_b 4.877380
_cell_length_c 18.776770
_cell_angle_alpha 120.492759
_cell_angle_beta 39.114963
_cell_angle_gamma 102.526389
_cell_volume 423.074133
_symmetry_space_group_name_H-M "P -1"
_symmetry_group_IT_number 2
_symmetry_cell_setting 'triclinic'
loop_
_space_group_symop_operation_xyz
x,y,z
-x,-y,-z
loop_
_atom_site_type_symbol
_atom_site_label
_atom_site_fract_x
_atom_site_fract_y
_atom_site_fract_z
Si Si1 0.220383 0.151891 0.862606
Si Si2 0.307519 0.762056 0.515252
Si Si3 0.160166 0.686767 0.705371
Si Si4 0.549890 0.986974 0.095997
Si Si5 0.746128 0.925142 0.568209
Si Si6 0.704788 0.482098 0.850054
O O1 0.282972 0.974723 0.894197
O O2 0.485475 0.168064 0.733377
O O3 0.096766 0.934169 0.829792
O O4 0.000000 0.500000 0.000000
O O5 0.168565 0.906758 0.660468
O O6 0.595115 0.618942 0.410349
O O7 0.284171 0.040131 0.500884
O O8 0.221871 0.458548 0.474208
O O9 0.968137 0.496013 0.730135
O O10 0.299306 0.904336 0.205608
O O11 0.501632 0.296987 0.101173
O O12 0.670382 0.632659 0.962785
O O13 0.000000 0.000000 0.500000
#
# Coordination Sequence:
#
# PCOD8027304 Si02
#       6
#     2   2   2   2   2   2
#     4  11  28  47  75 115 156 194 246 314 381 442
#     4  10  25  47  75 107 143 197 259 301 364 450
#     4  10  25  46  77 107 147 200 249 311 371 442
#     4  10  25  45  66 104 142 194 241 295 365 447
#     4  11  26  49  77 110 148 198 249 310 371 439
#     4  10  24  44  72  97 144 193 244 293 367 437
#
# _framework density 28.363821000000002
#
# number of rings (size 3 to 8) (size 9 to 14) (size 15 to 20)
#    0.000    1.667    0.000    0.500   14.000   10.667 
#    0.000    0.000    0.000    0.000    0.000    0.000 
#    0.000    0.000    0.000    0.000    0.000    0.000 
#
# Total GULP energy -148685.739776 kJ/mol
# GULP energy per Si atom -12390.478315 kJ/mol
# Density = 2.829926 g / cm^3
# Si number density = 28.363821 Si / 1000 Ang^3
#
#
#
# Elastic Constant Matrix: (Units=GPa)
#
#
# Indices 1 2 3 4 5 6 
#
# 1 135.3108 9.1187 41.2747 0.7129 13.4166 -15.2351
# 2 9.1187 65.9598 11.5526 -13.9106 6.1525 -11.1140
# 3 41.2747 11.5526 113.3236 11.8643 11.1587 -4.6515
# 4 0.7129 -13.9106 11.8643 29.0963 2.2539 11.8322
# 5 13.4166 6.1525 11.1587 2.2539 51.7473 -19.2736
# 6 -15.2351 -11.1140 -4.6515 11.8322 -19.2736 50.9312
#
#
#
# Elastic Compliance Matrix: (Units=1/GPa)
#
#
# Indices 1 2 3 4 5 6 
#
# 1 0.008609 -0.000232 -0.002969 0.000193 -0.000873 0.001878
# 2 -0.000232 0.017906 -0.002531 0.009397 -0.001632 0.000806
# 3 -0.002969 -0.002531 0.010868 -0.005743 -0.000806 0.000581
# 4 0.000193 0.009397 -0.005743 0.046383 -0.006254 -0.011558
# 5 -0.000873 -0.001632 -0.000806 -0.006254 0.023835 0.009782
# 6 0.001878 0.000806 0.000581 -0.011558 0.009782 0.026812
#
#
# Mechanical properties :
#
#
# Convention : Reuss Voigt Hill
#
# Bulk Modulus (GPa) = 38.58081 48.72068 43.65075
# Shear Modulus (GPa) = 32.35930 43.19818 37.77874
#
# Velocity S-wave (km/s) = 3.38133 3.90680 3.65353
# Velocity P-wave (km/s) = 5.37366 6.12904 5.76374
#
# Compressibility (1/GPa) = 0.02591962
#
# Stress axis : x y z
#
# Youngs Moduli (GPa) = 116.16200 55.84751 92.01196
#
# Poissons Ratio (x) = 0.01293 0.27318
# Poissons Ratio (y) = 0.02689 0.23289
# Poissons Ratio (z) = 0.34488 0.14135
#
# Static dielectric constant tensor:
#      x y z
#    x 5.699340 0.079660 -0.044180 
#    y 0.079660 5.268360 -0.506360 
#    z -0.044180 -0.506360 5.554680 
# 
# 
# High freq. dielectric constant tensor:
#      x y z
#    x 2.168840 0.007630 -0.000430 
#    y 0.007630 2.143640 -0.018930 
#    z -0.000430 -0.018930 2.156070 
# 
# From -- ./inp_files/553689.got.cif
#   From: 2010.06.25/outbox.cif.g09.slc.cpg/sg2_277_cif.got.tgz:553689.got - 2010.06.27 13:26:56.
