data_PCOD8027274
_publ_section_title
;
Structure prediction by ZEFSAII (Michael W. Deem and Ramdas Pophale) SiO2 
 PCOD8027274
Probable space group: P -1
;
_chemical_formula_sum "Si O2"
_cell_formula_units_Z 16
_cell_length_a 11.586569
_cell_length_b 11.372364
_cell_length_c 11.772035
_cell_angle_alpha 148.623498
_cell_angle_beta 120.714776
_cell_angle_gamma 70.863926
_cell_volume 673.720547
_symmetry_space_group_name_H-M "P -1"
_symmetry_group_IT_number 2
_symmetry_cell_setting 'triclinic'
loop_
_space_group_symop_operation_xyz
x,y,z
-x,-y,-z
loop_
_atom_site_type_symbol
_atom_site_label
_atom_site_fract_x
_atom_site_fract_y
_atom_site_fract_z
Si Si1 0.880034 0.673814 0.306571
Si Si2 0.791123 0.438334 0.397624
Si Si3 0.006171 0.157342 0.277912
Si Si4 0.565592 0.160377 0.502975
Si Si5 0.240689 0.345561 0.007132
Si Si6 0.929731 0.652323 0.855776
Si Si7 0.603304 0.716263 0.285103
Si Si8 0.496675 0.118271 0.975621
O O1 0.991847 0.850133 0.587022
O O2 0.743984 0.631926 0.282445
O O3 0.934320 0.440369 0.127003
O O4 0.848209 0.759767 0.236425
O O5 0.849394 0.681559 0.562412
O O6 0.815249 0.478977 0.578731
O O7 0.629982 0.333700 0.203197
O O8 0.878383 0.255704 0.249992
O O9 0.984008 0.890953 0.007616
O O10 0.698154 0.377931 0.746201
O O11 0.442312 0.233152 0.569579
O O12 0.616100 0.949089 0.410379
O O13 0.506109 0.082634 0.284309
O O14 0.138906 0.296393 0.020680
O O15 0.361392 0.215064 0.977391
O O16 0.500000 0.500000 0.000000
O O17 0.500000 0.000000 0.000000
#
# Coordination Sequence:
#
# PCOD8027274 Si02
#       8
#     2   2   2   2   2   2   2   2
#     4  11  25  44  68 104 142 177 236 292 342 425
#     4  10  24  47  67 102 140 176 249 290 336 418
#     4  10  24  44  71  99 134 190 232 293 349 407
#     4  11  25  42  74 102 140 190 219 295 363 406
#     4  12  26  46  68 107 144 180 239 284 352 433
#     4  11  25  46  72  99 142 194 232 284 353 416
#     4  11  23  46  68 103 146 176 236 291 347 425
#     4  12  26  46  72 104 143 188 234 293 350 425
#
# _framework density 23.748719000000001
#
# number of rings (size 3 to 8) (size 9 to 14) (size 15 to 20)
#    0.000    1.000    2.500    2.250    5.250    4.500 
#    4.500    0.000    0.000    0.000    0.000    0.000 
#    0.000    0.000    0.000    0.000    0.000    0.000 
#
# Total GULP energy -198361.345619 kJ/mol
# GULP energy per Si atom -12397.584101 kJ/mol
# Density = 2.369467 g / cm^3
# Si number density = 23.748719 Si / 1000 Ang^3
#
#
#
# Elastic Constant Matrix: (Units=GPa)
#
#
# Indices 1 2 3 4 5 6 
#
# 1 144.3442 37.4939 34.1057 1.4948 -21.3484 -14.1219
# 2 37.4939 92.9634 30.1727 -7.4807 -3.3658 -7.4786
# 3 34.1057 30.1727 93.2999 -3.6488 -15.3550 -3.5030
# 4 1.4948 -7.4807 -3.6488 43.9386 6.2180 -0.5845
# 5 -21.3484 -3.3658 -15.3550 6.2180 31.6060 -0.6442
# 6 -14.1219 -7.4786 -3.5030 -0.5845 -0.6442 39.8139
#
#
#
# Elastic Compliance Matrix: (Units=1/GPa)
#
#
# Indices 1 2 3 4 5 6 
#
# 1 0.009123 -0.002935 -0.001442 -0.001678 0.005533 0.002623
# 2 -0.002935 0.013278 -0.003534 0.002471 -0.002749 0.001134
# 3 -0.001442 -0.003534 0.013225 -0.000177 0.005111 0.000068
# 4 -0.001678 0.002471 -0.000177 0.024028 -0.005681 0.000114
# 5 0.005533 -0.002749 0.005111 -0.005681 0.038734 0.002439
# 6 0.002623 0.001134 0.000068 0.000114 0.002439 0.026307
#
#
# Mechanical properties :
#
#
# Convention : Reuss Voigt Hill
#
# Bulk Modulus (GPa) = 50.49751 59.35024 54.92387
# Shear Modulus (GPa) = 33.98567 38.32737 36.15652
#
# Velocity S-wave (km/s) = 3.78703 4.02166 3.90611
# Velocity P-wave (km/s) = 6.35858 6.82716 6.59703
#
# Compressibility (1/GPa) = 0.01980296
#
# Stress axis : x y z
#
# Youngs Moduli (GPa) = 109.60855 75.31015 75.61360
#
# Poissons Ratio (x) = 0.22105 0.10907
# Poissons Ratio (y) = 0.32172 0.26725
# Poissons Ratio (z) = 0.15810 0.26617
#
# Static dielectric constant tensor:
#      x y z
#    x 4.089620 0.402710 -0.219690 
#    y 0.402710 3.864930 -0.033950 
#    z -0.219690 -0.033950 4.485490 
# 
# 
# High freq. dielectric constant tensor:
#      x y z
#    x 1.940910 0.000540 -0.015260 
#    y 0.000540 1.950330 -0.008840 
#    z -0.015260 -0.008840 1.948110 
# 
# From -- ./inp_files/429293.got.cif
#   From: 2010.06.25/outbox.cif.g09.slc.cpg/sg2_215_cif.got.tgz:429293.got - 2010.06.27 13:26:56.
