data_PCOD8027841
_publ_section_title
;
Structure prediction by ZEFSAII (Michael W. Deem and Ramdas Pophale) SiO2 
 PCOD8027841
Probable space group: P -1
;
_chemical_formula_sum "Si O2"
_cell_formula_units_Z 14
_cell_length_a 9.591671
_cell_length_b 22.613293
_cell_length_c 5.005620
_cell_angle_alpha 115.484724
_cell_angle_beta 111.629803
_cell_angle_gamma 37.144217
_cell_volume 591.137617
_symmetry_space_group_name_H-M "P -1"
_symmetry_group_IT_number 2
_symmetry_cell_setting 'triclinic'
loop_
_space_group_symop_operation_xyz
x,y,z
-x,-y,-z
loop_
_atom_site_type_symbol
_atom_site_label
_atom_site_fract_x
_atom_site_fract_y
_atom_site_fract_z
Si Si1 0.427077 0.787398 0.894618
Si Si2 0.726783 0.465734 0.030623
Si Si3 0.703214 0.947312 0.244228
Si Si4 0.121064 0.890700 0.381032
Si Si5 0.248249 0.399297 0.579803
Si Si6 0.041188 0.344735 0.520727
Si Si7 0.629515 0.850245 0.320053
O O1 0.209276 0.854532 0.674565
O O2 0.602229 0.671976 0.709947
O O3 0.338383 0.809962 0.179586
O O4 0.562126 0.811756 0.006402
O O5 0.646314 0.568717 0.165653
O O6 0.929449 0.379576 0.215892
O O7 0.500000 0.500000 0.000000
O O8 0.830221 0.415538 0.717028
O O9 0.769924 0.859096 0.276892
O O10 0.939778 0.894247 0.177909
O O11 0.611534 0.036885 0.539683
O O12 0.500000 0.000000 0.000000
O O13 0.000000 0.000000 0.500000
O O14 0.000000 0.500000 0.500000
O O15 0.211132 0.352500 0.678053
O O16 0.206881 0.227458 0.469750
#
# Coordination Sequence:
#
# PCOD8027841 Si02
#       7
#     2   2   2   2   2   2   2
#     4  12  26  45  75 105 142 194 242 299 370 427
#     4  11  25  47  73 106 150 185 233 311 373 428
#     4  11  27  45  72 100 149 192 245 303 366 435
#     4  12  26  47  71 103 146 188 240 304 366 432
#     4  10  24  47  74 107 140 190 245 295 355 440
#     4  11  24  45  75 101 142 195 244 294 361 446
#     4  11  25  45  69 105 139 193 249 295 360 437
#
# _framework density 23.683147000000002
#
# number of rings (size 3 to 8) (size 9 to 14) (size 15 to 20)
#    0.000    0.857    1.429    4.714    8.000    4.571 
#    0.000    1.429    0.000    0.000    0.000    0.000 
#    0.000    0.000    0.000    0.000    0.000    0.000 
#
# Total GULP energy -173594.837859 kJ/mol
# GULP energy per Si atom -12399.631276 kJ/mol
# Density = 2.362924 g / cm^3
# Si number density = 23.683147 Si / 1000 Ang^3
#
#
#
# Elastic Constant Matrix: (Units=GPa)
#
#
# Indices 1 2 3 4 5 6 
#
# 1 161.8067 42.1405 11.0918 8.9205 8.3139 0.1890
# 2 42.1405 103.7051 6.6812 4.4658 13.9302 12.4000
# 3 11.0918 6.6812 50.3801 2.3777 -0.2870 -2.5107
# 4 8.9205 4.4658 2.3777 43.1513 -4.6520 -0.7391
# 5 8.3139 13.9302 -0.2870 -4.6520 42.9219 0.4342
# 6 0.1890 12.4000 -2.5107 -0.7391 0.4342 43.5706
#
#
#
# Elastic Compliance Matrix: (Units=1/GPa)
#
#
# Indices 1 2 3 4 5 6 
#
# 1 0.007067 -0.002748 -0.001106 -0.001171 -0.000618 0.000674
# 2 -0.002748 0.011727 -0.001090 -0.001005 -0.003356 -0.003372
# 3 -0.001106 -0.001090 0.020346 -0.000688 0.000615 0.001470
# 4 -0.001171 -0.001005 -0.000688 0.023907 0.003133 0.000626
# 5 -0.000618 -0.003356 0.000615 0.003133 0.024843 0.000799
# 6 0.000674 -0.003372 0.001470 0.000626 0.000799 0.023995
#
#
# Mechanical properties :
#
#
# Convention : Reuss Voigt Hill
#
# Bulk Modulus (GPa) = 34.18488 48.41321 41.29905
# Shear Modulus (GPa) = 38.01613 42.99400 40.50507
#
# Velocity S-wave (km/s) = 4.01084 4.26535 4.14005
# Velocity P-wave (km/s) = 5.99289 6.68910 6.35054
#
# Compressibility (1/GPa) = 0.02925270
#
# Stress axis : x y z
#
# Youngs Moduli (GPa) = 141.49997 85.27602 49.14873
#
# Poissons Ratio (x) = 0.23430 0.05437
# Poissons Ratio (y) = 0.38878 0.05357
# Poissons Ratio (z) = 0.15653 0.09295
#
# Static dielectric constant tensor:
#      x y z
#    x 5.003940 0.488180 0.297180 
#    y 0.488180 4.550020 0.306840 
#    z 0.297180 0.306840 4.350890 
# 
# 
# High freq. dielectric constant tensor:
#      x y z
#    x 1.944720 0.002150 -0.001640 
#    y 0.002150 1.948810 0.007360 
#    z -0.001640 0.007360 1.931610 
# 
# From -- ./inp_files/53781.got.cif
#   From: 2010.06.25/outbox.cif.g09.slc.cpg/sg2_27_cif.got.tgz:53781.got - 2010.06.27 13:26:56.
