data_PCOD8027555
_publ_section_title
;
Structure prediction by ZEFSAII (Michael W. Deem and Ramdas Pophale) SiO2 
 PCOD8027555
Probable space group: P -1
;
_chemical_formula_sum "Si O2"
_cell_formula_units_Z 14
_cell_length_a 17.376450
_cell_length_b 7.729252
_cell_length_c 8.747157
_cell_angle_alpha 33.433142
_cell_angle_beta 116.466165
_cell_angle_gamma 116.662471
_cell_volume 572.368992
_symmetry_space_group_name_H-M "P -1"
_symmetry_group_IT_number 2
_symmetry_cell_setting 'triclinic'
loop_
_space_group_symop_operation_xyz
x,y,z
-x,-y,-z
loop_
_atom_site_type_symbol
_atom_site_label
_atom_site_fract_x
_atom_site_fract_y
_atom_site_fract_z
Si Si1 0.916232 0.458666 0.758306
Si Si2 0.313359 0.133336 0.176307
Si Si3 0.885132 0.451966 0.073001
Si Si4 0.558190 0.482699 0.772810
Si Si5 0.828703 0.113646 0.544968
Si Si6 0.560430 0.086556 0.782668
Si Si7 0.145656 0.238621 0.794891
O O1 0.863244 0.416213 0.901682
O O2 0.873132 0.719490 0.432818
O O3 0.016245 0.598241 0.770522
O O4 0.902108 0.103550 0.932333
O O5 0.371472 0.425477 0.099341
O O6 0.262220 0.910036 0.427589
O O7 0.368573 0.920101 0.281925
O O8 0.247810 0.271132 0.901008
O O9 0.870760 0.804211 0.855503
O O10 0.821221 0.169220 0.313804
O O11 0.599626 0.308537 0.796425
O O12 0.524949 0.795945 0.449021
O O13 0.472766 0.265760 0.925017
O O14 0.890293 0.452954 0.391385
#
# Coordination Sequence:
#
# PCOD8027555 Si02
#       7
#     2   2   2   2   2   2   2
#     4  11  25  47  71  96 134 187 243 299 347 409
#     4  12  26  44  71 104 148 186 220 290 361 418
#     4  11  25  47  71  96 134 187 243 299 347 409
#     4  10  24  45  72 103 135 182 236 280 337 416
#     4  12  25  44  65 105 139 180 234 280 364 421
#     4  10  24  45  72 103 135 182 236 280 337 416
#     4  12  25  44  65 105 139 180 234 280 364 421
#
# _framework density 24.459745000000002
#
# number of rings (size 3 to 8) (size 9 to 14) (size 15 to 20)
#    0.000    0.857    2.857    2.571    4.000    6.857 
#    5.143    0.000    0.000    0.000    0.000    0.000 
#    0.000    0.000    0.000    0.000    0.000    0.000 
#
# Total GULP energy -173549.055771 kJ/mol
# GULP energy per Si atom -12396.361127 kJ/mol
# Density = 2.440407 g / cm^3
# Si number density = 24.459745 Si / 1000 Ang^3
#
#
#
# Elastic Constant Matrix: (Units=GPa)
#
#
# Indices 1 2 3 4 5 6 
#
# 1 85.0541 1.0879 23.9960 1.8926 -24.5074 -28.3160
# 2 1.0879 55.5330 6.5944 4.5665 14.1398 -10.2973
# 3 23.9960 6.5944 133.4103 -1.5209 -7.3023 3.1498
# 4 1.8926 4.5665 -1.5209 39.9711 -1.0049 0.8196
# 5 -24.5074 14.1398 -7.3023 -1.0049 34.1231 7.3881
# 6 -28.3160 -10.2973 3.1498 0.8196 7.3881 24.1770
#
#
#
# Elastic Compliance Matrix: (Units=1/GPa)
#
#
# Indices 1 2 3 4 5 6 
#
# 1 0.025665 0.003217 -0.004960 -0.002127 0.009654 0.029197
# 2 0.003217 0.025559 -0.003064 -0.003915 -0.013214 0.019224
# 3 -0.004960 -0.003064 0.008843 0.001140 0.001533 -0.008774
# 4 -0.002127 -0.003915 0.001140 0.025790 0.002377 -0.005908
# 5 0.009654 -0.013214 0.001533 0.002377 0.043845 -0.008000
# 6 0.029197 0.019224 -0.008774 -0.005908 -0.008000 0.087533
#
#
# Mechanical properties :
#
#
# Convention : Reuss Voigt Hill
#
# Bulk Modulus (GPa) = 19.82046 37.48378 28.65212
# Shear Modulus (GPa) = 20.51984 35.80885 28.16434
#
# Velocity S-wave (km/s) = 2.89956 3.83036 3.39699
# Velocity P-wave (km/s) = 4.39668 5.90933 5.20822
#
# Compressibility (1/GPa) = 0.05045293
#
# Stress axis : x y z
#
# Youngs Moduli (GPa) = 38.96413 39.12493 113.07922
#
# Poissons Ratio (x) = -0.12587 0.56092
# Poissons Ratio (y) = -0.12535 0.34645
# Poissons Ratio (z) = 0.19328 0.11987
#
# Static dielectric constant tensor:
#      x y z
#    x 4.169010 -0.416250 -0.259290 
#    y -0.416250 4.458270 0.111390 
#    z -0.259290 0.111390 4.629530 
# 
# 
# High freq. dielectric constant tensor:
#      x y z
#    x 1.946670 -0.027670 -0.012890 
#    y -0.027670 1.971200 0.001770 
#    z -0.012890 0.001770 1.996840 
# 
# From -- ./inp_files/328253.got.cif
#   From: 2010.06.25/outbox.cif.g09.slc.cpg/sg2_165_cif.got.tgz:328253.got - 2010.06.27 13:26:56.
