data_PCOD8027469
_publ_section_title
;
Structure prediction by ZEFSAII (Michael W. Deem and Ramdas Pophale) SiO2 
 PCOD8027469
Probable space group: P -1
;
_chemical_formula_sum "Si O2"
_cell_formula_units_Z 16
_cell_length_a 9.409294
_cell_length_b 17.365277
_cell_length_c 6.365633
_cell_angle_alpha 131.475257
_cell_angle_beta 79.717656
_cell_angle_gamma 87.719923
_cell_volume 748.961974
_symmetry_space_group_name_H-M "P -1"
_symmetry_group_IT_number 2
_symmetry_cell_setting 'triclinic'
loop_
_space_group_symop_operation_xyz
x,y,z
-x,-y,-z
loop_
_atom_site_type_symbol
_atom_site_label
_atom_site_fract_x
_atom_site_fract_y
_atom_site_fract_z
Si Si1 0.432109 0.948499 0.116170
Si Si2 0.288829 0.056129 0.738311
Si Si3 0.729927 0.143901 0.337852
Si Si4 0.158931 0.632574 0.770779
Si Si5 0.620898 0.369329 0.937641
Si Si6 0.001452 0.786440 0.763155
Si Si7 0.936027 0.617936 0.159146
Si Si8 0.706290 0.525016 0.871381
O O1 0.574182 0.894534 0.123094
O O2 0.318355 0.032347 0.440400
O O3 0.337097 0.870352 0.901364
O O4 0.500000 0.000000 0.000000
O O5 0.282958 0.949009 0.668351
O O6 0.135191 0.137747 0.952194
O O7 0.631541 0.251552 0.644911
O O8 0.903594 0.149202 0.288429
O O9 0.184963 0.524279 0.436127
O O10 0.118251 0.731634 0.806539
O O11 0.310513 0.635009 0.856325
O O12 0.023840 0.644684 0.985449
O O13 0.708990 0.431164 0.868641
O O14 0.452452 0.429689 0.102780
O O15 0.936285 0.701945 0.493471
O O16 0.767466 0.619907 0.134516
O O17 0.000000 0.500000 0.000000
#
# Coordination Sequence:
#
# PCOD8027469 Si02
#       8
#     2   2   2   2   2   2   2   2
#     4   9  22  45  67  91 131 165 219 274 324 387
#     4  10  24  45  69  96 129 177 217 269 335 393
#     4  11  22  44  67  96 134 172 219 278 323 387
#     4  12  22  43  64  95 140 169 223 271 327 390
#     4  11  24  43  67  97 133 171 222 272 328 395
#     4  12  26  41  66 103 132 176 222 270 330 394
#     4  12  23  44  64  94 137 173 220 273 324 390
#     4  11  24  43  67  96 131 178 220 269 333 390
#
# _framework density 21.362901000000001
#
# number of rings (size 3 to 8) (size 9 to 14) (size 15 to 20)
#    0.000    1.000    5.000    1.125    3.500    2.500 
#    4.500    0.000    0.000    0.000    0.000    0.000 
#    0.000    0.000    0.000    0.000    0.000    0.000 
#
# Total GULP energy -198381.291835 kJ/mol
# GULP energy per Si atom -12398.830740 kJ/mol
# Density = 2.131428 g / cm^3
# Si number density = 21.362901 Si / 1000 Ang^3
#
#
#
# Elastic Constant Matrix: (Units=GPa)
#
#
# Indices 1 2 3 4 5 6 
#
# 1 105.1545 44.8834 53.5529 5.0148 14.7949 -5.4090
# 2 44.8834 70.1633 55.4767 -2.3702 3.3275 -3.6308
# 3 53.5529 55.4767 135.0184 0.3214 5.1724 -7.7089
# 4 5.0148 -2.3702 0.3214 29.6834 2.4327 1.8020
# 5 14.7949 3.3275 5.1724 2.4327 49.4911 -1.0429
# 6 -5.4090 -3.6308 -7.7089 1.8020 -1.0429 29.4191
#
#
#
# Elastic Compliance Matrix: (Units=1/GPa)
#
#
# Indices 1 2 3 4 5 6 
#
# 1 0.014565 -0.007084 -0.002662 -0.002786 -0.003438 0.001155
# 2 -0.007084 0.024670 -0.007395 0.003181 0.001068 -0.000353
# 3 -0.002662 -0.007395 0.011592 -0.000378 0.000135 0.001663
# 4 -0.002786 0.003181 -0.000378 0.034652 -0.001095 -0.002380
# 5 -0.003438 0.001068 0.000135 -0.001095 0.021209 0.000354
# 6 0.001155 -0.000353 0.001663 -0.002380 0.000354 0.034754
#
#
# Mechanical properties :
#
#
# Convention : Reuss Voigt Hill
#
# Bulk Modulus (GPa) = 60.44445 68.68467 64.56456
# Shear Modulus (GPa) = 27.58790 32.14694 29.86742
#
# Velocity S-wave (km/s) = 3.59749 3.88339 3.74317
# Velocity P-wave (km/s) = 6.75363 7.23386 6.99787
#
# Compressibility (1/GPa) = 0.01654412
#
# Stress axis : x y z
#
# Youngs Moduli (GPa) = 68.65688 40.53539 86.26905
#
# Poissons Ratio (x) = 0.28714 0.22967
# Poissons Ratio (y) = 0.48634 0.63799
# Poissons Ratio (z) = 0.18278 0.29978
#
# Static dielectric constant tensor:
#      x y z
#    x 4.316140 0.134310 0.294340 
#    y 0.134310 3.766060 -0.163970 
#    z 0.294340 -0.163970 4.058960 
# 
# 
# High freq. dielectric constant tensor:
#      x y z
#    x 1.852640 0.004550 0.008190 
#    y 0.004550 1.822310 -0.011490 
#    z 0.008190 -0.011490 1.846280 
# 
# From -- ./inp_files/49262.got.cif
#   From: 2010.06.25/outbox.cif.g09.slc.cpg/sg2_25_cif.got.tgz:49262.got - 2010.06.27 13:26:56.
