data_PCOD8027902
_publ_section_title
;
Structure prediction by ZEFSAII (Michael W. Deem and Ramdas Pophale) SiO2 
 PCOD8027902
Probable space group: P -1
;
_chemical_formula_sum "Si O2"
_cell_formula_units_Z 16
_cell_length_a 6.019606
_cell_length_b 9.000390
_cell_length_c 14.169724
_cell_angle_alpha 109.284425
_cell_angle_beta 98.031297
_cell_angle_gamma 101.310047
_cell_volume 692.993825
_symmetry_space_group_name_H-M "P -1"
_symmetry_group_IT_number 2
_symmetry_cell_setting 'triclinic'
loop_
_space_group_symop_operation_xyz
x,y,z
-x,-y,-z
loop_
_atom_site_type_symbol
_atom_site_label
_atom_site_fract_x
_atom_site_fract_y
_atom_site_fract_z
Si Si1 0.931285 0.528152 0.609338
Si Si2 0.332371 0.478562 0.073165
Si Si3 0.427251 0.036849 0.214778
Si Si4 0.809159 0.846154 0.611217
Si Si5 0.229694 0.135002 0.728215
Si Si6 0.603060 0.393148 0.246507
Si Si7 0.045040 0.738632 0.109643
Si Si8 0.514594 0.676866 0.390649
O O1 0.852523 0.695442 0.641343
O O2 0.749153 0.356474 0.593865
O O3 0.000000 0.500000 0.500000
O O4 0.119481 0.557376 0.711550
O O5 0.498683 0.457382 0.162569
O O6 0.225789 0.630882 0.120334
O O7 0.500000 0.500000 0.000000
O O8 0.112391 0.326042 0.004980
O O9 0.375607 0.080840 0.328196
O O10 0.502262 0.200700 0.194093
O O11 0.633583 0.948262 0.206491
O O12 0.194483 0.920855 0.131099
O O13 0.701991 0.787835 0.492362
O O14 0.041132 0.989510 0.635559
O O15 0.422279 0.239602 0.689882
O O16 0.110348 0.255645 0.804817
O O17 0.529687 0.488349 0.351161
#
# Coordination Sequence:
#
# PCOD8027902 Si02
#       8
#     2   2   2   2   2   2   2   2
#     4  12  24  44  68 101 148 191 243 294 345 419
#     4  11  25  49  75 106 140 180 234 301 355 427
#     4  11  23  44  69 100 146 185 233 293 355 422
#     4  11  23  43  66  99 148 191 236 296 348 410
#     4  11  25  45  70 106 142 189 233 300 353 419
#     4  12  25  42  75 103 139 193 236 288 360 420
#     4  10  24  48  74  98 145 178 230 300 361 418
#     4  12  25  41  69 104 139 196 249 287 348 410
#
# _framework density 23.088232000000001
#
# number of rings (size 3 to 8) (size 9 to 14) (size 15 to 20)
#    0.000    0.750    3.750    3.750    0.000    7.000 
#    0.000    2.500    0.000    0.000    0.000    0.000 
#    0.000    0.000    0.000    0.000    0.000    0.000 
#
# Total GULP energy -198238.021304 kJ/mol
# GULP energy per Si atom -12389.876332 kJ/mol
# Density = 2.303568 g / cm^3
# Si number density = 23.088232 Si / 1000 Ang^3
#
#
#
# Elastic Constant Matrix: (Units=GPa)
#
#
# Indices 1 2 3 4 5 6 
#
# 1 111.0028 57.5124 44.2290 4.0536 -1.0384 9.1058
# 2 57.5124 111.0437 45.7702 22.2701 7.3824 14.8079
# 3 44.2290 45.7702 112.6230 26.7346 21.6268 6.3934
# 4 4.0536 22.2701 26.7346 29.8134 3.2939 2.3226
# 5 -1.0384 7.3824 21.6268 3.2939 47.4159 8.5487
# 6 9.1058 14.8079 6.3934 2.3226 8.5487 45.7804
#
#
#
# Elastic Compliance Matrix: (Units=1/GPa)
#
#
# Indices 1 2 3 4 5 6 
#
# 1 0.014595 -0.007020 -0.005327 0.007724 0.003473 -0.000929
# 2 -0.007020 0.015326 -0.000905 -0.009358 -0.000976 -0.002778
# 3 -0.005327 -0.000905 0.015263 -0.011667 -0.006305 0.000990
# 4 0.007724 -0.009358 -0.011667 0.049560 0.003514 -0.000051
# 5 0.003473 -0.000976 -0.006305 0.003514 0.024723 -0.004289
# 6 -0.000929 -0.002778 0.000990 -0.000051 -0.004289 0.023592
#
#
# Mechanical properties :
#
#
# Convention : Reuss Voigt Hill
#
# Bulk Modulus (GPa) = 53.53055 69.96584 61.74819
# Shear Modulus (GPa) = 28.44317 37.07914 32.76115
#
# Velocity S-wave (km/s) = 3.51370 4.01181 3.77099
# Velocity P-wave (km/s) = 6.30055 7.19923 6.76483
#
# Compressibility (1/GPa) = 0.01868092
#
# Stress axis : x y z
#
# Youngs Moduli (GPa) = 68.51777 65.24711 65.51762
#
# Poissons Ratio (x) = 0.45801 0.34899
# Poissons Ratio (y) = 0.48097 0.05932
# Poissons Ratio (z) = 0.36497 0.05908
#
# Static dielectric constant tensor:
#      x y z
#    x 4.474040 -0.053790 0.061700 
#    y -0.053790 4.123090 0.361610 
#    z 0.061700 0.361610 3.772140 
# 
# 
# High freq. dielectric constant tensor:
#      x y z
#    x 1.927950 0.004910 0.011670 
#    y 0.004910 1.909600 0.032970 
#    z 0.011670 0.032970 1.907510 
# 
# From -- ./inp_files/139357.got.cif
#   From: 2010.06.25/outbox.cif.g09.slc.cpg/sg2_70_cif.got.tgz:139357.got - 2010.06.27 13:26:56.
