data_PCOD8027544
_publ_section_title
;
Structure prediction by ZEFSAII (Michael W. Deem and Ramdas Pophale) SiO2 
 PCOD8027544
Probable space group: P -1
;
_chemical_formula_sum "Si O2"
_cell_formula_units_Z 16
_cell_length_a 9.007270
_cell_length_b 18.362356
_cell_length_c 21.794361
_cell_angle_alpha 159.598205
_cell_angle_beta 35.835770
_cell_angle_gamma 143.630923
_cell_volume 717.282246
_symmetry_space_group_name_H-M "P -1"
_symmetry_group_IT_number 2
_symmetry_cell_setting 'triclinic'
loop_
_space_group_symop_operation_xyz
x,y,z
-x,-y,-z
loop_
_atom_site_type_symbol
_atom_site_label
_atom_site_fract_x
_atom_site_fract_y
_atom_site_fract_z
Si Si1 0.630949 0.212699 0.701285
Si Si2 0.114756 0.158892 0.033065
Si Si3 0.147477 0.550419 0.813464
Si Si4 0.534111 0.541287 0.251944
Si Si5 0.726368 0.084155 0.329053
Si Si6 0.220383 0.178092 0.717570
Si Si7 0.362677 0.659879 0.706462
Si Si8 0.853644 0.010938 0.807293
O O1 0.415157 0.297244 0.800152
O O2 0.866672 0.398299 0.788541
O O3 0.512371 0.103003 0.717138
O O4 0.729245 0.050715 0.496220
O O5 0.362792 0.334059 0.112226
O O6 0.913945 0.303851 0.195015
O O7 0.183013 0.997203 0.830318
O O8 0.000000 0.000000 0.000000
O O9 0.293254 0.538704 0.818515
O O10 0.327361 0.526779 0.677018
O O11 0.105027 0.787571 0.002303
O O12 0.368293 0.691040 0.461390
O O13 0.742024 0.671242 0.235613
O O14 0.952203 0.129098 0.341183
O O15 0.930526 0.108601 0.789755
O O16 0.500000 0.500000 0.500000
O O17 0.556158 0.891173 0.819651
#
# Coordination Sequence:
#
# PCOD8027544 Si02
#       8
#     2   2   2   2   2   2   2   2
#     4   9  20  42  68  99 127 181 221 271 338 396
#     4  12  27  46  70 100 133 182 229 275 334 407
#     4  12  25  41  68 101 139 171 220 282 339 394
#     4  11  26  45  67 105 137 175 220 284 340 395
#     4  10  24  45  71  94 138 178 223 279 332 408
#     4   9  20  41  70  96 133 171 228 270 331 410
#     4  12  26  46  70  96 134 181 228 275 331 406
#     4  11  23  42  69  99 129 178 224 282 328 398
#
# _framework density 22.306421
#
# number of rings (size 3 to 8) (size 9 to 14) (size 15 to 20)
#    0.000    1.250    1.250    4.125    5.250    4.000 
#    4.500    0.000    0.000    0.000    0.000    0.000 
#    0.000    0.000    0.000    0.000    0.000    0.000 
#
# Total GULP energy -198226.744042 kJ/mol
# GULP energy per Si atom -12389.171503 kJ/mol
# Density = 2.225565 g / cm^3
# Si number density = 22.306421 Si / 1000 Ang^3
#
#
#
# Elastic Constant Matrix: (Units=GPa)
#
#
# Indices 1 2 3 4 5 6 
#
# 1 90.9716 14.2308 -1.4402 11.7903 2.0461 -0.8944
# 2 14.2308 50.2212 -20.0466 14.6610 2.1553 -7.8237
# 3 -1.4402 -20.0466 59.9418 -0.1733 4.3702 -5.7822
# 4 11.7903 14.6610 -0.1733 35.7629 -0.2944 11.7997
# 5 2.0461 2.1553 4.3702 -0.2944 24.4651 0.3328
# 6 -0.8944 -7.8237 -5.7822 11.7997 0.3328 43.1633
#
#
#
# Elastic Compliance Matrix: (Units=1/GPa)
#
#
# Indices 1 2 3 4 5 6 
#
# 1 0.011796 -0.002515 -0.000459 -0.003054 -0.000728 0.000568
# 2 -0.002515 0.032391 0.012259 -0.016386 -0.005193 0.011981
# 3 -0.000459 0.012259 0.021812 -0.007164 -0.005121 0.007133
# 4 -0.003054 -0.016386 -0.007164 0.040677 0.003674 -0.015141
# 5 -0.000728 -0.005193 -0.005121 0.003674 0.042392 -0.002974
# 6 0.000568 0.011981 0.007133 -0.015141 -0.002974 0.030469
#
#
# Mechanical properties :
#
#
# Convention : Reuss Voigt Hill
#
# Bulk Modulus (GPa) = 11.82433 20.73582 16.28007
# Shear Modulus (GPa) = 26.43316 34.57097 30.50206
#
# Velocity S-wave (km/s) = 3.44612 3.94105 3.70186
# Velocity P-wave (km/s) = 4.59855 5.47953 5.05826
#
# Compressibility (1/GPa) = 0.08457139
#
# Stress axis : x y z
#
# Youngs Moduli (GPa) = 84.77276 30.87310 45.84543
#
# Poissons Ratio (x) = 0.07763 0.02102
# Poissons Ratio (y) = 0.21316 -0.56202
# Poissons Ratio (z) = 0.03887 -0.37848
#
# Static dielectric constant tensor:
#      x y z
#    x 3.807580 -0.220690 0.046370 
#    y -0.220690 3.654640 -0.186020 
#    z 0.046370 -0.186020 4.125130 
# 
# 
# High freq. dielectric constant tensor:
#      x y z
#    x 1.863310 -0.004920 0.006540 
#    y -0.004920 1.896800 -0.008320 
#    z 0.006540 -0.008320 1.888720 
# 
# From -- ./inp_files/428192.got.cif
#   From: 2010.06.25/outbox.cif.g09.slc.cpg/sg2_215_cif.got.tgz:428192.got - 2010.06.27 13:26:56.
