data_PCOD8027572
_publ_section_title
;
Structure prediction by ZEFSAII (Michael W. Deem and Ramdas Pophale) SiO2 
 PCOD8027572
Probable space group: P -1
;
_chemical_formula_sum "Si O2"
_cell_formula_units_Z 16
_cell_length_a 14.391672
_cell_length_b 9.419182
_cell_length_c 5.652312
_cell_angle_alpha 63.247909
_cell_angle_beta 88.901633
_cell_angle_gamma 79.290836
_cell_volume 670.466854
_symmetry_space_group_name_H-M "P -1"
_symmetry_group_IT_number 2
_symmetry_cell_setting 'triclinic'
loop_
_space_group_symop_operation_xyz
x,y,z
-x,-y,-z
loop_
_atom_site_type_symbol
_atom_site_label
_atom_site_fract_x
_atom_site_fract_y
_atom_site_fract_z
Si Si1 0.227312 0.150023 0.687764
Si Si2 0.056074 0.406750 0.355161
Si Si3 0.895534 0.320536 0.185612
Si Si4 0.891770 0.080136 0.985197
Si Si5 0.376536 0.346478 0.603862
Si Si6 0.542648 0.779865 0.819691
Si Si7 0.357330 0.936614 0.498185
Si Si8 0.257186 0.682451 0.470264
O O1 0.158617 0.309146 0.483740
O O2 0.313204 0.212764 0.760437
O O3 0.263046 0.029582 0.560760
O O4 0.171681 0.056337 0.943261
O O5 0.000000 0.500000 0.500000
O O6 0.988526 0.282296 0.377130
O O7 0.079058 0.534770 0.073704
O O8 0.789561 0.385274 0.247486
O O9 0.890195 0.150434 0.195225
O O10 0.841324 0.232026 0.715823
O O11 0.000000 0.000000 0.000000
O O12 0.427252 0.308375 0.372339
O O13 0.317610 0.529845 0.442723
O O14 0.439772 0.331416 0.856913
O O15 0.429481 0.840550 0.762896
O O16 0.591752 0.935409 0.737198
O O17 0.326732 0.807723 0.416757
#
# Coordination Sequence:
#
# PCOD8027572 Si02
#       8
#     2   2   2   2   2   2   2   2
#     4  11  23  43  71 101 135 192 237 296 354 435
#     4  11  24  44  67  98 137 186 238 287 358 414
#     4  11  24  42  66  95 142 180 232 296 345 429
#     4  12  26  41  66 101 143 184 238 295 362 419
#     4  11  26  45  78 103 145 188 246 296 368 439
#     4  10  25  49  74 108 142 194 236 304 372 438
#     4  10  24  45  73 103 145 184 241 301 366 438
#     4  12  26  43  69 105 140 189 237 301 356 436
#
# _framework density 23.863968
#
# number of rings (size 3 to 8) (size 9 to 14) (size 15 to 20)
#    0.000    1.000    1.250    4.500    7.000    8.500 
#    0.000    0.000    0.000    0.000    0.000    0.000 
#    0.000    0.000    0.000    0.000    0.000    0.000 
#
# Total GULP energy -198214.968238 kJ/mol
# GULP energy per Si atom -12388.435515 kJ/mol
# Density = 2.380965 g / cm^3
# Si number density = 23.863968 Si / 1000 Ang^3
#
#
#
# Elastic Constant Matrix: (Units=GPa)
#
#
# Indices 1 2 3 4 5 6 
#
# 1 71.0889 27.4733 14.9355 3.5552 6.1599 -6.2653
# 2 27.4733 125.7982 28.8242 4.8432 4.1853 -8.7680
# 3 14.9355 28.8242 83.1415 8.4184 20.1836 -8.6484
# 4 3.5552 4.8432 8.4184 33.0126 -4.6084 4.8441
# 5 6.1599 4.1853 20.1836 -4.6084 31.8599 -5.9053
# 6 -6.2653 -8.7680 -8.6484 4.8441 -5.9053 35.7606
#
#
#
# Elastic Compliance Matrix: (Units=1/GPa)
#
#
# Indices 1 2 3 4 5 6 
#
# 1 0.015825 -0.002984 -0.001008 -0.001527 -0.001938 0.001684
# 2 -0.002984 0.009315 -0.002851 -0.000325 0.001361 0.001340
# 3 -0.001008 -0.002851 0.016455 -0.005413 -0.010240 0.002146
# 4 -0.001527 -0.000325 -0.005413 0.033688 0.007724 -0.004944
# 5 -0.001938 0.001361 -0.010240 0.007724 0.039750 0.003036
# 6 0.001684 0.001340 0.002146 -0.004944 0.003036 0.030277
#
#
# Mechanical properties :
#
#
# Convention : Reuss Voigt Hill
#
# Bulk Modulus (GPa) = 35.83370 46.94385 41.38877
# Shear Modulus (GPa) = 29.70898 34.04633 31.87766
#
# Velocity S-wave (km/s) = 3.53218 3.78124 3.65883
# Velocity P-wave (km/s) = 5.62881 6.22719 5.93555
#
# Compressibility (1/GPa) = 0.02790669
#
# Stress axis : x y z
#
# Youngs Moduli (GPa) = 63.19241 107.35390 60.77345
#
# Poissons Ratio (x) = 0.32039 0.06125
# Poissons Ratio (y) = 0.18859 0.17329
# Poissons Ratio (z) = 0.06369 0.30611
#
# Static dielectric constant tensor:
#      x y z
#    x 4.568300 0.030140 0.257000 
#    y 0.030140 4.415960 0.136420 
#    z 0.257000 0.136420 4.285570 
# 
# 
# High freq. dielectric constant tensor:
#      x y z
#    x 1.963040 0.003700 0.006880 
#    y 0.003700 1.952810 -0.003440 
#    z 0.006880 -0.003440 1.932480 
# 
# From -- ./inp_files/89921.got.cif
#   From: 2010.06.25/outbox.cif.g09.slc.cpg/sg2_45_cif.got.tgz:89921.got - 2010.06.27 13:26:56.
