data_PCOD8027619
_publ_section_title
;
Structure prediction by ZEFSAII (Michael W. Deem and Ramdas Pophale) SiO2 
 PCOD8027619
Probable space group: P -1
;
_chemical_formula_sum "Si O2"
_cell_formula_units_Z 14
_cell_length_a 18.317125
_cell_length_b 5.220400
_cell_length_c 10.317675
_cell_angle_alpha 131.663442
_cell_angle_beta 50.150006
_cell_angle_gamma 123.099749
_cell_volume 553.302167
_symmetry_space_group_name_H-M "P -1"
_symmetry_group_IT_number 2
_symmetry_cell_setting 'triclinic'
loop_
_space_group_symop_operation_xyz
x,y,z
-x,-y,-z
loop_
_atom_site_type_symbol
_atom_site_label
_atom_site_fract_x
_atom_site_fract_y
_atom_site_fract_z
Si Si1 0.450004 0.267125 0.723929
Si Si2 0.646948 0.715148 0.710711
Si Si3 0.246357 0.817790 0.466259
Si Si4 0.332880 0.773134 0.906201
Si Si5 0.082307 0.316445 0.392402
Si Si6 0.024910 0.398576 0.768011
Si Si7 0.137499 0.343519 0.872704
O O1 0.530737 0.587363 0.797276
O O2 0.383074 0.442420 0.763172
O O3 0.500000 0.000000 0.500000
O O4 0.390838 0.060494 0.839361
O O5 0.691349 0.377069 0.577601
O O6 0.683961 0.854613 0.572837
O O7 0.678016 0.029108 0.881396
O O8 0.190538 0.554589 0.328395
O O9 0.165761 0.962411 0.694552
O O10 0.227415 0.626646 0.919045
O O11 0.000000 0.500000 0.500000
O O12 0.078725 0.297273 0.546910
O O13 0.063936 0.942840 0.217799
O O14 0.104746 0.472459 0.814572
O O15 0.957785 0.693246 0.936381
#
# Coordination Sequence:
#
# PCOD8027619 Si02
#       7
#     2   2   2   2   2   2   2
#     4  12  25  48  74 105 141 180 228 293 355 412
#     4  12  26  47  73 102 140 184 236 285 350 419
#     4  12  25  44  70 103 138 185 232 290 344 417
#     4  12  26  45  73 105 140 184 233 286 347 423
#     4  11  23  43  69  98 135 187 234 285 348 409
#     4  10  24  46  66  97 144 184 236 291 347 417
#     4  11  24  44  67 102 139 187 232 291 352 411
#
# _framework density 25.302631999999999
#
# number of rings (size 3 to 8) (size 9 to 14) (size 15 to 20)
#    0.000    0.571    1.429    6.429    4.000    1.714 
#    2.571    0.000    0.000    0.000    0.000    0.000 
#    0.000    0.000    0.000    0.000    0.000    0.000 
#
# Total GULP energy -173576.965953 kJ/mol
# GULP energy per Si atom -12398.354711 kJ/mol
# Density = 2.524504 g / cm^3
# Si number density = 25.302632 Si / 1000 Ang^3
#
#
#
# Elastic Constant Matrix: (Units=GPa)
#
#
# Indices 1 2 3 4 5 6 
#
# 1 147.9476 42.7168 40.2798 9.2723 -12.2141 8.0467
# 2 42.7168 89.7376 9.8542 23.2184 -11.9726 -12.3165
# 3 40.2798 9.8542 108.5520 13.0677 -7.8257 -4.0289
# 4 9.2723 23.2184 13.0677 29.6791 2.5882 5.5551
# 5 -12.2141 -11.9726 -7.8257 2.5882 47.4086 13.2562
# 6 8.0467 -12.3165 -4.0289 5.5551 13.2562 43.8502
#
#
#
# Elastic Compliance Matrix: (Units=1/GPa)
#
#
# Indices 1 2 3 4 5 6 
#
# 1 0.009426 -0.005432 -0.003487 0.003546 0.001543 -0.004492
# 2 -0.005432 0.018998 0.002696 -0.016042 0.002524 0.007850
# 3 -0.003487 0.002696 0.011252 -0.006622 0.001187 0.002911
# 4 0.003546 -0.016042 -0.006622 0.050446 -0.003917 -0.010972
# 5 0.001543 0.002524 0.001187 -0.003917 0.024304 -0.006316
# 6 -0.004492 0.007850 0.002911 -0.010972 -0.006316 0.029401
#
#
# Mechanical properties :
#
#
# Convention : Reuss Voigt Hill
#
# Bulk Modulus (GPa) = 36.72537 59.10433 47.91485
# Shear Modulus (GPa) = 30.23843 41.08002 35.65923
#
# Velocity S-wave (km/s) = 3.46073 4.03370 3.75815
# Velocity P-wave (km/s) = 5.52402 6.71595 6.14893
#
# Compressibility (1/GPa) = 0.02722913
#
# Stress axis : x y z
#
# Youngs Moduli (GPa) = 106.08394 52.63646 88.87152
#
# Poissons Ratio (x) = 0.28594 0.30990
# Poissons Ratio (y) = 0.57629 -0.23956
# Poissons Ratio (z) = 0.36992 -0.14189
#
# Static dielectric constant tensor:
#      x y z
#    x 4.608250 0.659790 -0.174890 
#    y 0.659790 3.797520 1.193030 
#    z -0.174890 1.193030 4.366330 
# 
# 
# High freq. dielectric constant tensor:
#      x y z
#    x 2.022430 0.014880 -0.003450 
#    y 0.014880 2.018570 0.016050 
#    z -0.003450 0.016050 2.015550 
# 
# From -- ./inp_files/459673.got.cif
#   From: 2010.06.25/outbox.cif.g09.slc.cpg/sg2_230_cif.got.tgz:459673.got - 2010.06.27 13:26:56.
