data_PCOD8027298
_publ_section_title
;
Structure prediction by ZEFSAII (Michael W. Deem and Ramdas Pophale) SiO2 
 PCOD8027298
Probable space group: P -1
;
_chemical_formula_sum "Si O2"
_cell_formula_units_Z 14
_cell_length_a 10.620616
_cell_length_b 8.633547
_cell_length_c 14.145479
_cell_angle_alpha 29.703362
_cell_angle_beta 98.845726
_cell_angle_gamma 101.917009
_cell_volume 627.972602
_symmetry_space_group_name_H-M "P -1"
_symmetry_group_IT_number 2
_symmetry_cell_setting 'triclinic'
loop_
_space_group_symop_operation_xyz
x,y,z
-x,-y,-z
loop_
_atom_site_type_symbol
_atom_site_label
_atom_site_fract_x
_atom_site_fract_y
_atom_site_fract_z
Si Si1 0.406876 0.263971 0.853213
Si Si2 0.161335 0.345249 0.389398
Si Si3 0.477324 0.681019 0.808467
Si Si4 0.162320 0.836265 0.983741
Si Si5 0.567718 0.651665 0.519644
Si Si6 0.240339 0.214918 0.274607
Si Si7 0.003999 0.852111 0.347930
O O1 0.393514 0.418358 0.872395
O O2 0.470483 0.555408 0.644133
O O3 0.265622 0.135513 0.865713
O O4 0.500000 0.000000 0.000000
O O5 0.296802 0.481581 0.383290
O O6 0.193096 0.112760 0.430637
O O7 0.067933 0.149677 0.558169
O O8 0.106082 0.647509 0.173770
O O9 0.612654 0.832228 0.696100
O O10 0.402034 0.967216 0.678270
O O11 0.500000 0.500000 0.000000
O O12 0.053631 0.949273 0.845746
O O13 0.231071 0.588476 0.061528
O O14 0.500000 0.500000 0.500000
O O15 0.151080 0.009012 0.296919
O O16 0.000000 0.500000 0.500000
#
# Coordination Sequence:
#
# PCOD8027298 Si02
#       7
#     2   2   2   2   2   2   2
#     4  12  20  44  66 100 140 178 225 288 353 416
#     4  10  24  45  71  96 138 187 230 281 362 402
#     4  12  27  41  71 109 139 181 234 290 356 431
#     4  10  24  44  72  94 142 182 230 287 349 411
#     4  12  25  40  72 101 143 182 232 287 361 422
#     4  10  24  48  66  98 142 183 233 283 349 418
#     4  12  27  44  72 103 134 185 245 291 341 413
#
# _framework density 22.293968
#
# number of rings (size 3 to 8) (size 9 to 14) (size 15 to 20)
#    0.857    0.000    4.286    3.000    6.000    0.571 
#    0.000    0.000    0.000    0.000    0.000    0.000 
#    0.000    0.000    0.000    0.000    0.000    0.000 
#
# Total GULP energy -173524.593822 kJ/mol
# GULP energy per Si atom -12394.613844 kJ/mol
# Density = 2.224323 g / cm^3
# Si number density = 22.293968 Si / 1000 Ang^3
#
#
#
# Elastic Constant Matrix: (Units=GPa)
#
#
# Indices 1 2 3 4 5 6 
#
# 1 53.2074 29.3233 4.0194 5.3154 -1.3848 16.1889
# 2 29.3233 137.6859 35.4486 -7.4405 4.9305 19.2850
# 3 4.0194 35.4486 110.4077 11.1668 8.4297 -1.7151
# 4 5.3154 -7.4405 11.1668 45.1656 0.7623 -1.0073
# 5 -1.3848 4.9305 8.4297 0.7623 31.0338 -0.2845
# 6 16.1889 19.2850 -1.7151 -1.0073 -0.2845 44.5268
#
#
#
# Elastic Compliance Matrix: (Units=1/GPa)
#
#
# Indices 1 2 3 4 5 6 
#
# 1 0.023732 -0.004587 0.000778 -0.003917 0.001611 -0.006690
# 2 -0.004587 0.009604 -0.003173 0.002866 -0.000963 -0.002555
# 3 0.000778 -0.003173 0.010560 -0.003156 -0.002239 0.001412
# 4 -0.003917 0.002866 -0.003156 0.023873 -0.000354 0.000599
# 5 0.001611 -0.000963 -0.002239 -0.000354 0.033064 -0.000052
# 6 -0.006690 -0.002555 0.001412 0.000599 -0.000052 0.026065
#
#
# Mechanical properties :
#
#
# Convention : Reuss Voigt Hill
#
# Bulk Modulus (GPa) = 33.40803 48.76483 41.08643
# Shear Modulus (GPa) = 33.14787 39.64590 36.39689
#
# Velocity S-wave (km/s) = 3.86016 4.22159 4.04491
# Velocity P-wave (km/s) = 5.90640 6.75896 6.34701
#
# Compressibility (1/GPa) = 0.02993292
#
# Stress axis : x y z
#
# Youngs Moduli (GPa) = 42.13654 104.12498 94.69968
#
# Poissons Ratio (x) = 0.47762 -0.07368
# Poissons Ratio (y) = 0.19328 0.30044
# Poissons Ratio (z) = -0.03278 0.33034
#
# Static dielectric constant tensor:
#      x y z
#    x 4.788380 -0.231950 -0.074510 
#    y -0.231950 4.090960 0.082850 
#    z -0.074510 0.082850 4.080660 
# 
# 
# High freq. dielectric constant tensor:
#      x y z
#    x 1.851120 0.013160 0.000570 
#    y 0.013160 1.892790 0.007920 
#    z 0.000570 0.007920 1.879440 
# 
# From -- ./inp_files/282443.got.cif
#   From: 2010.06.25/outbox.cif.g09.slc.cpg/sg2_142_cif.got.tgz:282443.got - 2010.06.27 13:26:56.
