data_PCOD8027780
_publ_section_title
;
Structure prediction by ZEFSAII (Michael W. Deem and Ramdas Pophale) SiO2 
 PCOD8027780
Probable space group: P -1
;
_chemical_formula_sum "Si O2"
_cell_formula_units_Z 16
_cell_length_a 6.392966
_cell_length_b 11.549462
_cell_length_c 11.529607
_cell_angle_alpha 61.090862
_cell_angle_beta 102.023612
_cell_angle_gamma 100.316853
_cell_volume 725.800755
_symmetry_space_group_name_H-M "P -1"
_symmetry_group_IT_number 2
_symmetry_cell_setting 'triclinic'
loop_
_space_group_symop_operation_xyz
x,y,z
-x,-y,-z
loop_
_atom_site_type_symbol
_atom_site_label
_atom_site_fract_x
_atom_site_fract_y
_atom_site_fract_z
Si Si1 0.533321 0.807376 0.021007
Si Si2 0.690771 0.404418 0.567218
Si Si3 0.525933 0.511212 0.134116
Si Si4 0.772575 0.918282 0.780025
Si Si5 0.778478 0.979364 0.143062
Si Si6 0.233031 0.272784 0.330376
Si Si7 0.523344 0.863774 0.377744
Si Si8 0.067691 0.555685 0.663644
O O1 0.460459 0.652240 0.105473
O O2 0.720229 0.856159 0.109854
O O3 0.618198 0.826954 0.890460
O O4 0.330969 0.891783 0.977258
O O5 0.500000 0.500000 0.500000
O O6 0.593142 0.255299 0.656317
O O7 0.797566 0.401763 0.454789
O O8 0.869541 0.447794 0.662702
O O9 0.372833 0.400340 0.234802
O O10 0.776964 0.502222 0.196160
O O11 0.500000 0.500000 0.000000
O O12 0.855610 0.825562 0.734178
O O13 0.646182 0.034299 0.653328
O O14 0.967831 0.986175 0.845103
O O15 0.708197 0.938989 0.284806
O O16 0.382235 0.194450 0.467956
O O17 0.027284 0.314844 0.355761
#
# Coordination Sequence:
#
# PCOD8027780 Si02
#       8
#     2   2   2   2   2   2   2   2
#     4  10  24  47  65  99 132 182 235 288 336 403
#     4  11  23  46  68 104 145 173 233 288 351 417
#     4  12  26  45  71  97 145 184 233 290 347 411
#     4  11  25  45  70  96 138 188 232 279 341 418
#     4  10  25  43  71  96 134 182 233 285 341 406
#     4  12  26  46  67 107 141 177 233 289 351 418
#     4  11  25  42  70 102 139 178 223 294 350 411
#     4  11  26  40  73 102 137 190 220 291 353 417
#
# _framework density 22.044616999999999
#
# number of rings (size 3 to 8) (size 9 to 14) (size 15 to 20)
#    0.000    1.000    3.750    0.750    8.750    2.000 
#    0.000    0.000    0.000    0.000    0.000    0.000 
#    0.000    0.000    0.000    0.000    0.000    0.000 
#
# Total GULP energy -198485.663870 kJ/mol
# GULP energy per Si atom -12405.353992 kJ/mol
# Density = 2.199444 g / cm^3
# Si number density = 22.044617 Si / 1000 Ang^3
#
#
#
# Elastic Constant Matrix: (Units=GPa)
#
#
# Indices 1 2 3 4 5 6 
#
# 1 88.4872 26.7650 34.1034 -5.3238 10.5212 -10.4923
# 2 26.7650 133.0389 40.7405 -4.6263 6.8841 -12.8603
# 3 34.1034 40.7405 107.6413 -4.0251 18.5692 -0.0574
# 4 -5.3238 -4.6263 -4.0251 40.1988 4.2717 -4.3350
# 5 10.5212 6.8841 18.5692 4.2717 25.4102 5.6930
# 6 -10.4923 -12.8603 -0.0574 -4.3350 5.6930 38.2587
#
#
#
# Elastic Compliance Matrix: (Units=1/GPa)
#
#
# Indices 1 2 3 4 5 6 
#
# 1 0.014071 -0.001116 -0.003147 0.002389 -0.004620 0.004437
# 2 -0.001116 0.008977 -0.002889 0.000983 -0.000678 0.002920
# 3 -0.003147 -0.002889 0.012677 0.001226 -0.007251 -0.000597
# 4 0.002389 0.000983 0.001226 0.026820 -0.007823 0.005191
# 5 -0.004620 -0.000678 -0.007251 -0.007823 0.050277 -0.009874
# 6 0.004437 0.002920 -0.000597 0.005191 -0.009874 0.030393
#
#
# Mechanical properties :
#
#
# Convention : Reuss Voigt Hill
#
# Bulk Modulus (GPa) = 46.68256 59.15393 52.91825
# Shear Modulus (GPa) = 30.36602 35.94412 33.15507
#
# Velocity S-wave (km/s) = 3.71547 4.04235 3.88235
# Velocity P-wave (km/s) = 6.29513 6.97706 6.64485
#
# Compressibility (1/GPa) = 0.02142127
#
# Stress axis : x y z
#
# Youngs Moduli (GPa) = 71.07006 111.39238 78.88407
#
# Poissons Ratio (x) = 0.12432 0.24824
# Poissons Ratio (y) = 0.07932 0.22788
# Poissons Ratio (z) = 0.22365 0.32180
#
# Static dielectric constant tensor:
#      x y z
#    x 3.957040 0.004690 0.048930 
#    y 0.004690 4.149720 0.010040 
#    z 0.048930 0.010040 3.949890 
# 
# 
# High freq. dielectric constant tensor:
#      x y z
#    x 1.864540 -0.002230 0.001670 
#    y -0.002230 1.879690 0.002920 
#    z 0.001670 0.002920 1.869940 
# 
# From -- ./inp_files/69869.got.cif
#   From: 2010.06.25/outbox.cif.g09.slc.cpg/sg2_35_cif.got.tgz:69869.got - 2010.06.27 13:26:56.
