data_PCOD8027105
_publ_section_title
;
Structure prediction by ZEFSAII (Michael W. Deem and Ramdas Pophale) SiO2 
 PCOD8027105
Probable space group: P -1
;
_chemical_formula_sum "Si O2"
_cell_formula_units_Z 16
_cell_length_a 19.697362
_cell_length_b 11.687421
_cell_length_c 17.714854
_cell_angle_alpha 149.973852
_cell_angle_beta 21.198740
_cell_angle_gamma 139.163435
_cell_volume 708.444037
_symmetry_space_group_name_H-M "P -1"
_symmetry_group_IT_number 2
_symmetry_cell_setting 'triclinic'
loop_
_space_group_symop_operation_xyz
x,y,z
-x,-y,-z
loop_
_atom_site_type_symbol
_atom_site_label
_atom_site_fract_x
_atom_site_fract_y
_atom_site_fract_z
Si Si1 0.392476 0.643185 0.621934
Si Si2 0.046813 0.459862 0.517129
Si Si3 0.655670 0.101200 0.794627
Si Si4 0.457014 0.532437 0.149437
Si Si5 0.481107 0.053825 0.445995
Si Si6 0.384609 0.793524 0.933479
Si Si7 0.932838 0.083333 0.787609
Si Si8 0.830886 0.880403 0.082713
O O1 0.500000 0.500000 0.500000
O O2 0.491724 0.849816 0.611040
O O3 0.436257 0.452652 0.398774
O O4 0.164056 0.770847 0.952684
O O5 0.242319 0.511914 0.373282
O O6 0.000000 0.500000 0.500000
O O7 0.056678 0.192417 0.375216
O O8 0.887598 0.649208 0.838797
O O9 0.468534 0.001030 0.931813
O O10 0.615728 0.334311 0.918063
O O11 0.695295 0.165493 0.875843
O O12 0.846213 0.905443 0.450583
O O13 0.476992 0.784154 0.296321
O O14 0.500000 0.500000 0.000000
O O15 0.271938 0.197653 0.781153
O O16 0.663257 0.077289 0.322543
O O17 0.199661 0.790207 0.072608
O O18 0.000000 0.000000 0.000000
#
# Coordination Sequence:
#
# PCOD8027105 Si02
#       8
#     2   2   2   2   2   2   2   2
#     4  10  24  45  69  95 136 183 227 285 338 409
#     4  12  24  43  68 105 141 178 232 292 346 424
#     4  11  24  43  70 102 129 182 226 285 344 413
#     4  12  24  42  72 100 138 180 228 288 351 411
#     4  11  25  44  71 101 141 182 227 285 354 411
#     4  10  24  44  67  97 139 175 230 277 346 414
#     4  11  22  44  68  97 134 175 233 282 344 403
#     4  11  24  44  68 105 139 182 226 286 352 419
#
# _framework density 22.584705
#
# number of rings (size 3 to 8) (size 9 to 14) (size 15 to 20)
#    0.000    1.000    2.500    4.125    7.000    0.500 
#    0.000    0.000    0.000    0.000    0.000    0.000 
#    0.000    0.000    0.000    0.000    0.000    0.000 
#
# Total GULP energy -198309.801528 kJ/mol
# GULP energy per Si atom -12394.362595 kJ/mol
# Density = 2.253330 g / cm^3
# Si number density = 22.584705 Si / 1000 Ang^3
#
#
#
# Elastic Constant Matrix: (Units=GPa)
#
#
# Indices 1 2 3 4 5 6 
#
# 1 74.7985 28.8727 41.3071 -12.3872 -3.7285 -10.3243
# 2 28.8727 64.1337 28.8973 -3.0785 -6.3058 -16.7000
# 3 41.3071 28.8973 168.0119 -11.0311 20.3709 -13.8428
# 4 -12.3872 -3.0785 -11.0311 41.7280 0.6651 3.9798
# 5 -3.7285 -6.3058 20.3709 0.6651 37.8230 -6.1804
# 6 -10.3243 -16.7000 -13.8428 3.9798 -6.1804 38.2200
#
#
#
# Elastic Compliance Matrix: (Units=1/GPa)
#
#
# Indices 1 2 3 4 5 6 
#
# 1 0.018601 -0.006009 -0.003527 0.003989 0.002852 0.001167
# 2 -0.006009 0.022027 -0.002443 -0.001681 0.005769 0.008224
# 3 -0.003527 -0.002443 0.007907 0.000950 -0.005042 -0.000071
# 4 0.003989 -0.001681 0.000950 0.025501 -0.001201 -0.002162
# 5 0.002852 0.005769 -0.005042 -0.001201 0.031511 0.006686
# 6 0.001167 0.008224 -0.000071 -0.002162 0.006686 0.031354
#
#
# Mechanical properties :
#
#
# Convention : Reuss Voigt Hill
#
# Bulk Modulus (GPa) = 40.69090 56.12205 48.40648
# Shear Modulus (GPa) = 29.57677 37.41200 33.49439
#
# Velocity S-wave (km/s) = 3.62276 4.07445 3.85522
# Velocity P-wave (km/s) = 5.96282 6.85845 6.42626
#
# Compressibility (1/GPa) = 0.02457552
#
# Stress axis : x y z
#
# Youngs Moduli (GPa) = 53.76197 45.39976 126.46465
#
# Poissons Ratio (x) = 0.27279 0.44609
# Poissons Ratio (y) = 0.32303 0.30901
# Poissons Ratio (z) = 0.18964 0.11093
#
# Static dielectric constant tensor:
#      x y z
#    x 3.904480 -0.106450 0.200300 
#    y -0.106450 4.015140 -0.086890 
#    z 0.200300 -0.086890 4.749200 
# 
# 
# High freq. dielectric constant tensor:
#      x y z
#    x 1.880290 -0.009370 0.011000 
#    y -0.009370 1.886350 -0.005810 
#    z 0.011000 -0.005810 1.914690 
# 
# From -- ./inp_files/578017.got.cif
#   From: 2010.06.25/outbox.cif.g09.slc.cpg/sg2_290_cif.got.tgz:578017.got - 2010.06.27 13:26:56.
