data_PCOD8027711
_publ_section_title
;
Structure prediction by ZEFSAII (Michael W. Deem and Ramdas Pophale) SiO2 
 PCOD8027711
Probable space group: P -1
;
_chemical_formula_sum "Si O2"
_cell_formula_units_Z 14
_cell_length_a 10.587761
_cell_length_b 11.148603
_cell_length_c 9.834868
_cell_angle_alpha 113.163922
_cell_angle_beta 55.866369
_cell_angle_gamma 137.793734
_cell_volume 645.022053
_symmetry_space_group_name_H-M "P -1"
_symmetry_group_IT_number 2
_symmetry_cell_setting 'triclinic'
loop_
_space_group_symop_operation_xyz
x,y,z
-x,-y,-z
loop_
_atom_site_type_symbol
_atom_site_label
_atom_site_fract_x
_atom_site_fract_y
_atom_site_fract_z
Si Si1 0.069556 0.163275 0.826210
Si Si2 0.518446 0.849471 0.788972
Si Si3 0.912098 0.562527 0.489712
Si Si4 0.374844 0.052080 0.925780
Si Si5 0.163806 0.968874 0.544086
Si Si6 0.453476 0.242260 0.701628
Si Si7 0.879876 0.526015 0.186045
O O1 0.279805 0.256896 0.828616
O O2 0.086110 0.305169 0.796366
O O3 0.032638 0.024108 0.677927
O O4 0.869803 0.057517 0.998765
O O5 0.408234 0.917767 0.837183
O O6 0.367596 0.644881 0.742254
O O7 0.744481 0.970400 0.636648
O O8 0.544046 0.851867 0.935466
O O9 0.663489 0.429509 0.600735
O O10 0.969605 0.561145 0.299099
O O11 0.000000 0.500000 0.500000
O O12 0.016811 0.758764 0.559931
O O13 0.502059 0.200910 0.797501
O O14 0.361270 0.079796 0.579823
O O15 0.000000 0.500000 0.000000
#
# Coordination Sequence:
#
# PCOD8027711 Si02
#       7
#     2   2   2   2   2   2   2
#     4  10  24  46  72 100 140 185 231 288 357 403
#     4  11  24  42  70 104 138 189 230 290 344 413
#     4  12  27  45  73 108 138 185 238 282 351 418
#     4  11  23  43  70 100 144 185 232 280 357 413
#     4  10  25  46  72 100 139 182 229 289 345 411
#     4  10  25  46  69 104 140 184 229 292 347 408
#     4  12  25  44  71 102 142 180 239 288 342 426
#
# _framework density 21.704684
#
# number of rings (size 3 to 8) (size 9 to 14) (size 15 to 20)
#    0.857    0.286    2.857    2.143    6.000    6.857 
#    0.000    1.429    0.000    0.000    0.000    0.000 
#    0.000    0.000    0.000    0.000    0.000    0.000 
#
# Total GULP energy -173595.674630 kJ/mol
# GULP energy per Si atom -12399.691045 kJ/mol
# Density = 2.165528 g / cm^3
# Si number density = 21.704684 Si / 1000 Ang^3
#
#
#
# Elastic Constant Matrix: (Units=GPa)
#
#
# Indices 1 2 3 4 5 6 
#
# 1 91.6720 35.5150 33.6678 0.4150 10.3587 -14.1809
# 2 35.5150 162.8693 44.3311 -1.0814 2.6205 -10.7378
# 3 33.6678 44.3311 96.9129 -6.2383 8.3364 -21.0645
# 4 0.4150 -1.0814 -6.2383 28.7306 -0.0550 -8.0376
# 5 10.3587 2.6205 8.3364 -0.0550 41.9671 -7.7836
# 6 -14.1809 -10.7378 -21.0645 -8.0376 -7.7836 33.0487
#
#
#
# Elastic Compliance Matrix: (Units=1/GPa)
#
#
# Indices 1 2 3 4 5 6 
#
# 1 0.013408 -0.001886 -0.003049 -0.000187 -0.002093 0.002658
# 2 -0.001886 0.007287 -0.002785 -0.000352 0.000530 -0.000177
# 3 -0.003049 -0.002785 0.014903 0.005561 -0.000444 0.008533
# 4 -0.000187 -0.000352 0.005561 0.039746 0.001495 0.013369
# 5 -0.002093 0.000530 -0.000444 0.001495 0.025391 0.005335
# 6 0.002658 -0.000177 0.008533 0.013369 0.005335 0.041288
#
#
# Mechanical properties :
#
#
# Convention : Reuss Voigt Hill
#
# Bulk Modulus (GPa) = 49.61120 64.27578 56.94349
# Shear Modulus (GPa) = 30.45416 36.61199 33.53307
#
# Velocity S-wave (km/s) = 3.74988 4.11155 3.93487
# Velocity P-wave (km/s) = 6.45413 7.22619 6.85105
#
# Compressibility (1/GPa) = 0.02015674
#
# Stress axis : x y z
#
# Youngs Moduli (GPa) = 74.58464 137.23921 67.10208
#
# Poissons Ratio (x) = 0.25883 0.20462
# Poissons Ratio (y) = 0.14066 0.18686
# Poissons Ratio (z) = 0.22744 0.38217
#
# Static dielectric constant tensor:
#      x y z
#    x 3.805780 0.062700 -0.088220 
#    y 0.062700 3.957810 -0.118360 
#    z -0.088220 -0.118360 3.989290 
# 
# 
# High freq. dielectric constant tensor:
#      x y z
#    x 1.851530 0.002270 0.000900 
#    y 0.002270 1.856210 -0.010840 
#    z 0.000900 -0.010840 1.853960 
# 
# From -- ./inp_files/262990.got.cif
#   From: 2010.06.25/outbox.cif.g09.slc.cpg/sg2_132_cif.got.tgz:262990.got - 2010.06.27 13:26:56.
