data_PCOD8027085
_publ_section_title
;
Structure prediction by ZEFSAII (Michael W. Deem and Ramdas Pophale) SiO2 
 PCOD8027085
Probable space group: P -1
;
_chemical_formula_sum "Si O2"
_cell_formula_units_Z 16
_cell_length_a 8.405479
_cell_length_b 15.953305
_cell_length_c 11.366228
_cell_angle_alpha 126.821988
_cell_angle_beta 95.441206
_cell_angle_gamma 44.359023
_cell_volume 684.836642
_symmetry_space_group_name_H-M "P -1"
_symmetry_group_IT_number 2
_symmetry_cell_setting 'triclinic'
loop_
_space_group_symop_operation_xyz
x,y,z
-x,-y,-z
loop_
_atom_site_type_symbol
_atom_site_label
_atom_site_fract_x
_atom_site_fract_y
_atom_site_fract_z
Si Si1 0.758241 0.993255 0.368970
Si Si2 0.245181 0.762663 0.814924
Si Si3 0.016188 0.933214 0.683733
Si Si4 0.636463 0.073548 0.050868
Si Si5 0.813414 0.375583 0.598025
Si Si6 0.943407 0.369648 0.852093
Si Si7 0.538607 0.760646 0.217362
Si Si8 0.664733 0.866339 0.717430
O O1 0.505427 0.061645 0.353807
O O2 0.018371 0.772350 0.226667
O O3 0.850470 0.029894 0.313139
O O4 0.652853 0.113999 0.576398
O O5 0.128853 0.838522 0.739117
O O6 0.380717 0.800044 0.896940
O O7 0.490425 0.545953 0.670689
O O8 0.959427 0.884287 0.968835
O O9 0.108898 0.783232 0.485334
O O10 0.675085 0.126745 0.813995
O O11 0.404477 0.184246 0.231390
O O12 0.574002 0.026600 0.901653
O O13 0.855878 0.426796 0.756887
O O14 0.006181 0.310760 0.446685
O O15 0.241065 0.265481 0.806938
O O16 0.700448 0.560853 0.071123
#
# Coordination Sequence:
#
# PCOD8027085 Si02
#       8
#     2   2   2   2   2   2   2   2
#     4  12  24  48  68 104 146 183 237 292 358 417
#     4  11  25  45  69 105 142 187 237 292 354 429
#     4  12  25  46  71 100 143 194 225 295 358 417
#     4  10  24  44  67 103 137 187 235 289 360 412
#     4  12  25  44  72 100 144 188 243 288 354 423
#     4  11  26  44  74 107 134 191 235 297 350 423
#     4  11  25  46  72 105 142 182 241 287 360 421
#     4  11  23  44  72  99 139 190 230 297 355 419
#
# _framework density 23.363236000000001
#
# number of rings (size 3 to 8) (size 9 to 14) (size 15 to 20)
#    0.000    0.750    5.000    1.875    3.500    2.000 
#    2.250    0.000    0.000    0.000    0.000    0.000 
#    0.000    0.000    0.000    0.000    0.000    0.000 
#
# Total GULP energy -198301.896895 kJ/mol
# GULP energy per Si atom -12393.868556 kJ/mol
# Density = 2.331006 g / cm^3
# Si number density = 23.363236 Si / 1000 Ang^3
#
#
#
# Elastic Constant Matrix: (Units=GPa)
#
#
# Indices 1 2 3 4 5 6 
#
# 1 108.4428 31.6459 33.0127 10.9545 1.9918 1.7041
# 2 31.6459 94.7617 41.6363 20.5798 -7.0408 -7.7709
# 3 33.0127 41.6363 115.9382 13.9671 9.1830 7.6513
# 4 10.9545 20.5798 13.9671 43.0938 -4.4878 3.8436
# 5 1.9918 -7.0408 9.1830 -4.4878 29.7725 -0.2463
# 6 1.7041 -7.7709 7.6513 3.8436 -0.2463 29.1018
#
#
#
# Elastic Compliance Matrix: (Units=1/GPa)
#
#
# Indices 1 2 3 4 5 6 
#
# 1 0.010687 -0.002702 -0.001847 -0.000856 -0.000920 -0.000756
# 2 -0.002702 0.015676 -0.005022 -0.005253 0.004698 0.006398
# 3 -0.001847 -0.005022 0.011749 -0.001073 -0.004885 -0.004222
# 4 -0.000856 -0.005253 -0.001073 0.027022 0.003181 -0.004613
# 5 -0.000920 0.004698 -0.004885 0.003181 0.036767 0.002484
# 6 -0.000756 0.006398 -0.004222 -0.004613 0.002484 0.037855
#
#
# Mechanical properties :
#
#
# Convention : Reuss Voigt Hill
#
# Bulk Modulus (GPa) = 52.71079 59.08139 55.89609
# Shear Modulus (GPa) = 30.26224 34.58347 32.42285
#
# Velocity S-wave (km/s) = 3.60292 3.85158 3.72932
# Velocity P-wave (km/s) = 6.31811 6.71734 6.52078
#
# Compressibility (1/GPa) = 0.01897145
#
# Stress axis : x y z
#
# Youngs Moduli (GPa) = 93.56749 63.79090 85.11123
#
# Poissons Ratio (x) = 0.17237 0.15719
# Poissons Ratio (y) = 0.25282 0.42741
# Poissons Ratio (z) = 0.17281 0.32035
#
# Static dielectric constant tensor:
#      x y z
#    x 4.421110 -0.203570 0.204950 
#    y -0.203570 3.982810 -0.039070 
#    z 0.204950 -0.039070 4.456230 
# 
# 
# High freq. dielectric constant tensor:
#      x y z
#    x 1.927000 -0.021760 0.015000 
#    y -0.021760 1.916160 -0.010120 
#    z 0.015000 -0.010120 1.928630 
# 
# From -- ./inp_files/403260.got.cif
#   From: 2010.06.25/outbox.cif.g09.slc.cpg/sg2_202_cif.got.tgz:403260.got - 2010.06.27 13:26:56.
