data_PCOD8027799
_publ_section_title
;
Structure prediction by ZEFSAII (Michael W. Deem and Ramdas Pophale) SiO2 
 PCOD8027799
Probable space group: P -1
;
_chemical_formula_sum "Si O2"
_cell_formula_units_Z 14
_cell_length_a 20.484143
_cell_length_b 14.824891
_cell_length_c 11.140158
_cell_angle_alpha 31.592641
_cell_angle_beta 32.331526
_cell_angle_gamma 20.628075
_cell_volume 603.080979
_symmetry_space_group_name_H-M "P -1"
_symmetry_group_IT_number 2
_symmetry_cell_setting 'triclinic'
loop_
_space_group_symop_operation_xyz
x,y,z
-x,-y,-z
loop_
_atom_site_type_symbol
_atom_site_label
_atom_site_fract_x
_atom_site_fract_y
_atom_site_fract_z
Si Si1 0.354655 0.868168 0.089512
Si Si2 0.789015 0.857094 0.454857
Si Si3 0.723363 0.286845 0.419346
Si Si4 0.965626 0.211408 0.674888
Si Si5 0.272649 0.211241 0.629441
Si Si6 0.609664 0.773838 0.987133
Si Si7 0.617842 0.369861 0.084558
O O1 0.229051 0.852708 0.366098
O O2 0.538245 0.586423 0.059993
O O3 0.439006 0.901948 0.019895
O O4 0.233495 0.107600 0.908690
O O5 0.825949 0.744800 0.391102
O O6 0.755613 0.738272 0.732114
O O7 0.966376 0.777459 0.318448
O O8 0.608692 0.184483 0.358182
O O9 0.500000 0.500000 0.500000
O O10 0.742260 0.474006 0.174630
O O11 0.853701 0.046692 0.391923
O O12 0.832457 0.500552 0.488598
O O13 0.837881 0.182821 0.930658
O O14 0.500000 0.000000 0.500000
O O15 0.500000 0.000000 0.000000
O O16 0.500000 0.500000 0.000000
#
# Coordination Sequence:
#
# PCOD8027799 Si02
#       7
#     2   2   2   2   2   2   2
#     4  11  22  45  72  99 149 189 239 293 354 434
#     4  12  23  40  71 108 142 182 244 302 351 424
#     4  10  24  47  69 102 148 192 238 297 361 426
#     4  12  26  44  71 108 147 189 245 296 357 440
#     4  12  23  44  69 109 145 190 242 300 364 415
#     4  11  22  42  72 100 138 191 240 291 356 421
#     4  12  24  45  74 106 145 188 234 301 372 428
#
# _framework density 23.214130000000001
#
# number of rings (size 3 to 8) (size 9 to 14) (size 15 to 20)
#    0.000    0.571    4.286    5.143    0.000    2.857 
#    0.000    0.714    0.000    0.000    0.000    0.000 
#    0.000    0.000    0.000    0.000    0.000    0.000 
#
# Total GULP energy -173528.205399 kJ/mol
# GULP energy per Si atom -12394.871814 kJ/mol
# Density = 2.316129 g / cm^3
# Si number density = 23.214130 Si / 1000 Ang^3
#
#
#
# Elastic Constant Matrix: (Units=GPa)
#
#
# Indices 1 2 3 4 5 6 
#
# 1 122.3287 47.1040 56.9912 10.2406 3.6292 18.2267
# 2 47.1040 147.5879 51.5686 -24.7180 -1.0607 26.4610
# 3 56.9912 51.5686 178.3805 -29.2903 18.6119 2.0651
# 4 10.2406 -24.7180 -29.2903 44.8803 -3.0690 -9.9288
# 5 3.6292 -1.0607 18.6119 -3.0690 35.6758 1.5411
# 6 18.2267 26.4610 2.0651 -9.9288 1.5411 33.2610
#
#
#
# Elastic Compliance Matrix: (Units=1/GPa)
#
#
# Indices 1 2 3 4 5 6 
#
# 1 0.013561 -0.002747 -0.005102 -0.009621 0.000711 -0.007834
# 2 -0.002747 0.009742 -0.001404 0.004093 0.001870 -0.005023
# 3 -0.005102 -0.001404 0.009200 0.007394 -0.003934 0.005731
# 4 -0.009621 0.004093 0.007394 0.034137 -0.000328 0.011762
# 5 0.000711 0.001870 -0.003934 -0.000328 0.030173 -0.003130
# 6 -0.007834 -0.005023 0.005731 0.011762 -0.003130 0.041655
#
#
# Mechanical properties :
#
#
# Convention : Reuss Voigt Hill
#
# Bulk Modulus (GPa) = 71.43864 84.40275 77.92070
# Shear Modulus (GPa) = 30.93324 42.27230 36.60277
#
# Velocity S-wave (km/s) = 3.65433 4.27192 3.97513
# Velocity P-wave (km/s) = 6.97467 7.79549 7.39648
#
# Compressibility (1/GPa) = 0.01399803
#
# Stress axis : x y z
#
# Youngs Moduli (GPa) = 73.74090 102.64435 108.69604
#
# Poissons Ratio (x) = 0.28199 0.55454
# Poissons Ratio (y) = 0.20258 0.15257
# Poissons Ratio (z) = 0.37621 0.14408
#
# Static dielectric constant tensor:
#      x y z
#    x 4.147520 0.157250 0.092310 
#    y 0.157250 4.504880 -0.582130 
#    z 0.092310 -0.582130 4.984730 
# 
# 
# High freq. dielectric constant tensor:
#      x y z
#    x 1.908950 0.008410 0.003860 
#    y 0.008410 1.915180 -0.030000 
#    z 0.003860 -0.030000 1.937070 
# 
# From -- ./inp_files/471840.got.cif
#   From: 2010.06.25/outbox.cif.g09.slc.cpg/sg2_236_cif.got.tgz:471840.got - 2010.06.27 13:26:56.
