data_PCOD8027392
_publ_section_title
;
Structure prediction by ZEFSAII (Michael W. Deem and Ramdas Pophale) SiO2 
 PCOD8027392
Probable space group: P -1
;
_chemical_formula_sum "Si O2"
_cell_formula_units_Z 16
_cell_length_a 15.497244
_cell_length_b 9.152381
_cell_length_c 11.723553
_cell_angle_alpha 37.678811
_cell_angle_beta 51.786824
_cell_angle_gamma 49.062419
_cell_volume 749.573554
_symmetry_space_group_name_H-M "P -1"
_symmetry_group_IT_number 2
_symmetry_cell_setting 'triclinic'
loop_
_space_group_symop_operation_xyz
x,y,z
-x,-y,-z
loop_
_atom_site_type_symbol
_atom_site_label
_atom_site_fract_x
_atom_site_fract_y
_atom_site_fract_z
Si Si1 0.188517 0.359113 0.184443
Si Si2 0.961693 0.249423 0.104850
Si Si3 0.101756 0.237573 0.560652
Si Si4 0.634656 0.959262 0.939915
Si Si5 0.656356 0.354135 0.034509
Si Si6 0.723706 0.780934 0.370419
Si Si7 0.180556 0.375628 0.842781
Si Si8 0.421299 0.512407 0.234666
O O1 0.145623 0.220467 0.406015
O O2 0.291108 0.133029 0.178784
O O3 0.082571 0.511668 0.094177
O O4 0.231851 0.582164 0.057289
O O5 0.887647 0.343187 0.223988
O O6 0.945265 0.992930 0.232703
O O7 0.099652 0.199361 0.039187
O O8 0.204836 0.224509 0.570384
O O9 0.000000 0.500000 0.500000
O O10 0.643506 0.225911 0.808593
O O11 0.693535 0.751629 0.118887
O O12 0.500000 0.000000 0.000000
O O13 0.560769 0.450128 0.155307
O O14 0.683727 0.056993 0.175586
O O15 0.616187 0.492559 0.862419
O O16 0.800449 0.591515 0.327529
O O17 0.610391 0.707532 0.537955
#
# Coordination Sequence:
#
# PCOD8027392 Si02
#       8
#     2   2   2   2   2   2   2   2
#     4  11  23  44  66  98 131 175 218 268 328 387
#     4  10  24  47  65  91 135 173 218 271 323 388
#     4  12  27  40  68 101 129 169 223 272 328 386
#     4  11  23  44  69  95 131 175 217 265 331 391
#     4  11  22  43  65  93 141 171 212 267 327 393
#     4  12  24  41  67 100 129 169 220 267 326 389
#     4  10  24  45  67  93 130 177 216 268 329 383
#     4  11  24  41  66  98 133 174 216 267 324 392
#
# _framework density 21.345469000000001
#
# number of rings (size 3 to 8) (size 9 to 14) (size 15 to 20)
#    0.000    1.000    5.000    1.125    5.250    1.000 
#    2.250    3.125    0.000    0.000    0.000    0.000 
#    0.000    0.000    0.000    0.000    0.000    0.000 
#
# Total GULP energy -198420.386868 kJ/mol
# GULP energy per Si atom -12401.274179 kJ/mol
# Density = 2.129689 g / cm^3
# Si number density = 21.345469 Si / 1000 Ang^3
#
#
#
# Elastic Constant Matrix: (Units=GPa)
#
#
# Indices 1 2 3 4 5 6 
#
# 1 78.5349 24.3161 21.8007 6.3105 -4.8211 -4.6040
# 2 24.3161 99.1670 28.3820 16.2723 4.0979 3.5570
# 3 21.8007 28.3820 80.8966 13.7863 -0.2741 1.3422
# 4 6.3105 16.2723 13.7863 31.3555 7.9104 2.9481
# 5 -4.8211 4.0979 -0.2741 7.9104 30.6157 2.4654
# 6 -4.6040 3.5570 1.3422 2.9481 2.4654 35.6602
#
#
#
# Elastic Compliance Matrix: (Units=1/GPa)
#
#
# Indices 1 2 3 4 5 6 
#
# 1 0.014786 -0.002818 -0.002820 -0.001189 0.002810 0.002200
# 2 -0.002818 0.012364 -0.002837 -0.004265 -0.000936 -0.001073
# 3 -0.002820 -0.002837 0.014952 -0.004843 0.001348 -0.000337
# 4 -0.001189 -0.004265 -0.004843 0.039092 -0.009590 -0.002115
# 5 0.002810 -0.000936 0.001348 -0.009590 0.035824 -0.001278
# 6 0.002200 -0.001073 -0.000337 -0.002115 -0.001278 0.028709
#
#
# Mechanical properties :
#
#
# Convention : Reuss Voigt Hill
#
# Bulk Modulus (GPa) = 39.75942 45.28844 42.52393
# Shear Modulus (GPa) = 29.22923 31.79961 30.51442
#
# Velocity S-wave (km/s) = 3.70448 3.86393 3.78504
# Velocity P-wave (km/s) = 6.07985 6.41635 6.25036
#
# Compressibility (1/GPa) = 0.02515127
#
# Stress axis : x y z
#
# Youngs Moduli (GPa) = 67.63298 80.88024 66.87986
#
# Poissons Ratio (x) = 0.22795 0.18861
# Poissons Ratio (y) = 0.19061 0.18973
# Poissons Ratio (z) = 0.19073 0.22944
#
# Static dielectric constant tensor:
#      x y z
#    x 3.634710 0.071530 -0.379370 
#    y 0.071530 3.974690 0.174080 
#    z -0.379370 0.174080 3.222780 
# 
# 
# High freq. dielectric constant tensor:
#      x y z
#    x 1.843390 0.007800 -0.004080 
#    y 0.007800 1.850440 0.009350 
#    z -0.004080 0.009350 1.819550 
# 
# From -- ./inp_files/69620.got.cif
#   From: 2010.06.25/outbox.cif.g09.slc.cpg/sg2_35_cif.got.tgz:69620.got - 2010.06.27 13:26:56.
