data_PCOD8027243
_publ_section_title
;
Structure prediction by ZEFSAII (Michael W. Deem and Ramdas Pophale) SiO2 
 PCOD8027243
Probable space group: P -1
;
_chemical_formula_sum "Si O2"
_cell_formula_units_Z 16
_cell_length_a 6.505348
_cell_length_b 11.259213
_cell_length_c 23.112940
_cell_angle_alpha 30.870284
_cell_angle_beta 67.120605
_cell_angle_gamma 55.026672
_cell_volume 689.994026
_symmetry_space_group_name_H-M "P -1"
_symmetry_group_IT_number 2
_symmetry_cell_setting 'triclinic'
loop_
_space_group_symop_operation_xyz
x,y,z
-x,-y,-z
loop_
_atom_site_type_symbol
_atom_site_label
_atom_site_fract_x
_atom_site_fract_y
_atom_site_fract_z
Si Si1 0.358881 0.118943 0.026603
Si Si2 0.117026 0.259196 0.694749
Si Si3 0.544435 0.962652 0.352024
Si Si4 0.501790 0.249318 0.071878
Si Si5 0.243019 0.692840 0.531912
Si Si6 0.765344 0.154005 0.337978
Si Si7 0.103439 0.336489 0.166105
Si Si8 0.560118 0.425343 0.715836
O O1 0.470698 0.260373 0.999981
O O2 0.366911 0.881683 0.162281
O O3 0.065100 0.339775 0.950044
O O4 0.500000 0.000000 0.000000
O O5 0.199287 0.133615 0.674472
O O6 0.241491 0.447232 0.604116
O O7 0.809853 0.434902 0.662743
O O8 0.233443 0.025209 0.828109
O O9 0.457759 0.741094 0.457676
O O10 0.617277 0.012742 0.386569
O O11 0.310504 0.241210 0.235442
O O12 0.257773 0.233757 0.131591
O O13 0.500000 0.500000 0.000000
O O14 0.316642 0.606451 0.626047
O O15 0.961217 0.961718 0.446552
O O16 0.539526 0.438097 0.268114
O O17 0.917506 0.212972 0.246491
#
# Coordination Sequence:
#
# PCOD8027243 Si02
#       8
#     2   2   2   2   2   2   2   2
#     4  12  25  45  73 106 144 186 234 298 355 421
#     4  11  25  43  72 106 138 181 232 294 347 421
#     4  10  25  44  72 103 139 182 236 287 351 417
#     4  11  25  46  73 105 142 191 236 290 361 428
#     4  11  24  46  69 100 143 185 235 285 354 415
#     4  11  25  45  70 103 138 189 231 289 348 424
#     4  10  24  44  71 101 142 184 232 287 355 425
#     4  12  26  44  69 103 143 182 236 287 356 418
#
# _framework density 23.188607000000001
#
# number of rings (size 3 to 8) (size 9 to 14) (size 15 to 20)
#    0.000    1.000    2.500    2.625    5.250    8.000 
#    0.000    1.875    0.000    0.000    0.000    0.000 
#    0.000    0.000    0.000    0.000    0.000    0.000 
#
# Total GULP energy -198338.272248 kJ/mol
# GULP energy per Si atom -12396.142015 kJ/mol
# Density = 2.313583 g / cm^3
# Si number density = 23.188607 Si / 1000 Ang^3
#
#
#
# Elastic Constant Matrix: (Units=GPa)
#
#
# Indices 1 2 3 4 5 6 
#
# 1 121.5813 60.3709 50.1931 -4.0978 0.6111 9.2737
# 2 60.3709 109.5692 34.4479 -8.5966 6.8739 11.1524
# 3 50.1931 34.4479 125.2439 -9.8436 6.3938 3.3521
# 4 -4.0978 -8.5966 -9.8436 25.8909 1.4899 6.1615
# 5 0.6111 6.8739 6.3938 1.4899 31.3090 -4.2574
# 6 9.2737 11.1524 3.3521 6.1615 -4.2574 31.2080
#
#
#
# Elastic Compliance Matrix: (Units=1/GPa)
#
#
# Indices 1 2 3 4 5 6 
#
# 1 0.012698 -0.005996 -0.003610 -0.001277 0.001765 -0.000750
# 2 -0.005996 0.013684 -0.000700 0.004587 -0.003564 -0.004425
# 3 -0.003610 -0.000700 0.010005 0.003281 -0.002068 -0.000682
# 4 -0.001277 0.004587 0.003281 0.044122 -0.005253 -0.011040
# 5 0.001765 -0.003564 -0.002068 -0.005253 0.034269 0.006684
# 6 -0.000750 -0.004425 -0.000682 -0.011040 0.006684 0.037012
#
#
# Mechanical properties :
#
#
# Convention : Reuss Voigt Hill
#
# Bulk Modulus (GPa) = 63.38836 71.82423 67.60630
# Shear Modulus (GPa) = 28.14359 31.77376 29.95867
#
# Velocity S-wave (km/s) = 3.48757 3.70568 3.59828
# Velocity P-wave (km/s) = 6.60401 7.02500 6.81775
#
# Compressibility (1/GPa) = 0.01577577
#
# Stress axis : x y z
#
# Youngs Moduli (GPa) = 78.75360 73.07689 99.94560
#
# Poissons Ratio (x) = 0.43816 0.36081
# Poissons Ratio (y) = 0.47219 0.06996
# Poissons Ratio (z) = 0.28430 0.05115
#
# Static dielectric constant tensor:
#      x y z
#    x 4.069110 -0.061020 0.130400 
#    y -0.061020 3.994680 -0.056810 
#    z 0.130400 -0.056810 4.374920 
# 
# 
# High freq. dielectric constant tensor:
#      x y z
#    x 1.908180 -0.004470 0.007680 
#    y -0.004470 1.907700 -0.007370 
#    z 0.007680 -0.007370 1.932310 
# 
# From -- ./inp_files/604382.got.cif
#   From: 2010.06.25/outbox.cif.g09.slc.cpg/sg2_303_cif.got.tgz:604382.got - 2010.06.27 13:26:56.
