data_PCOD8027545
_publ_section_title
;
Structure prediction by ZEFSAII (Michael W. Deem and Ramdas Pophale) SiO2 
 PCOD8027545
Probable space group: P -1
;
_chemical_formula_sum "Si O2"
_cell_formula_units_Z 12
_cell_length_a 12.714742
_cell_length_b 4.942408
_cell_length_c 10.176484
_cell_angle_alpha 53.830742
_cell_angle_beta 77.653303
_cell_angle_gamma 61.935916
_cell_volume 453.724899
_symmetry_space_group_name_H-M "P -1"
_symmetry_group_IT_number 2
_symmetry_cell_setting 'triclinic'
loop_
_space_group_symop_operation_xyz
x,y,z
-x,-y,-z
loop_
_atom_site_type_symbol
_atom_site_label
_atom_site_fract_x
_atom_site_fract_y
_atom_site_fract_z
Si Si1 0.203842 0.787882 0.146776
Si Si2 0.967659 0.547881 0.645037
Si Si3 0.450309 0.354792 0.318427
Si Si4 0.825016 0.316725 0.365888
Si Si5 0.237855 0.477720 0.947553
Si Si6 0.576620 0.837588 0.217267
O O1 0.083728 0.734380 0.210746
O O2 0.307081 0.518572 0.294565
O O3 0.249592 0.690264 0.011652
O O4 0.169194 0.219102 0.067073
O O5 0.000000 0.500000 0.500000
O O6 0.084883 0.488244 0.712126
O O7 0.865509 0.978507 0.556023
O O8 0.482327 0.663669 0.286952
O O9 0.500000 0.000000 0.500000
O O10 0.511008 0.239219 0.189563
O O11 0.688289 0.599539 0.354664
O O12 0.826528 0.211626 0.238714
O O13 0.368840 0.173141 0.941719
#
# Coordination Sequence:
#
# PCOD8027545 Si02
#       6
#     2   2   2   2   2   2
#     4  12  27  44  71 109 137 179 245 278 347 411
#     4  11  26  45  75  97 140 188 230 296 341 419
#     4  12  25  42  72 105 142 181 227 291 334 420
#     4   9  25  46  70  99 136 187 233 273 364 401
#     4  10  26  46  71 105 141 185 224 294 341 420
#     4  10  24  45  71  96 145 183 220 280 354 406
#
# _framework density 26.447744
#
# number of rings (size 3 to 8) (size 9 to 14) (size 15 to 20)
#    1.000    0.333    0.000    3.500   11.667    5.333 
#    0.000    0.000    0.000    0.000    0.000    0.000 
#    0.000    0.000    0.000    0.000    0.000    0.000 
#
# Total GULP energy -148743.145206 kJ/mol
# GULP energy per Si atom -12395.262101 kJ/mol
# Density = 2.638755 g / cm^3
# Si number density = 26.447744 Si / 1000 Ang^3
#
#
#
# Elastic Constant Matrix: (Units=GPa)
#
#
# Indices 1 2 3 4 5 6 
#
# 1 122.6936 7.1383 -3.4513 1.4383 -0.7788 27.7627
# 2 7.1383 59.4675 -23.6482 1.6332 10.1964 6.7433
# 3 -3.4513 -23.6482 57.6967 1.2952 4.5069 12.5821
# 4 1.4383 1.6332 1.2952 33.8331 8.5153 -10.9650
# 5 -0.7788 10.1964 4.5069 8.5153 39.1073 7.1631
# 6 27.7627 6.7433 12.5821 -10.9650 7.1631 23.9528
#
#
#
# Elastic Compliance Matrix: (Units=1/GPa)
#
#
# Indices 1 2 3 4 5 6 
#
# 1 0.016066 0.005203 0.010294 -0.014172 0.007110 -0.034108
# 2 0.005203 0.026853 0.017616 -0.010596 -0.001638 -0.027204
# 3 0.010294 0.017616 0.035019 -0.018019 0.003675 -0.044633
# 4 -0.014172 -0.010596 -0.018019 0.055359 -0.018437 0.059730
# 5 0.007110 -0.001638 0.003675 -0.018437 0.034970 -0.028609
# 6 -0.034108 -0.027204 -0.044633 0.059730 -0.028609 0.148284
#
#
# Mechanical properties :
#
#
# Convention : Reuss Voigt Hill
#
# Bulk Modulus (GPa) = 6.93654 22.21506 14.57580
# Shear Modulus (GPa) = 16.75715 36.69991 26.72853
#
# Velocity S-wave (km/s) = 2.51986 3.72914 3.18247
# Velocity P-wave (km/s) = 3.33087 5.19229 4.36203
#
# Compressibility (1/GPa) = 0.14416407
#
# Stress axis : x y z
#
# Youngs Moduli (GPa) = 62.24214 37.23944 28.55612
#
# Poissons Ratio (x) = -0.19375 -0.29396
# Poissons Ratio (y) = -0.32383 -0.50304
# Poissons Ratio (z) = -0.64073 -0.65601
#
# Static dielectric constant tensor:
#      x y z
#    x 5.496830 0.509110 -0.452550 
#    y 0.509110 5.359470 -0.991410 
#    z -0.452550 -0.991410 5.932710 
# 
# 
# High freq. dielectric constant tensor:
#      x y z
#    x 2.069750 0.009990 0.008270 
#    y 0.009990 2.054780 0.002850 
#    z 0.008270 0.002850 2.045730 
# 
# From -- ./inp_files/73242.got.cif
#   From: 2010.06.25/outbox.cif.g09.slc.cpg/sg2_37_cif.got.tgz:73242.got - 2010.06.27 13:26:56.
