data_PCOD8027501
_publ_section_title
;
Structure prediction by ZEFSAII (Michael W. Deem and Ramdas Pophale) SiO2 
 PCOD8027501
Probable space group: P -1
;
_chemical_formula_sum "Si O2"
_cell_formula_units_Z 12
_cell_length_a 9.583708
_cell_length_b 8.634662
_cell_length_c 10.006676
_cell_angle_alpha 86.436643
_cell_angle_beta 138.332649
_cell_angle_gamma 100.326556
_cell_volume 538.320525
_symmetry_space_group_name_H-M "P -1"
_symmetry_group_IT_number 2
_symmetry_cell_setting 'triclinic'
loop_
_space_group_symop_operation_xyz
x,y,z
-x,-y,-z
loop_
_atom_site_type_symbol
_atom_site_label
_atom_site_fract_x
_atom_site_fract_y
_atom_site_fract_z
Si Si1 0.293342 0.321235 0.144198
Si Si2 0.132443 0.492068 0.797793
Si Si3 0.930470 0.224195 0.092760
Si Si4 0.284009 0.467384 0.626919
Si Si5 0.443082 0.000577 0.304619
Si Si6 0.144395 0.101252 0.488459
O O1 0.488980 0.472595 0.285888
O O2 0.140880 0.320706 0.162877
O O3 0.389514 0.164950 0.210699
O O4 0.162372 0.341700 0.915008
O O5 0.178874 0.652608 0.910173
O O6 0.296674 0.517737 0.789126
O O7 0.889448 0.449747 0.574470
O O8 0.010215 0.098398 0.254797
O O9 0.763227 0.135140 0.869684
O O10 0.215945 0.280054 0.578583
O O11 0.648168 0.975085 0.371523
O O12 0.500000 0.000000 0.500000
O O13 0.000000 0.000000 0.500000
#
# Coordination Sequence:
#
# PCOD8027501 Si02
#       6
#     2   2   2   2   2   2
#     4  12  25  42  75 102 142 184 234 293 342 418
#     4  10  24  45  70 102 141 183 232 289 345 416
#     4  11  26  47  70 107 139 187 238 287 351 418
#     4  10  25  46  72 103 141 183 238 283 355 410
#     4  12  28  46  70 104 145 187 234 290 356 412
#     4  11  27  48  73 103 145 185 233 291 351 425
#
# _framework density 22.291550999999998
#
# number of rings (size 3 to 8) (size 9 to 14) (size 15 to 20)
#    0.000    1.000    1.667    2.500   11.667    3.333 
#    0.000    0.000    0.000    0.000    0.000    0.000 
#    0.000    0.000    0.000    0.000    0.000    0.000 
#
# Total GULP energy -148847.063667 kJ/mol
# GULP energy per Si atom -12403.921972 kJ/mol
# Density = 2.224081 g / cm^3
# Si number density = 22.291551 Si / 1000 Ang^3
#
#
#
# Elastic Constant Matrix: (Units=GPa)
#
#
# Indices 1 2 3 4 5 6 
#
# 1 121.8747 68.1234 67.0318 10.6302 4.1540 18.2431
# 2 68.1234 132.7731 73.0729 -13.5457 0.0773 6.2790
# 3 67.0318 73.0729 152.7181 -15.2103 -8.2495 8.2954
# 4 10.6302 -13.5457 -15.2103 50.9632 -0.6126 5.5488
# 5 4.1540 0.0773 -8.2495 -0.6126 30.9933 -3.4029
# 6 18.2431 6.2790 8.2954 5.5488 -3.4029 50.8020
#
#
#
# Elastic Compliance Matrix: (Units=1/GPa)
#
#
# Indices 1 2 3 4 5 6 
#
# 1 0.014928 -0.005624 -0.004421 -0.005583 -0.003667 -0.003580
# 2 -0.005624 0.012505 -0.003202 0.003474 0.000007 0.000618
# 3 -0.004421 -0.003202 0.010523 0.003238 0.003481 0.000144
# 4 -0.005583 0.003474 0.003238 0.022843 0.001908 -0.001321
# 5 -0.003667 0.000007 0.003481 0.001908 0.034030 0.002819
# 6 -0.003580 0.000618 0.000144 -0.001321 0.002819 0.021203
#
#
# Mechanical properties :
#
#
# Convention : Reuss Voigt Hill
#
# Bulk Modulus (GPa) = 87.24488 91.53579 89.39034
# Shear Modulus (GPa) = 34.16538 39.82755 36.99646
#
# Velocity S-wave (km/s) = 3.91917 4.23148 4.07832
# Velocity P-wave (km/s) = 7.72677 8.06387 7.89712
#
# Compressibility (1/GPa) = 0.01146199
#
# Stress axis : x y z
#
# Youngs Moduli (GPa) = 66.98717 79.96926 95.02901
#
# Poissons Ratio (x) = 0.44979 0.42010
# Poissons Ratio (y) = 0.37677 0.30426
# Poissons Ratio (z) = 0.29614 0.25604
#
# Static dielectric constant tensor:
#      x y z
#    x 4.180190 -0.150130 0.157960 
#    y -0.150130 3.923510 -0.273320 
#    z 0.157960 -0.273320 4.366860 
# 
# 
# High freq. dielectric constant tensor:
#      x y z
#    x 1.889540 -0.005560 0.006760 
#    y -0.005560 1.873080 -0.015050 
#    z 0.006760 -0.015050 1.893920 
# 
# From -- ./inp_files/157556.got.cif
#   From: 2010.06.25/outbox.cif.g09.slc.cpg/sg2_79_cif.got.tgz:157556.got - 2010.06.27 13:26:56.
