data_PCOD8027756
_publ_section_title
;
Structure prediction by ZEFSAII (Michael W. Deem and Ramdas Pophale) SiO2 
 PCOD8027756
Probable space group: P -1
;
_chemical_formula_sum "Si O2"
_cell_formula_units_Z 16
_cell_length_a 8.617572
_cell_length_b 10.430230
_cell_length_c 9.280373
_cell_angle_alpha 62.658161
_cell_angle_beta 117.441544
_cell_angle_gamma 109.817930
_cell_volume 648.949403
_symmetry_space_group_name_H-M "P -1"
_symmetry_group_IT_number 2
_symmetry_cell_setting 'triclinic'
loop_
_space_group_symop_operation_xyz
x,y,z
-x,-y,-z
loop_
_atom_site_type_symbol
_atom_site_label
_atom_site_fract_x
_atom_site_fract_y
_atom_site_fract_z
Si Si1 0.874213 0.329905 0.868363
Si Si2 0.769343 0.738284 0.301264
Si Si3 0.851985 0.322531 0.538729
Si Si4 0.182174 0.390902 0.148142
Si Si5 0.319751 0.000642 0.346830
Si Si6 0.322604 0.995079 0.021070
Si Si7 0.440441 0.525929 0.798332
Si Si8 0.134559 0.141253 0.431913
O O1 0.825317 0.376131 0.662787
O O2 0.809436 0.438159 0.900543
O O3 0.790677 0.164948 0.957278
O O4 0.089024 0.351682 0.971922
O O5 0.600732 0.627795 0.227060
O O6 0.730863 0.800563 0.411102
O O7 0.938032 0.649854 0.423999
O O8 0.798094 0.885738 0.141669
O O9 0.808946 0.149613 0.606751
O O10 0.730421 0.391902 0.335800
O O11 0.388974 0.370626 0.248936
O O12 0.062697 0.288596 0.271437
O O13 0.500000 0.000000 0.500000
O O14 0.365440 0.039194 0.181506
O O15 0.227405 0.116808 0.333259
O O16 0.500000 0.000000 0.000000
O O17 0.500000 0.500000 0.000000
O O18 0.000000 0.000000 0.500000
#
# Coordination Sequence:
#
# PCOD8027756 Si02
#       8
#     2   2   2   2   2   2   2   2
#     4  10  24  46  74 110 148 200 253 316 388 462
#     4  12  26  46  77 110 154 205 257 321 386 460
#     4  11  25  46  71 105 147 202 257 316 383 459
#     4  11  25  46  73 105 154 201 253 318 385 462
#     4  11  25  43  74 107 153 195 249 320 384 454
#     4  11  25  46  78 114 155 199 261 319 389 461
#     4  12  28  47  75 109 153 203 263 321 393 461
#     4  12  25  46  73 112 150 202 254 316 384 458
#
# _framework density 24.655232999999999
#
# number of rings (size 3 to 8) (size 9 to 14) (size 15 to 20)
#    0.000    0.750    1.250    4.875    5.250    7.000 
#    2.250    0.000    0.000    0.000    0.000    0.000 
#    0.000    0.000    0.000    0.000    0.000    0.000 
#
# Total GULP energy -198211.526189 kJ/mol
# GULP energy per Si atom -12388.220387 kJ/mol
# Density = 2.459912 g / cm^3
# Si number density = 24.655233 Si / 1000 Ang^3
#
#
#
# Elastic Constant Matrix: (Units=GPa)
#
#
# Indices 1 2 3 4 5 6 
#
# 1 114.6555 51.1029 54.1543 9.9064 8.1710 7.2053
# 2 51.1029 130.3617 78.9560 15.7034 -7.4179 6.4907
# 3 54.1543 78.9560 188.7222 14.6659 7.7991 -2.5112
# 4 9.9064 15.7034 14.6659 56.1487 -5.7400 -0.5815
# 5 8.1710 -7.4179 7.7991 -5.7400 44.3011 5.0863
# 6 7.2053 6.4907 -2.5112 -0.5815 5.0863 34.8572
#
#
#
# Elastic Compliance Matrix: (Units=1/GPa)
#
#
# Indices 1 2 3 4 5 6 
#
# 1 0.011366 -0.003371 -0.001709 -0.000867 -0.002297 -0.001524
# 2 -0.003371 0.011952 -0.004102 -0.001349 0.003440 -0.002349
# 3 -0.001709 -0.004102 0.007674 -0.000744 -0.002043 0.001956
# 4 -0.000867 -0.001349 -0.000744 0.018790 0.002462 0.000331
# 5 -0.002297 0.003440 -0.002043 0.002462 0.024696 -0.003875
# 6 -0.001524 -0.002349 0.001956 0.000331 -0.003875 0.030153
#
#
# Mechanical properties :
#
#
# Convention : Reuss Voigt Hill
#
# Bulk Modulus (GPa) = 79.18866 89.12952 84.15909
# Shear Modulus (GPa) = 39.30754 43.69646 41.50200
#
# Velocity S-wave (km/s) = 3.99719 4.21444 4.10725
# Velocity P-wave (km/s) = 7.31378 7.74021 7.53001
#
# Compressibility (1/GPa) = 0.01262807
#
# Stress axis : x y z
#
# Youngs Moduli (GPa) = 87.98313 83.66995 130.31750
#
# Poissons Ratio (x) = 0.28202 0.22274
# Poissons Ratio (y) = 0.29656 0.53451
# Poissons Ratio (z) = 0.15038 0.34318
#
# Static dielectric constant tensor:
#      x y z
#    x 3.996190 0.069720 0.137670 
#    y 0.069720 4.783550 0.164870 
#    z 0.137670 0.164870 4.622510 
# 
# 
# High freq. dielectric constant tensor:
#      x y z
#    x 1.953990 0.004480 0.004490 
#    y 0.004480 2.017000 0.003150 
#    z 0.004490 0.003150 1.996180 
# 
# From -- ./inp_files/176748.got.cif
#   From: 2010.06.25/outbox.cif.g09.slc.cpg/sg2_89_cif.got.tgz:176748.got - 2010.06.27 13:26:56.
