data_PCOD8027976
_publ_section_title
;
Structure prediction by ZEFSAII (Michael W. Deem and Ramdas Pophale) SiO2 
 PCOD8027976
Probable space group: P -1
;
_chemical_formula_sum "Si O2"
_cell_formula_units_Z 16
_cell_length_a 12.365080
_cell_length_b 12.421155
_cell_length_c 8.670056
_cell_angle_alpha 53.342574
_cell_angle_beta 96.685851
_cell_angle_gamma 131.122504
_cell_volume 715.737010
_symmetry_space_group_name_H-M "P -1"
_symmetry_group_IT_number 2
_symmetry_cell_setting 'triclinic'
loop_
_space_group_symop_operation_xyz
x,y,z
-x,-y,-z
loop_
_atom_site_type_symbol
_atom_site_label
_atom_site_fract_x
_atom_site_fract_y
_atom_site_fract_z
Si Si1 0.720131 0.138339 0.148903
Si Si2 0.755174 0.607488 0.065413
Si Si3 0.888692 0.557013 0.549227
Si Si4 0.796778 0.167612 0.477334
Si Si5 0.676285 0.415066 0.891947
Si Si6 0.638240 0.251210 0.546007
Si Si7 0.922456 0.150026 0.951249
Si Si8 0.316947 0.169269 0.041616
O O1 0.794192 0.146892 0.311759
O O2 0.544148 0.914648 0.282265
O O3 0.715513 0.293818 0.022778
O O4 0.836454 0.197047 0.979990
O O5 0.676162 0.425167 0.319430
O O6 0.948741 0.802335 0.953516
O O7 0.725177 0.542209 0.940519
O O8 0.665302 0.664573 0.035436
O O9 0.787003 0.564298 0.638623
O O10 0.758583 0.335856 0.639761
O O11 0.029431 0.614129 0.625676
O O12 0.972227 0.710902 0.294912
O O13 0.658412 0.147328 0.518678
O O14 0.764627 0.995004 0.698220
O O15 0.490924 0.268342 0.944467
O O16 0.787525 0.926046 0.052880
#
# Coordination Sequence:
#
# PCOD8027976 Si02
#       8
#     2   2   2   2   2   2   2   2
#     4  12  24  40  67  99 132 168 217 271 322 380
#     4  11  24  45  68  96 132 171 214 265 325 390
#     4  10  25  39  63  99 129 169 214 271 314 381
#     4  11  22  42  64  97 130 168 216 264 323 377
#     4  12  24  40  66 100 131 170 217 267 325 377
#     4  11  22  42  64  97 130 168 216 264 323 377
#     4  10  25  45  64  97 132 174 212 268 327 377
#     4  11  24  45  68  96 132 171 214 265 325 390
#
# _framework density 22.354579999999999
#
# number of rings (size 3 to 8) (size 9 to 14) (size 15 to 20)
#    0.000    1.000    2.500    3.750    7.000    2.000 
#    0.000   16.250    0.000    0.000    0.000    0.000 
#    0.000    0.000    0.000    0.000    0.000    0.000 
#
# Total GULP energy -198385.122018 kJ/mol
# GULP energy per Si atom -12399.070126 kJ/mol
# Density = 2.230370 g / cm^3
# Si number density = 22.354580 Si / 1000 Ang^3
#
#
#
# Elastic Constant Matrix: (Units=GPa)
#
#
# Indices 1 2 3 4 5 6 
#
# 1 80.1604 22.1610 35.6516 -5.9153 -8.7016 -9.1798
# 2 22.1610 114.1915 34.3142 -1.6112 -13.0383 15.6165
# 3 35.6516 34.3142 82.2715 -1.8660 -19.6220 2.3908
# 4 -5.9153 -1.6112 -1.8660 15.2495 -7.0225 -0.0322
# 5 -8.7016 -13.0383 -19.6220 -7.0225 38.9141 -7.8613
# 6 -9.1798 15.6165 2.3908 -0.0322 -7.8613 47.9301
#
#
#
# Elastic Compliance Matrix: (Units=1/GPa)
#
#
# Indices 1 2 3 4 5 6 
#
# 1 0.016888 -0.001722 -0.006038 0.006682 0.002264 0.004472
# 2 -0.001722 0.010696 -0.003400 0.000432 0.000855 -0.003505
# 3 -0.006038 -0.003400 0.017939 0.002764 0.007100 0.000223
# 4 0.006682 0.000432 0.002764 0.076698 0.017672 0.003951
# 5 0.002264 0.000855 0.007100 0.017672 0.034360 0.005448
# 6 0.004472 -0.003505 0.000223 0.003951 0.005448 0.023747
#
#
# Mechanical properties :
#
#
# Convention : Reuss Voigt Hill
#
# Bulk Modulus (GPa) = 43.09761 51.20855 47.15308
# Shear Modulus (GPa) = 23.76636 32.71853 28.24245
#
# Velocity S-wave (km/s) = 3.26414 3.82987 3.55827
# Velocity P-wave (km/s) = 5.79026 6.52031 6.16610
#
# Compressibility (1/GPa) = 0.02320314
#
# Stress axis : x y z
#
# Youngs Moduli (GPa) = 59.21520 93.49427 55.74431
#
# Poissons Ratio (x) = 0.16097 0.33661
# Poissons Ratio (y) = 0.10195 0.18951
# Poissons Ratio (z) = 0.35757 0.31784
#
# Static dielectric constant tensor:
#      x y z
#    x 4.010790 0.372980 -0.362520 
#    y 0.372980 4.589090 0.082260 
#    z -0.362520 0.082260 4.089830 
# 
# 
# High freq. dielectric constant tensor:
#      x y z
#    x 1.871700 0.016730 -0.022910 
#    y 0.016730 1.901990 0.007510 
#    z -0.022910 0.007510 1.869030 
# 
# From -- ./inp_files/262082.got.cif
#   From: 2010.06.25/outbox.cif.g09.slc.cpg/sg2_132_cif.got.tgz:262082.got - 2010.06.27 13:26:56.
