data_PCOD8027549
_publ_section_title
;
Structure prediction by ZEFSAII (Michael W. Deem and Ramdas Pophale) SiO2 
 PCOD8027549
Probable space group: P -1
;
_chemical_formula_sum "Si O2"
_cell_formula_units_Z 16
_cell_length_a 9.839974
_cell_length_b 9.289764
_cell_length_c 11.350536
_cell_angle_alpha 88.984617
_cell_angle_beta 86.017083
_cell_angle_gamma 46.426130
_cell_volume 749.232509
_symmetry_space_group_name_H-M "P -1"
_symmetry_group_IT_number 2
_symmetry_cell_setting 'triclinic'
loop_
_space_group_symop_operation_xyz
x,y,z
-x,-y,-z
loop_
_atom_site_type_symbol
_atom_site_label
_atom_site_fract_x
_atom_site_fract_y
_atom_site_fract_z
Si Si1 0.166885 0.817104 0.570889
Si Si2 0.558317 0.666888 0.892932
Si Si3 0.031724 0.831589 0.837360
Si Si4 0.133526 0.318836 0.658937
Si Si5 0.742213 0.257710 0.952105
Si Si6 0.909360 0.600974 0.881274
Si Si7 0.579248 0.140911 0.338644
Si Si8 0.214214 0.490543 0.476007
O O1 0.100600 0.806756 0.701569
O O2 0.316472 0.834385 0.575001
O O3 0.271977 0.612431 0.497096
O O4 0.000000 0.000000 0.500000
O O5 0.681316 0.432900 0.867626
O O6 0.413633 0.797159 0.792786
O O7 0.691128 0.710241 0.896779
O O8 0.428930 0.729882 0.014481
O O9 0.918357 0.763818 0.849738
O O10 0.195978 0.714040 0.927466
O O11 0.901547 0.060913 0.874318
O O12 0.028287 0.418634 0.786136
O O13 0.201530 0.421681 0.603552
O O14 0.989612 0.352509 0.575132
O O15 0.320269 0.086568 0.667068
O O16 0.000000 0.500000 0.000000
O O17 0.360327 0.294843 0.388604
#
# Coordination Sequence:
#
# PCOD8027549 Si02
#       8
#     2   2   2   2   2   2   2   2
#     4  12  25  44  70 104 137 181 236 286 344 409
#     4  11  24  43  68 103 139 178 231 284 344 414
#     4  11  24  45  72  99 137 185 230 286 351 410
#     4  11  25  45  70  97 140 182 224 284 350 409
#     4  10  24  45  71  99 137 181 230 286 348 414
#     4  12  25  44  70 100 140 182 228 288 348 412
#     4  12  25  43  72 100 136 184 232 279 347 412
#     4  11  24  47  69  97 139 180 227 291 340 407
#
# _framework density 21.355187000000001
#
# number of rings (size 3 to 8) (size 9 to 14) (size 15 to 20)
#    0.000    0.750    6.250    0.750    5.250    0.500 
#    2.250    0.000    0.000    0.000    0.000    0.000 
#    0.000    0.000    0.000    0.000    0.000    0.000 
#
# Total GULP energy -198407.138083 kJ/mol
# GULP energy per Si atom -12400.446130 kJ/mol
# Density = 2.130658 g / cm^3
# Si number density = 21.355187 Si / 1000 Ang^3
#
#
#
# Elastic Constant Matrix: (Units=GPa)
#
#
# Indices 1 2 3 4 5 6 
#
# 1 79.8660 18.1189 2.2374 -2.1233 -2.9152 4.9465
# 2 18.1189 116.1198 31.8850 -13.2240 12.3567 -2.7934
# 3 2.2374 31.8850 79.0512 -13.7576 2.7257 6.7049
# 4 -2.1233 -13.2240 -13.7576 32.5144 -4.4296 2.3192
# 5 -2.9152 12.3567 2.7257 -4.4296 29.3371 1.4662
# 6 4.9465 -2.7934 6.7049 2.3192 1.4662 30.9635
#
#
#
# Elastic Compliance Matrix: (Units=1/GPa)
#
#
# Indices 1 2 3 4 5 6 
#
# 1 0.013370 -0.002601 0.000949 0.000766 0.002590 -0.002756
# 2 -0.002601 0.010843 -0.004041 0.001778 -0.004299 0.002339
# 3 0.000949 -0.004041 0.015530 0.005491 0.001400 -0.004357
# 4 0.000766 0.001778 0.005491 0.034714 0.004256 -0.003953
# 5 0.002590 -0.004299 0.001400 0.004256 0.036825 -0.003167
# 6 -0.002756 0.002339 -0.004357 -0.003953 -0.003167 0.034337
#
#
# Mechanical properties :
#
#
# Convention : Reuss Voigt Hill
#
# Bulk Modulus (GPa) = 35.26542 42.16883 38.71713
# Shear Modulus (GPa) = 30.03748 33.41605 31.72677
#
# Velocity S-wave (km/s) = 3.75449 3.96001 3.85862
# Velocity P-wave (km/s) = 5.94513 6.37952 6.16615
#
# Compressibility (1/GPa) = 0.02835639
#
# Stress axis : x y z
#
# Youngs Moduli (GPa) = 74.79361 92.22163 64.39203
#
# Poissons Ratio (x) = 0.23990 -0.06108
# Poissons Ratio (y) = 0.19456 0.26019
# Poissons Ratio (z) = -0.07095 0.37265
#
# Static dielectric constant tensor:
#      x y z
#    x 4.134200 0.018960 -0.116900 
#    y 0.018960 3.867350 -0.090420 
#    z -0.116900 -0.090420 4.036680 
# 
# 
# High freq. dielectric constant tensor:
#      x y z
#    x 1.838740 0.000560 -0.004990 
#    y 0.000560 1.842390 -0.010790 
#    z -0.004990 -0.010790 1.840900 
# 
# From -- ./inp_files/381957.got.cif
#   From: 2010.06.25/outbox.cif.g09.slc.cpg/sg2_191_cif.got.tgz:381957.got - 2010.06.27 13:26:56.
