data_PCOD8027268
_publ_section_title
;
Structure prediction by ZEFSAII (Michael W. Deem and Ramdas Pophale) SiO2 
 PCOD8027268
Probable space group: P -1
;
_chemical_formula_sum "Si O2"
_cell_formula_units_Z 16
_cell_length_a 9.121457
_cell_length_b 8.736857
_cell_length_c 14.803295
_cell_angle_alpha 141.497231
_cell_angle_beta 76.561687
_cell_angle_gamma 102.010237
_cell_volume 713.657514
_symmetry_space_group_name_H-M "P -1"
_symmetry_group_IT_number 2
_symmetry_cell_setting 'triclinic'
loop_
_space_group_symop_operation_xyz
x,y,z
-x,-y,-z
loop_
_atom_site_type_symbol
_atom_site_label
_atom_site_fract_x
_atom_site_fract_y
_atom_site_fract_z
Si Si1 0.822070 0.995683 0.028170
Si Si2 0.643810 0.526852 0.808879
Si Si3 0.832479 0.456405 0.578071
Si Si4 0.106949 0.305158 0.852552
Si Si5 0.285315 0.901376 0.726890
Si Si6 0.672359 0.292159 0.039411
Si Si7 0.091875 0.146299 0.381349
Si Si8 0.380062 0.903646 0.244446
O O1 0.751290 0.075347 0.980335
O O2 0.762155 0.171731 0.197621
O O3 0.766964 0.712644 0.922641
O O4 0.000000 0.000000 0.000000
O O5 0.705244 0.433771 0.661572
O O6 0.492275 0.670812 0.879223
O O7 0.605965 0.300947 0.775868
O O8 0.873361 0.737061 0.670204
O O9 0.987497 0.338490 0.537607
O O10 0.771415 0.307842 0.430515
O O11 0.203247 0.157064 0.842311
O O12 0.227341 0.455926 0.842414
O O13 0.001269 0.113055 0.724040
O O14 0.000000 0.500000 0.000000
O O15 0.464719 0.938382 0.711548
O O16 0.664617 0.223726 0.902937
O O17 0.252164 0.093651 0.380180
#
# Coordination Sequence:
#
# PCOD8027268 Si02
#       8
#     2   2   2   2   2   2   2   2
#     4  12  28  42  72 108 140 181 244 291 346 414
#     4  12  26  46  70 104 145 185 234 288 350 421
#     4  10  26  49  70  98 145 191 230 286 346 422
#     4  11  21  40  72  99 135 182 227 284 348 403
#     4  11  25  47  69 104 142 186 237 283 349 420
#     4  12  24  44  70 106 145 180 230 299 352 401
#     4  10  24  44  71  96 139 186 232 280 355 406
#     4  12  24  44  73 103 140 186 233 292 349 412
#
# _framework density 22.419716999999999
#
# number of rings (size 3 to 8) (size 9 to 14) (size 15 to 20)
#    0.000    0.750    3.750    3.000   10.500    1.500 
#    0.000    0.000    0.000    0.000    0.000    0.000 
#    0.000    0.000    0.000    0.000    0.000    0.000 
#
# Total GULP energy -198371.947839 kJ/mol
# GULP energy per Si atom -12398.246740 kJ/mol
# Density = 2.236869 g / cm^3
# Si number density = 22.419717 Si / 1000 Ang^3
#
#
#
# Elastic Constant Matrix: (Units=GPa)
#
#
# Indices 1 2 3 4 5 6 
#
# 1 153.6766 26.0526 29.5064 3.5301 -18.2068 22.2928
# 2 26.0526 76.8642 27.6896 -10.5281 2.4079 20.0207
# 3 29.5064 27.6896 92.5215 -13.4790 0.6198 9.7916
# 4 3.5301 -10.5281 -13.4790 36.9333 -1.7253 -2.5144
# 5 -18.2068 2.4079 0.6198 -1.7253 30.8742 3.3980
# 6 22.2928 20.0207 9.7916 -2.5144 3.3980 45.6944
#
#
#
# Elastic Compliance Matrix: (Units=1/GPa)
#
#
# Indices 1 2 3 4 5 6 
#
# 1 0.008375 -0.001616 -0.002157 -0.002031 0.005372 -0.003427
# 2 -0.001616 0.016715 -0.003423 0.003229 -0.001400 -0.005520
# 3 -0.002157 -0.003423 0.013101 0.003965 -0.001051 0.000041
# 4 -0.002031 0.003229 0.003965 0.029666 0.000090 0.000352
# 5 0.005372 -0.001400 -0.001051 0.000090 0.036185 -0.004468
# 6 -0.003427 -0.005520 0.000041 0.000352 -0.004468 0.026318
#
#
# Mechanical properties :
#
#
# Convention : Reuss Voigt Hill
#
# Bulk Modulus (GPa) = 42.01654 54.39552 48.20603
# Shear Modulus (GPa) = 32.74758 38.68796 35.71777
#
# Velocity S-wave (km/s) = 3.82600 4.15857 3.99575
# Velocity P-wave (km/s) = 6.18864 6.88282 6.54494
#
# Compressibility (1/GPa) = 0.02380015
#
# Stress axis : x y z
#
# Youngs Moduli (GPa) = 119.39706 59.82823 76.33048
#
# Poissons Ratio (x) = 0.09666 0.16462
# Poissons Ratio (y) = 0.19290 0.26129
# Poissons Ratio (z) = 0.25749 0.20480
#
# Static dielectric constant tensor:
#      x y z
#    x 4.412480 0.225170 -0.191420 
#    y 0.225170 4.224240 0.247840 
#    z -0.191420 0.247840 3.959910 
# 
# 
# High freq. dielectric constant tensor:
#      x y z
#    x 1.903890 0.016930 -0.017320 
#    y 0.016930 1.886370 0.013690 
#    z -0.017320 0.013690 1.863060 
# 
# From -- ./inp_files/262636.got.cif
#   From: 2010.06.25/outbox.cif.g09.slc.cpg/sg2_132_cif.got.tgz:262636.got - 2010.06.27 13:26:56.
