data_PCOD8027343
_publ_section_title
;
Structure prediction by ZEFSAII (Michael W. Deem and Ramdas Pophale) SiO2 
 PCOD8027343
Probable space group: P -1
;
_chemical_formula_sum "Si O2"
_cell_formula_units_Z 16
_cell_length_a 21.843566
_cell_length_b 5.590069
_cell_length_c 18.411404
_cell_angle_alpha 75.556279
_cell_angle_beta 162.177401
_cell_angle_gamma 104.426076
_cell_volume 665.831335
_symmetry_space_group_name_H-M "P -1"
_symmetry_group_IT_number 2
_symmetry_cell_setting 'triclinic'
loop_
_space_group_symop_operation_xyz
x,y,z
-x,-y,-z
loop_
_atom_site_type_symbol
_atom_site_label
_atom_site_fract_x
_atom_site_fract_y
_atom_site_fract_z
Si Si1 0.240420 0.225619 0.710137
Si Si2 0.653931 0.698652 0.955413
Si Si3 0.844604 0.552702 0.043414
Si Si4 0.785361 0.125120 0.540911
Si Si5 0.045117 0.148497 0.112021
Si Si6 0.735079 0.499170 0.766695
Si Si7 0.327792 0.674917 0.877723
Si Si8 0.975101 0.098971 0.293200
O O1 0.214960 0.447018 0.722831
O O2 0.062657 0.253069 0.448990
O O3 0.217068 0.937242 0.733990
O O4 0.453632 0.271342 0.910755
O O5 0.444545 0.814618 0.728696
O O6 0.683712 0.681583 0.903423
O O7 0.659733 0.425585 0.018092
O O8 0.834471 0.870117 0.179428
O O9 0.073084 0.629361 0.315441
O O10 0.834235 0.260630 0.069823
O O11 0.802501 0.635905 0.907224
O O12 0.826404 0.977253 0.672040
O O13 0.835467 0.981661 0.534624
O O14 0.186097 0.379579 0.227956
O O15 0.832924 0.230118 0.899754
O O16 0.000000 0.000000 0.000000
O O17 0.500000 0.500000 0.500000
#
# Coordination Sequence:
#
# PCOD8027343 Si02
#       8
#     2   2   2   2   2   2   2   2
#     4  10  24  44  76 102 148 190 243 308 363 435
#     4  11  28  42  73 104 138 187 240 288 369 431
#     4  11  25  46  64 103 142 181 233 295 357 429
#     4  11  25  46  69  99 142 185 233 293 356 434
#     4  11  24  45  69  98 133 186 233 282 360 422
#     4  11  26  43  69 101 139 179 236 295 353 426
#     4  10  24  46  72 110 139 197 246 295 373 440
#     4  11  26  45  70 103 144 183 235 299 358 429
#
# _framework density 24.030107999999998
#
# number of rings (size 3 to 8) (size 9 to 14) (size 15 to 20)
#    0.000    1.250    2.500    0.750   14.000    2.500 
#    0.000    0.000    0.000    0.000    0.000    0.000 
#    0.000    0.000    0.000    0.000    0.000    0.000 
#
# Total GULP energy -198329.950663 kJ/mol
# GULP energy per Si atom -12395.621916 kJ/mol
# Density = 2.397541 g / cm^3
# Si number density = 24.030108 Si / 1000 Ang^3
#
#
#
# Elastic Constant Matrix: (Units=GPa)
#
#
# Indices 1 2 3 4 5 6 
#
# 1 97.2190 32.3849 49.3749 7.1174 3.6972 3.3560
# 2 32.3849 116.1578 30.1349 -3.5562 -2.2932 7.1985
# 3 49.3749 30.1349 114.6949 -8.8088 11.5916 -6.9040
# 4 7.1174 -3.5562 -8.8088 22.6558 -6.2479 -13.4675
# 5 3.6972 -2.2932 11.5916 -6.2479 42.8568 -8.6690
# 6 3.3560 7.1985 -6.9040 -13.4675 -8.6690 41.7283
#
#
#
# Elastic Compliance Matrix: (Units=1/GPa)
#
#
# Indices 1 2 3 4 5 6 
#
# 1 0.016302 -0.002635 -0.007487 -0.013426 -0.002902 -0.007031
# 2 -0.002635 0.009871 -0.001523 0.001512 0.001184 -0.001009
# 3 -0.007487 -0.001523 0.013637 0.011430 -0.000084 0.006793
# 4 -0.013426 0.001512 0.011430 0.075127 0.015191 0.030113
# 5 -0.002902 0.001184 -0.000084 0.015191 0.028059 0.010747
# 6 -0.007031 -0.001009 0.006793 0.030113 0.010747 0.037779
#
#
# Mechanical properties :
#
#
# Convention : Reuss Voigt Hill
#
# Bulk Modulus (GPa) = 60.53332 61.31788 60.92560
# Shear Modulus (GPa) = 23.85810 35.85998 29.85904
#
# Velocity S-wave (km/s) = 3.15436 3.86721 3.52883
# Velocity P-wave (km/s) = 6.20580 6.74633 6.48170
#
# Compressibility (1/GPa) = 0.01651983
#
# Stress axis : x y z
#
# Youngs Moduli (GPa) = 61.34171 101.30574 73.32961
#
# Poissons Ratio (x) = 0.26698 0.54898
# Poissons Ratio (y) = 0.16166 0.11170
# Poissons Ratio (z) = 0.45924 0.15432
#
# Static dielectric constant tensor:
#      x y z
#    x 4.443980 0.606950 -0.136840 
#    y 0.606950 4.099670 0.256320 
#    z -0.136840 0.256320 3.872460 
# 
# 
# High freq. dielectric constant tensor:
#      x y z
#    x 1.972130 0.007970 0.006840 
#    y 0.007970 1.960130 -0.002550 
#    z 0.006840 -0.002550 1.940720 
# 
# From -- ./inp_files/576775.got.cif
#   From: 2010.06.25/outbox.cif.g09.slc.cpg/sg2_289_cif.got.tgz:576775.got - 2010.06.27 13:26:56.
