data_PCOD8027037
_publ_section_title
;
Structure prediction by ZEFSAII (Michael W. Deem and Ramdas Pophale) SiO2 
 PCOD8027037
Probable space group: P -1
;
_chemical_formula_sum "Si O2"
_cell_formula_units_Z 14
_cell_length_a 13.342841
_cell_length_b 10.626788
_cell_length_c 16.491274
_cell_angle_alpha 137.374093
_cell_angle_beta 23.974376
_cell_angle_gamma 135.917204
_cell_volume 634.370360
_symmetry_space_group_name_H-M "P -1"
_symmetry_group_IT_number 2
_symmetry_cell_setting 'triclinic'
loop_
_space_group_symop_operation_xyz
x,y,z
-x,-y,-z
loop_
_atom_site_type_symbol
_atom_site_label
_atom_site_fract_x
_atom_site_fract_y
_atom_site_fract_z
Si Si1 0.240762 0.554959 0.902860
Si Si2 0.358742 0.146166 0.338151
Si Si3 0.967856 0.394087 0.742843
Si Si4 0.643925 0.298762 0.470034
Si Si5 0.621955 0.009464 0.584411
Si Si6 0.008410 0.696923 0.630793
Si Si7 0.469005 0.761775 0.101533
O O1 0.408660 0.725550 0.814250
O O2 0.393930 0.382341 0.716086
O O3 0.162461 0.617700 0.078986
O O4 0.000000 0.500000 0.000000
O O5 0.360854 0.154930 0.440015
O O6 0.098406 0.211878 0.537681
O O7 0.391138 0.934665 0.187516
O O8 0.759788 0.406632 0.831857
O O9 0.184146 0.577367 0.665543
O O10 0.556775 0.086311 0.400520
O O11 0.806860 0.288987 0.423843
O O12 0.894141 0.114297 0.403789
O O13 0.507143 0.179869 0.793553
O O14 0.000000 0.500000 0.500000
O O15 0.723822 0.700651 0.861168
#
# Coordination Sequence:
#
# PCOD8027037 Si02
#       7
#     2   2   2   2   2   2   2
#     4  11  23  39  69  97 134 167 207 261 322 386
#     4   9  23  41  63 101 126 167 214 257 324 371
#     4  11  22  42  68  94 137 165 210 266 311 387
#     4  11  25  42  66 100 127 171 213 259 322 376
#     4  10  24  44  65  93 133 164 215 269 310 380
#     4  12  26  45  67  92 129 169 221 264 317 379
#     4  10  25  42  66  94 125 174 212 261 320 374
#
# _framework density 22.069126000000001
#
# number of rings (size 3 to 8) (size 9 to 14) (size 15 to 20)
#    0.857    0.571    0.000    4.286    4.000    8.000 
#    0.000    0.000    0.000    0.000    0.000    0.000 
#    0.000    0.000    0.000    0.000    0.000    0.000 
#
# Total GULP energy -173472.713299 kJ/mol
# GULP energy per Si atom -12390.908093 kJ/mol
# Density = 2.201890 g / cm^3
# Si number density = 22.069126 Si / 1000 Ang^3
#
#
#
# Elastic Constant Matrix: (Units=GPa)
#
#
# Indices 1 2 3 4 5 6 
#
# 1 88.0211 23.8679 49.7244 7.5000 -9.6761 22.4921
# 2 23.8679 70.5983 29.3962 5.9654 -12.1157 17.5840
# 3 49.7244 29.3962 147.8814 3.8620 -30.6521 15.2405
# 4 7.5000 5.9654 3.8620 22.8725 5.7162 6.1527
# 5 -9.6761 -12.1157 -30.6521 5.7162 29.2716 -8.5906
# 6 22.4921 17.5840 15.2405 6.1527 -8.5906 40.9899
#
#
#
# Elastic Compliance Matrix: (Units=1/GPa)
#
#
# Indices 1 2 3 4 5 6 
#
# 1 0.016157 -0.002106 -0.004730 -0.001735 -0.002013 -0.006365
# 2 -0.002106 0.017617 -0.001272 -0.003680 0.004693 -0.004393
# 3 -0.004730 -0.001272 0.010590 -0.002895 0.010078 0.001750
# 4 -0.001735 -0.003680 -0.002895 0.052292 -0.017672 -0.007946
# 5 -0.002013 0.004693 0.010078 -0.017672 0.052058 0.008907
# 6 -0.006365 -0.004393 0.001750 -0.007946 0.008907 0.032182
#
#
# Mechanical properties :
#
#
# Convention : Reuss Voigt Hill
#
# Bulk Modulus (GPa) = 35.52856 56.94198 46.23527
# Shear Modulus (GPa) = 24.21367 32.19426 28.20396
#
# Velocity S-wave (km/s) = 3.31595 3.82356 3.57877
# Velocity P-wave (km/s) = 5.54927 6.73427 6.17029
#
# Compressibility (1/GPa) = 0.02814637
#
# Stress axis : x y z
#
# Youngs Moduli (GPa) = 61.89217 56.76356 94.43218
#
# Poissons Ratio (x) = 0.11957 0.44667
# Poissons Ratio (y) = 0.13038 0.12013
# Poissons Ratio (z) = 0.29275 0.07221
#
# Static dielectric constant tensor:
#      x y z
#    x 3.842570 0.068540 0.011070 
#    y 0.068540 4.048880 -0.167360 
#    z 0.011070 -0.167360 4.024190 
# 
# 
# High freq. dielectric constant tensor:
#      x y z
#    x 1.862600 0.005070 0.000060 
#    y 0.005070 1.875610 -0.011720 
#    z 0.000060 -0.011720 1.875700 
# 
# From -- ./inp_files/109390.got.cif
#   From: 2010.06.25/outbox.cif.g09.slc.cpg/sg2_55_cif.got.tgz:109390.got - 2010.06.27 13:26:56.
