data_PCOD8027891
_publ_section_title
;
Structure prediction by ZEFSAII (Michael W. Deem and Ramdas Pophale) SiO2 
 PCOD8027891
Probable space group: P -1
;
_chemical_formula_sum "Si O2"
_cell_formula_units_Z 14
_cell_length_a 6.316664
_cell_length_b 15.085085
_cell_length_c 10.195417
_cell_angle_alpha 135.793469
_cell_angle_beta 62.951515
_cell_angle_gamma 93.143336
_cell_volume 542.737085
_symmetry_space_group_name_H-M "P -1"
_symmetry_group_IT_number 2
_symmetry_cell_setting 'triclinic'
loop_
_space_group_symop_operation_xyz
x,y,z
-x,-y,-z
loop_
_atom_site_type_symbol
_atom_site_label
_atom_site_fract_x
_atom_site_fract_y
_atom_site_fract_z
Si Si1 0.117391 0.884754 0.736125
Si Si2 0.494978 0.415360 0.236037
Si Si3 0.843888 0.852796 0.548407
Si Si4 0.181337 0.690850 0.723545
Si Si5 0.640640 0.929724 0.215668
Si Si6 0.716533 0.604746 0.239775
Si Si7 0.434258 0.753498 0.218987
O O1 0.297797 0.742164 0.615927
O O2 0.889964 0.863798 0.701553
O O3 0.273096 0.941225 0.647714
O O4 0.000000 0.000000 0.000000
O O5 0.226732 0.530917 0.506116
O O6 0.670842 0.301520 0.175943
O O7 0.649727 0.507358 0.253924
O O8 0.436306 0.342625 0.048951
O O9 0.736803 0.736360 0.442322
O O10 0.118667 0.815183 0.353628
O O11 0.623431 0.006291 0.729911
O O12 0.872634 0.798460 0.935612
O O13 0.559106 0.869048 0.305179
O O14 0.510949 0.663689 0.236586
O O15 0.000000 0.500000 0.000000
#
# Coordination Sequence:
#
# PCOD8027891 Si02
#       7
#     2   2   2   2   2   2   2
#     4  10  25  49  73 105 148 186 245 299 360 433
#     4  11  24  48  75 105 151 190 245 305 359 427
#     4  12  26  46  78 105 148 194 236 309 364 425
#     4  10  24  48  72 103 146 193 245 302 353 431
#     4  11  26  46  73 108 146 189 247 290 370 432
#     4  12  26  48  76 111 145 190 244 297 373 436
#     4  12  27  45  75 111 147 190 241 305 364 432
#
# _framework density 25.795178
#
# number of rings (size 3 to 8) (size 9 to 14) (size 15 to 20)
#    0.000    0.857    1.429    4.286    6.000    5.143 
#   10.286    0.000    0.000    0.000    0.000    0.000 
#    0.000    0.000    0.000    0.000    0.000    0.000 
#
# Total GULP energy -173499.466372 kJ/mol
# GULP energy per Si atom -12392.819027 kJ/mol
# Density = 2.573647 g / cm^3
# Si number density = 25.795178 Si / 1000 Ang^3
#
#
#
# Elastic Constant Matrix: (Units=GPa)
#
#
# Indices 1 2 3 4 5 6 
#
# 1 121.0401 54.6586 38.5222 6.7929 0.1029 -17.2925
# 2 54.6586 164.9637 20.9797 -4.1584 3.6418 -17.0230
# 3 38.5222 20.9797 78.2460 14.7557 -15.6249 -22.2341
# 4 6.7929 -4.1584 14.7557 35.1799 -13.5216 -0.5077
# 5 0.1029 3.6418 -15.6249 -13.5216 52.6535 -3.4160
# 6 -17.2925 -17.0230 -22.2341 -0.5077 -3.4160 48.8666
#
#
#
# Elastic Compliance Matrix: (Units=1/GPa)
#
#
# Indices 1 2 3 4 5 6 
#
# 1 0.011281 -0.003077 -0.004591 -0.001152 -0.001421 0.000720
# 2 -0.003077 0.007309 -0.000408 0.001599 -0.000127 0.001279
# 3 -0.004591 -0.000408 0.019160 -0.005230 0.004849 0.007236
# 4 -0.001152 0.001599 -0.005230 0.033660 0.006893 -0.001399
# 5 -0.001421 -0.000127 0.004849 0.006893 0.022427 0.003299
# 6 0.000720 0.001279 0.007236 -0.001399 0.003299 0.024673
#
#
# Mechanical properties :
#
#
# Convention : Reuss Voigt Hill
#
# Bulk Modulus (GPa) = 46.30007 65.84120 56.07063
# Shear Modulus (GPa) = 35.24587 44.01263 39.62925
#
# Velocity S-wave (km/s) = 3.70046 4.13514 3.92382
# Velocity P-wave (km/s) = 6.02046 6.95552 6.50481
#
# Compressibility (1/GPa) = 0.02159824
#
# Stress axis : x y z
#
# Youngs Moduli (GPa) = 88.64346 136.82540 52.19083
#
# Poissons Ratio (x) = 0.42107 0.23959
# Poissons Ratio (y) = 0.27279 0.02129
# Poissons Ratio (z) = 0.40693 0.05582
#
# Static dielectric constant tensor:
#      x y z
#    x 4.434430 0.304550 -0.017700 
#    y 0.304550 6.184510 0.366920 
#    z -0.017700 0.366920 5.074700 
# 
# 
# High freq. dielectric constant tensor:
#      x y z
#    x 2.011510 -0.000290 -0.010890 
#    y -0.000290 2.047830 -0.000320 
#    z -0.010890 -0.000320 2.069610 
# 
# From -- ./inp_files/369135.got.cif
#   From: 2010.06.25/outbox.cif.g09.slc.cpg/sg2_185_cif.got.tgz:369135.got - 2010.06.27 13:26:56.
