data_PCOD8027769
_publ_section_title
;
Structure prediction by ZEFSAII (Michael W. Deem and Ramdas Pophale) SiO2 
 PCOD8027769
Probable space group: P -1
;
_chemical_formula_sum "Si O2"
_cell_formula_units_Z 16
_cell_length_a 14.504269
_cell_length_b 7.821024
_cell_length_c 10.899685
_cell_angle_alpha 45.576241
_cell_angle_beta 103.615427
_cell_angle_gamma 121.983667
_cell_volume 730.062342
_symmetry_space_group_name_H-M "P -1"
_symmetry_group_IT_number 2
_symmetry_cell_setting 'triclinic'
loop_
_space_group_symop_operation_xyz
x,y,z
-x,-y,-z
loop_
_atom_site_type_symbol
_atom_site_label
_atom_site_fract_x
_atom_site_fract_y
_atom_site_fract_z
Si Si1 0.188916 0.453193 0.517401
Si Si2 0.037330 0.072837 0.307586
Si Si3 0.394115 0.989462 0.916861
Si Si4 0.003166 0.238412 0.960618
Si Si5 0.616323 0.059562 0.353873
Si Si6 0.598531 0.447954 0.340463
Si Si7 0.147973 0.732464 0.584906
Si Si8 0.179004 0.648919 0.168186
O O1 0.303174 0.471559 0.573244
O O2 0.139518 0.517174 0.588249
O O3 0.216267 0.685342 0.303965
O O4 0.095263 0.134616 0.609670
O O5 0.086104 0.315853 0.301619
O O6 0.102870 0.910838 0.417618
O O7 0.061133 0.242948 0.102810
O O8 0.390258 0.941383 0.794259
O O9 0.403152 0.273200 0.824079
O O10 0.281823 0.730848 0.069605
O O11 0.500000 0.000000 0.000000
O O12 0.072919 0.546218 0.768056
O O13 0.876528 0.168287 0.973213
O O14 0.000000 0.000000 0.000000
O O15 0.614588 0.325513 0.278449
O O16 0.726562 0.065229 0.429185
O O17 0.515282 0.773396 0.518404
#
# Coordination Sequence:
#
# PCOD8027769 Si02
#       8
#     2   2   2   2   2   2   2   2
#     4  11  22  44  68  97 138 188 234 284 357 422
#     4  12  24  41  67 100 142 182 232 292 348 426
#     4  12  27  46  71 105 145 184 235 298 361 426
#     4  12  24  43  68  97 142 183 235 288 349 424
#     4  10  24  47  72 105 137 185 245 290 357 423
#     4  10  24  46  76  98 137 190 239 298 354 423
#     4  11  24  43  71 103 139 189 233 291 356 423
#     4  12  27  42  65 105 141 183 237 296 359 423
#
# _framework density 21.915938000000001
#
# number of rings (size 3 to 8) (size 9 to 14) (size 15 to 20)
#    0.000    0.750    2.500    4.500    5.250    0.500 
#    2.250    0.000    0.000    0.000    0.000    0.000 
#    0.000    0.000    0.000    0.000    0.000    0.000 
#
# Total GULP energy -198435.680202 kJ/mol
# GULP energy per Si atom -12402.230013 kJ/mol
# Density = 2.186606 g / cm^3
# Si number density = 21.915938 Si / 1000 Ang^3
#
#
#
# Elastic Constant Matrix: (Units=GPa)
#
#
# Indices 1 2 3 4 5 6 
#
# 1 121.8287 44.8052 46.8893 3.0289 10.4279 31.2946
# 2 44.8052 99.0975 40.6699 1.0420 0.1753 17.9408
# 3 46.8893 40.6699 116.6136 20.0755 6.8223 9.6084
# 4 3.0289 1.0420 20.0755 42.4768 -1.8964 -1.8689
# 5 10.4279 0.1753 6.8223 -1.8964 48.4608 3.3578
# 6 31.2946 17.9408 9.6084 -1.8689 3.3578 38.2461
#
#
#
# Elastic Compliance Matrix: (Units=1/GPa)
#
#
# Indices 1 2 3 4 5 6 
#
# 1 0.012817 -0.002924 -0.003428 0.000347 -0.001691 -0.008089
# 2 -0.002924 0.013421 -0.003592 0.001503 0.001356 -0.003046
# 3 -0.003428 -0.003592 0.012100 -0.005385 -0.001253 0.001297
# 4 0.000347 0.001503 -0.005385 0.026163 0.001598 0.001502
# 5 -0.001691 0.001356 -0.001253 0.001598 0.021284 -0.000728
# 6 -0.008089 -0.003046 0.001297 0.001502 -0.000728 0.034006
#
#
# Mechanical properties :
#
#
# Convention : Reuss Voigt Hill
#
# Bulk Modulus (GPa) = 54.20303 66.91875 60.56089
# Shear Modulus (GPa) = 34.28692 39.51510 36.90101
#
# Velocity S-wave (km/s) = 3.95963 4.25082 4.10781
# Velocity P-wave (km/s) = 6.75950 7.39548 7.08463
#
# Compressibility (1/GPa) = 0.01844915
#
# Stress axis : x y z
#
# Youngs Moduli (GPa) = 78.02081 74.51226 82.64521
#
# Poissons Ratio (x) = 0.21790 0.28331
# Poissons Ratio (y) = 0.22816 0.29685
# Poissons Ratio (z) = 0.26745 0.26764
#
# Static dielectric constant tensor:
#      x y z
#    x 4.093140 0.120900 0.012130 
#    y 0.120900 4.741220 0.871210 
#    z 0.012130 0.871210 4.929320 
# 
# 
# High freq. dielectric constant tensor:
#      x y z
#    x 1.873260 0.003750 -0.001880 
#    y 0.003750 1.871060 0.008740 
#    z -0.001880 0.008740 1.867600 
# 
# From -- ./inp_files/390543.got.cif
#   From: 2010.06.25/outbox.cif.g09.slc.cpg/sg2_196_cif.got.tgz:390543.got - 2010.06.27 13:26:56.
