data_PCOD8027965
_publ_section_title
;
Structure prediction by ZEFSAII (Michael W. Deem and Ramdas Pophale) SiO2 
 PCOD8027965
Probable space group: P -1
;
_chemical_formula_sum "Si O2"
_cell_formula_units_Z 16
_cell_length_a 5.221082
_cell_length_b 15.284991
_cell_length_c 16.089300
_cell_angle_alpha 38.287935
_cell_angle_beta 117.811148
_cell_angle_gamma 114.049295
_cell_volume 701.680175
_symmetry_space_group_name_H-M "P -1"
_symmetry_group_IT_number 2
_symmetry_cell_setting 'triclinic'
loop_
_space_group_symop_operation_xyz
x,y,z
-x,-y,-z
loop_
_atom_site_type_symbol
_atom_site_label
_atom_site_fract_x
_atom_site_fract_y
_atom_site_fract_z
Si Si1 0.681656 0.120269 0.215818
Si Si2 0.046166 0.654736 0.613116
Si Si3 0.745759 0.171498 0.863311
Si Si4 0.420393 0.169458 0.524176
Si Si5 0.597530 0.873429 0.999210
Si Si6 0.740307 0.887700 0.625456
Si Si7 0.389278 0.642503 0.836904
Si Si8 0.179249 0.542440 0.414084
O O1 0.703017 0.254081 0.180800
O O2 0.997485 0.056092 0.316827
O O3 0.472968 0.979448 0.312126
O O4 0.603395 0.174746 0.073021
O O5 0.296501 0.752966 0.532758
O O6 0.136465 0.606452 0.756073
O O7 0.743579 0.732815 0.509443
O O8 0.984953 0.516472 0.649746
O O9 0.545501 0.215942 0.877727
O O10 0.785328 0.288872 0.711280
O O11 0.071582 0.146437 0.960361
O O12 0.574126 0.037865 0.893677
O O13 0.173470 0.133062 0.442493
O O14 0.644650 0.731221 0.761729
O O15 0.500000 0.000000 0.500000
O O16 0.500000 0.500000 0.000000
O O17 0.500000 0.500000 0.500000
O O18 0.000000 0.500000 0.500000
#
# Coordination Sequence:
#
# PCOD8027965 Si02
#       8
#     2   2   2   2   2   2   2   2
#     4  12  24  40  73 104 133 186 244 284 352 432
#     4  11  26  45  70 101 144 183 232 295 361 414
#     4  10  24  51  64 102 139 178 234 293 366 411
#     4  11  23  43  68 101 138 182 231 292 343 416
#     4  10  25  42  76  97 137 183 230 299 346 421
#     4  11  22  43  66  97 144 187 236 291 351 417
#     4  11  26  44  65 104 146 189 230 287 356 444
#     4  12  27  47  75 104 138 189 238 298 361 432
#
# _framework density 22.802409999999998
#
# number of rings (size 3 to 8) (size 9 to 14) (size 15 to 20)
#    0.000    1.000    2.500    3.375    7.000    0.500 
#    2.250    0.000    0.000    0.000    0.000    0.000 
#    0.000    0.000    0.000    0.000    0.000    0.000 
#
# Total GULP energy -198272.226435 kJ/mol
# GULP energy per Si atom -12392.014152 kJ/mol
# Density = 2.275051 g / cm^3
# Si number density = 22.802410 Si / 1000 Ang^3
#
#
#
# Elastic Constant Matrix: (Units=GPa)
#
#
# Indices 1 2 3 4 5 6 
#
# 1 105.5803 25.2070 26.0840 4.7237 -5.0440 -10.6969
# 2 25.2070 96.7760 41.3614 15.5722 -1.1841 -9.3718
# 3 26.0840 41.3614 124.4790 -12.0804 -11.5345 -1.6064
# 4 4.7237 15.5722 -12.0804 44.0531 3.3283 -0.7158
# 5 -5.0440 -1.1841 -11.5345 3.3283 36.5615 1.9162
# 6 -10.6969 -9.3718 -1.6064 -0.7158 1.9162 27.4603
#
#
#
# Elastic Compliance Matrix: (Units=1/GPa)
#
#
# Indices 1 2 3 4 5 6 
#
# 1 0.010699 -0.001534 -0.001718 -0.001081 0.000801 0.003460
# 2 -0.001534 0.014235 -0.005043 -0.006113 -0.000988 0.003875
# 3 -0.001718 -0.005043 0.010747 0.004683 0.002659 -0.001825
# 4 -0.001081 -0.006113 0.004683 0.026327 -0.001189 -0.001464
# 5 0.000801 -0.000988 0.002659 -0.001189 0.028476 -0.001888
# 6 0.003460 0.003875 -0.001825 -0.001464 -0.001888 0.039073
#
#
# Mechanical properties :
#
#
# Convention : Reuss Voigt Hill
#
# Bulk Modulus (GPa) = 52.38292 56.90446 54.64369
# Shear Modulus (GPa) = 32.78448 37.22718 35.00583
#
# Velocity S-wave (km/s) = 3.79590 4.04493 3.92239
# Velocity P-wave (km/s) = 6.49879 6.84287 6.67305
#
# Compressibility (1/GPa) = 0.01909019
#
# Stress axis : x y z
#
# Youngs Moduli (GPa) = 93.46400 70.24985 93.05167
#
# Poissons Ratio (x) = 0.10774 0.15990
# Poissons Ratio (y) = 0.14334 0.46929
# Poissons Ratio (z) = 0.16060 0.35429
#
# Static dielectric constant tensor:
#      x y z
#    x 4.166260 -0.051080 -0.093480 
#    y -0.051080 5.196910 -0.395390 
#    z -0.093480 -0.395390 4.281240 
# 
# 
# High freq. dielectric constant tensor:
#      x y z
#    x 1.905080 0.000310 -0.006800 
#    y 0.000310 1.901630 0.002080 
#    z -0.006800 0.002080 1.894060 
# 
# From -- ./inp_files/135643.got.cif
#   From: 2010.06.25/outbox.cif.g09.slc.cpg/sg2_68_cif.got.tgz:135643.got - 2010.06.27 13:26:56.
