data_PCOD8027155
_publ_section_title
;
Structure prediction by ZEFSAII (Michael W. Deem and Ramdas Pophale) SiO2 
 PCOD8027155
Probable space group: P -1
;
_chemical_formula_sum "Si O2"
_cell_formula_units_Z 14
_cell_length_a 8.138326
_cell_length_b 6.457801
_cell_length_c 14.007095
_cell_angle_alpha 67.917087
_cell_angle_beta 69.843615
_cell_angle_gamma 61.852632
_cell_volume 588.742352
_symmetry_space_group_name_H-M "P -1"
_symmetry_group_IT_number 2
_symmetry_cell_setting 'triclinic'
loop_
_space_group_symop_operation_xyz
x,y,z
-x,-y,-z
loop_
_atom_site_type_symbol
_atom_site_label
_atom_site_fract_x
_atom_site_fract_y
_atom_site_fract_z
Si Si1 0.435384 0.282779 0.566885
Si Si2 0.961558 0.814867 0.665431
Si Si3 0.619555 0.649060 0.064399
Si Si4 0.733584 0.968083 0.855938
Si Si5 0.197765 0.116168 0.514786
Si Si6 0.212861 0.309966 0.781327
Si Si7 0.102417 0.888461 0.901781
O O1 0.500000 0.500000 0.500000
O O2 0.241932 0.304573 0.543487
O O3 0.395787 0.286217 0.686781
O O4 0.602920 0.037672 0.547167
O O5 0.763169 0.971248 0.734231
O O6 0.936799 0.755224 0.570187
O O7 0.042024 0.561462 0.748485
O O8 0.105737 0.954161 0.618537
O O9 0.740510 0.708473 0.112795
O O10 0.708125 0.359690 0.078068
O O11 0.397294 0.759844 0.125235
O O12 0.632019 0.787927 0.940472
O O13 0.948010 0.848523 0.873307
O O14 0.163058 0.082662 0.802357
O O15 0.000000 0.000000 0.000000
#
# Coordination Sequence:
#
# PCOD8027155 Si02
#       7
#     2   2   2   2   2   2   2
#     4  11  23  44  67  99 137 185 237 295 353 415
#     4  11  22  45  70 101 141 188 238 291 356 421
#     4  11  25  45  70 102 145 178 233 290 349 428
#     4  11  23  46  71 101 141 187 230 292 351 424
#     4  10  24  44  68  99 139 183 242 295 348 420
#     4  12  24  43  70 101 141 188 227 293 357 417
#     4  12  24  44  69 101 141 186 231 285 352 416
#
# _framework density 23.779502999999998
#
# number of rings (size 3 to 8) (size 9 to 14) (size 15 to 20)
#    0.000    0.857    4.286    3.000    0.000    1.143 
#   10.286    0.000    0.000    0.000    0.000    0.000 
#    0.000    0.000    0.000    0.000    0.000    0.000 
#
# Total GULP energy -173518.327766 kJ/mol
# GULP energy per Si atom -12394.166269 kJ/mol
# Density = 2.372538 g / cm^3
# Si number density = 23.779503 Si / 1000 Ang^3
#
#
#
# Elastic Constant Matrix: (Units=GPa)
#
#
# Indices 1 2 3 4 5 6 
#
# 1 71.9232 33.4269 16.3026 -9.3405 -7.1508 7.4166
# 2 33.4269 144.2883 46.6764 -3.2192 -17.3183 -15.8018
# 3 16.3026 46.6764 100.7408 3.8764 -24.4717 -0.5047
# 4 -9.3405 -3.2192 3.8764 35.7253 -1.7897 -7.8867
# 5 -7.1508 -17.3183 -24.4717 -1.7897 38.6645 4.6262
# 6 7.4166 -15.8018 -0.5047 -7.8867 4.6262 45.3314
#
#
#
# Elastic Compliance Matrix: (Units=1/GPa)
#
#
# Indices 1 2 3 4 5 6 
#
# 1 0.016804 -0.003793 -0.000738 0.003404 0.001535 -0.003644
# 2 -0.003793 0.009555 -0.003632 0.001196 0.000852 0.004032
# 3 -0.000738 -0.003632 0.013479 -0.002092 0.006918 -0.002065
# 4 0.003404 0.001196 -0.002092 0.030364 0.000642 0.005054
# 5 0.001535 0.000852 0.006918 0.000642 0.031292 -0.002959
# 6 -0.003644 0.004032 -0.002065 0.005054 -0.002959 0.025220
#
#
# Mechanical properties :
#
#
# Convention : Reuss Voigt Hill
#
# Bulk Modulus (GPa) = 42.53130 56.64045 49.58587
# Shear Modulus (GPa) = 33.13928 38.64733 35.89331
#
# Velocity S-wave (km/s) = 3.73715 4.03580 3.88934
# Velocity P-wave (km/s) = 6.04535 6.75186 6.40835
#
# Compressibility (1/GPa) = 0.02351210
#
# Stress axis : x y z
#
# Youngs Moduli (GPa) = 59.50792 104.65967 74.18679
#
# Poissons Ratio (x) = 0.39698 0.05477
# Poissons Ratio (y) = 0.22572 0.26944
# Poissons Ratio (z) = 0.04393 0.38012
#
# Static dielectric constant tensor:
#      x y z
#    x 4.178070 -0.014910 0.611520 
#    y -0.014910 4.429170 0.373000 
#    z 0.611520 0.373000 3.830920 
# 
# 
# High freq. dielectric constant tensor:
#      x y z
#    x 1.931730 -0.012090 -0.003590 
#    y -0.012090 1.940660 0.015600 
#    z -0.003590 0.015600 1.957020 
# 
# From -- ./inp_files/40187.got.cif
#   From: 2010.06.25/outbox.cif.g09.slc.cpg/sg2_21_cif.got.tgz:40187.got - 2010.06.27 13:26:56.
