data_PCOD8027925
_publ_section_title
;
Structure prediction by ZEFSAII (Michael W. Deem and Ramdas Pophale) SiO2 
 PCOD8027925
Probable space group: P -1
;
_chemical_formula_sum "Si O2"
_cell_formula_units_Z 16
_cell_length_a 16.152874
_cell_length_b 6.642015
_cell_length_c 8.607428
_cell_angle_alpha 123.622914
_cell_angle_beta 117.692292
_cell_angle_gamma 72.506085
_cell_volume 679.718757
_symmetry_space_group_name_H-M "P -1"
_symmetry_group_IT_number 2
_symmetry_cell_setting 'triclinic'
loop_
_space_group_symop_operation_xyz
x,y,z
-x,-y,-z
loop_
_atom_site_type_symbol
_atom_site_label
_atom_site_fract_x
_atom_site_fract_y
_atom_site_fract_z
Si Si1 0.597969 0.850546 0.538003
Si Si2 0.901765 0.378585 0.371514
Si Si3 0.798220 0.734152 0.219797
Si Si4 0.127266 0.593122 0.282693
Si Si5 0.061125 0.163716 0.866926
Si Si6 0.624031 0.840617 0.915571
Si Si7 0.708629 0.137782 0.527955
Si Si8 0.428192 0.686094 0.764911
O O1 0.625880 0.797778 0.716163
O O2 0.592750 0.591941 0.334049
O O3 0.500000 0.000000 0.500000
O O4 0.680644 0.000242 0.600648
O O5 0.818250 0.505195 0.251127
O O6 0.862929 0.371745 0.509586
O O7 0.000000 0.500000 0.500000
O O8 0.916928 0.115418 0.195686
O O9 0.894996 0.769355 0.231194
O O10 0.772482 0.965064 0.400034
O O11 0.715294 0.702578 0.010482
O O12 0.224421 0.639392 0.295883
O O13 0.049493 0.780603 0.221162
O O14 0.102496 0.317897 0.109171
O O15 0.539084 0.710848 0.866978
O O16 0.617412 0.131115 0.066623
O O17 0.611871 0.232349 0.403405
#
# Coordination Sequence:
#
# PCOD8027925 Si02
#       8
#     2   2   2   2   2   2   2   2
#     4  12  26  46  74 107 137 195 242 288 366 423
#     4  12  24  47  77 103 144 194 234 294 360 422
#     4  11  25  46  71 109 141 189 238 289 362 421
#     4  11  25  48  73 104 150 184 236 303 345 429
#     4  11  25  49  70 108 145 184 238 290 362 420
#     4  10  24  49  71 103 151 180 235 308 348 426
#     4  11  25  47  72 105 144 189 241 291 354 427
#     4  10  24  49  70 102 146 186 234 298 359 422
#
# _framework density 23.539145999999999
#
# number of rings (size 3 to 8) (size 9 to 14) (size 15 to 20)
#    0.000    1.000    3.750    1.500    3.500    1.000 
#    9.000    0.000    0.000    0.000    0.000    0.000 
#    0.000    0.000    0.000    0.000    0.000    0.000 
#
# Total GULP energy -198447.107708 kJ/mol
# GULP energy per Si atom -12402.944232 kJ/mol
# Density = 2.348557 g / cm^3
# Si number density = 23.539146 Si / 1000 Ang^3
#
#
#
# Elastic Constant Matrix: (Units=GPa)
#
#
# Indices 1 2 3 4 5 6 
#
# 1 97.8277 27.9043 36.5399 3.9481 13.1414 13.2325
# 2 27.9043 134.0456 60.6148 16.6606 14.0592 -9.7439
# 3 36.5399 60.6148 106.2715 4.6703 11.0178 -10.9524
# 4 3.9481 16.6606 4.6703 36.0705 -4.6445 -0.0366
# 5 13.1414 14.0592 11.0178 -4.6445 34.6718 1.6663
# 6 13.2325 -9.7439 -10.9524 -0.0366 1.6663 32.1966
#
#
#
# Elastic Compliance Matrix: (Units=1/GPa)
#
#
# Indices 1 2 3 4 5 6 
#
# 1 0.013612 -0.000847 -0.004579 -0.000917 -0.003135 -0.007247
# 2 -0.000847 0.011111 -0.005286 -0.004770 -0.003243 0.002075
# 3 -0.004579 -0.005286 0.014595 0.000944 -0.000887 0.005294
# 4 -0.000917 -0.004770 0.000944 0.030695 0.006143 -0.001029
# 5 -0.003135 -0.003243 -0.000887 0.006143 0.032530 -0.001671
# 6 -0.007247 0.002075 0.005294 -0.001029 -0.001671 0.036552
#
#
# Mechanical properties :
#
#
# Convention : Reuss Voigt Hill
#
# Bulk Modulus (GPa) = 55.88437 65.36253 60.62345
# Shear Modulus (GPa) = 30.03273 34.79352 32.41312
#
# Velocity S-wave (km/s) = 3.57580 3.84879 3.71480
# Velocity P-wave (km/s) = 6.39070 6.89774 6.64905
#
# Compressibility (1/GPa) = 0.01789409
#
# Stress axis : x y z
#
# Youngs Moduli (GPa) = 73.46237 90.00208 68.51453
#
# Poissons Ratio (x) = 0.07625 0.31371
# Poissons Ratio (y) = 0.06224 0.36219
# Poissons Ratio (z) = 0.33637 0.47578
#
# Static dielectric constant tensor:
#      x y z
#    x 4.252120 -0.167330 0.044650 
#    y -0.167330 4.246240 0.130100 
#    z 0.044650 0.130100 4.317460 
# 
# 
# High freq. dielectric constant tensor:
#      x y z
#    x 1.938690 -0.014630 0.003970 
#    y -0.014630 1.930880 0.010140 
#    z 0.003970 0.010140 1.933910 
# 
# From -- ./inp_files/324158.got.cif
#   From: 2010.06.25/outbox.cif.g09.slc.cpg/sg2_163_cif.got.tgz:324158.got - 2010.06.27 13:26:56.
