data_PCOD8027436
_publ_section_title
;
Structure prediction by ZEFSAII (Michael W. Deem and Ramdas Pophale) SiO2 
 PCOD8027436
Probable space group: P -1
;
_chemical_formula_sum "Si O2"
_cell_formula_units_Z 16
_cell_length_a 12.540385
_cell_length_b 15.217881
_cell_length_c 9.203097
_cell_angle_alpha 87.184815
_cell_angle_beta 101.331006
_cell_angle_gamma 152.664768
_cell_volume 759.466077
_symmetry_space_group_name_H-M "P -1"
_symmetry_group_IT_number 2
_symmetry_cell_setting 'triclinic'
loop_
_space_group_symop_operation_xyz
x,y,z
-x,-y,-z
loop_
_atom_site_type_symbol
_atom_site_label
_atom_site_fract_x
_atom_site_fract_y
_atom_site_fract_z
Si Si1 0.939730 0.180224 0.303151
Si Si2 0.516665 0.009081 0.174446
Si Si3 0.625127 0.427113 0.424903
Si Si4 0.726327 0.651809 0.215240
Si Si5 0.974898 0.570886 0.079284
Si Si6 0.148090 0.028723 0.483100
Si Si7 0.748556 0.585731 0.915258
Si Si8 0.781680 0.366296 0.344493
O O1 0.694610 0.057968 0.242497
O O2 0.827617 0.014732 0.366145
O O3 0.137600 0.377446 0.433054
O O4 0.062084 0.244913 0.174301
O O5 0.614294 0.162589 0.277231
O O6 0.242492 0.799534 0.176118
O O7 0.500000 0.000000 0.000000
O O8 0.601199 0.479281 0.282317
O O9 0.621371 0.324063 0.380753
O O10 0.392942 0.256748 0.481071
O O11 0.537560 0.598377 0.185697
O O12 0.997010 0.869848 0.329282
O O13 0.790338 0.671549 0.066035
O O14 0.863544 0.468685 0.210272
O O15 0.000000 0.500000 0.000000
O O16 0.805383 0.522282 0.958320
O O17 0.000000 0.000000 0.500000
O O18 0.000000 0.500000 0.500000
#
# Coordination Sequence:
#
# PCOD8027436 Si02
#       8
#     2   2   2   2   2   2   2   2
#     4  11  24  43  69  98 137 176 224 286 339 409
#     4  12  25  43  67 102 135 176 228 275 343 412
#     4  11  24  45  68  99 135 178 228 281 343 402
#     4  10  24  45  68  97 135 178 227 286 341 402
#     4  12  26  45  71 101 141 183 226 285 347 413
#     4  11  25  44  68  99 130 180 233 276 336 412
#     4  11  22  44  70  96 137 178 221 286 349 397
#     4  12  26  45  69 101 137 182 228 285 342 407
#
# _framework density 21.067430999999999
#
# number of rings (size 3 to 8) (size 9 to 14) (size 15 to 20)
#    0.000    0.750    5.000    1.500    3.500    3.500 
#    0.000    6.875    0.000    0.000    0.000    0.000 
#    0.000    0.000    0.000    0.000    0.000    0.000 
#
# Total GULP energy -198250.236828 kJ/mol
# GULP energy per Si atom -12390.639802 kJ/mol
# Density = 2.101948 g / cm^3
# Si number density = 21.067431 Si / 1000 Ang^3
#
#
#
# Elastic Constant Matrix: (Units=GPa)
#
#
# Indices 1 2 3 4 5 6 
#
# 1 139.4744 16.2855 37.8314 12.3805 13.1627 4.5178
# 2 16.2855 77.6091 26.4015 5.9166 10.7170 -4.9142
# 3 37.8314 26.4015 100.3675 -8.3686 10.8923 -7.5220
# 4 12.3805 5.9166 -8.3686 27.4466 4.6707 -8.4616
# 5 13.1627 10.7170 10.8923 4.6707 41.4895 2.5851
# 6 4.5178 -4.9142 -7.5220 -8.4616 2.5851 29.5139
#
#
#
# Elastic Compliance Matrix: (Units=1/GPa)
#
#
# Indices 1 2 3 4 5 6 
#
# 1 0.009113 -0.000160 -0.004180 -0.006549 -0.000747 -0.004299
# 2 -0.000160 0.014886 -0.003851 -0.003693 -0.002409 0.000674
# 3 -0.004180 -0.003851 0.014156 0.009557 -0.002883 0.006599
# 4 -0.006549 -0.003693 0.009557 0.049563 -0.006152 0.017572
# 5 -0.000747 -0.002409 -0.002883 -0.006152 0.026731 -0.005127
# 6 -0.004299 0.000674 0.006599 0.017572 -0.005127 0.041821
#
#
# Mechanical properties :
#
#
# Convention : Reuss Voigt Hill
#
# Bulk Modulus (GPa) = 45.92963 53.16532 49.54748
# Shear Modulus (GPa) = 27.79148 35.48549 31.63849
#
# Velocity S-wave (km/s) = 3.63598 4.10857 3.87947
# Velocity P-wave (km/s) = 6.28297 6.91359 6.60581
#
# Compressibility (1/GPa) = 0.02177244
#
# Stress axis : x y z
#
# Youngs Moduli (GPa) = 109.72802 67.17823 70.63951
#
# Poissons Ratio (x) = 0.01075 0.29529
# Poissons Ratio (y) = 0.01756 0.27206
# Poissons Ratio (z) = 0.45868 0.25872
#
# Static dielectric constant tensor:
#      x y z
#    x 3.944890 0.332880 0.219140 
#    y 0.332880 2.507060 -0.286030 
#    z 0.219140 -0.286030 3.817750 
# 
# 
# High freq. dielectric constant tensor:
#      x y z
#    x 1.846270 0.005750 0.002440 
#    y 0.005750 1.824320 -0.006310 
#    z 0.002440 -0.006310 1.841610 
# 
# From -- ./inp_files/201792.got.cif
#   From: 2010.06.25/outbox.cif.g09.slc.cpg/sg2_101_cif.got.tgz:201792.got - 2010.06.27 13:26:56.
