data_PCOD8027675
_publ_section_title
;
Structure prediction by ZEFSAII (Michael W. Deem and Ramdas Pophale) SiO2 
 PCOD8027675
Probable space group: P -1
;
_chemical_formula_sum "Si O2"
_cell_formula_units_Z 16
_cell_length_a 8.440567
_cell_length_b 8.912774
_cell_length_c 14.702639
_cell_angle_alpha 106.221146
_cell_angle_beta 87.503127
_cell_angle_gamma 135.115877
_cell_volume 729.742538
_symmetry_space_group_name_H-M "P -1"
_symmetry_group_IT_number 2
_symmetry_cell_setting 'triclinic'
loop_
_space_group_symop_operation_xyz
x,y,z
-x,-y,-z
loop_
_atom_site_type_symbol
_atom_site_label
_atom_site_fract_x
_atom_site_fract_y
_atom_site_fract_z
Si Si1 0.603800 0.060374 0.803126
Si Si2 0.184347 0.922315 0.484223
Si Si3 0.245324 0.272125 0.437412
Si Si4 0.196576 0.328886 0.242007
Si Si5 0.759915 0.045242 0.095997
Si Si6 0.555152 0.743806 0.880308
Si Si7 0.604073 0.199678 0.645039
Si Si8 0.083573 0.514666 0.902012
O O1 0.503731 0.015514 0.696518
O O2 0.876169 0.276913 0.818432
O O3 0.493851 0.115861 0.880598
O O4 0.554260 0.854877 0.810384
O O5 0.228697 0.780451 0.421341
O O6 0.936339 0.745170 0.509480
O O7 0.189369 0.052439 0.425131
O O8 0.385681 0.112246 0.582113
O O9 0.500000 0.500000 0.500000
O O10 0.217355 0.270389 0.330653
O O11 0.379094 0.380662 0.176947
O O12 0.247534 0.549895 0.277499
O O13 0.942484 0.102310 0.171577
O O14 0.852546 0.283721 0.117135
O O15 0.738251 0.933533 0.983933
O O16 0.303514 0.556213 0.901065
O O17 0.000000 0.500000 0.000000
#
# Coordination Sequence:
#
# PCOD8027675 Si02
#       8
#     2   2   2   2   2   2   2   2
#     4  11  21  41  67  90 125 169 217 258 311 374
#     4  10  24  46  70  89 129 168 207 257 334 377
#     4  11  23  46  70  96 128 163 207 266 322 385
#     4  12  25  42  62 100 131 162 215 265 312 375
#     4  11  22  41  64  90 131 172 213 259 310 370
#     4  11  24  40  64  92 131 174 210 259 316 366
#     4  11  23  44  66  97 125 168 212 264 312 385
#     4  11  19  40  66  89 121 171 220 255 306 373
#
# _framework density 21.925542
#
# number of rings (size 3 to 8) (size 9 to 14) (size 15 to 20)
#    0.000    1.000    5.000    2.625    0.000    1.500 
#    6.750    1.250    0.000    0.000    0.000    0.000 
#    0.000    0.000    0.000    0.000    0.000    0.000 
#
# Total GULP energy -198406.023294 kJ/mol
# GULP energy per Si atom -12400.376456 kJ/mol
# Density = 2.187564 g / cm^3
# Si number density = 21.925542 Si / 1000 Ang^3
#
#
#
# Elastic Constant Matrix: (Units=GPa)
#
#
# Indices 1 2 3 4 5 6 
#
# 1 130.6709 47.0454 58.3493 6.4033 -7.5719 25.4237
# 2 47.0454 74.2756 34.3900 1.1435 -4.7476 26.0212
# 3 58.3493 34.3900 99.0986 -5.8435 2.6112 1.9830
# 4 6.4033 1.1435 -5.8435 23.4992 -7.2570 -2.9288
# 5 -7.5719 -4.7476 2.6112 -7.2570 45.3963 -5.6357
# 6 25.4237 26.0212 1.9830 -2.9288 -5.6357 32.8292
#
#
#
# Elastic Compliance Matrix: (Units=1/GPa)
#
#
# Indices 1 2 3 4 5 6 
#
# 1 0.013992 -0.001782 -0.007837 -0.006753 0.000340 -0.009494
# 2 -0.001782 0.024314 -0.007307 -0.004855 -0.000338 -0.017941
# 3 -0.007837 -0.007307 0.017502 0.008166 -0.000349 0.011472
# 4 -0.006753 -0.004855 0.008166 0.050882 0.007826 0.014467
# 5 0.000340 -0.000338 -0.000349 0.007826 0.023920 0.004830
# 6 -0.009494 -0.017941 0.011472 0.014467 0.004830 0.053461
#
#
# Mechanical properties :
#
#
# Convention : Reuss Voigt Hill
#
# Bulk Modulus (GPa) = 45.54534 64.84604 55.19569
# Shear Modulus (GPa) = 22.19852 31.29563 26.74708
#
# Velocity S-wave (km/s) = 3.18535 3.78214 3.49650
# Velocity P-wave (km/s) = 5.86059 6.97944 6.44434
#
# Compressibility (1/GPa) = 0.02195614
#
# Stress axis : x y z
#
# Youngs Moduli (GPa) = 71.47121 41.12907 57.13566
#
# Poissons Ratio (x) = 0.07329 0.44778
# Poissons Ratio (y) = 0.12735 0.41748
# Poissons Ratio (z) = 0.56013 0.30052
#
# Static dielectric constant tensor:
#      x y z
#    x 4.164880 0.127150 0.151010 
#    y 0.127150 3.455060 -0.158250 
#    z 0.151010 -0.158250 4.021390 
# 
# 
# High freq. dielectric constant tensor:
#      x y z
#    x 1.871630 0.011700 0.007810 
#    y 0.011700 1.846530 -0.013810 
#    z 0.007810 -0.013810 1.867520 
# 
# From -- ./inp_files/52503.got.cif
#   From: 2010.06.25/outbox.cif.g09.slc.cpg/sg2_27_cif.got.tgz:52503.got - 2010.06.27 13:26:56.
