data_PCOD8027313
_publ_section_title
;
Structure prediction by ZEFSAII (Michael W. Deem and Ramdas Pophale) SiO2 
 PCOD8027313
Probable space group: P -1
;
_chemical_formula_sum "Si O2"
_cell_formula_units_Z 14
_cell_length_a 9.235498
_cell_length_b 9.157703
_cell_length_c 19.318262
_cell_angle_alpha 152.009206
_cell_angle_beta 53.954055
_cell_angle_gamma 114.340924
_cell_volume 594.640834
_symmetry_space_group_name_H-M "P -1"
_symmetry_group_IT_number 2
_symmetry_cell_setting 'triclinic'
loop_
_space_group_symop_operation_xyz
x,y,z
-x,-y,-z
loop_
_atom_site_type_symbol
_atom_site_label
_atom_site_fract_x
_atom_site_fract_y
_atom_site_fract_z
Si Si1 0.504589 0.356763 0.166126
Si Si2 0.111974 0.386778 0.530310
Si Si3 0.862898 0.273515 0.200147
Si Si4 0.164873 0.413775 0.796193
Si Si5 0.380497 0.706465 0.213979
Si Si6 0.262920 0.282898 0.960065
Si Si7 0.768536 0.312924 0.509861
O O1 0.718667 0.367087 0.108374
O O2 0.379183 0.619874 0.258572
O O3 0.418780 0.452516 0.306459
O O4 0.500000 0.000000 0.000000
O O5 0.043975 0.623604 0.714320
O O6 0.211029 0.555440 0.516748
O O7 0.940469 0.298699 0.506421
O O8 0.259674 0.068198 0.384147
O O9 0.797971 0.579805 0.295011
O O10 0.704147 0.103777 0.197875
O O11 0.000000 0.000000 0.000000
O O12 0.948877 0.553301 0.937933
O O13 0.248295 0.047764 0.645384
O O14 0.294873 0.452027 0.092794
O O15 0.595249 0.660212 0.113144
#
# Coordination Sequence:
#
# PCOD8027313 Si02
#       7
#     2   2   2   2   2   2   2
#     4  12  29  44  74 108 149 189 243 303 366 425
#     4  11  26  47  76 104 147 192 243 303 357 434
#     4  10  24  44  73 105 137 188 241 297 358 429
#     4  11  24  48  71 105 147 189 241 301 361 434
#     4  11  25  46  74 106 143 200 233 304 358 437
#     4  10  24  44  74 106 143 184 255 287 367 428
#     4  11  27  47  71 108 146 192 244 298 367 427
#
# _framework density 23.543623
#
# number of rings (size 3 to 8) (size 9 to 14) (size 15 to 20)
#    0.000    1.143    1.429    2.143   16.000    2.286 
#    0.000    0.000    0.000    0.000    0.000    0.000 
#    0.000    0.000    0.000    0.000    0.000    0.000 
#
# Total GULP energy -173597.747566 kJ/mol
# GULP energy per Si atom -12399.839112 kJ/mol
# Density = 2.349004 g / cm^3
# Si number density = 23.543623 Si / 1000 Ang^3
#
#
#
# Elastic Constant Matrix: (Units=GPa)
#
#
# Indices 1 2 3 4 5 6 
#
# 1 112.9990 41.3394 38.5799 3.5645 3.8079 9.9189
# 2 41.3394 112.3082 37.6815 18.9321 6.6250 -11.0477
# 3 38.5799 37.6815 98.6848 4.2947 5.8649 3.4849
# 4 3.5645 18.9321 4.2947 40.2839 0.7890 5.2374
# 5 3.8079 6.6250 5.8649 0.7890 38.3740 0.0883
# 6 9.9189 -11.0477 3.4849 5.2374 0.0883 47.1737
#
#
#
# Elastic Compliance Matrix: (Units=1/GPa)
#
#
# Indices 1 2 3 4 5 6 
#
# 1 0.011502 -0.003802 -0.002993 0.001512 -0.000051 -0.003256
# 2 -0.003802 0.012960 -0.003295 -0.005996 -0.001244 0.004746
# 3 -0.002993 -0.003295 0.012638 0.000636 -0.001076 -0.001145
# 4 0.001512 -0.005996 0.000636 0.028071 0.000222 -0.004886
# 5 -0.000051 -0.001244 -0.001076 0.000222 0.026440 -0.000275
# 6 -0.003256 0.004746 -0.001145 -0.004886 -0.000275 0.023622
#
#
# Mechanical properties :
#
#
# Convention : Reuss Voigt Hill
#
# Bulk Modulus (GPa) = 59.09826 62.13262 60.61544
# Shear Modulus (GPa) = 35.44789 38.92573 37.18681
#
# Velocity S-wave (km/s) = 3.88445 4.07055 3.97859
# Velocity P-wave (km/s) = 6.72865 6.96708 6.84890
#
# Compressibility (1/GPa) = 0.01692097
#
# Stress axis : x y z
#
# Youngs Moduli (GPa) = 86.94100 77.16058 79.12566
#
# Poissons Ratio (x) = 0.29335 0.23680
# Poissons Ratio (y) = 0.33053 0.26072
# Poissons Ratio (z) = 0.26019 0.25425
#
# Static dielectric constant tensor:
#      x y z
#    x 4.211050 0.056600 0.132890 
#    y 0.056600 4.810530 0.142890 
#    z 0.132890 0.142890 4.051830 
# 
# 
# High freq. dielectric constant tensor:
#      x y z
#    x 1.933840 0.006180 0.008760 
#    y 0.006180 1.953230 0.009390 
#    z 0.008760 0.009390 1.920010 
# 
# From -- ./inp_files/557709.got.cif
#   From: 2010.06.25/outbox.cif.g09.slc.cpg/sg2_279_cif.got.tgz:557709.got - 2010.06.27 13:26:56.
