data_PCOD8027352
_publ_section_title
;
Structure prediction by ZEFSAII (Michael W. Deem and Ramdas Pophale) SiO2 
 PCOD8027352
Probable space group: P -1
;
_chemical_formula_sum "Si O2"
_cell_formula_units_Z 16
_cell_length_a 19.787604
_cell_length_b 9.088138
_cell_length_c 11.975547
_cell_angle_alpha 47.166072
_cell_angle_beta 154.223000
_cell_angle_gamma 123.116246
_cell_volume 671.967950
_symmetry_space_group_name_H-M "P -1"
_symmetry_group_IT_number 2
_symmetry_cell_setting 'triclinic'
loop_
_space_group_symop_operation_xyz
x,y,z
-x,-y,-z
loop_
_atom_site_type_symbol
_atom_site_label
_atom_site_fract_x
_atom_site_fract_y
_atom_site_fract_z
Si Si1 0.858973 0.390886 0.012255
Si Si2 0.977037 0.740840 0.325641
Si Si3 0.807369 0.737896 0.494846
Si Si4 0.823122 0.967909 0.179531
Si Si5 0.433848 0.714815 0.460017
Si Si6 0.257868 0.230585 0.222849
Si Si7 0.265105 0.929897 0.590195
Si Si8 0.529623 0.542897 0.151114
O O1 0.684173 0.440389 0.668987
O O2 0.865422 0.570714 0.015728
O O3 0.887365 0.162310 0.228073
O O4 0.007132 0.372102 0.156387
O O5 0.000000 0.500000 0.500000
O O6 0.121998 0.809312 0.442671
O O7 0.958735 0.836016 0.372522
O O8 0.819588 0.831046 0.973576
O O9 0.710226 0.557556 0.437591
O O10 0.749206 0.900259 0.422250
O O11 0.769832 0.841594 0.264884
O O12 0.671162 0.054620 0.827047
O O13 0.577843 0.699554 0.595196
O O14 0.499516 0.648746 0.716672
O O15 0.276003 0.039880 0.431654
O O16 0.422980 0.755383 0.927436
O O17 0.500000 0.500000 0.000000
#
# Coordination Sequence:
#
# PCOD8027352 Si02
#       8
#     2   2   2   2   2   2   2   2
#     4  10  24  44  79 105 142 189 251 294 361 441
#     4  12  27  46  74 109 149 195 240 305 373 429
#     4  12  25  48  75 107 148 193 245 302 369 428
#     4  10  25  45  76 106 143 190 245 298 357 445
#     4  10  25  47  73 105 144 190 247 293 375 430
#     4  12  26  45  77 103 150 192 244 304 368 433
#     4  12  28  49  69 110 148 194 250 299 364 441
#     4  12  30  46  74 107 152 191 245 309 369 438
#
# _framework density 23.810659999999999
#
# number of rings (size 3 to 8) (size 9 to 14) (size 15 to 20)
#    0.750    0.000    1.250    4.500   10.500    3.500 
#    0.000    0.000    0.000    0.000    0.000    0.000 
#    0.000    0.000    0.000    0.000    0.000    0.000 
#
# Total GULP energy -198303.313813 kJ/mol
# GULP energy per Si atom -12393.957113 kJ/mol
# Density = 2.375647 g / cm^3
# Si number density = 23.810660 Si / 1000 Ang^3
#
#
#
# Elastic Constant Matrix: (Units=GPa)
#
#
# Indices 1 2 3 4 5 6 
#
# 1 154.8539 47.0049 59.1030 -0.8643 -15.0795 18.9162
# 2 47.0049 92.8977 33.2360 7.3182 1.1556 15.9520
# 3 59.1030 33.2360 87.9712 14.1888 5.7517 16.7685
# 4 -0.8643 7.3182 14.1888 35.0254 6.8009 -3.6087
# 5 -15.0795 1.1556 5.7517 6.8009 48.1622 -9.4058
# 6 18.9162 15.9520 16.7685 -3.6087 -9.4058 41.5241
#
#
#
# Elastic Compliance Matrix: (Units=1/GPa)
#
#
# Indices 1 2 3 4 5 6 
#
# 1 0.010213 -0.003187 -0.006398 0.002818 0.003686 0.000235
# 2 -0.003187 0.013897 -0.001952 -0.002277 -0.001486 -0.003633
# 3 -0.006398 -0.001952 0.018896 -0.007144 -0.004290 -0.005559
# 4 0.002818 -0.002277 -0.007144 0.032863 -0.001893 0.004903
# 5 0.003686 -0.001486 -0.004290 -0.001893 0.023879 0.005868
# 6 0.000235 -0.003633 -0.005559 0.004903 0.005868 0.029371
#
#
# Mechanical properties :
#
#
# Convention : Reuss Voigt Hill
#
# Bulk Modulus (GPa) = 50.17173 68.26786 59.21979
# Shear Modulus (GPa) = 31.47895 38.03428 34.75662
#
# Velocity S-wave (km/s) = 3.63995 4.00104 3.82476
# Velocity P-wave (km/s) = 6.22756 7.07657 6.66559
#
# Compressibility (1/GPa) = 0.01993155
#
# Stress axis : x y z
#
# Youngs Moduli (GPa) = 97.91583 71.95644 52.92226
#
# Poissons Ratio (x) = 0.22932 0.33859
# Poissons Ratio (y) = 0.31205 0.10333
# Poissons Ratio (z) = 0.62645 0.14049
#
# Static dielectric constant tensor:
#      x y z
#    x 4.334670 0.140740 -0.029880 
#    y 0.140740 4.116900 0.052210 
#    z -0.029880 0.052210 4.366010 
# 
# 
# High freq. dielectric constant tensor:
#      x y z
#    x 1.952930 0.012520 -0.002100 
#    y 0.012520 1.939000 -0.000480 
#    z -0.002100 -0.000480 1.955070 
# 
# From -- ./inp_files/461935.got.cif
#   From: 2010.06.25/outbox.cif.g09.slc.cpg/sg2_231_cif.got.tgz:461935.got - 2010.06.27 13:26:56.
