data_PCOD8027148
_publ_section_title
;
Structure prediction by ZEFSAII (Michael W. Deem and Ramdas Pophale) SiO2 
 PCOD8027148
Probable space group: P -1
;
_chemical_formula_sum "Si O2"
_cell_formula_units_Z 12
_cell_length_a 12.208736
_cell_length_b 13.218345
_cell_length_c 6.685960
_cell_angle_alpha 102.185162
_cell_angle_beta 70.372761
_cell_angle_gamma 147.132894
_cell_volume 546.174412
_symmetry_space_group_name_H-M "P -1"
_symmetry_group_IT_number 2
_symmetry_cell_setting 'triclinic'
loop_
_space_group_symop_operation_xyz
x,y,z
-x,-y,-z
loop_
_atom_site_type_symbol
_atom_site_label
_atom_site_fract_x
_atom_site_fract_y
_atom_site_fract_z
Si Si1 0.708373 0.364947 0.184295
Si Si2 0.795779 0.913797 0.133604
Si Si3 0.298308 0.991512 0.083321
Si Si4 0.427415 0.543741 0.435440
Si Si5 0.907657 0.318796 0.194196
Si Si6 0.966100 0.208575 0.446938
O O1 0.532958 0.164013 0.100136
O O2 0.599857 0.377363 0.372980
O O3 0.833809 0.383526 0.270943
O O4 0.868403 0.528525 0.990303
O O5 0.605094 0.697893 0.225442
O O6 0.735568 0.924063 0.968427
O O7 0.839868 0.026990 0.331315
O O8 0.000000 0.000000 0.000000
O O9 0.727559 0.119331 0.106785
O O10 0.122483 0.844764 0.299434
O O11 0.500000 0.500000 0.500000
O O12 0.211249 0.358505 0.373874
O O13 0.937639 0.297876 0.390680
#
# Coordination Sequence:
#
# PCOD8027148 Si02
#       6
#     2   2   2   2   2   2
#     4  11  23  44  67  98 135 171 217 270 325 386
#     4  11  26  43  67  95 130 179 218 267 327 383
#     4  11  22  44  67  99 130 168 221 268 328 384
#     4  12  26  43  69  98 132 176 218 268 327 385
#     4  10  24  44  68  98 132 173 216 267 329 387
#     4  11  24  44  69  96 133 169 220 273 320 393
#
# _framework density 21.971003
#
# number of rings (size 3 to 8) (size 9 to 14) (size 15 to 20)
#    0.000    1.000    3.333    2.500    4.667    3.333 
#    3.000    0.000    0.000    0.000    0.000    0.000 
#    0.000    0.000    0.000    0.000    0.000    0.000 
#
# Total GULP energy -148869.916041 kJ/mol
# GULP energy per Si atom -12405.826337 kJ/mol
# Density = 2.192100 g / cm^3
# Si number density = 21.971003 Si / 1000 Ang^3
#
#
#
# Elastic Constant Matrix: (Units=GPa)
#
#
# Indices 1 2 3 4 5 6 
#
# 1 149.1367 17.1134 60.0096 -13.6135 26.3390 2.1089
# 2 17.1134 102.1657 21.7173 -18.0137 13.5752 14.3271
# 3 60.0096 21.7173 104.6594 -17.6095 28.3614 -2.2188
# 4 -13.6135 -18.0137 -17.6095 32.8732 -7.1574 5.0811
# 5 26.3390 13.5752 28.3614 -7.1574 43.6040 -1.6203
# 6 2.1089 14.3271 -2.2188 5.0811 -1.6203 32.1062
#
#
#
# Elastic Compliance Matrix: (Units=1/GPa)
#
#
# Indices 1 2 3 4 5 6 
#
# 1 0.009003 0.000121 -0.004345 0.001113 -0.002513 -0.001249
# 2 0.000121 0.012478 -0.000983 0.006889 -0.002442 -0.006857
# 3 -0.004345 -0.000983 0.014527 0.004053 -0.005823 0.000793
# 4 0.001113 0.006889 0.004053 0.038313 0.000505 -0.008905
# 5 -0.002513 -0.002442 -0.005823 0.000505 0.029166 0.002245
# 6 -0.001249 -0.006857 0.000793 -0.008905 0.002245 0.035866
#
#
# Mechanical properties :
#
#
# Convention : Reuss Voigt Hill
#
# Bulk Modulus (GPa) = 39.07334 61.51581 50.29458
# Shear Modulus (GPa) = 31.58580 38.85811 35.22196
#
# Velocity S-wave (km/s) = 3.79570 4.21005 4.00823
# Velocity P-wave (km/s) = 6.08543 7.18972 6.66050
#
# Compressibility (1/GPa) = 0.02559290
#
# Stress axis : x y z
#
# Youngs Moduli (GPa) = 111.07448 80.14395 68.83651
#
# Poissons Ratio (x) = -0.00969 0.29912
# Poissons Ratio (y) = -0.01342 0.06765
# Poissons Ratio (z) = 0.48266 0.07877
#
# Static dielectric constant tensor:
#      x y z
#    x 4.047140 0.050220 0.278320 
#    y 0.050220 4.192270 -0.026350 
#    z 0.278320 -0.026350 3.857640 
# 
# 
# High freq. dielectric constant tensor:
#      x y z
#    x 1.872940 0.002000 0.012350 
#    y 0.002000 1.880350 -0.008070 
#    z 0.012350 -0.008070 1.858630 
# 
# From -- ./inp_files/63678.got.cif
#   From: 2010.06.25/outbox.cif.g09.slc.cpg/sg2_32_cif.got.tgz:63678.got - 2010.06.27 13:26:56.
