data_PCOD8027563
_publ_section_title
;
Structure prediction by ZEFSAII (Michael W. Deem and Ramdas Pophale) SiO2 
 PCOD8027563
Probable space group: P -1
;
_chemical_formula_sum "Si O2"
_cell_formula_units_Z 16
_cell_length_a 10.735168
_cell_length_b 14.332159
_cell_length_c 6.547691
_cell_angle_alpha 64.227056
_cell_angle_beta 91.622237
_cell_angle_gamma 125.563803
_cell_volume 702.444936
_symmetry_space_group_name_H-M "P -1"
_symmetry_group_IT_number 2
_symmetry_cell_setting 'triclinic'
loop_
_space_group_symop_operation_xyz
x,y,z
-x,-y,-z
loop_
_atom_site_type_symbol
_atom_site_label
_atom_site_fract_x
_atom_site_fract_y
_atom_site_fract_z
Si Si1 0.476236 0.874437 0.529867
Si Si2 0.153438 0.775052 0.478126
Si Si3 0.805519 0.805534 0.574013
Si Si4 0.051842 0.620977 0.241122
Si Si5 0.841907 0.990703 0.737922
Si Si6 0.384575 0.182918 0.747394
Si Si7 0.359093 0.675507 0.042896
Si Si8 0.849504 0.599235 0.897196
O O1 0.294747 0.768756 0.536781
O O2 0.591689 0.904605 0.317398
O O3 0.500000 0.000000 0.500000
O O4 0.491423 0.801655 0.786930
O O5 0.109978 0.748078 0.261453
O O6 0.997940 0.653546 0.705592
O O7 0.212413 0.920903 0.406739
O O8 0.780411 0.882200 0.664145
O O9 0.659209 0.739862 0.467792
O O10 0.805931 0.697895 0.799230
O O11 0.964663 0.906760 0.348092
O O12 0.202164 0.665357 0.067758
O O13 0.000000 0.500000 0.500000
O O14 0.901375 0.584336 0.136616
O O15 0.767905 0.921764 0.017593
O O16 0.548681 0.296929 0.766273
O O17 0.307779 0.541487 0.061360
#
# Coordination Sequence:
#
# PCOD8027563 Si02
#       8
#     2   2   2   2   2   2   2   2
#     4  12  26  42  65 100 145 180 216 274 350 404
#     4  11  22  41  68 104 130 178 226 274 342 401
#     4  10  24  48  70  98 134 181 228 282 334 397
#     4  12  23  41  69 102 134 173 227 279 337 404
#     4  10  24  45  72  99 134 180 230 284 329 396
#     4  12  25  43  67 100 138 179 227 273 338 405
#     4  12  25  42  66 101 140 176 218 286 339 400
#     4  11  25  44  72  97 135 179 228 278 337 394
#
# _framework density 22.777585999999999
#
# number of rings (size 3 to 8) (size 9 to 14) (size 15 to 20)
#    0.000    0.750    3.750    3.750    1.750    6.500 
#    0.000    2.500    0.000    0.000    0.000    0.000 
#    0.000    0.000    0.000    0.000    0.000    0.000 
#
# Total GULP energy -198394.162265 kJ/mol
# GULP energy per Si atom -12399.635142 kJ/mol
# Density = 2.272574 g / cm^3
# Si number density = 22.777586 Si / 1000 Ang^3
#
#
#
# Elastic Constant Matrix: (Units=GPa)
#
#
# Indices 1 2 3 4 5 6 
#
# 1 109.9561 51.3360 54.2658 16.2570 18.9502 -0.1662
# 2 51.3360 127.4408 56.2044 11.9125 18.4029 -9.4657
# 3 54.2658 56.2044 121.5109 4.8611 9.8907 -7.9273
# 4 16.2570 11.9125 4.8611 37.7225 6.3768 3.5615
# 5 18.9502 18.4029 9.8907 6.3768 50.4479 14.2546
# 6 -0.1662 -9.4657 -7.9273 3.5615 14.2546 29.1461
#
#
#
# Elastic Compliance Matrix: (Units=1/GPa)
#
#
# Indices 1 2 3 4 5 6 
#
# 1 0.013632 -0.002802 -0.004435 -0.003945 -0.002658 -0.000256
# 2 -0.002802 0.011523 -0.003399 -0.001836 -0.003606 0.004789
# 3 -0.004435 -0.003399 0.011875 0.001290 -0.000156 0.002019
# 4 -0.003945 -0.001836 0.001290 0.029083 -0.000809 -0.003426
# 5 -0.002658 -0.003606 -0.000156 -0.000809 0.026210 -0.013949
# 6 -0.000256 0.004789 0.002019 -0.003426 -0.013949 0.043654
#
#
# Mechanical properties :
#
#
# Convention : Reuss Voigt Hill
#
# Bulk Modulus (GPa) = 63.45611 75.83560 69.64585
# Shear Modulus (GPa) = 30.76895 36.60340 33.68617
#
# Velocity S-wave (km/s) = 3.67937 4.01308 3.84984
# Velocity P-wave (km/s) = 6.78011 7.40536 7.09962
#
# Compressibility (1/GPa) = 0.01575892
#
# Stress axis : x y z
#
# Youngs Moduli (GPa) = 73.35506 86.78646 84.20941
#
# Poissons Ratio (x) = 0.24318 0.37343
# Poissons Ratio (y) = 0.20555 0.28622
# Poissons Ratio (z) = 0.32529 0.29498
#
# Static dielectric constant tensor:
#      x y z
#    x 4.218340 0.078320 -0.065470 
#    y 0.078320 4.058800 0.178990 
#    z -0.065470 0.178990 4.034150 
# 
# 
# High freq. dielectric constant tensor:
#      x y z
#    x 1.906910 0.008830 -0.003550 
#    y 0.008830 1.897980 0.013460 
#    z -0.003550 0.013460 1.895540 
# 
# From -- ./inp_files/77167.got.cif
#   From: 2010.06.25/outbox.cif.g09.slc.cpg/sg2_39_cif.got.tgz:77167.got - 2010.06.27 13:26:56.
