data_PCOD8027968
_publ_section_title
;
Structure prediction by ZEFSAII (Michael W. Deem and Ramdas Pophale) SiO2 
 PCOD8027968
Probable space group: P -1
;
_chemical_formula_sum "Si O2"
_cell_formula_units_Z 12
_cell_length_a 8.457059
_cell_length_b 6.616696
_cell_length_c 16.590678
_cell_angle_alpha 116.616190
_cell_angle_beta 42.777463
_cell_angle_gamma 123.188766
_cell_volume 525.908258
_symmetry_space_group_name_H-M "P -1"
_symmetry_group_IT_number 2
_symmetry_cell_setting 'triclinic'
loop_
_space_group_symop_operation_xyz
x,y,z
-x,-y,-z
loop_
_atom_site_type_symbol
_atom_site_label
_atom_site_fract_x
_atom_site_fract_y
_atom_site_fract_z
Si Si1 0.148583 0.306206 0.658523
Si Si2 0.296220 0.516962 0.470466
Si Si3 0.413783 0.304741 0.095052
Si Si4 0.046258 0.451232 0.097306
Si Si5 0.095696 0.247316 0.343093
Si Si6 0.787615 0.134330 0.004526
O O1 0.172482 0.348158 0.562077
O O2 0.414216 0.331800 0.600317
O O3 0.048076 0.506006 0.771788
O O4 0.958724 0.036878 0.699011
O O5 0.161840 0.708932 0.540052
O O6 0.268102 0.342754 0.373518
O O7 0.241581 0.394492 0.234977
O O8 0.232764 0.136756 0.062435
O O9 0.657080 0.515324 0.003142
O O10 0.512747 0.142060 0.090803
O O11 0.011894 0.661149 0.089877
O O12 0.877810 0.191696 0.074376
#
# Coordination Sequence:
#
# PCOD8027968 Si02
#       6
#     2   2   2   2   2   2
#     4  11  20  39  56  77 111 141 177 224 260 314
#     4  10  25  35  54  82 105 145 185 213 262 313
#     4   9  15  27  50  77  99 130 171 211 262 311
#     4   9  16  27  51  78  99 132 173 211 263 313
#     4  11  20  38  57  78 109 141 178 222 263 317
#     4   8  14  25  44  83  95 128 175 199 262 318
#
# _framework density 22.817667
#
# number of rings (size 3 to 8) (size 9 to 14) (size 15 to 20)
#    1.000    1.333    1.667    2.000    0.000    0.000 
#    0.000    0.833    0.000    1.000    0.000    0.000 
#    0.000    0.000    0.000    0.000    0.000    0.000 
#
# Total GULP energy -148726.389479 kJ/mol
# GULP energy per Si atom -12393.865790 kJ/mol
# Density = 2.276573 g / cm^3
# Si number density = 22.817667 Si / 1000 Ang^3
#
#
#
# Elastic Constant Matrix: (Units=GPa)
#
#
# Indices 1 2 3 4 5 6 
#
# 1 59.9476 27.1709 13.3442 23.3087 11.5093 28.9788
# 2 27.1709 89.8756 37.5013 18.3879 11.3133 28.3574
# 3 13.3442 37.5013 122.1784 16.1797 14.5376 21.4717
# 4 23.3087 18.3879 16.1797 25.8733 20.4263 15.7799
# 5 11.5093 11.3133 14.5376 20.4263 6.3536 5.5844
# 6 28.9788 28.3574 21.4717 15.7799 5.5844 31.5299
#
#
#
# Elastic Compliance Matrix: (Units=1/GPa)
#
#
# Indices 1 2 3 4 5 6 
#
# 1 0.035100 -0.000176 0.003293 -0.013058 -0.005190 -0.026890
# 2 -0.000176 0.016440 -0.002733 -0.004683 0.001793 -0.010736
# 3 0.003293 -0.002733 0.009986 -0.007331 0.003403 -0.004302
# 4 -0.013058 -0.004683 -0.007331 -0.013642 0.080520 0.013772
# 5 -0.005190 0.001793 0.003403 0.080520 -0.080977 -0.025116
# 6 -0.026890 -0.010736 -0.004302 0.013772 -0.025116 0.066572
#
#
# Mechanical properties :
#
#
# Convention : Reuss Voigt Hill
#
# Bulk Modulus (GPa) = 16.05312 47.55939 31.80626
# Shear Modulus (GPa) = 93.49769 25.68371 59.59070
#
# Velocity S-wave (km/s) = 6.40819 3.35865 5.11593
# Velocity P-wave (km/s) = 7.86155 5.99409 6.99046
#
# Compressibility (1/GPa) = 0.06229318
#
# Stress axis : x y z
#
# Youngs Moduli (GPa) = 28.48987 60.82632 100.13910
#
# Poissons Ratio (x) = 0.01073 -0.32975
# Poissons Ratio (y) = 0.00502 0.27370
# Poissons Ratio (z) = -0.09381 0.16625
#
# Static dielectric constant tensor:
#      x y z
#    x 3.896480 0.346760 0.146110 
#    y 0.346760 3.690040 0.121910 
#    z 0.146110 0.121910 4.006470 
# 
# 
# High freq. dielectric constant tensor:
#      x y z
#    x 1.897710 0.024180 0.010140 
#    y 0.024180 1.879190 0.004300 
#    z 0.010140 0.004300 1.898230 
# 
# From -- ./inp_files/526417.got.cif
#   From: 2010.06.25/outbox.cif.g09.slc.cpg/sg2_264_cif.got.tgz:526417.got - 2010.06.27 13:26:56.
