data_PCOD8027803
_publ_section_title
;
Structure prediction by ZEFSAII (Michael W. Deem and Ramdas Pophale) SiO2 
 PCOD8027803
Probable space group: P -1
;
_chemical_formula_sum "Si O2"
_cell_formula_units_Z 16
_cell_length_a 16.752344
_cell_length_b 14.735463
_cell_length_c 6.671278
_cell_angle_alpha 82.960882
_cell_angle_beta 109.294676
_cell_angle_gamma 150.745642
_cell_volume 708.849444
_symmetry_space_group_name_H-M "P -1"
_symmetry_group_IT_number 2
_symmetry_cell_setting 'triclinic'
loop_
_space_group_symop_operation_xyz
x,y,z
-x,-y,-z
loop_
_atom_site_type_symbol
_atom_site_label
_atom_site_fract_x
_atom_site_fract_y
_atom_site_fract_z
Si Si1 0.279909 0.155908 0.491394
Si Si2 0.725292 0.259894 0.967847
Si Si3 0.589134 0.166110 0.296530
Si Si4 0.436756 0.535680 0.022396
Si Si5 0.935494 0.536253 0.720020
Si Si6 0.943617 0.148877 0.288338
Si Si7 0.402325 0.171474 0.196570
Si Si8 0.851082 0.795282 0.830161
O O1 0.439038 0.303679 0.744072
O O2 0.321090 0.129517 0.347933
O O3 0.273092 0.255027 0.389338
O O4 0.097931 0.943309 0.511899
O O5 0.850691 0.451337 0.897003
O O6 0.561631 0.060386 0.745319
O O7 0.624965 0.216815 0.075940
O O8 0.861348 0.312892 0.156907
O O9 0.789205 0.339463 0.514935
O O10 0.499605 0.169154 0.321430
O O11 0.239788 0.338783 0.015255
O O12 0.500000 0.500000 0.000000
O O13 0.441803 0.609997 0.819219
O O14 0.951143 0.655781 0.628574
O O15 0.075201 0.211146 0.252101
O O16 0.761710 0.997378 0.052164
O O17 0.000000 0.000000 0.000000
#
# Coordination Sequence:
#
# PCOD8027803 Si02
#       8
#     2   2   2   2   2   2   2   2
#     4  11  24  44  64  91 136 180 217 270 333 388
#     4  10  24  47  69  96 139 167 221 281 334 407
#     4  11  24  43  72  98 131 179 219 270 347 403
#     4  11  24  42  67  93 132 175 225 275 327 394
#     4  11  24  44  69 103 130 176 220 276 339 400
#     4  11  25  42  64  98 135 173 223 277 326 395
#     4  11  24  44  63  97 132 175 220 277 329 395
#     4  12  23  42  66  93 132 178 221 272 327 385
#
# _framework density 22.571788999999999
#
# number of rings (size 3 to 8) (size 9 to 14) (size 15 to 20)
#    0.000    1.000    3.750    2.250    3.500    3.000 
#    2.250    0.000    0.000    0.000    0.000    0.000 
#    0.000    0.000    0.000    0.000    0.000    0.000 
#
# Total GULP energy -198379.911200 kJ/mol
# GULP energy per Si atom -12398.744450 kJ/mol
# Density = 2.252041 g / cm^3
# Si number density = 22.571789 Si / 1000 Ang^3
#
#
#
# Elastic Constant Matrix: (Units=GPa)
#
#
# Indices 1 2 3 4 5 6 
#
# 1 82.1708 32.0645 11.2263 -1.0606 -12.4668 8.2598
# 2 32.0645 130.2884 25.2097 -9.9423 -19.0524 11.1906
# 3 11.2263 25.2097 70.7781 8.2712 -11.8837 6.3440
# 4 -1.0606 -9.9423 8.2712 44.0330 10.2940 -4.7164
# 5 -12.4668 -19.0524 -11.8837 10.2940 29.1464 -5.0756
# 6 8.2598 11.1906 6.3440 -4.7164 -5.0756 33.7638
#
#
#
# Elastic Compliance Matrix: (Units=1/GPa)
#
#
# Indices 1 2 3 4 5 6 
#
# 1 0.014109 -0.002740 -0.000176 -0.001481 0.004335 -0.002066
# 2 -0.002740 0.009545 -0.002500 0.001663 0.003234 -0.001305
# 3 -0.000176 -0.002500 0.017037 -0.005593 0.006850 -0.002081
# 4 -0.001481 0.001663 -0.005593 0.026952 -0.010823 0.003000
# 5 0.004335 0.003234 0.006850 -0.010823 0.045218 0.001866
# 6 -0.002066 -0.001305 -0.002081 0.003000 0.001866 0.031646
#
#
# Mechanical properties :
#
#
# Convention : Reuss Voigt Hill
#
# Bulk Modulus (GPa) = 33.48875 46.69315 40.09095
# Shear Modulus (GPa) = 30.24935 35.70443 32.97689
#
# Velocity S-wave (km/s) = 3.66476 3.98152 3.82642
# Velocity P-wave (km/s) = 5.72504 6.47056 6.10918
#
# Compressibility (1/GPa) = 0.02986077
#
# Stress axis : x y z
#
# Youngs Moduli (GPa) = 70.87548 104.76566 58.69503
#
# Poissons Ratio (x) = 0.28705 0.01033
# Poissons Ratio (y) = 0.19419 0.14671
# Poissons Ratio (z) = 0.01247 0.26187
#
# Static dielectric constant tensor:
#      x y z
#    x 3.616540 0.645230 -0.430680 
#    y 0.645230 3.046200 1.073520 
#    z -0.430680 1.073520 3.117820 
# 
# 
# High freq. dielectric constant tensor:
#      x y z
#    x 1.878730 0.008560 -0.009610 
#    y 0.008560 1.906700 -0.003000 
#    z -0.009610 -0.003000 1.892800 
# 
# From -- ./inp_files/38481.got.cif
#   From: 2010.06.25/outbox.cif.g09.slc.cpg/sg2_20_cif.got.tgz:38481.got - 2010.06.27 13:26:56.
