data_PCOD8027297
_publ_section_title
;
Structure prediction by ZEFSAII (Michael W. Deem and Ramdas Pophale) SiO2 
 PCOD8027297
Probable space group: P -1
;
_chemical_formula_sum "Si O2"
_cell_formula_units_Z 16
_cell_length_a 7.656587
_cell_length_b 15.036903
_cell_length_c 11.739434
_cell_angle_alpha 120.292812
_cell_angle_beta 136.865501
_cell_angle_gamma 82.779281
_cell_volume 727.546597
_symmetry_space_group_name_H-M "P -1"
_symmetry_group_IT_number 2
_symmetry_cell_setting 'triclinic'
loop_
_space_group_symop_operation_xyz
x,y,z
-x,-y,-z
loop_
_atom_site_type_symbol
_atom_site_label
_atom_site_fract_x
_atom_site_fract_y
_atom_site_fract_z
Si Si1 0.262387 0.908632 0.968320
Si Si2 0.575342 0.355972 0.423025
Si Si3 0.958962 0.601836 0.764513
Si Si4 0.397334 0.712545 0.857138
Si Si5 0.707299 0.147648 0.386950
Si Si6 0.266795 0.814885 0.162113
Si Si7 0.016535 0.132595 0.735059
Si Si8 0.108825 0.104637 0.408836
O O1 0.246150 0.865082 0.061207
O O2 0.471773 0.039192 0.143936
O O3 0.346691 0.824865 0.874180
O O4 0.968135 0.899710 0.765826
O O5 0.842516 0.470755 0.658580
O O6 0.298471 0.360292 0.349356
O O7 0.563941 0.350190 0.276808
O O8 0.612240 0.249153 0.421879
O O9 0.142149 0.623669 0.750681
O O10 0.158748 0.679293 0.009584
O O11 0.694346 0.764068 0.100564
O O12 0.762106 0.117762 0.521493
O O13 0.995933 0.185833 0.476222
O O14 0.564721 0.860598 0.394997
O O15 0.055900 0.844188 0.157082
O O16 0.057347 0.016488 0.686196
#
# Coordination Sequence:
#
# PCOD8027297 Si02
#       8
#     2   2   2   2   2   2   2   2
#     4  11  23  40  69  99 135 179 217 277 338 405
#     4  11  23  45  71  98 129 173 234 277 336 400
#     4  10  24  44  72  94 131 178 224 288 332 392
#     4  11  21  44  68  99 132 175 223 274 346 398
#     4  12  23  41  65 101 136 176 226 275 336 407
#     4  11  25  44  62 102 137 178 230 275 331 403
#     4  12  24  41  66  97 144 183 211 277 344 401
#     4  12  23  41  65  98 142 180 220 273 339 406
#
# _framework density 21.991717000000001
#
# number of rings (size 3 to 8) (size 9 to 14) (size 15 to 20)
#    0.000    0.750    5.000    3.750    0.000    2.500 
#    0.000    3.125    0.000    0.000    0.000    0.000 
#    0.000    0.000    0.000    0.000    0.000    0.000 
#
# Total GULP energy -198321.421548 kJ/mol
# GULP energy per Si atom -12395.088847 kJ/mol
# Density = 2.194166 g / cm^3
# Si number density = 21.991717 Si / 1000 Ang^3
#
#
#
# Elastic Constant Matrix: (Units=GPa)
#
#
# Indices 1 2 3 4 5 6 
#
# 1 94.1726 15.2968 30.2044 -1.0566 12.3387 -2.6421
# 2 15.2968 85.5429 51.7375 3.4425 4.3012 -10.3277
# 3 30.2044 51.7375 122.5462 -7.3434 12.1715 7.4676
# 4 -1.0566 3.4425 -7.3434 42.9343 3.1922 -1.6280
# 5 12.3387 4.3012 12.1715 3.1922 32.1369 5.3886
# 6 -2.6421 -10.3277 7.4676 -1.6280 5.3886 20.9874
#
#
#
# Elastic Compliance Matrix: (Units=1/GPa)
#
#
# Indices 1 2 3 4 5 6 
#
# 1 0.012177 0.000235 -0.002893 0.000248 -0.004272 0.003794
# 2 0.000235 0.018532 -0.008667 -0.002412 -0.001116 0.012332
# 3 -0.002893 -0.008667 0.013387 0.002700 -0.001597 -0.008773
# 4 0.000248 -0.002412 0.002700 0.024221 -0.003303 0.000611
# 5 -0.004272 -0.001116 -0.001597 -0.003303 0.035497 -0.009889
# 6 0.003794 0.012332 -0.008773 0.000611 -0.009889 0.059902
#
#
# Mechanical properties :
#
#
# Convention : Reuss Voigt Hill
#
# Bulk Modulus (GPa) = 46.62662 55.19325 50.90994
# Shear Modulus (GPa) = 25.83765 32.87992 29.35878
#
# Velocity S-wave (km/s) = 3.43137 3.87085 3.65772
# Velocity P-wave (km/s) = 6.07841 6.71787 6.40612
#
# Compressibility (1/GPa) = 0.02144698
#
# Stress axis : x y z
#
# Youngs Moduli (GPa) = 82.11969 53.96037 74.69812
#
# Poissons Ratio (x) = -0.01267 0.21607
# Poissons Ratio (y) = -0.01928 0.64741
# Poissons Ratio (z) = 0.23754 0.46768
#
# Static dielectric constant tensor:
#      x y z
#    x 3.895860 -0.135200 -0.006040 
#    y -0.135200 3.723860 0.171250 
#    z -0.006040 0.171250 4.176250 
# 
# 
# High freq. dielectric constant tensor:
#      x y z
#    x 1.872950 -0.010780 -0.000510 
#    y -0.010780 1.835990 0.005140 
#    z -0.000510 0.005140 1.875370 
# 
# From -- ./inp_files/397696.got.cif
#   From: 2010.06.25/outbox.cif.g09.slc.cpg/sg2_199_cif.got.tgz:397696.got - 2010.06.27 13:26:56.
