data_PCOD8027967
_publ_section_title
;
Structure prediction by ZEFSAII (Michael W. Deem and Ramdas Pophale) SiO2 
 PCOD8027967
Probable space group: P -1
;
_chemical_formula_sum "Si O2"
_cell_formula_units_Z 16
_cell_length_a 27.041376
_cell_length_b 18.004488
_cell_length_c 5.020859
_cell_angle_alpha 78.481533
_cell_angle_beta 87.945713
_cell_angle_gamma 17.866164
_cell_volume 630.799978
_symmetry_space_group_name_H-M "P -1"
_symmetry_group_IT_number 2
_symmetry_cell_setting 'triclinic'
loop_
_space_group_symop_operation_xyz
x,y,z
-x,-y,-z
loop_
_atom_site_type_symbol
_atom_site_label
_atom_site_fract_x
_atom_site_fract_y
_atom_site_fract_z
Si Si1 0.852934 0.775643 0.214345
Si Si2 0.459634 0.876166 0.873033
Si Si3 0.761521 0.363447 0.862617
Si Si4 0.624899 0.331621 0.347414
Si Si5 0.303101 0.257166 0.757258
Si Si6 0.186710 0.588874 0.545747
Si Si7 0.067069 0.245866 0.296671
Si Si8 0.847198 0.144455 0.496627
O O1 0.846979 0.853070 0.368237
O O2 0.000000 0.500000 0.500000
O O3 0.093200 0.271550 0.050264
O O4 0.659762 0.014593 0.049081
O O5 0.549540 0.707288 0.708208
O O6 0.341581 0.128283 0.645075
O O7 0.613372 0.674748 0.203793
O O8 0.880354 0.258898 0.796515
O O9 0.787975 0.256197 0.726153
O O10 0.851443 0.210342 0.243751
O O11 0.500000 0.500000 0.500000
O O12 0.676394 0.343644 0.297681
O O13 0.814961 0.003906 0.596436
O O14 0.500000 0.500000 0.000000
O O15 0.198926 0.485477 0.493392
O O16 0.157029 0.441450 0.875814
O O17 0.500000 0.000000 0.000000
O O18 0.039933 0.811849 0.660070
#
# Coordination Sequence:
#
# PCOD8027967 Si02
#       8
#     2   2   2   2   2   2   2   2
#     4  12  28  47  80 107 155 194 255 311 380 465
#     4  11  27  46  76 115 147 201 251 317 386 458
#     4  12  27  45  76 108 154 192 254 311 389 453
#     4  12  28  49  76 112 153 205 260 318 390 462
#     4  10  24  53  78 114 154 203 259 319 387 470
#     4  11  25  49  77 110 152 200 255 321 387 460
#     4  12  27  53  77 112 152 208 254 322 389 457
#     4  12  27  48  75 111 151 202 257 321 386 457
#
# _framework density 25.364616000000002
#
# number of rings (size 3 to 8) (size 9 to 14) (size 15 to 20)
#    0.000    0.500    3.750    2.625    8.750    1.500 
#    4.500    0.000    0.000    0.000    0.000    0.000 
#    0.000    0.000    0.000    0.000    0.000    0.000 
#
# Total GULP energy -198232.651877 kJ/mol
# GULP energy per Si atom -12389.540742 kJ/mol
# Density = 2.530688 g / cm^3
# Si number density = 25.364616 Si / 1000 Ang^3
#
#
#
# Elastic Constant Matrix: (Units=GPa)
#
#
# Indices 1 2 3 4 5 6 
#
# 1 144.8152 74.4635 43.9187 -11.6599 1.0044 -10.0254
# 2 74.4635 198.1434 48.2133 -6.0299 6.9374 2.5691
# 3 43.9187 48.2133 95.1386 13.5245 3.3028 -4.1211
# 4 -11.6599 -6.0299 13.5245 28.6636 0.2025 -8.1129
# 5 1.0044 6.9374 3.3028 0.2025 25.5862 -7.2739
# 6 -10.0254 2.5691 -4.1211 -8.1129 -7.2739 52.5730
#
#
#
# Elastic Compliance Matrix: (Units=1/GPa)
#
#
# Indices 1 2 3 4 5 6 
#
# 1 0.010312 -0.002753 -0.004209 0.006438 0.001686 0.002998
# 2 -0.002753 0.006747 -0.002289 0.001078 -0.001750 -0.001110
# 3 -0.004209 -0.002289 0.014974 -0.009586 -0.001410 -0.001191
# 4 0.006438 0.001078 -0.009586 0.044395 0.002508 0.007622
# 5 0.001686 -0.001750 -0.001410 0.002508 0.041480 0.006423
# 6 0.002998 -0.001110 -0.001191 0.007622 0.006423 0.021618
#
#
# Mechanical properties :
#
#
# Convention : Reuss Voigt Hill
#
# Bulk Modulus (GPa) = 73.90421 85.69870 79.80146
# Shear Modulus (GPa) = 30.76219 39.46468 35.11343
#
# Velocity S-wave (km/s) = 3.48630 3.94876 3.72472
# Velocity P-wave (km/s) = 6.73838 7.39259 7.07305
#
# Compressibility (1/GPa) = 0.01353103
#
# Stress axis : x y z
#
# Youngs Moduli (GPa) = 96.97852 148.21837 66.78341
#
# Poissons Ratio (x) = 0.40805 0.28108
# Poissons Ratio (y) = 0.26698 0.15285
# Poissons Ratio (z) = 0.40817 0.33923
#
# Static dielectric constant tensor:
#      x y z
#    x 5.785890 -0.028080 0.029750 
#    y -0.028080 5.234010 -0.299520 
#    z 0.029750 -0.299520 4.224910 
# 
# 
# High freq. dielectric constant tensor:
#      x y z
#    x 2.035060 0.005660 -0.004640 
#    y 0.005660 2.039630 -0.011940 
#    z -0.004640 -0.011940 1.983830 
# 
# From -- ./inp_files/127497.got.cif
#   From: 2010.06.25/outbox.cif.g09.slc.cpg/sg2_64_cif.got.tgz:127497.got - 2010.06.27 13:26:56.
