data_PCOD8027836
_publ_section_title
;
Structure prediction by ZEFSAII (Michael W. Deem and Ramdas Pophale) SiO2 
 PCOD8027836
Probable space group: P -1
;
_chemical_formula_sum "Si O2"
_cell_formula_units_Z 16
_cell_length_a 9.143624
_cell_length_b 9.501635
_cell_length_c 22.578319
_cell_angle_alpha 66.890495
_cell_angle_beta 145.774373
_cell_angle_gamma 92.871453
_cell_volume 860.219459
_symmetry_space_group_name_H-M "P -1"
_symmetry_group_IT_number 2
_symmetry_cell_setting 'triclinic'
loop_
_space_group_symop_operation_xyz
x,y,z
-x,-y,-z
loop_
_atom_site_type_symbol
_atom_site_label
_atom_site_fract_x
_atom_site_fract_y
_atom_site_fract_z
Si Si1 0.340598 0.888297 0.456289
Si Si2 0.709562 0.271308 0.877961
Si Si3 0.708921 0.024269 0.822885
Si Si4 0.203764 0.654228 0.656074
Si Si5 0.557659 0.748149 0.671306
Si Si6 0.682926 0.143189 0.240680
Si Si7 0.934667 0.549366 0.040495
Si Si8 0.470646 0.127382 0.602906
O O1 0.514156 0.727168 0.589668
O O2 0.399094 0.820939 0.418975
O O3 0.500000 0.000000 0.500000
O O4 0.969958 0.002546 0.320248
O O5 0.412050 0.443373 0.779944
O O6 0.915953 0.338726 0.906286
O O7 0.598864 0.186663 0.805490
O O8 0.927508 0.122234 0.024065
O O9 0.493378 0.943301 0.773426
O O10 0.681111 0.095856 0.735267
O O11 0.341299 0.689852 0.638167
O O12 0.178303 0.789587 0.675190
O O13 0.863585 0.700776 0.521890
O O14 0.905531 0.627952 0.834461
O O15 0.442386 0.954727 0.610969
O O16 0.429239 0.322988 0.089915
O O17 0.000000 0.500000 0.000000
#
# Coordination Sequence:
#
# PCOD8027836 Si02
#       8
#     2   2   2   2   2   2   2   2
#     4  10  21  33  47  77 112 140 175 215 258 302
#     4   9  20  34  53  86 107 128 166 233 258 310
#     4  10  20  35  57  77 109 137 173 206 276 311
#     4  11  18  31  57  80 104 128 183 220 258 296
#     4  10  17  30  50  78 104 132 167 221 260 300
#     4  11  18  33  55  83 103 137 172 223 257 311
#     4  10  17  30  55  82 103 127 172 220 265 301
#     4  11  20  32  51  76 107 146 172 212 256 314
#
# _framework density 18.599905
#
# number of rings (size 3 to 8) (size 9 to 14) (size 15 to 20)
#    0.000    1.750    6.250    1.875    0.000    0.500 
#    0.000    3.750    0.000   13.500    0.000    0.000 
#    0.000    0.000    0.000    0.000    0.000    0.000 
#
# Total GULP energy -198229.283212 kJ/mol
# GULP energy per Si atom -12389.330201 kJ/mol
# Density = 1.855757 g / cm^3
# Si number density = 18.599905 Si / 1000 Ang^3
#
#
#
# Elastic Constant Matrix: (Units=GPa)
#
#
# Indices 1 2 3 4 5 6 
#
# 1 83.9840 6.4075 65.4147 -0.4485 -12.6915 -18.7593
# 2 6.4075 58.3894 26.4387 3.7454 -6.9590 -6.6921
# 3 65.4147 26.4387 156.7047 -6.1836 -13.6468 -18.3779
# 4 -0.4485 3.7454 -6.1836 18.3754 -4.8333 -7.5186
# 5 -12.6915 -6.9590 -13.6468 -4.8333 17.9648 5.5339
# 6 -18.7593 -6.6921 -18.3779 -7.5186 5.5339 11.1637
#
#
#
# Elastic Compliance Matrix: (Units=1/GPa)
#
#
# Indices 1 2 3 4 5 6 
#
# 1 0.028808 0.004780 -0.004881 0.022423 0.007739 0.054503
# 2 0.004780 0.020121 -0.003345 0.001600 0.004998 0.013186
# 3 -0.004881 -0.003345 0.011350 0.011028 0.002296 0.014767
# 4 0.022423 0.001600 0.011028 0.114037 0.016955 0.125191
# 5 0.007739 0.004998 0.002296 0.016955 0.070533 -0.003765
# 6 0.054503 0.013186 0.014767 0.125191 -0.003765 0.299557
#
#
# Mechanical properties :
#
#
# Convention : Reuss Voigt Hill
#
# Bulk Modulus (GPa) = 18.73160 55.06666 36.89913
# Shear Modulus (GPa) = 8.78588 22.88858 15.83723
#
# Velocity S-wave (km/s) = 2.17575 3.51176 2.92116
# Velocity P-wave (km/s) = 4.05025 6.79069 5.59097
#
# Compressibility (1/GPa) = 0.05338571
#
# Stress axis : x y z
#
# Youngs Moduli (GPa) = 34.71295 49.69950 88.10266
#
# Poissons Ratio (x) = -0.23754 0.43004
# Poissons Ratio (y) = -0.16591 0.29471
# Poissons Ratio (z) = 0.16944 0.16625
#
# Static dielectric constant tensor:
#      x y z
#    x 3.475350 -0.115080 -0.243710 
#    y -0.115080 3.280000 -0.163270 
#    z -0.243710 -0.163270 3.979360 
# 
# 
# High freq. dielectric constant tensor:
#      x y z
#    x 1.677740 -0.007140 -0.003500 
#    y -0.007140 1.692200 -0.006620 
#    z -0.003500 -0.006620 1.748960 
# 
# From -- ./inp_files/586729.got.cif
#   From: 2010.06.25/outbox.cif.g09.slc.cpg/sg2_294_cif.got.tgz:586729.got - 2010.06.27 13:26:56.
