data_PCOD8027196
_publ_section_title
;
Structure prediction by ZEFSAII (Michael W. Deem and Ramdas Pophale) SiO2 
 PCOD8027196
Probable space group: P -1
;
_chemical_formula_sum "Si O2"
_cell_formula_units_Z 12
_cell_length_a 9.549689
_cell_length_b 14.945559
_cell_length_c 19.214369
_cell_angle_alpha 18.481589
_cell_angle_beta 38.081549
_cell_angle_gamma 36.415912
_cell_volume 511.891658
_symmetry_space_group_name_H-M "P -1"
_symmetry_group_IT_number 2
_symmetry_cell_setting 'triclinic'
loop_
_space_group_symop_operation_xyz
x,y,z
-x,-y,-z
loop_
_atom_site_type_symbol
_atom_site_label
_atom_site_fract_x
_atom_site_fract_y
_atom_site_fract_z
Si Si1 0.135196 0.698045 0.941646
Si Si2 0.592220 0.225716 0.339513
Si Si3 0.763777 0.758113 0.420362
Si Si4 0.004437 0.176895 0.436271
Si Si5 0.633762 0.070618 0.828860
Si Si6 0.474375 0.276366 0.598527
O O1 0.340790 0.566565 0.899201
O O2 0.181478 0.957521 0.779001
O O3 0.134898 0.429156 0.190161
O O4 0.882211 0.814602 0.915361
O O5 0.398061 0.374034 0.365662
O O6 0.500000 0.000000 0.500000
O O7 0.848596 0.053451 0.396169
O O8 0.610324 0.868559 0.328525
O O9 0.000000 0.500000 0.500000
O O10 0.736163 0.316988 0.462374
O O11 0.000000 0.000000 0.500000
O O12 0.476074 0.080311 0.812436
O O13 0.692128 0.384351 0.581075
O O14 0.500000 0.000000 0.000000
#
# Coordination Sequence:
#
# PCOD8027196 Si02
#       6
#     2   2   2   2   2   2
#     4  11  24  44  70  98 142 186 220 281 353 400
#     4  10  24  44  69  99 141 179 222 287 343 407
#     4  11  23  45  71 102 138 178 230 286 340 413
#     4  12  24  44  68 100 134 178 235 280 335 409
#     4  11  22  41  70 101 135 180 226 280 347 404
#     4  11  23  42  70 100 137 175 229 288 332 405
#
# _framework density 23.442461000000002
#
# number of rings (size 3 to 8) (size 9 to 14) (size 15 to 20)
#    0.000    1.000    6.667    0.000    0.000    3.333 
#    3.000    2.500    0.000    0.000    0.000    0.000 
#    0.000    0.000    0.000    0.000    0.000    0.000 
#
# Total GULP energy -148702.901838 kJ/mol
# GULP energy per Si atom -12391.908486 kJ/mol
# Density = 2.338910 g / cm^3
# Si number density = 23.442461 Si / 1000 Ang^3
#
#
#
# Elastic Constant Matrix: (Units=GPa)
#
#
# Indices 1 2 3 4 5 6 
#
# 1 132.9785 24.8581 23.7175 16.8890 10.6088 16.9420
# 2 24.8581 118.5952 34.7015 31.7144 5.1594 8.5537
# 3 23.7175 34.7015 98.1474 29.8984 6.1948 12.6860
# 4 16.8890 31.7144 29.8984 39.5546 9.7976 3.0869
# 5 10.6088 5.1594 6.1948 9.7976 27.0238 7.8599
# 6 16.9420 8.5537 12.6860 3.0869 7.8599 35.1598
#
#
#
# Elastic Compliance Matrix: (Units=1/GPa)
#
#
# Indices 1 2 3 4 5 6 
#
# 1 0.008554 -0.000790 -0.000714 -0.001874 -0.001437 -0.003186
# 2 -0.000790 0.011126 -0.001218 -0.007991 0.001826 -0.001593
# 3 -0.000714 -0.001218 0.014097 -0.009532 0.001911 -0.004036
# 4 -0.001874 -0.007991 -0.009532 0.042365 -0.012471 0.005355
# 5 -0.001437 0.001826 0.001911 -0.012471 0.043972 -0.009176
# 6 -0.003186 -0.001593 -0.004036 0.005355 -0.009176 0.033402
#
#
# Mechanical properties :
#
#
# Convention : Reuss Voigt Hill
#
# Bulk Modulus (GPa) = 35.29612 57.36391 46.33002
# Shear Modulus (GPa) = 29.69031 38.11059 33.90045
#
# Velocity S-wave (km/s) = 3.56268 4.03638 3.80690
# Velocity P-wave (km/s) = 5.65798 6.80047 6.25536
#
# Compressibility (1/GPa) = 0.02833172
#
# Stress axis : x y z
#
# Youngs Moduli (GPa) = 116.90830 89.87569 70.93773
#
# Poissons Ratio (x) = 0.07105 0.05066
# Poissons Ratio (y) = 0.09241 0.08640
# Poissons Ratio (z) = 0.08349 0.10947
#
# Static dielectric constant tensor:
#      x y z
#    x 4.596090 0.335780 0.612090 
#    y 0.335780 5.099510 1.281450 
#    z 0.612090 1.281450 5.577140 
# 
# 
# High freq. dielectric constant tensor:
#      x y z
#    x 1.940390 0.003580 0.015060 
#    y 0.003580 1.934010 0.018610 
#    z 0.015060 0.018610 1.909260 
# 
# From -- ./inp_files/72058.got.cif
#   From: 2010.06.25/outbox.cif.g09.slc.cpg/sg2_37_cif.got.tgz:72058.got - 2010.06.27 13:26:56.
