data_PCOD8027585
_publ_section_title
;
Structure prediction by ZEFSAII (Michael W. Deem and Ramdas Pophale) SiO2 
 PCOD8027585
Probable space group: P -1
;
_chemical_formula_sum "Si O2"
_cell_formula_units_Z 12
_cell_length_a 15.277599
_cell_length_b 9.881426
_cell_length_c 12.732025
_cell_angle_alpha 144.233214
_cell_angle_beta 27.160907
_cell_angle_gamma 133.658949
_cell_volume 509.236157
_symmetry_space_group_name_H-M "P -1"
_symmetry_group_IT_number 2
_symmetry_cell_setting 'triclinic'
loop_
_space_group_symop_operation_xyz
x,y,z
-x,-y,-z
loop_
_atom_site_type_symbol
_atom_site_label
_atom_site_fract_x
_atom_site_fract_y
_atom_site_fract_z
Si Si1 0.904786 0.872513 0.114280
Si Si2 0.270792 0.377504 0.217552
Si Si3 0.235993 0.506698 0.563419
Si Si4 0.350521 0.075961 0.296347
Si Si5 0.514327 0.116154 0.371492
Si Si6 0.138398 0.751761 0.439227
O O1 0.674865 0.866703 0.339979
O O2 0.941695 0.012225 0.267464
O O3 0.016144 0.614606 0.843792
O O4 0.000000 0.000000 0.000000
O O5 0.345981 0.424255 0.284284
O O6 0.294104 0.590003 0.244918
O O7 0.040121 0.382049 0.485200
O O8 0.370641 0.142645 0.910143
O O9 0.213187 0.294483 0.533022
O O10 0.353589 0.695719 0.611862
O O11 0.448867 0.165093 0.352181
O O12 0.242546 0.846170 0.286086
O O13 0.500000 0.000000 0.000000
#
# Coordination Sequence:
#
# PCOD8027585 Si02
#       6
#     2   2   2   2   2   2
#     4  11  24  46  70 111 143 184 244 297 360 424
#     4  11  23  48  77 106 143 196 239 302 358 425
#     4  12  25  47  76 104 148 191 238 292 369 426
#     4  11  25  47  72 109 145 194 244 291 361 434
#     4  11  26  47  74 108 146 188 244 299 353 433
#     4  10  24  45  74 107 150 184 245 300 359 423
#
# _framework density 23.564705
#
# number of rings (size 3 to 8) (size 9 to 14) (size 15 to 20)
#    0.000    1.000    5.000    0.500    0.000    9.333 
#    3.000    0.000    0.000    0.000    0.000    0.000 
#    0.000    0.000    0.000    0.000    0.000    0.000 
#
# Total GULP energy -148774.749191 kJ/mol
# GULP energy per Si atom -12397.895766 kJ/mol
# Density = 2.351107 g / cm^3
# Si number density = 23.564705 Si / 1000 Ang^3
#
#
#
# Elastic Constant Matrix: (Units=GPa)
#
#
# Indices 1 2 3 4 5 6 
#
# 1 77.6663 53.4338 28.6535 2.9612 -6.1436 -14.9139
# 2 53.4338 162.0520 59.6833 4.6193 -6.9337 -37.2592
# 3 28.6535 59.6833 108.3696 -0.5392 -12.9648 -23.4203
# 4 2.9612 4.6193 -0.5392 43.6515 -10.0777 -0.4392
# 5 -6.1436 -6.9337 -12.9648 -10.0777 37.8910 9.0156
# 6 -14.9139 -37.2592 -23.4203 -0.4392 9.0156 48.8909
#
#
#
# Elastic Compliance Matrix: (Units=1/GPa)
#
#
# Indices 1 2 3 4 5 6 
#
# 1 0.016993 -0.004839 -0.001584 -0.000402 0.001094 0.000531
# 2 -0.004839 0.010113 -0.003430 -0.001095 -0.001556 0.004865
# 3 -0.001584 -0.003430 0.012416 0.001383 0.003190 0.002274
# 4 -0.000402 -0.001095 0.001383 0.024695 0.007105 -0.001383
# 5 0.001094 -0.001556 0.003190 0.007105 0.030424 -0.004870
# 6 0.000531 0.004865 0.002274 -0.001383 -0.004870 0.026298
#
#
# Mechanical properties :
#
#
# Convention : Reuss Voigt Hill
#
# Bulk Modulus (GPa) = 50.46812 70.18101 60.32457
# Shear Modulus (GPa) = 33.95519 39.84118 36.89819
#
# Velocity S-wave (km/s) = 3.80008 4.11629 3.96134
# Velocity P-wave (km/s) = 6.38103 7.24146 6.82481
#
# Compressibility (1/GPa) = 0.01981449
#
# Stress axis : x y z
#
# Youngs Moduli (GPa) = 58.84630 98.88191 80.54215
#
# Poissons Ratio (x) = 0.47852 0.12759
# Poissons Ratio (y) = 0.28478 0.27629
# Poissons Ratio (z) = 0.09322 0.33921
#
# Static dielectric constant tensor:
#      x y z
#    x 4.372400 -0.374250 -0.136380 
#    y -0.374250 4.435560 0.298470 
#    z -0.136380 0.298470 4.352370 
# 
# 
# High freq. dielectric constant tensor:
#      x y z
#    x 1.929770 -0.006660 0.000460 
#    y -0.006660 1.932950 0.006180 
#    z 0.000460 0.006180 1.947870 
# 
# From -- ./inp_files/262642.got.cif
#   From: 2010.06.25/outbox.cif.g09.slc.cpg/sg2_132_cif.got.tgz:262642.got - 2010.06.27 13:26:56.
