data_PCOD8027527
_publ_section_title
;
Structure prediction by ZEFSAII (Michael W. Deem and Ramdas Pophale) SiO2 
 PCOD8027527
Probable space group: P -1
;
_chemical_formula_sum "Si O2"
_cell_formula_units_Z 14
_cell_length_a 12.176018
_cell_length_b 17.640534
_cell_length_c 17.605857
_cell_angle_alpha 148.416269
_cell_angle_beta 147.547689
_cell_angle_gamma 19.899681
_cell_volume 654.395990
_symmetry_space_group_name_H-M "P -1"
_symmetry_group_IT_number 2
_symmetry_cell_setting 'triclinic'
loop_
_space_group_symop_operation_xyz
x,y,z
-x,-y,-z
loop_
_atom_site_type_symbol
_atom_site_label
_atom_site_fract_x
_atom_site_fract_y
_atom_site_fract_z
Si Si1 0.128073 0.217113 0.996868
Si Si2 0.168256 0.277576 0.363762
Si Si3 0.895253 0.497477 0.855753
Si Si4 0.215195 0.546116 0.856572
Si Si5 0.655692 0.032989 0.669914
Si Si6 0.124180 0.907606 0.713707
Si Si7 0.891799 0.935555 0.441594
O O1 0.962362 0.158232 0.821642
O O2 0.949189 0.462093 0.071540
O O3 0.101010 0.244771 0.095655
O O4 0.500000 0.000000 0.000000
O O5 0.000000 0.500000 0.500000
O O6 0.912219 0.365018 0.226595
O O7 0.219362 0.107755 0.299685
O O8 0.500667 0.161154 0.422255
O O9 0.503995 0.706142 0.789652
O O10 0.044728 0.256832 0.721779
O O11 0.000000 0.500000 0.000000
O O12 0.364853 0.305267 0.753904
O O13 0.500000 0.500000 0.000000
O O14 0.500000 0.000000 0.500000
O O15 0.950374 0.934378 0.707766
O O16 0.086933 0.842250 0.556514
O O17 0.000000 0.000000 0.500000
#
# Coordination Sequence:
#
# PCOD8027527 Si02
#       7
#     2   2   2   2   2   2   2
#     4  10  24  45  70  98 147 180 233 294 357 416
#     4  12  28  46  75 105 144 192 241 296 358 428
#     4  11  26  43  70 106 141 183 233 294 359 422
#     4  12  26  46  73 106 141 190 237 295 361 418
#     4  12  24  48  73 104 148 187 243 294 357 429
#     4  11  24  46  72 102 143 187 233 298 356 421
#     4  12  27  44  73 107 140 187 243 289 360 428
#
# _framework density 21.393774000000001
#
# number of rings (size 3 to 8) (size 9 to 14) (size 15 to 20)
#    0.000    0.571    4.286    2.143   10.000    1.714 
#    0.000    0.000    0.000    0.000    0.000    0.000 
#    0.000    0.000    0.000    0.000    0.000    0.000 
#
# Total GULP energy -173503.478566 kJ/mol
# GULP energy per Si atom -12393.105612 kJ/mol
# Density = 2.134508 g / cm^3
# Si number density = 21.393774 Si / 1000 Ang^3
#
#
#
# Elastic Constant Matrix: (Units=GPa)
#
#
# Indices 1 2 3 4 5 6 
#
# 1 165.9283 64.0221 69.4657 3.8124 -0.3117 3.3157
# 2 64.0221 117.5443 73.1459 4.3111 -5.9929 0.3954
# 3 69.4657 73.1459 177.9295 9.9345 -11.8304 8.0298
# 4 3.8124 4.3111 9.9345 52.6088 8.5544 -2.5520
# 5 -0.3117 -5.9929 -11.8304 8.5544 51.3856 1.1946
# 6 3.3157 0.3954 8.0298 -2.5520 1.1946 43.1608
#
#
#
# Elastic Compliance Matrix: (Units=1/GPa)
#
#
# Indices 1 2 3 4 5 6 
#
# 1 0.008069 -0.003289 -0.001849 0.000150 -0.000780 -0.000215
# 2 -0.003289 0.012801 -0.003974 -0.000109 0.000557 0.000853
# 3 -0.001849 -0.003974 0.008236 -0.001444 0.001696 -0.001486
# 4 0.000150 -0.000109 -0.001444 0.019956 -0.003702 0.001540
# 5 -0.000780 0.000557 0.001696 -0.003702 0.020552 -0.001048
# 6 -0.000215 0.000853 -0.001486 0.001540 -0.001048 0.023574
#
#
# Mechanical properties :
#
#
# Convention : Reuss Voigt Hill
#
# Bulk Modulus (GPa) = 91.88496 97.18548 94.53522
# Shear Modulus (GPa) = 43.46334 46.41560 44.93947
#
# Velocity S-wave (km/s) = 4.51220 4.66293 4.58819
# Velocity P-wave (km/s) = 8.37790 8.63228 8.50604
#
# Compressibility (1/GPa) = 0.01088317
#
# Stress axis : x y z
#
# Youngs Moduli (GPa) = 123.92937 78.11746 121.41787
#
# Poissons Ratio (x) = 0.25694 0.22446
# Poissons Ratio (y) = 0.40762 0.48249
# Poissons Ratio (z) = 0.22911 0.31042
#
# Static dielectric constant tensor:
#      x y z
#    x 4.041750 -0.049250 0.145110 
#    y -0.049250 3.976800 0.248140 
#    z 0.145110 0.248140 4.381730 
# 
# 
# High freq. dielectric constant tensor:
#      x y z
#    x 1.857290 -0.004580 0.002610 
#    y -0.004580 1.834250 0.012310 
#    z 0.002610 0.012310 1.862630 
# 
# From -- ./inp_files/389195.got.cif
#   From: 2010.06.25/outbox.cif.g09.slc.cpg/sg2_195_cif.got.tgz:389195.got - 2010.06.27 13:26:56.
