data_PCOD8027739
_publ_section_title
;
Structure prediction by ZEFSAII (Michael W. Deem and Ramdas Pophale) SiO2 
 PCOD8027739
Probable space group: P -1
;
_chemical_formula_sum "Si O2"
_cell_formula_units_Z 14
_cell_length_a 11.661448
_cell_length_b 6.961003
_cell_length_c 7.304104
_cell_angle_alpha 97.134752
_cell_angle_beta 86.714745
_cell_angle_gamma 88.484145
_cell_volume 587.018098
_symmetry_space_group_name_H-M "P -1"
_symmetry_group_IT_number 2
_symmetry_cell_setting 'triclinic'
loop_
_space_group_symop_operation_xyz
x,y,z
-x,-y,-z
loop_
_atom_site_type_symbol
_atom_site_label
_atom_site_fract_x
_atom_site_fract_y
_atom_site_fract_z
Si Si1 0.845312 0.527660 0.093663
Si Si2 0.451167 0.188947 0.423425
Si Si3 0.945214 0.557046 0.707888
Si Si4 0.167338 0.759518 0.523096
Si Si5 0.362293 0.555186 0.674212
Si Si6 0.120706 0.035775 0.898249
Si Si7 0.214726 0.075345 0.265199
O O1 0.714317 0.473073 0.140164
O O2 0.853432 0.111501 0.282354
O O3 0.872588 0.749875 0.159950
O O4 0.871861 0.472006 0.875217
O O5 0.423260 0.349276 0.599758
O O6 0.544791 0.278111 0.286610
O O7 0.500000 0.000000 0.500000
O O8 0.339898 0.145325 0.311363
O O9 0.939182 0.385640 0.529883
O O10 0.072960 0.593640 0.783871
O O11 0.883350 0.757017 0.673282
O O12 0.281197 0.623107 0.519310
O O13 0.179840 0.893910 0.364404
O O14 0.217587 0.011068 0.044511
O O15 0.000000 0.000000 0.000000
#
# Coordination Sequence:
#
# PCOD8027739 Si02
#       7
#     2   2   2   2   2   2   2
#     4  10  24  47  70 108 152 186 241 300 358 435
#     4  11  23  48  73 106 143 188 245 306 356 424
#     4  10  24  46  73 105 149 190 234 299 362 435
#     4  12  25  43  74 104 143 191 239 294 360 426
#     4  11  25  42  77 104 138 188 244 297 359 424
#     4  11  27  46  69 110 154 190 239 294 358 439
#     4  11  24  47  74 105 143 192 240 294 363 428
#
# _framework density 23.849350999999999
#
# number of rings (size 3 to 8) (size 9 to 14) (size 15 to 20)
#    0.000    1.143    2.857    1.714    8.000    4.000 
#    0.000    3.571    3.143    0.000    0.000    0.000 
#    0.000    0.000    0.000    0.000    0.000    0.000 
#
# Total GULP energy -173628.441614 kJ/mol
# GULP energy per Si atom -12402.031544 kJ/mol
# Density = 2.379507 g / cm^3
# Si number density = 23.849351 Si / 1000 Ang^3
#
#
#
# Elastic Constant Matrix: (Units=GPa)
#
#
# Indices 1 2 3 4 5 6 
#
# 1 132.2317 49.6685 5.8330 -13.1755 -8.1369 15.2542
# 2 49.6685 147.4209 27.6785 -6.9418 3.2767 -3.5351
# 3 5.8330 27.6785 76.1303 5.6251 1.2253 -7.1930
# 4 -13.1755 -6.9418 5.6251 39.9066 2.2976 -1.6119
# 5 -8.1369 3.2767 1.2253 2.2976 43.8478 -7.1019
# 6 15.2542 -3.5351 -7.1930 -1.6119 -7.1019 54.0709
#
#
#
# Elastic Compliance Matrix: (Units=1/GPa)
#
#
# Indices 1 2 3 4 5 6 
#
# 1 0.009362 -0.003133 -0.000021 0.002362 0.001429 -0.002591
# 2 -0.003133 0.008453 -0.002795 0.000928 -0.001029 0.000957
# 3 -0.000021 -0.002795 0.014494 -0.002479 0.000206 0.001704
# 4 0.002362 0.000928 -0.002479 0.026395 -0.000990 -0.000279
# 5 0.001429 -0.001029 0.000206 -0.000990 0.023620 0.002630
# 6 -0.002591 0.000957 0.001704 -0.000279 0.002630 0.019852
#
#
# Mechanical properties :
#
#
# Convention : Reuss Voigt Hill
#
# Bulk Modulus (GPa) = 48.98947 58.01588 53.50268
# Shear Modulus (GPa) = 41.36426 45.73858 43.55142
#
# Velocity S-wave (km/s) = 4.16913 4.38403 4.27793
# Velocity P-wave (km/s) = 6.61523 7.07143 6.84713
#
# Compressibility (1/GPa) = 0.02041255
#
# Stress axis : x y z
#
# Youngs Moduli (GPa) = 106.81034 118.29927 68.99442
#
# Poissons Ratio (x) = 0.37065 0.00142
# Poissons Ratio (y) = 0.33465 0.19282
# Poissons Ratio (z) = 0.00219 0.33062
#
# Static dielectric constant tensor:
#      x y z
#    x 4.562510 0.064430 -0.016750 
#    y 0.064430 4.708760 -0.170460 
#    z -0.016750 -0.170460 4.516910 
# 
# 
# High freq. dielectric constant tensor:
#      x y z
#    x 1.942740 0.010490 -0.007810 
#    y 0.010490 1.978820 -0.016190 
#    z -0.007810 -0.016190 1.948970 
# 
# From -- ./inp_files/229720.got.cif
#   From: 2010.06.25/outbox.cif.g09.slc.cpg/sg2_115_cif.got.tgz:229720.got - 2010.06.27 13:26:56.
