data_PCOD8027883
_publ_section_title
;
Structure prediction by ZEFSAII (Michael W. Deem and Ramdas Pophale) SiO2 
 PCOD8027883
Probable space group: P -1
;
_chemical_formula_sum "Si O2"
_cell_formula_units_Z 16
_cell_length_a 8.377347
_cell_length_b 23.450194
_cell_length_c 9.047972
_cell_angle_alpha 37.260839
_cell_angle_beta 43.775875
_cell_angle_gamma 41.693176
_cell_volume 678.830478
_symmetry_space_group_name_H-M "P -1"
_symmetry_group_IT_number 2
_symmetry_cell_setting 'triclinic'
loop_
_space_group_symop_operation_xyz
x,y,z
-x,-y,-z
loop_
_atom_site_type_symbol
_atom_site_label
_atom_site_fract_x
_atom_site_fract_y
_atom_site_fract_z
Si Si1 0.037454 0.494902 0.236882
Si Si2 0.845169 0.791121 0.478891
Si Si3 0.874364 0.263100 0.896467
Si Si4 0.716843 0.177043 0.702148
Si Si5 0.154525 0.338923 0.747386
Si Si6 0.038413 0.893761 0.627894
Si Si7 0.673012 0.607009 0.011098
Si Si8 0.516341 0.020086 0.276618
O O1 0.051178 0.415652 0.517859
O O2 0.289741 0.444059 0.073120
O O3 0.974919 0.604675 0.130608
O O4 0.814821 0.516350 0.221151
O O5 0.751331 0.704425 0.777099
O O6 0.942025 0.757190 0.320376
O O7 0.063724 0.795725 0.429509
O O8 0.627187 0.905914 0.366286
O O9 0.020062 0.264814 0.950273
O O10 0.816639 0.169645 0.190239
O O11 0.619609 0.359918 0.827000
O O12 0.457682 0.281636 0.673397
O O13 0.778083 0.144185 0.558595
O O14 0.695333 0.081423 0.001214
O O15 0.756222 0.903803 0.758207
O O16 0.000000 0.000000 0.500000
O O17 0.500000 0.000000 0.500000
#
# Coordination Sequence:
#
# PCOD8027883 Si02
#       8
#     2   2   2   2   2   2   2   2
#     4  10  24  48  71 101 140 182 238 292 348 419
#     4  12  27  45  74 103 145 187 235 286 346 423
#     4  12  26  44  74 104 145 184 231 293 353 411
#     4  12  27  48  72 105 145 187 234 285 350 419
#     4  11  24  47  70 105 142 181 235 294 352 408
#     4  12  27  43  72 106 143 189 231 289 347 411
#     4  11  25  48  72 104 139 185 237 284 356 417
#     4  12  27  46  72 106 143 186 237 278 349 424
#
# _framework density 23.569949999999999
#
# number of rings (size 3 to 8) (size 9 to 14) (size 15 to 20)
#    0.000    0.500    3.750    3.375    8.750    2.000 
#    9.000    0.000    0.000    0.000    0.000    0.000 
#    0.000    0.000    0.000    0.000    0.000    0.000 
#
# Total GULP energy -198209.434300 kJ/mol
# GULP energy per Si atom -12388.089644 kJ/mol
# Density = 2.351630 g / cm^3
# Si number density = 23.569950 Si / 1000 Ang^3
#
#
#
# Elastic Constant Matrix: (Units=GPa)
#
#
# Indices 1 2 3 4 5 6 
#
# 1 69.7088 25.5661 13.9165 6.3048 4.7492 1.8469
# 2 25.5661 144.7430 23.7557 7.6936 -4.2951 -0.1249
# 3 13.9165 23.7557 62.4003 6.4072 14.5997 -12.3910
# 4 6.3048 7.6936 6.4072 26.9747 -6.9442 8.2140
# 5 4.7492 -4.2951 14.5997 -6.9442 30.6678 -3.2343
# 6 1.8469 -0.1249 -12.3910 8.2140 -3.2343 44.6037
#
#
#
# Elastic Compliance Matrix: (Units=1/GPa)
#
#
# Indices 1 2 3 4 5 6 
#
# 1 0.016105 -0.002457 -0.001865 -0.003073 -0.002733 -0.000824
# 2 -0.002457 0.007974 -0.003316 0.000045 0.003024 -0.000586
# 3 -0.001865 -0.003316 0.023079 -0.009564 -0.012555 0.007330
# 4 -0.003073 0.000045 -0.009564 0.046881 0.014585 -0.010105
# 5 -0.002733 0.003024 -0.012555 0.014585 0.042420 -0.002976
# 6 -0.000824 -0.000586 0.007330 -0.010105 -0.002976 0.026134
#
#
# Mechanical properties :
#
#
# Convention : Reuss Voigt Hill
#
# Bulk Modulus (GPa) = 31.36619 44.81430 38.09025
# Shear Modulus (GPa) = 26.52572 34.69017 30.60794
#
# Velocity S-wave (km/s) = 3.35834 3.84056 3.60752
# Velocity P-wave (km/s) = 5.32678 6.22263 5.79205
#
# Compressibility (1/GPa) = 0.03188146
#
# Stress axis : x y z
#
# Youngs Moduli (GPa) = 62.09330 125.40883 43.32891
#
# Poissons Ratio (x) = 0.30813 0.08081
# Poissons Ratio (y) = 0.15256 0.14369
# Poissons Ratio (z) = 0.11580 0.41589
#
# Static dielectric constant tensor:
#      x y z
#    x 2.482450 0.506040 -0.233130 
#    y 0.506040 4.528810 -0.146860 
#    z -0.233130 -0.146860 4.053130 
# 
# 
# High freq. dielectric constant tensor:
#      x y z
#    x 1.936340 -0.003230 0.016550 
#    y -0.003230 1.960780 -0.008900 
#    z 0.016550 -0.008900 1.933080 
# 
# From -- ./inp_files/135185.got.cif
#   From: 2010.06.25/outbox.cif.g09.slc.cpg/sg2_68_cif.got.tgz:135185.got - 2010.06.27 13:26:56.
