data_PCOD8027908
_publ_section_title
;
Structure prediction by ZEFSAII (Michael W. Deem and Ramdas Pophale) SiO2 
 PCOD8027908
Probable space group: P -1
;
_chemical_formula_sum "Si O2"
_cell_formula_units_Z 12
_cell_length_a 15.107231
_cell_length_b 10.354499
_cell_length_c 4.978420
_cell_angle_alpha 90.618143
_cell_angle_beta 80.457978
_cell_angle_gamma 35.397531
_cell_volume 430.095937
_symmetry_space_group_name_H-M "P -1"
_symmetry_group_IT_number 2
_symmetry_cell_setting 'triclinic'
loop_
_space_group_symop_operation_xyz
x,y,z
-x,-y,-z
loop_
_atom_site_type_symbol
_atom_site_label
_atom_site_fract_x
_atom_site_fract_y
_atom_site_fract_z
Si Si1 0.888118 0.104974 0.306778
Si Si2 0.281095 0.874722 0.960600
Si Si3 0.681616 0.811934 0.471327
Si Si4 0.202228 0.464507 0.088043
Si Si5 0.101122 0.247744 0.490655
Si Si6 0.639503 0.484585 0.785688
O O1 0.734686 0.381597 0.448888
O O2 0.801340 0.068397 0.283002
O O3 0.000000 0.000000 0.500000
O O4 0.000000 0.000000 0.000000
O O5 0.316705 0.706796 0.120157
O O6 0.156514 0.115312 0.183975
O O7 0.453655 0.734997 0.823700
O O8 0.704338 0.743860 0.766549
O O9 0.739858 0.893837 0.423605
O O10 0.500000 0.000000 0.500000
O O11 0.796758 0.592532 0.213935
O O12 0.292405 0.493173 0.037978
O O13 0.017529 0.706003 0.281737
O O14 0.000000 0.500000 0.500000
#
# Coordination Sequence:
#
# PCOD8027908 Si02
#       6
#     2   2   2   2   2   2
#     4  12  25  46  73 107 150 194 248 305 375 452
#     4  11  25  50  75 111 157 200 250 315 383 458
#     4  11  24  47  73 106 147 198 251 307 372 442
#     4  11  25  44  74 106 148 190 251 311 371 447
#     4  10  24  48  76 108 147 200 253 309 370 444
#     4  11  26  47  76 115 155 198 249 313 391 454
#
# _framework density 27.900751
#
# number of rings (size 3 to 8) (size 9 to 14) (size 15 to 20)
#    0.000    1.000    1.667    3.500    2.333    4.000 
#    9.000    0.000    0.000    0.000    0.000    0.000 
#    0.000    0.000    0.000    0.000    0.000    0.000 
#
# Total GULP energy -148692.099165 kJ/mol
# GULP energy per Si atom -12391.008264 kJ/mol
# Density = 2.783725 g / cm^3
# Si number density = 27.900751 Si / 1000 Ang^3
#
#
#
# Elastic Constant Matrix: (Units=GPa)
#
#
# Indices 1 2 3 4 5 6 
#
# 1 212.1744 31.3127 51.2913 14.4143 21.2444 -46.6731
# 2 31.3127 99.6351 26.3088 17.2506 0.4339 -28.8371
# 3 51.2913 26.3088 163.0599 28.0555 22.8427 -17.5612
# 4 14.4143 17.2506 28.0555 45.2569 -7.9811 -1.7261
# 5 21.2444 0.4339 22.8427 -7.9811 58.8917 10.1841
# 6 -46.6731 -28.8371 -17.5612 -1.7261 10.1841 38.0452
#
#
#
# Elastic Compliance Matrix: (Units=1/GPa)
#
#
# Indices 1 2 3 4 5 6 
#
# 1 0.008010 0.001765 -0.000052 -0.003693 -0.005537 0.012455
# 2 0.001765 0.014684 0.000339 -0.006571 -0.004237 0.014287
# 3 -0.000052 0.000339 0.008359 -0.005967 -0.004916 0.005096
# 4 -0.003693 -0.006571 -0.005967 0.030759 0.010216 -0.013605
# 5 -0.005537 -0.004237 -0.004916 0.010216 0.025524 -0.018642
# 6 0.012455 0.014287 0.005096 -0.013605 -0.018642 0.059119
#
#
# Mechanical properties :
#
#
# Convention : Reuss Voigt Hill
#
# Bulk Modulus (GPa) = 28.44497 76.96611 52.70554
# Shear Modulus (GPa) = 32.45282 52.83587 42.64435
#
# Velocity S-wave (km/s) = 3.41420 4.35640 3.91376
# Velocity P-wave (km/s) = 5.07539 7.27666 6.27333
#
# Compressibility (1/GPa) = 0.03515561
#
# Stress axis : x y z
#
# Youngs Moduli (GPa) = 124.83932 68.10140 119.63853
#
# Poissons Ratio (x) = -0.12017 0.00622
# Poissons Ratio (y) = -0.22030 -0.04053
# Poissons Ratio (z) = 0.00649 -0.02307
#
# Static dielectric constant tensor:
#      x y z
#    x 6.416630 -0.502250 -0.142020 
#    y -0.502250 5.115570 0.476060 
#    z -0.142020 0.476060 4.776610 
# 
# 
# High freq. dielectric constant tensor:
#      x y z
#    x 2.157130 -0.020250 0.005450 
#    y -0.020250 2.130920 0.014370 
#    z 0.005450 0.014370 2.132610 
# 
# From -- ./inp_files/59743.got.cif
#   From: 2010.06.25/outbox.cif.g09.slc.cpg/sg2_30_cif.got.tgz:59743.got - 2010.06.27 13:26:56.
