data_PCOD8027174
_publ_section_title
;
Structure prediction by ZEFSAII (Michael W. Deem and Ramdas Pophale) SiO2 
 PCOD8027174
Probable space group: P -1
;
_chemical_formula_sum "Si O2"
_cell_formula_units_Z 14
_cell_length_a 19.606368
_cell_length_b 9.443960
_cell_length_c 5.344929
_cell_angle_alpha 48.026765
_cell_angle_beta 114.174870
_cell_angle_gamma 138.229330
_cell_volume 482.114210
_symmetry_space_group_name_H-M "P -1"
_symmetry_group_IT_number 2
_symmetry_cell_setting 'triclinic'
loop_
_space_group_symop_operation_xyz
x,y,z
-x,-y,-z
loop_
_atom_site_type_symbol
_atom_site_label
_atom_site_fract_x
_atom_site_fract_y
_atom_site_fract_z
Si Si1 0.620423 0.225137 0.316422
Si Si2 0.040417 0.365523 0.588022
Si Si3 0.857960 0.243460 0.311600
Si Si4 0.742082 0.390663 0.793898
Si Si5 0.507047 0.336613 0.386496
Si Si6 0.353064 0.331201 0.369440
Si Si7 0.084135 0.081274 0.721488
O O1 0.665079 0.222190 0.645159
O O2 0.512386 0.911089 0.469640
O O3 0.690264 0.292657 0.103322
O O4 0.612409 0.445027 0.050805
O O5 0.127846 0.654294 0.503273
O O6 0.094357 0.262057 0.738337
O O7 0.968488 0.334496 0.296785
O O8 0.949438 0.173055 0.897173
O O9 0.768684 0.924550 0.538574
O O10 0.828928 0.369986 0.934365
O O11 0.801381 0.701550 0.490763
O O12 0.411685 0.229687 0.556040
O O13 0.614491 0.516554 0.493471
O O14 0.500000 0.500000 0.000000
O O15 0.000000 0.000000 0.500000
#
# Coordination Sequence:
#
# PCOD8027174 Si02
#       7
#     2   2   2   2   2   2   2
#     4  12  28  50  78 112 152 199 246 311 373 454
#     4  10  24  44  69 104 147 196 255 307 376 428
#     4  11  22  46  70 103 148 199 247 314 365 448
#     4  12  26  47  74 109 153 199 248 307 375 441
#     4  11  26  49  79 113 147 195 247 316 372 457
#     4  11  26  47  75 111 151 196 250 305 384 443
#     4  11  23  42  67 101 144 195 251 308 362 443
#
# _framework density 29.038765000000001
#
# number of rings (size 3 to 8) (size 9 to 14) (size 15 to 20)
#    0.000    0.857    2.857    3.000    8.000    1.143 
#    2.571    0.000    0.000    0.000    0.000    0.000 
#    0.000    0.000    0.000    0.000    0.000    0.000 
#
# Total GULP energy -173486.020919 kJ/mol
# GULP energy per Si atom -12391.858637 kJ/mol
# Density = 2.897267 g / cm^3
# Si number density = 29.038765 Si / 1000 Ang^3
#
#
#
# Elastic Constant Matrix: (Units=GPa)
#
#
# Indices 1 2 3 4 5 6 
#
# 1 77.3277 39.3087 9.3001 17.2112 32.3658 -26.1350
# 2 39.3087 236.0093 49.9863 8.4135 7.5130 -1.8756
# 3 9.3001 49.9863 129.5797 10.0604 4.7164 2.1521
# 4 17.2112 8.4135 10.0604 52.1147 2.0763 16.7034
# 5 32.3658 7.5130 4.7164 2.0763 42.1372 -1.9675
# 6 -26.1350 -1.8756 2.1521 16.7034 -1.9675 42.2148
#
#
#
# Elastic Compliance Matrix: (Units=1/GPa)
#
#
# Indices 1 2 3 4 5 6 
#
# 1 0.049097 -0.006163 0.001501 -0.026680 -0.033643 0.039034
# 2 -0.006163 0.005421 -0.001925 0.002802 0.003639 -0.004416
# 3 0.001501 -0.001925 0.008558 -0.002153 -0.001606 0.001185
# 4 -0.026680 0.002802 -0.002153 0.036934 0.017009 -0.030104
# 5 -0.033643 0.003639 -0.001606 0.017009 0.047094 -0.025120
# 6 0.039034 -0.004416 0.001185 -0.030104 -0.025120 0.058338
#
#
# Mechanical properties :
#
#
# Convention : Reuss Voigt Hill
#
# Bulk Modulus (GPa) = 20.03960 71.12298 45.58129
# Shear Modulus (GPa) = 21.25411 50.24812 35.75112
#
# Velocity S-wave (km/s) = 2.70834 4.16430 3.51258
# Velocity P-wave (km/s) = 4.08609 6.90416 5.67290
#
# Compressibility (1/GPa) = 0.04990120
#
# Stress axis : x y z
#
# Youngs Moduli (GPa) = 20.36803 184.48226 116.84751
#
# Poissons Ratio (x) = 1.13697 -0.17543
# Poissons Ratio (y) = 0.12553 0.22497
# Poissons Ratio (z) = -0.03058 0.35520
#
# Static dielectric constant tensor:
#      x y z
#    x 7.650840 -0.373030 0.466730 
#    y -0.373030 5.512810 -0.349840 
#    z 0.466730 -0.349840 5.754050 
# 
# 
# High freq. dielectric constant tensor:
#      x y z
#    x 2.201600 -0.003990 0.000660 
#    y -0.003990 2.191180 -0.006870 
#    z 0.000660 -0.006870 2.191180 
# 
# From -- ./inp_files/106405.got.cif
#   From: 2010.06.25/outbox.cif.g09.slc.cpg/sg2_54_cif.got.tgz:106405.got - 2010.06.27 13:26:56.
