data_PCOD8027736
_publ_section_title
;
Structure prediction by ZEFSAII (Michael W. Deem and Ramdas Pophale) SiO2 
 PCOD8027736
Probable space group: P -1
;
_chemical_formula_sum "Si O2"
_cell_formula_units_Z 16
_cell_length_a 10.699234
_cell_length_b 5.913109
_cell_length_c 12.154316
_cell_angle_alpha 106.441810
_cell_angle_beta 80.621348
_cell_angle_gamma 76.490456
_cell_volume 695.129817
_symmetry_space_group_name_H-M "P -1"
_symmetry_group_IT_number 2
_symmetry_cell_setting 'triclinic'
loop_
_space_group_symop_operation_xyz
x,y,z
-x,-y,-z
loop_
_atom_site_type_symbol
_atom_site_label
_atom_site_fract_x
_atom_site_fract_y
_atom_site_fract_z
Si Si1 0.977516 0.198194 0.855949
Si Si2 0.645390 0.016755 0.612033
Si Si3 0.576506 0.711371 0.984721
Si Si4 0.432401 0.779170 0.584832
Si Si5 0.848347 0.541027 0.523530
Si Si6 0.245539 0.610833 0.257097
Si Si7 0.801731 0.535239 0.094881
Si Si8 0.197642 0.717439 0.724763
O O1 0.894926 0.261692 0.763911
O O2 0.088796 0.334468 0.870762
O O3 0.871924 0.282044 0.981965
O O4 0.054591 0.906492 0.803193
O O5 0.621942 0.077550 0.497036
O O6 0.650306 0.229515 0.726096
O O7 0.537668 0.884850 0.648349
O O8 0.792033 0.833105 0.572346
O O9 0.670420 0.628001 0.853449
O O10 0.500000 0.500000 0.000000
O O11 0.677215 0.712611 0.071010
O O12 0.500000 0.000000 0.000000
O O13 0.500000 0.500000 0.500000
O O14 0.313732 0.838242 0.698570
O O15 0.790529 0.431759 0.619489
O O16 0.808917 0.434438 0.403447
O O17 0.000000 0.500000 0.500000
O O18 0.746860 0.463680 0.206722
#
# Coordination Sequence:
#
# PCOD8027736 Si02
#       8
#     2   2   2   2   2   2   2   2
#     4  10  24  46  73 103 142 191 251 311 387 437
#     4  11  24  44  68  99 151 190 239 307 377 450
#     4  11  29  54  81 115 150 206 263 313 389 457
#     4  11  24  44  64 101 146 191 245 298 378 453
#     4  12  26  42  70 109 146 193 243 301 386 454
#     4  11  25  48  74 107 151 195 252 322 375 453
#     4  10  25  48  73 106 143 191 248 320 373 453
#     4  12  24  41  71 107 142 189 245 306 372 457
#
# _framework density 23.017282999999999
#
# number of rings (size 3 to 8) (size 9 to 14) (size 15 to 20)
#    0.000    1.000    2.500    1.875    7.000    4.000 
#    4.500    0.000    0.000    0.000    0.000    0.000 
#    0.000    0.000    0.000    0.000    0.000    0.000 
#
# Total GULP energy -198243.397037 kJ/mol
# GULP energy per Si atom -12390.212315 kJ/mol
# Density = 2.296489 g / cm^3
# Si number density = 23.017283 Si / 1000 Ang^3
#
#
#
# Elastic Constant Matrix: (Units=GPa)
#
#
# Indices 1 2 3 4 5 6 
#
# 1 144.1652 51.5886 44.8642 -7.1533 13.8572 -7.3533
# 2 51.5886 115.8131 47.3210 -7.2982 7.7398 -13.1675
# 3 44.8642 47.3210 131.7392 -16.8235 11.9728 -5.7086
# 4 -7.1533 -7.2982 -16.8235 24.9851 1.5146 1.9824
# 5 13.8572 7.7398 11.9728 1.5146 37.5588 0.7348
# 6 -7.3533 -13.1675 -5.7086 1.9824 0.7348 39.8079
#
#
#
# Elastic Compliance Matrix: (Units=1/GPa)
#
#
# Indices 1 2 3 4 5 6 
#
# 1 0.008777 -0.003023 -0.001609 0.000644 -0.002136 0.000398
# 2 -0.003023 0.011542 -0.002913 0.000344 -0.000404 0.002832
# 3 -0.001609 -0.002913 0.010107 0.005635 -0.002254 -0.000050
# 4 0.000644 0.000344 0.005635 0.044425 -0.003875 -0.001100
# 5 -0.002136 -0.000404 -0.002254 -0.003875 0.028394 -0.001182
# 6 0.000398 0.002832 -0.000050 -0.001100 -0.001182 0.026200
#
#
# Mechanical properties :
#
#
# Convention : Reuss Voigt Hill
#
# Bulk Modulus (GPa) = 65.21077 75.47389 70.34233
# Shear Modulus (GPa) = 33.41144 36.99992 35.20568
#
# Velocity S-wave (km/s) = 3.81409 4.01369 3.91517
# Velocity P-wave (km/s) = 6.91297 7.37163 7.14598
#
# Compressibility (1/GPa) = 0.01533489
#
# Stress axis : x y z
#
# Youngs Moduli (GPa) = 113.93701 86.63782 98.93706
#
# Poissons Ratio (x) = 0.26195 0.15922
# Poissons Ratio (y) = 0.34449 0.28820
# Poissons Ratio (z) = 0.18336 0.25238
#
# Static dielectric constant tensor:
#      x y z
#    x 3.927850 0.211840 -0.176740 
#    y 0.211840 3.906570 0.214950 
#    z -0.176740 0.214950 4.181950 
# 
# 
# High freq. dielectric constant tensor:
#      x y z
#    x 1.925860 -0.010510 0.006190 
#    y -0.010510 1.907260 0.000830 
#    z 0.006190 0.000830 1.921960 
# 
# From -- ./inp_files/411066.got.cif
#   From: 2010.06.25/outbox.cif.g09.slc.cpg/sg2_206_cif.got.tgz:411066.got - 2010.06.27 13:26:56.
