data_PCOD8027664
_publ_section_title
;
Structure prediction by ZEFSAII (Michael W. Deem and Ramdas Pophale) SiO2 
 PCOD8027664
Probable space group: P -1
;
_chemical_formula_sum "Si O2"
_cell_formula_units_Z 14
_cell_length_a 8.756912
_cell_length_b 9.340173
_cell_length_c 21.275402
_cell_angle_alpha 150.011117
_cell_angle_beta 131.362773
_cell_angle_gamma 49.525035
_cell_volume 638.990659
_symmetry_space_group_name_H-M "P -1"
_symmetry_group_IT_number 2
_symmetry_cell_setting 'triclinic'
loop_
_space_group_symop_operation_xyz
x,y,z
-x,-y,-z
loop_
_atom_site_type_symbol
_atom_site_label
_atom_site_fract_x
_atom_site_fract_y
_atom_site_fract_z
Si Si1 0.993812 0.661649 0.870625
Si Si2 0.542060 0.809428 0.648008
Si Si3 0.795982 0.670628 0.081582
Si Si4 0.152834 0.215073 0.638684
Si Si5 0.538121 0.786132 0.783547
Si Si6 0.206478 0.812550 0.205919
Si Si7 0.556086 0.716309 0.364694
O O1 0.759303 0.668029 0.832353
O O2 0.154616 0.486413 0.897744
O O3 0.039103 0.505998 0.755441
O O4 0.000000 0.000000 0.000000
O O5 0.500000 0.500000 0.500000
O O6 0.589816 0.790573 0.726521
O O7 0.339985 0.056181 0.672967
O O8 0.739896 0.889325 0.695239
O O9 0.970314 0.859699 0.184304
O O10 0.573434 0.888734 0.104007
O O11 0.767296 0.433404 0.933252
O O12 0.237605 0.296562 0.625426
O O13 0.000000 0.000000 0.500000
O O14 0.396246 0.558922 0.679413
O O15 0.362747 0.697200 0.260583
O O16 0.500000 0.000000 0.500000
#
# Coordination Sequence:
#
# PCOD8027664 Si02
#       7
#     2   2   2   2   2   2   2
#     4  12  26  45  71 106 149 189 239 300 361 434
#     4  11  23  43  70 104 139 188 241 296 359 437
#     4  11  25  46  71 105 141 190 240 302 353 441
#     4  11  25  45  71 103 149 189 241 299 364 433
#     4  12  25  42  73 100 142 183 242 287 363 418
#     4  10  24  46  69  99 150 180 241 296 364 425
#     4  11  24  45  73 105 144 187 238 302 359 434
#
# _framework density 21.909552999999999
#
# number of rings (size 3 to 8) (size 9 to 14) (size 15 to 20)
#    0.000    0.857    2.857    4.286    4.000    6.286 
#    0.000    2.143    0.000    0.000    0.000    0.000 
#    0.000    0.000    0.000    0.000    0.000    0.000 
#
# Total GULP energy -173578.961156 kJ/mol
# GULP energy per Si atom -12398.497225 kJ/mol
# Density = 2.185969 g / cm^3
# Si number density = 21.909553 Si / 1000 Ang^3
#
#
#
# Elastic Constant Matrix: (Units=GPa)
#
#
# Indices 1 2 3 4 5 6 
#
# 1 130.6782 40.6096 60.8868 13.8401 -0.3952 9.6809
# 2 40.6096 78.7953 15.0064 14.2578 0.5683 8.3369
# 3 60.8868 15.0064 127.1322 15.5451 1.3584 5.7892
# 4 13.8401 14.2578 15.5451 41.9409 0.4345 2.2228
# 5 -0.3952 0.5683 1.3584 0.4345 41.6417 8.1549
# 6 9.6809 8.3369 5.7892 2.2228 8.1549 44.8658
#
#
#
# Elastic Compliance Matrix: (Units=1/GPa)
#
#
# Indices 1 2 3 4 5 6 
#
# 1 0.011546 -0.004861 -0.004878 -0.000300 0.000542 -0.001042
# 2 -0.004861 0.015938 0.001032 -0.004099 0.000110 -0.001863
# 3 -0.004878 0.001032 0.010413 -0.002581 -0.000315 -0.000298
# 4 -0.000300 -0.004099 -0.002581 0.026300 -0.000113 -0.000123
# 5 0.000542 0.000110 -0.000315 -0.000113 0.024935 -0.004624
# 6 -0.001042 -0.001863 -0.000298 -0.000123 -0.004624 0.023745
#
#
# Mechanical properties :
#
#
# Convention : Reuss Voigt Hill
#
# Bulk Modulus (GPa) = 48.82177 63.29015 56.05596
# Shear Modulus (GPa) = 36.46486 40.36320 38.41403
#
# Velocity S-wave (km/s) = 4.08405 4.29682 4.19179
# Velocity P-wave (km/s) = 6.67615 7.31892 7.00491
#
# Compressibility (1/GPa) = 0.02048267
#
# Stress axis : x y z
#
# Youngs Moduli (GPa) = 86.60760 62.74342 96.03697
#
# Poissons Ratio (x) = 0.30500 0.46844
# Poissons Ratio (y) = 0.42101 -0.09908
# Poissons Ratio (z) = 0.42244 -0.06473
#
# Static dielectric constant tensor:
#      x y z
#    x 3.277710 -0.344250 0.458180 
#    y -0.344250 3.905030 0.040390 
#    z 0.458180 0.040390 3.899140 
# 
# 
# High freq. dielectric constant tensor:
#      x y z
#    x 1.875050 0.008220 0.006720 
#    y 0.008220 1.863400 -0.000890 
#    z 0.006720 -0.000890 1.869090 
# 
# From -- ./inp_files/185562.got.cif
#   From: 2010.06.25/outbox.cif.g09.slc.cpg/sg2_93_cif.got.tgz:185562.got - 2010.06.27 13:26:56.
