data_PCOD8027046
_publ_section_title
;
Structure prediction by ZEFSAII (Michael W. Deem and Ramdas Pophale) SiO2 
 PCOD8027046
Probable space group: P -1
;
_chemical_formula_sum "Si O2"
_cell_formula_units_Z 14
_cell_length_a 20.691251
_cell_length_b 5.158903
_cell_length_c 11.553026
_cell_angle_alpha 79.006178
_cell_angle_beta 30.137737
_cell_angle_gamma 84.239886
_cell_volume 602.574342
_symmetry_space_group_name_H-M "P -1"
_symmetry_group_IT_number 2
_symmetry_cell_setting 'triclinic'
loop_
_space_group_symop_operation_xyz
x,y,z
-x,-y,-z
loop_
_atom_site_type_symbol
_atom_site_label
_atom_site_fract_x
_atom_site_fract_y
_atom_site_fract_z
Si Si1 0.159611 0.633236 0.533585
Si Si2 0.756372 0.989270 0.192740
Si Si3 0.528498 0.120659 0.306949
Si Si4 0.121367 0.429433 0.110112
Si Si5 0.412597 0.583770 0.024808
Si Si6 0.326882 0.337403 0.956622
Si Si7 0.859242 0.941217 0.277490
O O1 0.288779 0.713323 0.251609
O O2 0.159225 0.843696 0.616806
O O3 0.164457 0.347127 0.605540
O O4 0.033883 0.637602 0.646279
O O5 0.841413 0.255634 0.994252
O O6 0.757370 0.967522 0.331641
O O7 0.601109 0.984223 0.409608
O O8 0.812416 0.731291 0.078101
O O9 0.500240 0.200070 0.209193
O O10 0.600244 0.386506 0.234127
O O11 0.626649 0.901897 0.166859
O O12 0.174308 0.340869 0.160505
O O13 0.354011 0.332008 0.053844
O O14 0.500000 0.500000 0.000000
O O15 0.000000 0.000000 0.000000
#
# Coordination Sequence:
#
# PCOD8027046 Si02
#       7
#     2   2   2   2   2   2   2
#     4  12  25  42  71  97 134 173 214 273 325 387
#     4  12  24  40  70  95 140 167 219 272 328 387
#     4  10  24  44  65  99 126 180 212 275 315 385
#     4  12  24  42  66 101 129 180 210 269 335 382
#     4  10  26  47  69  96 129 173 223 267 326 382
#     4  10  25  44  64  99 133 168 229 259 324 392
#     4  12  23  42  64 104 131 165 219 266 331 386
#
# _framework density 23.233644999999999
#
# number of rings (size 3 to 8) (size 9 to 14) (size 15 to 20)
#    0.857    0.000    2.857    3.857    4.000    4.571 
#    0.000    0.714    0.000    0.000    0.000    0.000 
#    0.000    0.000    0.000    0.000    0.000    0.000 
#
# Total GULP energy -173541.037354 kJ/mol
# GULP energy per Si atom -12395.788382 kJ/mol
# Density = 2.318076 g / cm^3
# Si number density = 23.233645 Si / 1000 Ang^3
#
#
#
# Elastic Constant Matrix: (Units=GPa)
#
#
# Indices 1 2 3 4 5 6 
#
# 1 123.1750 0.5571 3.2418 2.4588 -20.9003 -7.0212
# 2 0.5571 123.6704 2.0154 14.0154 5.5034 0.3763
# 3 3.2418 2.0154 98.3789 12.1493 -8.6994 0.2838
# 4 2.4588 14.0154 12.1493 24.6748 -4.6572 -2.9157
# 5 -20.9003 5.5034 -8.6994 -4.6572 44.2646 2.1588
# 6 -7.0212 0.3763 0.2838 -2.9157 2.1588 30.2857
#
#
#
# Elastic Compliance Matrix: (Units=1/GPa)
#
#
# Indices 1 2 3 4 5 6 
#
# 1 0.008928 -0.000260 0.000047 0.000239 0.004195 0.001797
# 2 -0.000260 0.008786 0.000363 -0.005533 -0.001697 -0.000585
# 3 0.000047 0.000363 0.010966 -0.005395 0.001600 -0.000730
# 4 0.000239 -0.005533 -0.005395 0.047684 0.004541 0.004442
# 5 0.004195 -0.001697 0.001600 0.004541 0.025595 -0.000409
# 6 0.001797 -0.000585 -0.000730 0.004442 -0.000409 0.033906
#
#
# Mechanical properties :
#
#
# Convention : Reuss Voigt Hill
#
# Bulk Modulus (GPa) = 34.50619 39.65031 37.07825
# Shear Modulus (GPa) = 34.42975 42.47236 38.45106
#
# Velocity S-wave (km/s) = 3.85371 4.28021 4.07255
# Velocity P-wave (km/s) = 5.88944 6.44437 6.17314
#
# Compressibility (1/GPa) = 0.02898031
#
# Stress axis : x y z
#
# Youngs Moduli (GPa) = 112.00915 113.82284 91.19437
#
# Poissons Ratio (x) = 0.02961 -0.00432
# Poissons Ratio (y) = 0.02914 -0.03314
# Poissons Ratio (z) = -0.00531 -0.04137
#
# Static dielectric constant tensor:
#      x y z
#    x 4.815140 0.070880 0.142680 
#    y 0.070880 4.102200 0.028140 
#    z 0.142680 0.028140 4.218980 
# 
# 
# High freq. dielectric constant tensor:
#      x y z
#    x 1.942450 0.002500 -0.007750 
#    y 0.002500 1.924210 0.009800 
#    z -0.007750 0.009800 1.904390 
# 
# From -- ./inp_files/467741.got.cif
#   From: 2010.06.25/outbox.cif.g09.slc.cpg/sg2_234_cif.got.tgz:467741.got - 2010.06.27 13:26:56.
