data_PCOD8027590
_publ_section_title
;
Structure prediction by ZEFSAII (Michael W. Deem and Ramdas Pophale) SiO2 
 PCOD8027590
Probable space group: P -1
;
_chemical_formula_sum "Si O2"
_cell_formula_units_Z 14
_cell_length_a 9.299193
_cell_length_b 8.942943
_cell_length_c 11.679943
_cell_angle_alpha 123.467603
_cell_angle_beta 51.012037
_cell_angle_gamma 95.194790
_cell_volume 578.473657
_symmetry_space_group_name_H-M "P -1"
_symmetry_group_IT_number 2
_symmetry_cell_setting 'triclinic'
loop_
_space_group_symop_operation_xyz
x,y,z
-x,-y,-z
loop_
_atom_site_type_symbol
_atom_site_label
_atom_site_fract_x
_atom_site_fract_y
_atom_site_fract_z
Si Si1 0.789437 0.764173 0.734607
Si Si2 0.928436 0.572618 0.814040
Si Si3 0.383961 0.836973 0.444509
Si Si4 0.800553 0.495918 0.158967
Si Si5 0.642621 0.975346 0.238797
Si Si6 0.369938 0.821953 0.902686
Si Si7 0.076060 0.783515 0.419384
O O1 0.934206 0.624229 0.699281
O O2 0.594625 0.712010 0.794259
O O3 0.895116 0.743644 0.551476
O O4 0.736076 0.985495 0.890006
O O5 0.854393 0.390206 0.784542
O O6 0.150063 0.511472 0.732761
O O7 0.775815 0.756321 0.039015
O O8 0.600548 0.681746 0.310492
O O9 0.264870 0.958867 0.667492
O O10 0.249410 0.741121 0.409298
O O11 0.426504 0.979016 0.390537
O O12 0.761646 0.304436 0.065761
O O13 0.000000 0.500000 0.000000
O O14 0.616429 0.129403 0.217060
O O15 0.000000 0.000000 0.500000
#
# Coordination Sequence:
#
# PCOD8027590 Si02
#       7
#     2   2   2   2   2   2   2
#     4  10  24  47  71 108 145 189 241 296 362 428
#     4  11  26  46  70 104 145 189 240 294 360 430
#     4  11  26  46  72 106 147 188 237 301 358 427
#     4  12  27  46  73 108 145 191 245 297 359 426
#     4  10  24  46  73 103 144 186 244 291 365 418
#     4  10  24  45  76 103 144 192 242 295 361 432
#     4  12  28  44  76 107 147 188 240 302 364 427
#
# _framework density 24.201619999999998
#
# number of rings (size 3 to 8) (size 9 to 14) (size 15 to 20)
#    0.000    1.143    1.429    2.143   12.000    2.286 
#    0.000    0.000    0.000    0.000    0.000    0.000 
#    0.000    0.000    0.000    0.000    0.000    0.000 
#
# Total GULP energy -173520.981157 kJ/mol
# GULP energy per Si atom -12394.355797 kJ/mol
# Density = 2.414654 g / cm^3
# Si number density = 24.201620 Si / 1000 Ang^3
#
#
#
# Elastic Constant Matrix: (Units=GPa)
#
#
# Indices 1 2 3 4 5 6 
#
# 1 171.0262 72.5657 36.2718 13.6426 2.3862 16.6592
# 2 72.5657 137.6796 59.2796 9.3312 -5.0917 12.3175
# 3 36.2718 59.2796 77.5380 6.9875 12.0763 0.2285
# 4 13.6426 9.3312 6.9875 36.8580 2.0375 7.9668
# 5 2.3862 -5.0917 12.0763 2.0375 28.4228 5.8375
# 6 16.6592 12.3175 0.2285 7.9668 5.8375 50.7059
#
#
#
# Elastic Compliance Matrix: (Units=1/GPa)
#
#
# Indices 1 2 3 4 5 6 
#
# 1 0.007783 -0.003636 -0.000619 -0.001513 -0.000654 -0.001358
# 2 -0.003636 0.014233 -0.010400 -0.000049 0.007918 -0.003120
# 3 -0.000619 -0.010400 0.023224 -0.001791 -0.012441 0.004339
# 4 -0.001513 -0.000049 -0.001791 0.028925 -0.000376 -0.003984
# 5 -0.000654 0.007918 -0.012441 -0.000376 0.043321 -0.006581
# 6 -0.001358 -0.003120 0.004339 -0.003984 -0.006581 0.022290
#
#
# Mechanical properties :
#
#
# Convention : Reuss Voigt Hill
#
# Bulk Modulus (GPa) = 62.77433 80.27533 71.52483
# Shear Modulus (GPa) = 28.67061 37.73911 33.20486
#
# Velocity S-wave (km/s) = 3.44562 3.95316 3.70808
# Velocity P-wave (km/s) = 6.46715 7.35378 6.92467
#
# Compressibility (1/GPa) = 0.01593008
#
# Stress axis : x y z
#
# Youngs Moduli (GPa) = 128.48319 70.26095 43.05948
#
# Poissons Ratio (x) = 0.25546 0.02665
# Poissons Ratio (y) = 0.46715 0.44782
# Poissons Ratio (z) = 0.07952 0.73071
#
# Static dielectric constant tensor:
#      x y z
#    x 4.757170 -0.055690 0.283360 
#    y -0.055690 4.517520 0.155330 
#    z 0.283360 0.155330 4.324870 
# 
# 
# High freq. dielectric constant tensor:
#      x y z
#    x 1.970670 -0.003680 0.018480 
#    y -0.003680 1.969290 0.015320 
#    z 0.018480 0.015320 1.956360 
# 
# From -- ./inp_files/383073.got.cif
#   From: 2010.06.25/outbox.cif.g09.slc.cpg/sg2_192_cif.got.tgz:383073.got - 2010.06.27 13:26:56.
