data_PCOD8027945
_publ_section_title
;
Structure prediction by ZEFSAII (Michael W. Deem and Ramdas Pophale) SiO2 
 PCOD8027945
Probable space group: P -1
;
_chemical_formula_sum "Si O2"
_cell_formula_units_Z 12
_cell_length_a 14.971233
_cell_length_b 9.143089
_cell_length_c 15.151722
_cell_angle_alpha 143.800454
_cell_angle_beta 152.926469
_cell_angle_gamma 28.426156
_cell_volume 446.604799
_symmetry_space_group_name_H-M "P -1"
_symmetry_group_IT_number 2
_symmetry_cell_setting 'triclinic'
loop_
_space_group_symop_operation_xyz
x,y,z
-x,-y,-z
loop_
_atom_site_type_symbol
_atom_site_label
_atom_site_fract_x
_atom_site_fract_y
_atom_site_fract_z
Si Si1 0.705062 0.171692 0.480877
Si Si2 0.369739 0.025563 0.033031
Si Si3 0.551881 0.109354 0.689519
Si Si4 0.826085 0.314648 0.244474
Si Si5 0.085218 0.515137 0.244775
Si Si6 0.217437 0.565957 0.937507
O O1 0.500000 0.500000 0.500000
O O2 0.578047 0.050940 0.259709
O O3 0.862679 0.229740 0.580147
O O4 0.888464 0.917720 0.590966
O O5 0.521148 0.757849 0.960566
O O6 0.133676 0.360643 0.957455
O O7 0.284467 0.879298 0.956405
O O8 0.314564 0.412062 0.672987
O O9 0.500000 0.000000 0.500000
O O10 0.664014 0.826491 0.723049
O O11 0.761364 0.163740 0.879774
O O12 0.805044 0.444795 0.193074
O O13 0.005249 0.435667 0.225088
#
# Coordination Sequence:
#
# PCOD8027945 Si02
#       6
#     2   2   2   2   2   2
#     4  11  28  47  79 112 153 206 259 315 378 465
#     4  10  24  49  77 106 152 205 254 304 388 448
#     4  11  26  47  78 118 155 203 255 314 383 460
#     4  10  26  53  80 110 156 200 259 314 385 452
#     4  11  27  47  74 111 155 197 256 315 383 453
#     4  11  25  50  78 111 155 203 249 326 380 450
#
# _framework density 26.869392000000001
#
# number of rings (size 3 to 8) (size 9 to 14) (size 15 to 20)
#    0.000    1.333    0.000    3.000   11.667    4.000 
#    0.000    0.000    0.000    0.000    0.000    0.000 
#    0.000    0.000    0.000    0.000    0.000    0.000 
#
# Total GULP energy -148658.461780 kJ/mol
# GULP energy per Si atom -12388.205148 kJ/mol
# Density = 2.680824 g / cm^3
# Si number density = 26.869392 Si / 1000 Ang^3
#
#
#
# Elastic Constant Matrix: (Units=GPa)
#
#
# Indices 1 2 3 4 5 6 
#
# 1 99.4475 31.5920 53.5549 10.8963 0.0246 11.0555
# 2 31.5920 171.3420 60.7145 -26.1158 -12.9846 16.3917
# 3 53.5549 60.7145 190.3173 5.5567 17.0192 12.4518
# 4 10.8963 -26.1158 5.5567 44.1214 -6.4802 3.6446
# 5 0.0246 -12.9846 17.0192 -6.4802 28.9318 5.7437
# 6 11.0555 16.3917 12.4518 3.6446 5.7437 33.5117
#
#
#
# Elastic Compliance Matrix: (Units=1/GPa)
#
#
# Indices 1 2 3 4 5 6 
#
# 1 0.012732 -0.001613 -0.002884 -0.003479 0.000592 -0.002062
# 2 -0.001613 0.009913 -0.003442 0.008558 0.009503 -0.005597
# 3 -0.002884 -0.003442 0.007821 -0.003476 -0.007187 0.001339
# 4 -0.003479 0.008558 -0.003476 0.031798 0.014539 -0.007697
# 5 0.000592 0.009503 -0.007187 0.014539 0.048716 -0.012104
# 6 -0.002062 -0.005597 0.001339 -0.007697 -0.012104 0.035673
#
#
# Mechanical properties :
#
#
# Convention : Reuss Voigt Hill
#
# Bulk Modulus (GPa) = 68.55816 83.64775 76.10296
# Shear Modulus (GPa) = 29.86957 42.32935 36.09946
#
# Velocity S-wave (km/s) = 3.33777 3.97340 3.66938
# Velocity P-wave (km/s) = 6.35807 7.22838 6.80714
#
# Compressibility (1/GPa) = 0.01458616
#
# Stress axis : x y z
#
# Youngs Moduli (GPa) = 78.54409 100.87268 127.86520
#
# Poissons Ratio (x) = 0.16275 0.36882
# Poissons Ratio (y) = 0.12672 0.44012
# Poissons Ratio (z) = 0.22655 0.34721
#
# Static dielectric constant tensor:
#      x y z
#    x 4.820970 0.425240 0.862790 
#    y 0.425240 7.453610 1.070240 
#    z 0.862790 1.070240 5.661400 
# 
# 
# High freq. dielectric constant tensor:
#      x y z
#    x 2.063020 0.006730 0.039020 
#    y 0.006730 2.120630 -0.004550 
#    z 0.039020 -0.004550 2.078440 
# 
# From -- ./inp_files/527978.got.cif
#   From: 2010.06.25/outbox.cif.g09.slc.cpg/sg2_264_cif.got.tgz:527978.got - 2010.06.27 13:26:56.
