data_PCOD8027473
_publ_section_title
;
Structure prediction by ZEFSAII (Michael W. Deem and Ramdas Pophale) SiO2 
 PCOD8027473
Probable space group: P -1
;
_chemical_formula_sum "Si O2"
_cell_formula_units_Z 16
_cell_length_a 12.094245
_cell_length_b 8.564565
_cell_length_c 15.715707
_cell_angle_alpha 134.835281
_cell_angle_beta 48.415068
_cell_angle_gamma 141.234976
_cell_volume 698.571032
_symmetry_space_group_name_H-M "P -1"
_symmetry_group_IT_number 2
_symmetry_cell_setting 'triclinic'
loop_
_space_group_symop_operation_xyz
x,y,z
-x,-y,-z
loop_
_atom_site_type_symbol
_atom_site_label
_atom_site_fract_x
_atom_site_fract_y
_atom_site_fract_z
Si Si1 0.866855 0.505503 0.507655
Si Si2 0.326408 0.089897 0.664384
Si Si3 0.992403 0.318130 0.678464
Si Si4 0.414862 0.058668 0.205052
Si Si5 0.349597 0.361237 0.230563
Si Si6 0.653268 0.574565 0.380334
Si Si7 0.110927 0.898558 0.865700
Si Si8 0.604933 0.792306 0.022266
O O1 0.977287 0.676988 0.435146
O O2 0.817035 0.691210 0.649670
O O3 0.000000 0.500000 0.500000
O O4 0.693270 0.191899 0.453095
O O5 0.504752 0.309002 0.713219
O O6 0.323545 0.220308 0.626770
O O7 0.162861 0.001150 0.780589
O O8 0.145648 0.298832 0.636984
O O9 0.996488 0.574829 0.803819
O O10 0.786842 0.061807 0.703035
O O11 0.437583 0.217722 0.168798
O O12 0.574011 0.279232 0.270872
O O13 0.456457 0.839310 0.082182
O O14 0.282650 0.223451 0.118944
O O15 0.500000 0.500000 0.500000
O O16 0.276760 0.997827 0.883350
O O17 0.000000 0.000000 0.000000
O O18 0.500000 0.500000 0.000000
#
# Coordination Sequence:
#
# PCOD8027473 Si02
#       8
#     2   2   2   2   2   2   2   2
#     4  11  27  43  68 105 135 179 234 286 351 412
#     4  10  24  45  69  96 144 174 234 288 345 405
#     4  11  25  46  71 100 144 182 228 290 346 413
#     4  11  26  46  68 105 141 181 234 283 351 418
#     4  11  25  45  69 100 137 185 227 287 353 410
#     4  11  25  45  73 104 139 187 230 287 352 417
#     4  11  24  44  67 103 139 183 236 284 347 412
#     4  12  24  43  73  99 136 183 236 283 340 418
#
# _framework density 22.903898000000002
#
# number of rings (size 3 to 8) (size 9 to 14) (size 15 to 20)
#    0.000    1.000    2.500    3.000    8.750    2.000 
#    0.000    1.250    0.000    0.000    0.000    0.000 
#    0.000    0.000    0.000    0.000    0.000    0.000 
#
# Total GULP energy -198246.909810 kJ/mol
# GULP energy per Si atom -12390.431863 kJ/mol
# Density = 2.285177 g / cm^3
# Si number density = 22.903898 Si / 1000 Ang^3
#
#
#
# Elastic Constant Matrix: (Units=GPa)
#
#
# Indices 1 2 3 4 5 6 
#
# 1 87.1769 9.8494 38.6892 0.2746 2.9991 -0.1374
# 2 9.8494 71.8590 20.2941 -3.9362 5.7573 -2.1378
# 3 38.6892 20.2941 137.7385 -9.5472 1.0494 -25.8955
# 4 0.2746 -3.9362 -9.5472 25.3499 -5.1836 -4.7761
# 5 2.9991 5.7573 1.0494 -5.1836 45.6154 -0.1974
# 6 -0.1374 -2.1378 -25.8955 -4.7761 -0.1974 29.5889
#
#
#
# Elastic Compliance Matrix: (Units=1/GPa)
#
#
# Indices 1 2 3 4 5 6 
#
# 1 0.013755 -0.000742 -0.004867 -0.003219 -0.001085 -0.004776
# 2 -0.000742 0.014752 -0.001966 0.001131 -0.001641 -0.000486
# 3 -0.004867 -0.001966 0.011378 0.006289 0.001068 0.010815
# 4 -0.003219 0.001131 0.006289 0.045521 0.005153 0.012953
# 5 -0.001085 -0.001641 0.001068 0.005153 0.022770 0.001794
# 6 -0.004776 -0.000486 0.010815 0.012953 0.001794 0.045307
#
#
# Mechanical properties :
#
#
# Convention : Reuss Voigt Hill
#
# Bulk Modulus (GPa) = 40.42838 48.27109 44.34973
# Shear Modulus (GPa) = 28.26828 35.30696 31.78762
#
# Velocity S-wave (km/s) = 3.51695 3.93049 3.72945
# Velocity P-wave (km/s) = 5.84650 6.45907 6.16040
#
# Compressibility (1/GPa) = 0.02473510
#
# Stress axis : x y z
#
# Youngs Moduli (GPa) = 72.70252 67.78753 87.88996
#
# Poissons Ratio (x) = 0.05032 0.42775
# Poissons Ratio (y) = 0.05396 0.17275
# Poissons Ratio (z) = 0.35384 0.13324
#
# Static dielectric constant tensor:
#      x y z
#    x 3.148520 0.351710 -3.601200 
#    y 0.351710 3.946960 2.100120 
#    z -3.601200 2.100120 -12.534720 
# 
# 
# High freq. dielectric constant tensor:
#      x y z
#    x 1.901500 -0.008000 0.004960 
#    y -0.008000 1.908970 0.007990 
#    z 0.004960 0.007990 1.918970 
# 
# From -- ./inp_files/516234.got.cif
#   From: 2010.06.25/outbox.cif.g09.slc.cpg/sg2_259_cif.got.tgz:516234.got - 2010.06.27 13:26:56.
