data_PCOD8027692
_publ_section_title
;
Structure prediction by ZEFSAII (Michael W. Deem and Ramdas Pophale) SiO2 
 PCOD8027692
Probable space group: P -1
;
_chemical_formula_sum "Si O2"
_cell_formula_units_Z 16
_cell_length_a 12.917512
_cell_length_b 9.074668
_cell_length_c 6.621661
_cell_angle_alpha 104.734769
_cell_angle_beta 79.244741
_cell_angle_gamma 109.317229
_cell_volume 703.936680
_symmetry_space_group_name_H-M "P -1"
_symmetry_group_IT_number 2
_symmetry_cell_setting 'triclinic'
loop_
_space_group_symop_operation_xyz
x,y,z
-x,-y,-z
loop_
_atom_site_type_symbol
_atom_site_label
_atom_site_fract_x
_atom_site_fract_y
_atom_site_fract_z
Si Si1 0.695893 0.730770 0.070653
Si Si2 0.510782 0.246363 0.074972
Si Si3 0.188847 0.812664 0.347582
Si Si4 0.622951 0.525778 0.383341
Si Si5 0.136549 0.957798 0.042027
Si Si6 0.007300 0.177946 0.314855
Si Si7 0.793334 0.531715 0.679007
Si Si8 0.424019 0.986223 0.331617
O O1 0.578954 0.692853 0.988476
O O2 0.769233 0.914241 0.077278
O O3 0.758158 0.611845 0.915641
O O4 0.674049 0.694932 0.306214
O O5 0.612369 0.392167 0.167273
O O6 0.451166 0.151904 0.261188
O O7 0.563686 0.148346 0.872439
O O8 0.085262 0.856565 0.492760
O O9 0.186892 0.633186 0.326676
O O10 0.299717 0.933784 0.442828
O O11 0.191666 0.849997 0.119875
O O12 0.500000 0.500000 0.500000
O O13 0.703128 0.507619 0.526173
O O14 0.073535 0.047472 0.245936
O O15 0.051118 0.833094 0.885957
O O16 0.088952 0.352650 0.394347
O O17 0.500000 0.000000 0.500000
#
# Coordination Sequence:
#
# PCOD8027692 Si02
#       8
#     2   2   2   2   2   2   2   2
#     4  11  24  44  70  96 142 179 234 279 338 411
#     4  11  24  43  64 101 138 184 227 277 341 409
#     4  12  24  43  71  99 140 176 230 287 342 411
#     4  12  26  42  72  99 140 188 230 279 340 411
#     4  10  24  46  71 102 131 183 227 284 352 405
#     4  10  25  45  70  99 137 179 234 284 343 411
#     4  11  26  45  67 108 136 184 232 285 347 407
#     4  11  26  41  68 103 143 180 225 282 350 410
#
# _framework density 22.729317999999999
#
# number of rings (size 3 to 8) (size 9 to 14) (size 15 to 20)
#    0.000    1.000    2.500    2.625    5.250    7.500 
#    0.000    0.000    0.000    0.000    0.000    0.000 
#    0.000    0.000    0.000    0.000    0.000    0.000 
#
# Total GULP energy -198426.535456 kJ/mol
# GULP energy per Si atom -12401.658466 kJ/mol
# Density = 2.267758 g / cm^3
# Si number density = 22.729318 Si / 1000 Ang^3
#
#
#
# Elastic Constant Matrix: (Units=GPa)
#
#
# Indices 1 2 3 4 5 6 
#
# 1 118.3084 56.8060 40.7706 -14.5572 11.6890 23.6508
# 2 56.8060 107.6928 45.8866 -19.1036 12.3172 7.5718
# 3 40.7706 45.8866 82.6212 -21.2475 5.8474 1.4843
# 4 -14.5572 -19.1036 -21.2475 28.0702 10.8315 7.6577
# 5 11.6890 12.3172 5.8474 10.8315 43.2689 -6.5503
# 6 23.6508 7.5718 1.4843 7.6577 -6.5503 39.0909
#
#
#
# Elastic Compliance Matrix: (Units=1/GPa)
#
#
# Indices 1 2 3 4 5 6 
#
# 1 0.015102 -0.003812 -0.002320 0.009110 -0.006659 -0.011211
# 2 -0.003812 0.015306 -0.004081 0.008207 -0.005284 -0.002997
# 3 -0.002320 -0.004081 0.019059 0.012515 -0.004174 -0.001681
# 4 0.009110 0.008207 0.012515 0.073982 -0.029087 -0.026943
# 5 -0.006659 -0.005284 -0.004174 -0.029087 0.036846 0.017083
# 6 -0.011211 -0.002997 -0.001681 -0.026943 0.017083 0.041149
#
#
# Mechanical properties :
#
#
# Convention : Reuss Voigt Hill
#
# Bulk Modulus (GPa) = 34.43401 66.17209 50.30305
# Shear Modulus (GPa) = 21.59343 33.09661 27.34502
#
# Velocity S-wave (km/s) = 3.08559 3.82005 3.47230
# Velocity P-wave (km/s) = 5.27987 6.97376 6.18508
#
# Compressibility (1/GPa) = 0.02904105
#
# Stress axis : x y z
#
# Youngs Moduli (GPa) = 66.21545 65.33239 52.46827
#
# Poissons Ratio (x) = 0.24904 0.12173
# Poissons Ratio (y) = 0.25240 0.21415
# Poissons Ratio (z) = 0.15362 0.26665
#
# Static dielectric constant tensor:
#      x y z
#    x 4.306520 0.216190 -0.130030 
#    y 0.216190 4.256120 -0.090000 
#    z -0.130030 -0.090000 4.207450 
# 
# 
# High freq. dielectric constant tensor:
#      x y z
#    x 1.906900 0.007140 -0.000640 
#    y 0.007140 1.901580 -0.006110 
#    z -0.000640 -0.006110 1.897010 
# 
# From -- ./inp_files/90709.got.cif
#   From: 2010.06.25/outbox.cif.g09.slc.cpg/sg2_46_cif.got.tgz:90709.got - 2010.06.27 13:26:56.
