data_PCOD8027207
_publ_section_title
;
Structure prediction by ZEFSAII (Michael W. Deem and Ramdas Pophale) SiO2 
 PCOD8027207
Probable space group: P -1
;
_chemical_formula_sum "Si O2"
_cell_formula_units_Z 14
_cell_length_a 9.061444
_cell_length_b 16.442529
_cell_length_c 8.442905
_cell_angle_alpha 35.096607
_cell_angle_beta 95.493343
_cell_angle_gamma 111.636243
_cell_volume 620.380674
_symmetry_space_group_name_H-M "P -1"
_symmetry_group_IT_number 2
_symmetry_cell_setting 'triclinic'
loop_
_space_group_symop_operation_xyz
x,y,z
-x,-y,-z
loop_
_atom_site_type_symbol
_atom_site_label
_atom_site_fract_x
_atom_site_fract_y
_atom_site_fract_z
Si Si1 0.334837 0.868095 0.789770
Si Si2 0.830793 0.328589 0.212015
Si Si3 0.934642 0.780988 0.510435
Si Si4 0.348179 0.522449 0.878643
Si Si5 0.563870 0.338872 0.683217
Si Si6 0.942825 0.058440 0.249420
Si Si7 0.769308 0.672089 0.330143
O O1 0.207756 0.715246 0.907817
O O2 0.239454 0.957792 0.709663
O O3 0.500000 0.000000 0.500000
O O4 0.390648 0.801674 0.052915
O O5 0.668384 0.333952 0.260939
O O6 0.871404 0.191555 0.507890
O O7 0.000000 0.500000 0.000000
O O8 0.847834 0.698691 0.468949
O O9 0.933625 0.948672 0.271745
O O10 0.825465 0.654000 0.843064
O O11 0.377142 0.575667 0.615970
O O12 0.500000 0.500000 0.000000
O O13 0.659980 0.477422 0.605727
O O14 0.358238 0.255343 0.812054
O O15 0.000000 0.000000 0.500000
O O16 0.082750 0.244206 0.920723
#
# Coordination Sequence:
#
# PCOD8027207 Si02
#       7
#     2   2   2   2   2   2   2
#     4  12  28  47  71 104 145 184 233 298 354 417
#     4  10  24  44  70 101 138 182 235 284 345 413
#     4  11  23  46  69 103 139 186 230 289 347 417
#     4  11  23  43  73 103 139 183 235 286 348 416
#     4  11  25  44  70 106 138 183 236 289 349 416
#     4  12  25  46  71 100 140 187 235 286 357 417
#     4  11  25  44  72 100 142 182 239 284 347 424
#
# _framework density 22.566789
#
# number of rings (size 3 to 8) (size 9 to 14) (size 15 to 20)
#    0.000    0.857    2.857    3.857    8.000    0.571 
#    0.000    1.429    0.000    0.000    0.000    0.000 
#    0.000    0.000    0.000    0.000    0.000    0.000 
#
# Total GULP energy -173572.900819 kJ/mol
# GULP energy per Si atom -12398.064344 kJ/mol
# Density = 2.251543 g / cm^3
# Si number density = 22.566789 Si / 1000 Ang^3
#
#
#
# Elastic Constant Matrix: (Units=GPa)
#
#
# Indices 1 2 3 4 5 6 
#
# 1 185.7951 31.6843 55.7565 10.1566 33.4359 -5.4742
# 2 31.6843 88.6545 21.2396 23.7911 12.6430 -3.5451
# 3 55.7565 21.2396 103.3919 24.4778 8.2977 9.5524
# 4 10.1566 23.7911 24.4778 33.5278 1.9515 7.4067
# 5 33.4359 12.6430 8.2977 1.9515 51.6855 -1.6817
# 6 -5.4742 -3.5451 9.5524 7.4067 -1.6817 33.5380
#
#
#
# Elastic Compliance Matrix: (Units=1/GPa)
#
#
# Indices 1 2 3 4 5 6 
#
# 1 0.007477 -0.001535 -0.003928 0.001553 -0.003836 0.001642
# 2 -0.001535 0.015245 0.000179 -0.011163 -0.002224 0.003664
# 3 -0.003928 0.000179 0.013996 -0.008590 0.000487 -0.002687
# 4 0.001553 -0.011163 -0.008590 0.045347 0.001119 -0.008439
# 5 -0.003836 -0.002224 0.000487 0.001119 0.022249 -0.000131
# 6 0.001642 0.003664 -0.002687 -0.008439 -0.000131 0.033095
#
#
# Mechanical properties :
#
#
# Convention : Reuss Voigt Hill
#
# Bulk Modulus (GPa) = 38.24151 66.13357 52.18754
# Shear Modulus (GPa) = 31.90952 41.69434 36.80193
#
# Velocity S-wave (km/s) = 3.76440 4.30303 4.04270
# Velocity P-wave (km/s) = 5.98974 7.35238 6.70576
#
# Compressibility (1/GPa) = 0.02614960
#
# Stress axis : x y z
#
# Youngs Moduli (GPa) = 133.75031 65.59586 71.44733
#
# Poissons Ratio (x) = 0.10069 0.28065
# Poissons Ratio (y) = 0.20531 -0.01278
# Poissons Ratio (z) = 0.52537 -0.01174
#
# Static dielectric constant tensor:
#      x y z
#    x 4.641880 -0.086380 0.281280 
#    y -0.086380 4.057320 -0.103160 
#    z 0.281280 -0.103160 4.079000 
# 
# 
# High freq. dielectric constant tensor:
#      x y z
#    x 1.905260 0.001530 0.016220 
#    y 0.001530 1.890520 0.005660 
#    z 0.016220 0.005660 1.880010 
# 
# From -- ./inp_files/175392.got.cif
#   From: 2010.06.25/outbox.cif.g09.slc.cpg/sg2_88_cif.got.tgz:175392.got - 2010.06.27 13:26:56.
