data_PCOD8027869
_publ_section_title
;
Structure prediction by ZEFSAII (Michael W. Deem and Ramdas Pophale) SiO2 
 PCOD8027869
Probable space group: P -1
;
_chemical_formula_sum "Si O2"
_cell_formula_units_Z 16
_cell_length_a 8.854043
_cell_length_b 6.485558
_cell_length_c 17.420582
_cell_angle_alpha 91.911519
_cell_angle_beta 62.884970
_cell_angle_gamma 122.625016
_cell_volume 719.191995
_symmetry_space_group_name_H-M "P -1"
_symmetry_group_IT_number 2
_symmetry_cell_setting 'triclinic'
loop_
_space_group_symop_operation_xyz
x,y,z
-x,-y,-z
loop_
_atom_site_type_symbol
_atom_site_label
_atom_site_fract_x
_atom_site_fract_y
_atom_site_fract_z
Si Si1 0.255864 0.789842 0.872423
Si Si2 0.785913 0.549381 0.987417
Si Si3 0.508192 0.301057 0.912673
Si Si4 0.255501 0.340810 0.269855
Si Si5 0.585465 0.360697 0.297294
Si Si6 0.370229 0.098259 0.500943
Si Si7 0.860694 0.755506 0.353422
Si Si8 0.987700 0.447782 0.413951
O O1 0.338554 0.785842 0.768913
O O2 0.031576 0.739441 0.910771
O O3 0.428385 0.057379 0.875887
O O4 0.231412 0.568742 0.927053
O O5 0.647499 0.323187 0.953465
O O6 0.695669 0.716794 0.012872
O O7 0.665308 0.563196 0.833068
O O8 0.451547 0.407665 0.274113
O O9 0.195782 0.521536 0.322477
O O10 0.074852 0.036956 0.302932
O O11 0.438177 0.190283 0.399909
O O12 0.790338 0.632319 0.283215
O O13 0.348240 0.284380 0.562635
O O14 0.500000 0.000000 0.500000
O O15 0.133970 0.854137 0.559791
O O16 0.884045 0.565988 0.396665
O O17 0.000000 0.500000 0.500000
#
# Coordination Sequence:
#
# PCOD8027869 Si02
#       8
#     2   2   2   2   2   2   2   2
#     4  11  25  44  71 106 134 170 231 280 338 404
#     4  10  24  48  68 102 134 179 220 277 351 404
#     4  11  24  45  73  98 138 180 222 276 343 410
#     4  11  27  43  65 105 134 178 234 271 338 406
#     4  12  25  44  71 100 138 181 227 287 337 399
#     4  11  24  42  67  98 132 183 233 265 341 400
#     4  11  26  47  66  99 144 178 229 281 331 401
#     4  11  24  42  68  94 137 183 222 286 334 391
#
# _framework density 22.24719
#
# number of rings (size 3 to 8) (size 9 to 14) (size 15 to 20)
#    0.000    1.000    2.500    2.625    7.000    3.000 
#    9.000    0.000    0.000    0.000    0.000    0.000 
#    0.000    0.000    0.000    0.000    0.000    0.000 
#
# Total GULP energy -198294.011274 kJ/mol
# GULP energy per Si atom -12393.375705 kJ/mol
# Density = 2.219655 g / cm^3
# Si number density = 22.247190 Si / 1000 Ang^3
#
#
#
# Elastic Constant Matrix: (Units=GPa)
#
#
# Indices 1 2 3 4 5 6 
#
# 1 101.0556 19.7454 32.7314 14.1777 -3.1909 11.8262
# 2 19.7454 87.5544 30.3084 18.0655 -2.3628 15.9379
# 3 32.7314 30.3084 117.5240 22.1427 -7.9271 2.4435
# 4 14.1777 18.0655 22.1427 41.1571 -0.8859 4.3042
# 5 -3.1909 -2.3628 -7.9271 -0.8859 30.0341 5.9853
# 6 11.8262 15.9379 2.4435 4.3042 5.9853 33.8038
#
#
#
# Elastic Compliance Matrix: (Units=1/GPa)
#
#
# Indices 1 2 3 4 5 6 
#
# 1 0.011564 -0.000661 -0.002535 -0.001938 0.001149 -0.003508
# 2 -0.000661 0.014451 -0.002547 -0.004070 0.001499 -0.006145
# 3 -0.002535 -0.002547 0.010703 -0.003878 0.001950 0.001463
# 4 -0.001938 -0.004070 -0.003878 0.028900 -0.000557 -0.000704
# 5 0.001149 0.001499 0.001950 -0.000557 0.035522 -0.007468
# 6 -0.003508 -0.006145 0.001463 -0.000704 -0.007468 0.035013
#
#
# Mechanical properties :
#
#
# Convention : Reuss Voigt Hill
#
# Bulk Modulus (GPa) = 39.62977 52.41161 46.02069
# Shear Modulus (GPa) = 32.04094 35.88894 33.96494
#
# Velocity S-wave (km/s) = 3.79915 4.02081 3.91155
# Velocity P-wave (km/s) = 6.09071 6.72055 6.41337
#
# Compressibility (1/GPa) = 0.02523356
#
# Stress axis : x y z
#
# Youngs Moduli (GPa) = 86.47242 69.19864 93.42773
#
# Poissons Ratio (x) = 0.04575 0.23680
# Poissons Ratio (y) = 0.05717 0.23795
# Poissons Ratio (z) = 0.21917 0.17624
#
# Static dielectric constant tensor:
#      x y z
#    x 6.010230 -0.391860 2.876390 
#    y -0.391860 4.062060 -0.888310 
#    z 2.876390 -0.888310 9.017950 
# 
# 
# High freq. dielectric constant tensor:
#      x y z
#    x 1.884670 0.003350 -0.007590 
#    y 0.003350 1.876210 0.007260 
#    z -0.007590 0.007260 1.888400 
# 
# From -- ./inp_files/112901.got.cif
#   From: 2010.06.25/outbox.cif.g09.slc.cpg/sg2_57_cif.got.tgz:112901.got - 2010.06.27 13:26:56.
