data_PCOD8027949
_publ_section_title
;
Structure prediction by ZEFSAII (Michael W. Deem and Ramdas Pophale) SiO2 
 PCOD8027949
Probable space group: P -1
;
_chemical_formula_sum "Si O2"
_cell_formula_units_Z 14
_cell_length_a 10.133109
_cell_length_b 13.337194
_cell_length_c 4.850923
_cell_angle_alpha 88.399318
_cell_angle_beta 108.724279
_cell_angle_gamma 60.820213
_cell_volume 528.438397
_symmetry_space_group_name_H-M "P -1"
_symmetry_group_IT_number 2
_symmetry_cell_setting 'triclinic'
loop_
_space_group_symop_operation_xyz
x,y,z
-x,-y,-z
loop_
_atom_site_type_symbol
_atom_site_label
_atom_site_fract_x
_atom_site_fract_y
_atom_site_fract_z
Si Si1 0.335617 0.744215 0.211747
Si Si2 0.718133 0.923031 0.100759
Si Si3 0.479214 0.401628 0.139188
Si Si4 0.415479 0.916058 0.489630
Si Si5 0.842803 0.507043 0.776008
Si Si6 0.251938 0.257940 0.481527
Si Si7 0.978233 0.254728 0.949181
O O1 0.419142 0.641440 0.505307
O O2 0.305978 0.867834 0.291842
O O3 0.161687 0.761291 0.010045
O O4 0.450020 0.707627 0.019168
O O5 0.666930 0.025207 0.280534
O O6 0.690141 0.819116 0.194490
O O7 0.601791 0.982202 0.746218
O O8 0.909878 0.859438 0.157984
O O9 0.288549 0.456993 0.070342
O O10 0.500000 0.500000 0.000000
O O11 0.601443 0.804900 0.641008
O O12 0.776625 0.611769 0.493646
O O13 0.895993 0.377450 0.706000
O O14 0.000000 0.500000 0.000000
O O15 0.091523 0.260465 0.262530
#
# Coordination Sequence:
#
# PCOD8027949 Si02
#       7
#     2   2   2   2   2   2   2
#     4  12  28  48  78 111 154 198 258 304 380 454
#     4  12  27  48  78 108 153 199 258 315 374 442
#     4  12  25  49  78 111 154 203 247 308 382 456
#     4  12  27  48  78 108 148 205 260 309 371 451
#     4  10  24  49  78 118 152 194 248 318 385 457
#     4  11  25  49  75 113 150 197 255 318 383 439
#     4  11  27  47  75 114 154 199 246 318 383 454
#
# _framework density 26.493153
#
# number of rings (size 3 to 8) (size 9 to 14) (size 15 to 20)
#    0.000    0.571    4.286    2.143    4.000    2.857 
#    0.000    0.000    0.000    0.000    0.000    0.000 
#    0.000    0.000    0.000    0.000    0.000    0.000 
#
# Total GULP energy -173555.462348 kJ/mol
# GULP energy per Si atom -12396.818739 kJ/mol
# Density = 2.643285 g / cm^3
# Si number density = 26.493153 Si / 1000 Ang^3
#
#
#
# Elastic Constant Matrix: (Units=GPa)
#
#
# Indices 1 2 3 4 5 6 
#
# 1 132.5275 18.2878 35.0765 -7.6108 22.4836 -27.1263
# 2 18.2878 116.2516 38.0597 -16.3480 12.0654 -25.6033
# 3 35.0765 38.0597 103.8285 -1.6708 -3.2031 -20.2584
# 4 -7.6108 -16.3480 -1.6708 40.9578 -0.8176 -6.8326
# 5 22.4836 12.0654 -3.2031 -0.8176 26.0892 -1.5534
# 6 -27.1263 -25.6033 -20.2584 -6.8326 -1.5534 50.9049
#
#
#
# Elastic Compliance Matrix: (Units=1/GPa)
#
#
# Indices 1 2 3 4 5 6 
#
# 1 0.011579 0.002473 -0.003927 0.003760 -0.011129 0.006016
# 2 0.002473 0.012837 -0.004391 0.006351 -0.008013 0.006634
# 3 -0.003927 -0.004391 0.012918 -0.001678 0.006998 0.000828
# 4 0.003760 0.006351 -0.001678 0.028857 -0.004988 0.008251
# 5 -0.011129 -0.008013 0.006998 -0.004988 0.051957 -0.006259
# 6 0.006016 0.006634 0.000828 0.008251 -0.006259 0.027433
#
#
# Mechanical properties :
#
#
# Convention : Reuss Voigt Hill
#
# Bulk Modulus (GPa) = 38.99757 59.49508 49.24632
# Shear Modulus (GPa) = 30.15315 41.00261 35.57788
#
# Velocity S-wave (km/s) = 3.37731 3.93831 3.66855
# Velocity P-wave (km/s) = 5.47358 6.57160 6.04756
#
# Compressibility (1/GPa) = 0.02564262
#
# Stress axis : x y z
#
# Youngs Moduli (GPa) = 86.36196 77.90225 77.41038
#
# Poissons Ratio (x) = -0.19265 0.30401
# Poissons Ratio (y) = -0.21357 0.33994
# Poissons Ratio (z) = 0.33917 0.34210
#
# Static dielectric constant tensor:
#      x y z
#    x 4.905120 -0.060250 -0.121280 
#    y -0.060250 6.168340 -0.560270 
#    z -0.121280 -0.560270 4.755540 
# 
# 
# High freq. dielectric constant tensor:
#      x y z
#    x 2.068170 -0.002990 0.000320 
#    y -0.002990 2.083540 -0.016790 
#    z 0.000320 -0.016790 2.047280 
# 
# From -- ./inp_files/77896.got.cif
#   From: 2010.06.25/outbox.cif.g09.slc.cpg/sg2_39_cif.got.tgz:77896.got - 2010.06.27 13:26:56.
