data_PCOD8027124
_publ_section_title
;
Structure prediction by ZEFSAII (Michael W. Deem and Ramdas Pophale) SiO2 
 PCOD8027124
Probable space group: P -1
;
_chemical_formula_sum "Si O2"
_cell_formula_units_Z 14
_cell_length_a 17.261481
_cell_length_b 8.217906
_cell_length_c 11.004157
_cell_angle_alpha 136.116265
_cell_angle_beta 31.625187
_cell_angle_gamma 126.681894
_cell_volume 566.817449
_symmetry_space_group_name_H-M "P -1"
_symmetry_group_IT_number 2
_symmetry_cell_setting 'triclinic'
loop_
_space_group_symop_operation_xyz
x,y,z
-x,-y,-z
loop_
_atom_site_type_symbol
_atom_site_label
_atom_site_fract_x
_atom_site_fract_y
_atom_site_fract_z
Si Si1 0.856266 0.269106 0.617351
Si Si2 0.548256 0.621003 0.669240
Si Si3 0.158506 0.868708 0.709819
Si Si4 0.650765 0.982457 0.896370
Si Si5 0.151482 0.614538 0.835328
Si Si6 0.687105 0.727430 0.167073
Si Si7 0.181076 0.105877 0.147646
O O1 0.821611 0.269152 0.518467
O O2 0.769830 0.055651 0.675494
O O3 0.031785 0.258979 0.401603
O O4 0.803942 0.506352 0.883779
O O5 0.719430 0.564326 0.380546
O O6 0.474734 0.370628 0.648628
O O7 0.539959 0.787822 0.890046
O O8 0.450392 0.788038 0.795309
O O9 0.177427 0.683581 0.696432
O O10 0.274165 0.079363 0.678875
O O11 0.000000 0.000000 0.000000
O O12 0.747206 0.841075 0.791237
O O13 0.000000 0.500000 0.000000
O O14 0.141491 0.836266 0.055738
O O15 0.691701 0.855846 0.100512
#
# Coordination Sequence:
#
# PCOD8027124 Si02
#       7
#     2   2   2   2   2   2   2
#     4  11  22  46  71 100 143 179 225 291 334 402
#     4  10  24  47  63  97 139 182 229 278 347 413
#     4  11  24  43  70 107 136 177 234 279 338 415
#     4  10  24  45  66  99 136 182 233 276 344 407
#     4  11  25  45  69 102 134 178 227 287 350 405
#     4  10  24  44  68 103 139 182 229 278 351 400
#     4  11  23  42  68 104 134 180 233 280 337 408
#
# _framework density 24.699309
#
# number of rings (size 3 to 8) (size 9 to 14) (size 15 to 20)
#    0.000    1.429    2.857    1.714    2.000    5.714 
#   12.857    0.000    0.000    0.000    0.000    0.000 
#    0.000    0.000    0.000    0.000    0.000    0.000 
#
# Total GULP energy -173499.011129 kJ/mol
# GULP energy per Si atom -12392.786509 kJ/mol
# Density = 2.464309 g / cm^3
# Si number density = 24.699309 Si / 1000 Ang^3
#
#
#
# Elastic Constant Matrix: (Units=GPa)
#
#
# Indices 1 2 3 4 5 6 
#
# 1 125.7322 31.1601 16.8999 -5.7579 -9.0556 2.4255
# 2 31.1601 119.1505 13.4005 -4.7949 -10.5627 30.0388
# 3 16.8999 13.4005 85.5628 -3.4919 -22.1643 3.0346
# 4 -5.7579 -4.7949 -3.4919 33.5239 5.6506 -6.4046
# 5 -9.0556 -10.5627 -22.1643 5.6506 27.7843 -5.4779
# 6 2.4255 30.0388 3.0346 -6.4046 -5.4779 26.4732
#
#
#
# Elastic Compliance Matrix: (Units=1/GPa)
#
#
# Indices 1 2 3 4 5 6 
#
# 1 0.008890 -0.002821 -0.001020 0.001386 0.001344 0.003117
# 2 -0.002821 0.012880 -0.000802 -0.001631 0.000812 -0.014491
# 3 -0.001020 -0.000802 0.014973 -0.000395 0.011706 0.001614
# 4 0.001386 -0.001631 -0.000395 0.032320 -0.005386 0.008474
# 5 0.001344 0.000812 0.011706 -0.005386 0.048420 0.006330
# 6 0.003117 -0.014491 0.001614 0.008474 0.006330 0.057107
#
#
# Mechanical properties :
#
#
# Convention : Reuss Voigt Hill
#
# Bulk Modulus (GPa) = 36.42052 50.37405 43.39728
# Shear Modulus (GPa) = 25.90293 35.48862 30.69578
#
# Velocity S-wave (km/s) = 3.24192 3.79466 3.52913
# Velocity P-wave (km/s) = 5.36573 6.29591 5.84934
#
# Compressibility (1/GPa) = 0.02745705
#
# Stress axis : x y z
#
# Youngs Moduli (GPa) = 112.48895 77.63693 66.78531
#
# Poissons Ratio (x) = 0.21901 0.06811
# Poissons Ratio (y) = 0.31733 0.05359
# Poissons Ratio (z) = 0.11472 0.06230
#
# Static dielectric constant tensor:
#      x y z
#    x 4.577340 0.102870 -0.144660 
#    y 0.102870 4.727790 0.097090 
#    z -0.144660 0.097090 4.309060 
# 
# 
# High freq. dielectric constant tensor:
#      x y z
#    x 1.976410 0.013590 -0.012310 
#    y 0.013590 1.998410 0.008940 
#    z -0.012310 0.008940 1.974500 
# 
# From -- ./inp_files/333923.got.cif
#   From: 2010.06.25/outbox.cif.g09.slc.cpg/sg2_167_cif.got.tgz:333923.got - 2010.06.27 13:26:56.
