data_PCOD8027616
_publ_section_title
;
Structure prediction by ZEFSAII (Michael W. Deem and Ramdas Pophale) SiO2 
 PCOD8027616
Probable space group: P -1
;
_chemical_formula_sum "Si O2"
_cell_formula_units_Z 16
_cell_length_a 22.892929
_cell_length_b 9.941938
_cell_length_c 6.731937
_cell_angle_alpha 49.451022
_cell_angle_beta 129.624791
_cell_angle_gamma 140.200225
_cell_volume 714.475059
_symmetry_space_group_name_H-M "P -1"
_symmetry_group_IT_number 2
_symmetry_cell_setting 'triclinic'
loop_
_space_group_symop_operation_xyz
x,y,z
-x,-y,-z
loop_
_atom_site_type_symbol
_atom_site_label
_atom_site_fract_x
_atom_site_fract_y
_atom_site_fract_z
Si Si1 0.151497 0.135404 0.175379
Si Si2 0.059519 0.708154 0.655369
Si Si3 0.320622 0.338832 0.616949
Si Si4 0.455367 0.282625 0.744998
Si Si5 0.184805 0.002471 0.979651
Si Si6 0.304161 0.862101 0.570284
Si Si7 0.124923 0.491252 0.753413
Si Si8 0.421012 0.772169 0.651748
O O1 0.261180 0.293076 0.332761
O O2 0.094064 0.905502 0.387157
O O3 0.148705 0.092060 0.976452
O O4 0.103780 0.258868 0.991055
O O5 0.105688 0.585503 0.813212
O O6 0.944875 0.542417 0.545329
O O7 0.091281 0.793261 0.867088
O O8 0.390827 0.274463 0.787273
O O9 0.250417 0.194546 0.781314
O O10 0.379498 0.594853 0.555447
O O11 0.500000 0.500000 0.500000
O O12 0.395445 0.063632 0.691098
O O13 0.539239 0.291761 0.022017
O O14 0.245499 0.938182 0.277034
O O15 0.234435 0.660911 0.762058
O O16 0.337833 0.778041 0.551789
O O17 0.500000 0.000000 0.500000
#
# Coordination Sequence:
#
# PCOD8027616 Si02
#       8
#     2   2   2   2   2   2   2   2
#     4  11  23  44  70  99 138 181 226 278 338 411
#     4  10  24  46  66 105 138 181 224 280 341 403
#     4  11  24  43  68  96 132 180 226 277 346 404
#     4  12  25  45  69  95 137 184 227 289 347 412
#     4  11  22  45  70  97 139 177 227 278 339 414
#     4  12  24  42  69 100 133 179 227 282 342 404
#     4  11  24  43  71 100 141 177 228 282 338 410
#     4  12  27  42  65 102 137 173 234 290 344 412
#
# _framework density 22.394062999999999
#
# number of rings (size 3 to 8) (size 9 to 14) (size 15 to 20)
#    0.000    0.750    2.500    4.875    5.250    1.000 
#    0.000    0.000    0.000    0.000    0.000    0.000 
#    0.000    0.000    0.000    0.000    0.000    0.000 
#
# Total GULP energy -198508.677309 kJ/mol
# GULP energy per Si atom -12406.792332 kJ/mol
# Density = 2.234309 g / cm^3
# Si number density = 22.394063 Si / 1000 Ang^3
#
#
#
# Elastic Constant Matrix: (Units=GPa)
#
#
# Indices 1 2 3 4 5 6 
#
# 1 83.1828 22.9055 20.6579 -7.7479 6.2495 -18.3071
# 2 22.9055 115.1427 27.9491 22.4255 -0.7240 -22.3798
# 3 20.6579 27.9491 69.2815 -1.1270 -4.5420 -16.0141
# 4 -7.7479 22.4255 -1.1270 36.5344 -11.9728 8.2231
# 5 6.2495 -0.7240 -4.5420 -11.9728 30.9222 0.6547
# 6 -18.3071 -22.3798 -16.0141 8.2231 0.6547 39.6265
#
#
#
# Elastic Compliance Matrix: (Units=1/GPa)
#
#
# Indices 1 2 3 4 5 6 
#
# 1 0.014545 -0.001931 -0.002747 0.002444 -0.002528 0.004054
# 2 -0.001931 0.013963 -0.003687 -0.012524 -0.004847 0.008183
# 3 -0.002747 -0.003687 0.017792 0.002867 0.004125 0.003175
# 4 0.002444 -0.012524 0.002867 0.044513 0.017172 -0.014307
# 5 -0.002528 -0.004847 0.004125 0.017172 0.040128 -0.006465
# 6 0.004054 0.008183 0.003175 -0.014307 -0.006465 0.036089
#
#
# Mechanical properties :
#
#
# Convention : Reuss Voigt Hill
#
# Bulk Modulus (GPa) = 33.81823 45.62575 39.72199
# Shear Modulus (GPa) = 25.82411 34.48960 30.15686
#
# Velocity S-wave (km/s) = 3.39952 3.92870 3.67365
# Velocity P-wave (km/s) = 5.52659 6.40295 5.98084
#
# Compressibility (1/GPa) = 0.02956985
#
# Stress axis : x y z
#
# Youngs Moduli (GPa) = 68.75058 71.61630 56.20659
#
# Poissons Ratio (x) = 0.13827 0.15440
# Poissons Ratio (y) = 0.13274 0.20725
# Poissons Ratio (z) = 0.18886 0.26407
#
# Static dielectric constant tensor:
#      x y z
#    x 4.132590 0.014100 0.074160 
#    y 0.014100 4.458720 0.140090 
#    z 0.074160 0.140090 4.044200 
# 
# 
# High freq. dielectric constant tensor:
#      x y z
#    x 1.885230 -0.002960 0.006510 
#    y -0.002960 1.905080 0.002000 
#    z 0.006510 0.002000 1.878330 
# 
# From -- ./inp_files/116735.got.cif
#   From: 2010.06.25/outbox.cif.g09.slc.cpg/sg2_59_cif.got.tgz:116735.got - 2010.06.27 13:26:56.
