data_PCOD8027543
_publ_section_title
;
Structure prediction by ZEFSAII (Michael W. Deem and Ramdas Pophale) SiO2 
 PCOD8027543
Probable space group: P -1
;
_chemical_formula_sum "Si O2"
_cell_formula_units_Z 16
_cell_length_a 8.741838
_cell_length_b 11.403154
_cell_length_c 11.531370
_cell_angle_alpha 83.655937
_cell_angle_beta 142.147069
_cell_angle_gamma 93.253771
_cell_volume 700.178756
_symmetry_space_group_name_H-M "P -1"
_symmetry_group_IT_number 2
_symmetry_cell_setting 'triclinic'
loop_
_space_group_symop_operation_xyz
x,y,z
-x,-y,-z
loop_
_atom_site_type_symbol
_atom_site_label
_atom_site_fract_x
_atom_site_fract_y
_atom_site_fract_z
Si Si1 0.632703 0.112246 0.702549
Si Si2 0.751182 0.505491 0.500197
Si Si3 0.575576 0.845221 0.666169
Si Si4 0.494710 0.358174 0.030394
Si Si5 0.800372 0.488650 0.782037
Si Si6 0.621102 0.741639 0.265274
Si Si7 0.850690 0.277242 0.453579
Si Si8 0.942931 0.739853 0.066970
O O1 0.434896 0.154020 0.479526
O O2 0.554606 0.174362 0.770033
O O3 0.918801 0.139904 0.833363
O O4 0.629725 0.973112 0.735290
O O5 0.872628 0.539444 0.693405
O O6 0.471129 0.457941 0.352589
O O7 0.731493 0.620524 0.400112
O O8 0.905584 0.397357 0.544508
O O9 0.313468 0.809854 0.563594
O O10 0.793910 0.753670 0.853872
O O11 0.531572 0.290540 0.937653
O O12 0.239029 0.313204 0.940018
O O13 0.500000 0.500000 0.000000
O O14 0.728594 0.316247 0.253714
O O15 0.807764 0.346495 0.787719
O O16 0.000000 0.500000 0.000000
O O17 0.886187 0.799242 0.392219
#
# Coordination Sequence:
#
# PCOD8027543 Si02
#       8
#     2   2   2   2   2   2   2   2
#     4  11  24  45  67  97 124 163 224 274 321 370
#     4  11  23  38  58  96 133 167 211 258 319 388
#     4  10  24  45  71  90 123 172 218 270 325 377
#     4  11  24  41  61  95 131 176 210 251 323 392
#     4  11  23  34  60  94 129 166 207 266 318 382
#     4  12  25  39  64  96 134 168 213 265 315 385
#     4  11  24  43  63  91 134 175 212 256 324 385
#     4  11  23  42  66  91 127 168 215 266 321 379
#
# _framework density 22.851306000000001
#
# number of rings (size 3 to 8) (size 9 to 14) (size 15 to 20)
#    0.000    1.000    2.500    4.500    5.250    1.500 
#    0.000    2.500    0.000    0.000    0.000    0.000 
#    0.000    0.000    0.000    0.000    0.000    0.000 
#
# Total GULP energy -198281.539588 kJ/mol
# GULP energy per Si atom -12392.596224 kJ/mol
# Density = 2.279930 g / cm^3
# Si number density = 22.851306 Si / 1000 Ang^3
#
#
#
# Elastic Constant Matrix: (Units=GPa)
#
#
# Indices 1 2 3 4 5 6 
#
# 1 88.5140 28.7671 36.3375 9.1082 -12.8603 -12.6279
# 2 28.7671 59.6350 -4.2733 16.1293 -3.2229 9.4165
# 3 36.3375 -4.2733 106.1760 5.7704 -27.1607 -12.5305
# 4 9.1082 16.1293 5.7704 34.5969 1.6047 -4.4351
# 5 -12.8603 -3.2229 -27.1607 1.6047 42.9862 6.6652
# 6 -12.6279 9.4165 -12.5305 -4.4351 6.6652 23.9766
#
#
#
# Elastic Compliance Matrix: (Units=1/GPa)
#
#
# Indices 1 2 3 4 5 6 
#
# 1 0.019278 -0.012845 -0.006081 0.003653 -0.001194 0.013027
# 2 -0.012845 0.030874 0.005487 -0.014795 0.005643 -0.020328
# 3 -0.006081 0.005487 0.013744 -0.003724 0.007565 -0.000967
# 4 0.003653 -0.014795 -0.003724 0.037587 -0.006007 0.014411
# 5 -0.001194 0.005643 0.007565 -0.006007 0.029610 -0.008234
# 6 0.013027 -0.020328 -0.000967 0.014411 -0.008234 0.061001
#
#
# Mechanical properties :
#
#
# Convention : Reuss Voigt Hill
#
# Bulk Modulus (GPa) = 27.01321 41.77639 34.39480
# Shear Modulus (GPa) = 21.61584 33.21152 27.41368
#
# Velocity S-wave (km/s) = 3.07894 3.81645 3.46736
# Velocity P-wave (km/s) = 4.94841 6.14345 5.57803
#
# Compressibility (1/GPa) = 0.03701892
#
# Stress axis : x y z
#
# Youngs Moduli (GPa) = 51.87318 32.38926 72.75967
#
# Poissons Ratio (x) = 0.41603 0.44246
# Poissons Ratio (y) = 0.66629 -0.39925
# Poissons Ratio (z) = 0.31545 -0.17773
#
# Static dielectric constant tensor:
#      x y z
#    x 4.297940 0.181150 0.004490 
#    y 0.181150 4.222550 0.089960 
#    z 0.004490 0.089960 4.444900 
# 
# 
# High freq. dielectric constant tensor:
#      x y z
#    x 1.898030 0.018830 -0.008240 
#    y 0.018830 1.883610 0.006290 
#    z -0.008240 0.006290 1.922930 
# 
# From -- ./inp_files/390122.got.cif
#   From: 2010.06.25/outbox.cif.g09.slc.cpg/sg2_196_cif.got.tgz:390122.got - 2010.06.27 13:26:56.
