data_PCOD8027439
_publ_section_title
;
Structure prediction by ZEFSAII (Michael W. Deem and Ramdas Pophale) SiO2 
 PCOD8027439
Probable space group: P -1
;
_chemical_formula_sum "Si O2"
_cell_formula_units_Z 14
_cell_length_a 8.129371
_cell_length_b 20.740088
_cell_length_c 14.709414
_cell_angle_alpha 161.818138
_cell_angle_beta 64.484802
_cell_angle_gamma 124.258255
_cell_volume 585.220935
_symmetry_space_group_name_H-M "P -1"
_symmetry_group_IT_number 2
_symmetry_cell_setting 'triclinic'
loop_
_space_group_symop_operation_xyz
x,y,z
-x,-y,-z
loop_
_atom_site_type_symbol
_atom_site_label
_atom_site_fract_x
_atom_site_fract_y
_atom_site_fract_z
Si Si1 0.378378 0.214995 0.667350
Si Si2 0.967293 0.109626 0.556337
Si Si3 0.431196 0.670361 0.840459
Si Si4 0.236884 0.877858 0.556190
Si Si5 0.004184 0.450231 0.161324
Si Si6 0.826199 0.353205 0.424847
Si Si7 0.592875 0.812173 0.798799
O O1 0.557460 0.147962 0.533699
O O2 0.171211 0.071127 0.450372
O O3 0.261027 0.136768 0.689892
O O4 0.500000 0.500000 0.000000
O O5 0.922725 0.209793 0.609909
O O6 0.059771 0.315939 0.891172
O O7 0.474952 0.796756 0.900525
O O8 0.331962 0.379540 0.468799
O O9 0.255366 0.705929 0.978852
O O10 0.657615 0.830697 0.058044
O O11 0.090223 0.722650 0.468167
O O12 0.104937 0.479247 0.276529
O O13 0.587210 0.287248 0.370201
O O14 0.000000 0.500000 0.500000
O O15 0.797765 0.088252 0.097118
#
# Coordination Sequence:
#
# PCOD8027439 Si02
#       7
#     2   2   2   2   2   2   2
#     4  11  24  43  70  97 139 183 234 286 335 407
#     4  11  26  45  69 104 141 183 232 281 344 418
#     4  11  24  44  69 101 135 181 234 282 346 422
#     4  12  25  47  69 100 147 186 226 288 347 409
#     4  12  24  42  70 100 134 182 231 277 347 416
#     4  11  23  44  71  99 137 177 228 294 345 413
#     4  10  24  45  68  98 137 178 228 290 351 402
#
# _framework density 23.92259
#
# number of rings (size 3 to 8) (size 9 to 14) (size 15 to 20)
#    0.000    0.857    5.714    0.857    0.000    4.000 
#    2.571    0.000    0.000    0.000    0.000    0.000 
#    0.000    0.000    0.000    0.000    0.000    0.000 
#
# Total GULP energy -173434.909124 kJ/mol
# GULP energy per Si atom -12388.207795 kJ/mol
# Density = 2.386814 g / cm^3
# Si number density = 23.922590 Si / 1000 Ang^3
#
#
#
# Elastic Constant Matrix: (Units=GPa)
#
#
# Indices 1 2 3 4 5 6 
#
# 1 117.0689 46.4906 7.3855 -7.6818 13.7567 -17.8982
# 2 46.4906 120.7429 24.2734 11.0847 7.5954 -17.5730
# 3 7.3855 24.2734 72.0696 10.6486 9.9015 -13.7287
# 4 -7.6818 11.0847 10.6486 46.2415 -8.3178 6.8894
# 5 13.7567 7.5954 9.9015 -8.3178 34.9307 -3.3378
# 6 -17.8982 -17.5730 -13.7287 6.8894 -3.3378 36.5699
#
#
#
# Elastic Compliance Matrix: (Units=1/GPa)
#
#
# Indices 1 2 3 4 5 6 
#
# 1 0.010995 -0.003894 0.001031 0.001467 -0.003107 0.003337
# 2 -0.003894 0.011029 -0.002097 -0.003422 -0.000781 0.003180
# 3 0.001031 -0.002097 0.017230 -0.005238 -0.005465 0.006453
# 4 0.001467 -0.003422 -0.005238 0.026265 0.007219 -0.007182
# 5 -0.003107 -0.000781 -0.005465 0.007219 0.033071 -0.002289
# 6 0.003337 0.003180 0.006453 -0.007182 -0.002289 0.034073
#
#
# Mechanical properties :
#
#
# Convention : Reuss Voigt Hill
#
# Bulk Modulus (GPa) = 34.09040 51.79784 42.94412
# Shear Modulus (GPa) = 32.81667 38.99719 35.90693
#
# Velocity S-wave (km/s) = 3.70778 4.04188 3.87843
# Velocity P-wave (km/s) = 5.71064 6.59406 6.16819
#
# Compressibility (1/GPa) = 0.02933377
#
# Stress axis : x y z
#
# Youngs Moduli (GPa) = 90.95058 90.66862 58.03776
#
# Poissons Ratio (x) = 0.35308 -0.05982
# Poissons Ratio (y) = 0.35418 0.12170
# Poissons Ratio (z) = -0.09375 0.19012
#
# Static dielectric constant tensor:
#      x y z
#    x 4.242220 -0.009810 0.167400 
#    y -0.009810 4.493100 0.398880 
#    z 0.167400 0.398880 4.614570 
# 
# 
# High freq. dielectric constant tensor:
#      x y z
#    x 1.944550 -0.003020 0.009800 
#    y -0.003020 1.946110 0.028450 
#    z 0.009800 0.028450 1.959930 
# 
# From -- ./inp_files/508183.got.cif
#   From: 2010.06.25/outbox.cif.g09.slc.cpg/sg2_255_cif.got.tgz:508183.got - 2010.06.27 13:26:56.
