data_PCOD8027924
_publ_section_title
;
Structure prediction by ZEFSAII (Michael W. Deem and Ramdas Pophale) SiO2 
 PCOD8027924
Probable space group: P -1
;
_chemical_formula_sum "Si O2"
_cell_formula_units_Z 14
_cell_length_a 23.594179
_cell_length_b 6.897571
_cell_length_c 14.937884
_cell_angle_alpha 76.995669
_cell_angle_beta 17.605798
_cell_angle_gamma 68.452813
_cell_volume 612.652174
_symmetry_space_group_name_H-M "P -1"
_symmetry_group_IT_number 2
_symmetry_cell_setting 'triclinic'
loop_
_space_group_symop_operation_xyz
x,y,z
-x,-y,-z
loop_
_atom_site_type_symbol
_atom_site_label
_atom_site_fract_x
_atom_site_fract_y
_atom_site_fract_z
Si Si1 0.890669 0.800142 0.433356
Si Si2 0.646115 0.610019 0.590172
Si Si3 0.151967 0.900705 0.366295
Si Si4 0.678203 0.881556 0.358794
Si Si5 0.085581 0.893598 0.785051
Si Si6 0.280187 0.489808 0.321572
Si Si7 0.639727 0.625012 0.275936
O O1 0.699263 0.735782 0.734647
O O2 0.889583 0.902591 0.520818
O O3 0.839906 0.969344 0.407145
O O4 0.119349 0.557946 0.102592
O O5 0.710295 0.764466 0.419467
O O6 0.706339 0.364146 0.480239
O O7 0.798287 0.526335 0.458900
O O8 0.393902 0.764731 0.977417
O O9 0.103727 0.721433 0.510519
O O10 0.000000 0.000000 0.500000
O O11 0.644751 0.719084 0.357165
O O12 0.471983 0.146467 0.642971
O O13 0.895889 0.889349 0.013507
O O14 0.000000 0.000000 0.000000
O O15 0.500000 0.500000 0.000000
O O16 0.500000 0.500000 0.500000
#
# Coordination Sequence:
#
# PCOD8027924 Si02
#       7
#     2   2   2   2   2   2   2
#     4  12  25  45  77 104 148 190 245 295 364 437
#     4  11  24  46  72 101 149 188 240 296 363 425
#     4  11  28  47  71 104 146 195 240 300 361 425
#     4  11  25  44  71 107 150 186 240 301 362 427
#     4  12  24  43  75 111 142 191 239 297 367 433
#     4  10  24  49  70 102 140 187 243 299 356 422
#     4  11  25  44  72 107 147 195 239 297 366 428
#
# _framework density 22.851465999999999
#
# number of rings (size 3 to 8) (size 9 to 14) (size 15 to 20)
#    0.000    0.857    2.857    3.000    4.000    2.857 
#    5.143    0.000    0.000    0.000    0.000    0.000 
#    0.000    0.000    0.000    0.000    0.000    0.000 
#
# Total GULP energy -173487.417838 kJ/mol
# GULP energy per Si atom -12391.958417 kJ/mol
# Density = 2.279946 g / cm^3
# Si number density = 22.851466 Si / 1000 Ang^3
#
#
#
# Elastic Constant Matrix: (Units=GPa)
#
#
# Indices 1 2 3 4 5 6 
#
# 1 157.2944 88.8610 26.0525 0.6708 9.3860 -9.0226
# 2 88.8610 191.1472 55.6066 4.2671 -0.5615 -3.1003
# 3 26.0525 55.6066 88.5195 24.8136 5.1303 1.5256
# 4 0.6708 4.2671 24.8136 46.7756 8.0567 -5.5974
# 5 9.3860 -0.5615 5.1303 8.0567 29.0446 6.6070
# 6 -9.0226 -3.1003 1.5256 -5.5974 6.6070 53.9478
#
#
#
# Elastic Compliance Matrix: (Units=1/GPa)
#
#
# Indices 1 2 3 4 5 6 
#
# 1 0.009069 -0.004162 -0.000216 0.001232 -0.003740 0.001870
# 2 -0.004162 0.008475 -0.004592 0.001359 0.001984 -0.000181
# 3 -0.000216 -0.004592 0.016694 -0.008594 -0.000211 -0.001638
# 4 0.001232 0.001359 -0.008594 0.027601 -0.007490 0.004308
# 5 -0.003740 0.001984 -0.000211 -0.007490 0.039175 -0.006081
# 6 0.001870 -0.000181 -0.001638 0.004308 -0.006081 0.020077
#
#
# Mechanical properties :
#
#
# Convention : Reuss Voigt Hill
#
# Bulk Modulus (GPa) = 61.34868 86.44459 73.89664
# Shear Modulus (GPa) = 34.61097 43.71633 39.16365
#
# Velocity S-wave (km/s) = 3.89602 4.37860 4.14434
# Velocity P-wave (km/s) = 6.86612 7.96705 7.43699
#
# Compressibility (1/GPa) = 0.01630027
#
# Stress axis : x y z
#
# Youngs Moduli (GPa) = 110.25994 118.00095 59.90102
#
# Poissons Ratio (x) = 0.49108 0.01293
# Poissons Ratio (y) = 0.45886 0.27504
# Poissons Ratio (z) = 0.02380 0.54180
#
# Static dielectric constant tensor:
#      x y z
#    x 4.341580 -0.213080 0.035550 
#    y -0.213080 4.852030 0.071180 
#    z 0.035550 0.071180 4.006780 
# 
# 
# High freq. dielectric constant tensor:
#      x y z
#    x 1.903790 -0.004030 0.000830 
#    y -0.004030 1.928080 0.009510 
#    z 0.000830 0.009510 1.896790 
# 
# From -- ./inp_files/68212.got.cif
#   From: 2010.06.25/outbox.cif.g09.slc.cpg/sg2_35_cif.got.tgz:68212.got - 2010.06.27 13:26:56.
