data_PCOD8027969
_publ_section_title
;
Structure prediction by ZEFSAII (Michael W. Deem and Ramdas Pophale) SiO2 
 PCOD8027969
Probable space group: P -1
;
_chemical_formula_sum "Si O2"
_cell_formula_units_Z 16
_cell_length_a 11.039227
_cell_length_b 7.869713
_cell_length_c 20.076635
_cell_angle_alpha 78.448647
_cell_angle_beta 32.259729
_cell_angle_gamma 73.853323
_cell_volume 892.163407
_symmetry_space_group_name_H-M "P -1"
_symmetry_group_IT_number 2
_symmetry_cell_setting 'triclinic'
loop_
_space_group_symop_operation_xyz
x,y,z
-x,-y,-z
loop_
_atom_site_type_symbol
_atom_site_label
_atom_site_fract_x
_atom_site_fract_y
_atom_site_fract_z
Si Si1 0.058211 0.294603 0.078855
Si Si2 0.389277 0.747716 0.059198
Si Si3 0.845609 0.885520 0.818279
Si Si4 0.956004 0.967534 0.624149
Si Si5 0.500370 0.789973 0.210006
Si Si6 0.407894 0.622829 0.791220
Si Si7 0.314013 0.088844 0.365346
Si Si8 0.683840 0.432821 0.018860
O O1 0.840250 0.309962 0.131977
O O2 0.015629 0.190184 0.173863
O O3 0.289110 0.197387 0.939221
O O4 0.092980 0.488341 0.070110
O O5 0.250453 0.697116 0.063713
O O6 0.619570 0.804006 0.920273
O O7 0.217373 0.903327 0.163197
O O8 0.463168 0.587167 0.089186
O O9 0.994227 0.849633 0.683526
O O10 0.742626 0.137566 0.720966
O O11 0.194478 0.028894 0.491688
O O12 0.885791 0.853370 0.603348
O O13 0.508190 0.587123 0.245366
O O14 0.507544 0.919949 0.260553
O O15 0.581673 0.742513 0.674112
O O16 0.389029 0.666745 0.875308
#
# Coordination Sequence:
#
# PCOD8027969 Si02
#       8
#     2   2   2   2   2   2   2   2
#     4  10  21  32  49  81 107 140 166 201 264 316
#     4   9  17  28  49  79  99 133 167 207 278 302
#     4  10  17  30  51  72 106 134 165 214 257 307
#     4   9  18  37  53  79 103 129 177 226 257 294
#     4   9  18  35  53  79 107 127 166 223 257 302
#     4  11  20  34  53  77 109 142 169 208 254 313
#     4   9  21  35  55  81  97 137 180 212 261 301
#     4   9  17  30  47  73 108 128 164 215 255 312
#
# _framework density 17.933933
#
# number of rings (size 3 to 8) (size 9 to 14) (size 15 to 20)
#    0.750    1.750    0.000    5.250    1.750    1.000 
#    2.250    0.625    0.000    0.750    0.000    0.000 
#    0.000    0.000    0.000    0.000    0.000    0.000 
#
# Total GULP energy -198243.464208 kJ/mol
# GULP energy per Si atom -12390.216513 kJ/mol
# Density = 1.789311 g / cm^3
# Si number density = 17.933933 Si / 1000 Ang^3
#
#
#
# Elastic Constant Matrix: (Units=GPa)
#
#
# Indices 1 2 3 4 5 6 
#
# 1 80.9973 21.5448 39.7873 -7.2678 4.6996 -1.3443
# 2 21.5448 59.9426 22.6399 -7.7768 0.8162 2.7203
# 3 39.7873 22.6399 80.8028 -15.6357 12.4193 -8.0894
# 4 -7.2678 -7.7768 -15.6357 17.6579 -0.1744 -0.4275
# 5 4.6996 0.8162 12.4193 -0.1744 24.0617 -7.5371
# 6 -1.3443 2.7203 -8.0894 -0.4275 -7.5371 18.4953
#
#
#
# Elastic Compliance Matrix: (Units=1/GPa)
#
#
# Indices 1 2 3 4 5 6 
#
# 1 0.016918 -0.003205 -0.007952 -0.001526 0.000378 -0.001658
# 2 -0.003205 0.019980 -0.003769 0.004039 0.000507 -0.004520
# 3 -0.007952 -0.003769 0.022015 0.014655 -0.007406 0.006926
# 4 -0.001526 0.004039 0.014655 0.070834 -0.005262 0.005198
# 5 0.000378 0.000507 -0.007406 -0.005262 0.050652 0.017233
# 6 -0.001658 -0.004520 0.006926 0.005198 0.017233 0.064784
#
#
# Mechanical properties :
#
#
# Convention : Reuss Voigt Hill
#
# Bulk Modulus (GPa) = 34.40985 43.29852 38.85419
# Shear Modulus (GPa) = 17.56094 21.22767 19.39430
#
# Velocity S-wave (km/s) = 3.13261 3.44417 3.29208
# Velocity P-wave (km/s) = 5.68446 6.32552 6.01353
#
# Compressibility (1/GPa) = 0.02906144
#
# Stress axis : x y z
#
# Youngs Moduli (GPa) = 59.10708 50.04905 45.42380
#
# Poissons Ratio (x) = 0.16043 0.36121
# Poissons Ratio (y) = 0.18946 0.17120
# Poissons Ratio (z) = 0.47001 0.18863
#
# Static dielectric constant tensor:
#      x y z
#    x 3.244140 0.072170 0.192210 
#    y 0.072170 3.283210 -0.113960 
#    z 0.192210 -0.113960 3.032350 
# 
# 
# High freq. dielectric constant tensor:
#      x y z
#    x 1.684680 0.007240 0.022100 
#    y 0.007240 1.684350 -0.014620 
#    z 0.022100 -0.014620 1.661590 
# 
# From -- ./inp_files/593193.got.cif
#   From: 2010.06.25/outbox.cif.g09.slc.cpg/sg2_297_cif.got.tgz:593193.got - 2010.06.27 13:26:56.
