data_PCOD8027568
_publ_section_title
;
Structure prediction by ZEFSAII (Michael W. Deem and Ramdas Pophale) SiO2 
 PCOD8027568
Probable space group: P -1
;
_chemical_formula_sum "Si O2"
_cell_formula_units_Z 16
_cell_length_a 18.001761
_cell_length_b 21.486768
_cell_length_c 11.986911
_cell_angle_alpha 159.673221
_cell_angle_beta 37.793309
_cell_angle_gamma 152.543544
_cell_volume 716.780190
_symmetry_space_group_name_H-M "P -1"
_symmetry_group_IT_number 2
_symmetry_cell_setting 'triclinic'
loop_
_space_group_symop_operation_xyz
x,y,z
-x,-y,-z
loop_
_atom_site_type_symbol
_atom_site_label
_atom_site_fract_x
_atom_site_fract_y
_atom_site_fract_z
Si Si1 0.603672 0.651118 0.523425
Si Si2 0.039382 0.538181 0.339084
Si Si3 0.169394 0.961752 0.532606
Si Si4 0.613909 0.552660 0.764308
Si Si5 0.726787 0.172529 0.254962
Si Si6 0.533003 0.899960 0.690760
Si Si7 0.056777 0.262514 0.383592
Si Si8 0.951896 0.839634 0.396347
O O1 0.500000 0.500000 0.500000
O O2 0.504299 0.481774 0.247803
O O3 0.777398 0.728322 0.462591
O O4 0.633013 0.890932 0.878227
O O5 0.206939 0.733837 0.541434
O O6 0.879124 0.340661 0.272232
O O7 0.017568 0.694749 0.556278
O O8 0.063486 0.388470 0.983748
O O9 0.274196 0.905356 0.255161
O O10 0.293200 0.193826 0.856751
O O11 0.014437 0.730529 0.403082
O O12 0.093323 0.015727 0.618575
O O13 0.500784 0.335329 0.623069
O O14 0.741797 0.539147 0.531428
O O15 0.590522 0.184823 0.407914
O O16 0.500000 0.000000 0.000000
O O17 0.000000 0.000000 0.000000
O O18 0.000000 0.000000 0.500000
#
# Coordination Sequence:
#
# PCOD8027568 Si02
#       8
#     2   2   2   2   2   2   2   2
#     4  12  27  44  70 106 147 183 230 294 366 421
#     4  11  25  45  73 103 140 191 239 291 351 431
#     4  11  27  42  71 101 140 185 242 289 358 419
#     4  11  24  44  71  99 140 189 230 291 358 425
#     4  11  25  43  72 101 142 188 236 288 362 424
#     4  12  23  44  67  98 136 179 239 296 348 418
#     4  10  24  45  73 101 139 183 239 291 355 424
#     4  12  26  45  70 102 144 189 242 288 347 431
#
# _framework density 22.322044000000002
#
# number of rings (size 3 to 8) (size 9 to 14) (size 15 to 20)
#    0.000    0.750    3.750    2.625   10.500    1.500 
#    0.000    1.250    0.000    0.000    0.000    0.000 
#    0.000    0.000    0.000    0.000    0.000    0.000 
#
# Total GULP energy -198425.267290 kJ/mol
# GULP energy per Si atom -12401.579206 kJ/mol
# Density = 2.227124 g / cm^3
# Si number density = 22.322044 Si / 1000 Ang^3
#
#
#
# Elastic Constant Matrix: (Units=GPa)
#
#
# Indices 1 2 3 4 5 6 
#
# 1 152.5100 36.3546 29.0554 12.1784 12.0785 3.3579
# 2 36.3546 137.1497 10.6513 -14.5316 -0.5030 5.5793
# 3 29.0554 10.6513 72.1947 -0.6768 2.8763 -8.0068
# 4 12.1784 -14.5316 -0.6768 28.4993 -0.3952 -5.5548
# 5 12.0785 -0.5030 2.8763 -0.3952 34.8052 6.6743
# 6 3.3579 5.5793 -8.0068 -5.5548 6.6743 39.5243
#
#
#
# Elastic Compliance Matrix: (Units=1/GPa)
#
#
# Indices 1 2 3 4 5 6 
#
# 1 0.008384 -0.002490 -0.003100 -0.005214 -0.002499 -0.001300
# 2 -0.002490 0.008567 -0.000315 0.005342 0.001172 -0.000509
# 3 -0.003100 -0.000315 0.015644 0.002295 -0.000955 0.003961
# 4 -0.005214 0.005342 0.002295 0.041234 0.001059 0.005770
# 5 -0.002499 0.001172 -0.000955 0.001059 0.030700 -0.005182
# 6 -0.001300 -0.000509 0.003961 0.005770 -0.005182 0.027971
#
#
# Mechanical properties :
#
#
# Convention : Reuss Voigt Hill
#
# Bulk Modulus (GPa) = 48.11223 57.10857 52.61040
# Shear Modulus (GPa) = 33.05990 39.61863 36.33927
#
# Velocity S-wave (km/s) = 3.85261 4.21749 4.03917
# Velocity P-wave (km/s) = 6.43355 7.02536 6.73596
#
# Compressibility (1/GPa) = 0.02078474
#
# Stress axis : x y z
#
# Youngs Moduli (GPa) = 119.27241 116.72865 63.92053
#
# Poissons Ratio (x) = 0.29070 0.19817
# Poissons Ratio (y) = 0.29704 0.02011
# Poissons Ratio (z) = 0.36978 0.03673
#
# Static dielectric constant tensor:
#      x y z
#    x 4.210960 0.030150 0.051610 
#    y 0.030150 4.700310 0.022940 
#    z 0.051610 0.022940 3.849010 
# 
# 
# High freq. dielectric constant tensor:
#      x y z
#    x 1.896550 0.004490 0.000820 
#    y 0.004490 1.890760 0.001000 
#    z 0.000820 0.001000 1.864200 
# 
# From -- ./inp_files/467222.got.cif
#   From: 2010.06.25/outbox.cif.g09.slc.cpg/sg2_234_cif.got.tgz:467222.got - 2010.06.27 13:26:56.
