data_PCOD8027044
_publ_section_title
;
Structure prediction by ZEFSAII (Michael W. Deem and Ramdas Pophale) SiO2 
 PCOD8027044
Probable space group: P -1
;
_chemical_formula_sum "Si O2"
_cell_formula_units_Z 16
_cell_length_a 17.172255
_cell_length_b 12.875081
_cell_length_c 8.631487
_cell_angle_alpha 60.696050
_cell_angle_beta 29.604582
_cell_angle_gamma 53.687102
_cell_volume 758.115648
_symmetry_space_group_name_H-M "P -1"
_symmetry_group_IT_number 2
_symmetry_cell_setting 'triclinic'
loop_
_space_group_symop_operation_xyz
x,y,z
-x,-y,-z
loop_
_atom_site_type_symbol
_atom_site_label
_atom_site_fract_x
_atom_site_fract_y
_atom_site_fract_z
Si Si1 0.338582 0.671844 0.889372
Si Si2 0.768293 0.773175 0.172761
Si Si3 0.299805 0.413581 0.809310
Si Si4 0.726786 0.577389 0.804293
Si Si5 0.842190 0.982412 0.702039
Si Si6 0.017564 0.877284 0.160319
Si Si7 0.997076 0.663990 0.131855
Si Si8 0.533812 0.234828 0.106448
O O1 0.504006 0.611580 0.540202
O O2 0.387477 0.695836 0.959332
O O3 0.244933 0.572569 0.132500
O O4 0.211969 0.806166 0.935316
O O5 0.771302 0.664537 0.126411
O O6 0.939448 0.716265 0.021031
O O7 0.600896 0.814440 0.541406
O O8 0.768971 0.897810 0.994358
O O9 0.283260 0.368588 0.044338
O O10 0.194967 0.567431 0.855429
O O11 0.892642 0.580060 0.431532
O O12 0.555468 0.662613 0.947806
O O13 0.893169 0.919148 0.492112
O O14 0.000000 0.000000 0.500000
O O15 0.686136 0.118207 0.848326
O O16 0.961694 0.783559 0.219727
O O17 0.000000 0.000000 0.000000
#
# Coordination Sequence:
#
# PCOD8027044 Si02
#       8
#     2   2   2   2   2   2   2   2
#     4  11  24  43  65  98 134 172 214 274 322 388
#     4  10  24  44  66  99 133 169 220 269 330 391
#     4  11  23  41  68  96 131 172 215 269 333 380
#     4  11  23  41  68  99 134 165 222 269 329 384
#     4  12  24  43  69  94 130 182 219 266 325 387
#     4  12  27  44  66  99 136 169 225 267 323 389
#     4  11  24  43  68  98 132 172 213 276 324 390
#     4  10  24  44  65  98 133 173 217 270 326 389
#
# _framework density 21.104960999999999
#
# number of rings (size 3 to 8) (size 9 to 14) (size 15 to 20)
#    0.000    1.000    2.500    3.375    3.500    1.000 
#    2.250    3.125    0.000    0.000    0.000    0.000 
#    0.000    0.000    0.000    0.000    0.000    0.000 
#
# Total GULP energy -198509.547049 kJ/mol
# GULP energy per Si atom -12406.846691 kJ/mol
# Density = 2.105693 g / cm^3
# Si number density = 21.104961 Si / 1000 Ang^3
#
#
#
# Elastic Constant Matrix: (Units=GPa)
#
#
# Indices 1 2 3 4 5 6 
#
# 1 130.5949 36.8658 25.9150 15.4273 6.0744 -11.7456
# 2 36.8658 110.2873 40.8968 18.4754 -4.5131 -11.8601
# 3 25.9150 40.8968 77.1741 24.2477 -1.3211 -9.4098
# 4 15.4273 18.4754 24.2477 36.5829 0.6054 -4.7405
# 5 6.0744 -4.5131 -1.3211 0.6054 27.6248 1.4349
# 6 -11.7456 -11.8601 -9.4098 -4.7405 1.4349 40.3367
#
#
#
# Elastic Compliance Matrix: (Units=1/GPa)
#
#
# Indices 1 2 3 4 5 6 
#
# 1 0.008964 -0.002218 -0.001168 -0.001641 -0.002436 0.001579
# 2 -0.002218 0.012189 -0.004930 -0.001795 0.002205 0.001498
# 3 -0.001168 -0.004930 0.019150 -0.009519 0.000496 0.001541
# 4 -0.001641 -0.001795 -0.009519 0.035389 -0.001214 0.000976
# 5 -0.002436 0.002205 0.000496 -0.001214 0.037219 -0.001412
# 6 0.001579 0.001498 0.001541 0.000976 -0.001412 0.026216
#
#
# Mechanical properties :
#
#
# Convention : Reuss Voigt Hill
#
# Bulk Modulus (GPa) = 42.24765 58.37905 50.31335
# Shear Modulus (GPa) = 30.55291 35.20080 32.87686
#
# Velocity S-wave (km/s) = 3.80895 4.08841 3.95115
# Velocity P-wave (km/s) = 6.27737 7.07165 6.68632
#
# Compressibility (1/GPa) = 0.02366996
#
# Stress axis : x y z
#
# Youngs Moduli (GPa) = 111.55158 82.04177 52.22009
#
# Poissons Ratio (x) = 0.18199 0.06101
# Poissons Ratio (y) = 0.24745 0.25744
# Poissons Ratio (z) = 0.13033 0.40446
#
# Static dielectric constant tensor:
#      x y z
#    x 4.104070 -0.043430 0.017190 
#    y -0.043430 3.826120 0.053120 
#    z 0.017190 0.053120 3.837140 
# 
# 
# High freq. dielectric constant tensor:
#      x y z
#    x 1.847960 -0.001100 0.000920 
#    y -0.001100 1.829920 0.005690 
#    z 0.000920 0.005690 1.827980 
# 
# From -- ./inp_files/206859.got.cif
#   From: 2010.06.25/outbox.cif.g09.slc.cpg/sg2_104_cif.got.tgz:206859.got - 2010.06.27 13:26:56.
