data_PCOD8027060
_publ_section_title
;
Structure prediction by ZEFSAII (Michael W. Deem and Ramdas Pophale) SiO2 
 PCOD8027060
Probable space group: P -1
;
_chemical_formula_sum "Si O2"
_cell_formula_units_Z 14
_cell_length_a 17.302697
_cell_length_b 9.025910
_cell_length_c 12.284844
_cell_angle_alpha 54.103381
_cell_angle_beta 38.813485
_cell_angle_gamma 33.322869
_cell_volume 648.827321
_symmetry_space_group_name_H-M "P -1"
_symmetry_group_IT_number 2
_symmetry_cell_setting 'triclinic'
loop_
_space_group_symop_operation_xyz
x,y,z
-x,-y,-z
loop_
_atom_site_type_symbol
_atom_site_label
_atom_site_fract_x
_atom_site_fract_y
_atom_site_fract_z
Si Si1 0.113169 0.608139 0.314442
Si Si2 0.345316 0.041102 0.202941
Si Si3 0.025894 0.272767 0.116018
Si Si4 0.978694 0.806106 0.606038
Si Si5 0.635000 0.331418 0.023833
Si Si6 0.475496 0.500494 0.689670
Si Si7 0.801117 0.196641 0.317552
O O1 0.109741 0.595365 0.454524
O O2 0.180655 0.336867 0.314612
O O3 0.253131 0.604200 0.117803
O O4 0.910042 0.894410 0.369869
O O5 0.464290 0.779689 0.264221
O O6 0.234409 0.029153 0.246428
O O7 0.500000 0.000000 0.000000
O O8 0.948429 0.350196 0.291218
O O9 0.928662 0.234356 0.160235
O O10 0.000000 0.500000 0.000000
O O11 0.241685 0.981702 0.003568
O O12 0.000000 0.000000 0.500000
O O13 0.532904 0.414765 0.214921
O O14 0.500000 0.500000 0.000000
O O15 0.633164 0.435601 0.479816
O O16 0.276607 0.748986 0.742388
#
# Coordination Sequence:
#
# PCOD8027060 Si02
#       7
#     2   2   2   2   2   2   2
#     4  11  24  41  70 100 130 183 233 283 341 421
#     4  12  25  41  69 106 132 174 236 292 332 407
#     4  11  26  43  67  99 135 182 232 288 341 420
#     4  12  23  45  72  96 141 187 230 283 349 421
#     4  11  24  41  69 100 135 183 235 283 355 408
#     4  11  23  43  68  93 142 173 224 293 346 411
#     4  10  24  44  66  94 135 185 229 270 365 405
#
# _framework density 21.577387999999999
#
# number of rings (size 3 to 8) (size 9 to 14) (size 15 to 20)
#    0.000    0.857    5.714    1.286    4.000    3.429 
#    2.571    0.714    0.000    0.000    0.000    0.000 
#    0.000    0.000    0.000    0.000    0.000    0.000 
#
# Total GULP energy -173558.760871 kJ/mol
# GULP energy per Si atom -12397.054348 kJ/mol
# Density = 2.152828 g / cm^3
# Si number density = 21.577388 Si / 1000 Ang^3
#
#
#
# Elastic Constant Matrix: (Units=GPa)
#
#
# Indices 1 2 3 4 5 6 
#
# 1 117.5323 60.3244 42.4819 -0.0704 14.0732 -8.0814
# 2 60.3244 153.1458 33.7158 -9.8094 14.3354 0.8976
# 3 42.4819 33.7158 87.8671 -6.8901 13.0257 3.5014
# 4 -0.0704 -9.8094 -6.8901 40.8725 1.7545 -1.0835
# 5 14.0732 14.3354 13.0257 1.7545 46.9249 -3.2943
# 6 -8.0814 0.8976 3.5014 -1.0835 -3.2943 35.2682
#
#
#
# Elastic Compliance Matrix: (Units=1/GPa)
#
#
# Indices 1 2 3 4 5 6 
#
# 1 0.012568 -0.003952 -0.004672 -0.001585 -0.000974 0.003305
# 2 -0.003952 0.008554 -0.000986 0.001907 -0.001302 -0.001088
# 3 -0.004672 -0.000986 0.014696 0.002275 -0.002651 -0.002682
# 4 -0.001585 0.001907 0.002275 0.025377 -0.001689 -0.000016
# 5 -0.000974 -0.001302 -0.002651 -0.001689 0.022951 0.002165
# 6 0.003305 -0.001088 -0.002682 -0.000016 0.002165 0.029607
#
#
# Mechanical properties :
#
#
# Convention : Reuss Voigt Hill
#
# Bulk Modulus (GPa) = 60.24249 70.17660 65.20954
# Shear Modulus (GPa) = 36.09993 39.41466 37.75730
#
# Velocity S-wave (km/s) = 4.09472 4.27859 4.18766
# Velocity P-wave (km/s) = 7.09476 7.54998 7.32591
#
# Compressibility (1/GPa) = 0.01659958
#
# Stress axis : x y z
#
# Youngs Moduli (GPa) = 79.56690 116.90776 68.04628
#
# Poissons Ratio (x) = 0.46200 0.31788
# Poissons Ratio (y) = 0.31443 0.06707
# Poissons Ratio (z) = 0.37170 0.11523
#
# Static dielectric constant tensor:
#      x y z
#    x -22.003930 -8.920420 -21.992560 
#    y -8.920420 1.149460 -7.059270 
#    z -21.992560 -7.059270 -14.038150 
# 
# 
# High freq. dielectric constant tensor:
#      x y z
#    x 1.842420 -0.005390 -0.001870 
#    y -0.005390 1.840270 0.005360 
#    z -0.001870 0.005360 1.860170 
# 
# From -- ./inp_files/392573.got.cif
#   From: 2010.06.25/outbox.cif.g09.slc.cpg/sg2_197_cif.got.tgz:392573.got - 2010.06.27 13:26:56.
