data_PCOD8027861
_publ_section_title
;
Structure prediction by ZEFSAII (Michael W. Deem and Ramdas Pophale) SiO2 
 PCOD8027861
Probable space group: P -1
;
_chemical_formula_sum "Si O2"
_cell_formula_units_Z 16
_cell_length_a 12.083148
_cell_length_b 11.222047
_cell_length_c 6.811708
_cell_angle_alpha 116.441542
_cell_angle_beta 62.680569
_cell_angle_gamma 111.989130
_cell_volume 717.795322
_symmetry_space_group_name_H-M "P -1"
_symmetry_group_IT_number 2
_symmetry_cell_setting 'triclinic'
loop_
_space_group_symop_operation_xyz
x,y,z
-x,-y,-z
loop_
_atom_site_type_symbol
_atom_site_label
_atom_site_fract_x
_atom_site_fract_y
_atom_site_fract_z
Si Si1 0.840405 0.929562 0.293420
Si Si2 0.379925 0.918692 0.428544
Si Si3 0.587890 0.225823 0.085111
Si Si4 0.792846 0.575722 0.613350
Si Si5 0.663548 0.723290 0.517777
Si Si6 0.987327 0.811989 0.769316
Si Si7 0.776679 0.276587 0.312614
Si Si8 0.617253 0.510805 0.057888
O O1 0.798386 0.829301 0.439880
O O2 0.716158 0.984096 0.384086
O O3 0.874079 0.846223 0.017954
O O4 0.956526 0.060717 0.329582
O O5 0.321379 0.770619 0.462371
O O6 0.500000 0.000000 0.500000
O O7 0.413550 0.893842 0.158319
O O8 0.449674 0.198221 0.283652
O O9 0.704301 0.218152 0.130233
O O10 0.613382 0.373575 0.077182
O O11 0.687886 0.633063 0.616501
O O12 0.928972 0.682362 0.586601
O O13 0.815583 0.439817 0.391585
O O14 0.746264 0.546249 0.852213
O O15 0.615661 0.630834 0.301044
O O16 0.096183 0.782086 0.805820
O O17 0.500000 0.500000 0.000000
#
# Coordination Sequence:
#
# PCOD8027861 Si02
#       8
#     2   2   2   2   2   2   2   2
#     4  10  24  48  65  98 134 184 236 271 338 405
#     4  11  26  44  70 100 140 182 224 284 347 406
#     4  12  25  43  69 107 141 174 225 287 343 412
#     4  12  23  43  73 103 135 179 228 287 347 397
#     4  12  25  41  73 108 135 177 228 282 348 413
#     4  10  24  48  72  93 140 188 228 286 334 402
#     4  11  24  46  69 103 138 177 235 279 343 408
#     4  12  23  41  68 104 143 178 218 281 353 408
#
# _framework density 22.290479000000001
#
# number of rings (size 3 to 8) (size 9 to 14) (size 15 to 20)
#    0.000    0.750    5.000    2.250    3.500    2.500 
#    9.000    1.250    0.000    0.000    0.000    0.000 
#    0.000    0.000    0.000    0.000    0.000    0.000 
#
# Total GULP energy -198409.931734 kJ/mol
# GULP energy per Si atom -12400.620733 kJ/mol
# Density = 2.223975 g / cm^3
# Si number density = 22.290479 Si / 1000 Ang^3
#
#
#
# Elastic Constant Matrix: (Units=GPa)
#
#
# Indices 1 2 3 4 5 6 
#
# 1 99.6369 25.7898 61.7384 13.8625 -1.2077 3.0837
# 2 25.7898 98.2837 40.7772 2.9763 -9.9568 15.0401
# 3 61.7384 40.7772 135.1490 10.4233 -3.7711 12.7109
# 4 13.8625 2.9763 10.4233 39.3755 2.2966 0.0232
# 5 -1.2077 -9.9568 -3.7711 2.2966 35.2874 0.5109
# 6 3.0837 15.0401 12.7109 0.0232 0.5109 36.2517
#
#
#
# Elastic Compliance Matrix: (Units=1/GPa)
#
#
# Indices 1 2 3 4 5 6 
#
# 1 0.014639 -0.001462 -0.006138 -0.003398 -0.000368 0.001521
# 2 -0.001462 0.012642 -0.002662 0.000075 0.003289 -0.004233
# 3 -0.006138 -0.002662 0.011284 -0.000642 0.000320 -0.002334
# 4 -0.003398 0.000075 -0.000642 0.026869 -0.001920 0.000493
# 5 -0.000368 0.003289 0.000320 -0.001920 0.029440 -0.001859
# 6 0.001521 -0.004233 -0.002334 0.000493 -0.001859 0.030056
#
#
# Mechanical properties :
#
#
# Convention : Reuss Voigt Hill
#
# Bulk Modulus (GPa) = 55.42792 65.52006 60.47399
# Shear Modulus (GPa) = 33.01040 35.83386 34.42213
#
# Velocity S-wave (km/s) = 3.85245 4.01382 3.93396
# Velocity P-wave (km/s) = 6.68645 7.13713 6.91546
#
# Compressibility (1/GPa) = 0.01804145
#
# Stress axis : x y z
#
# Youngs Moduli (GPa) = 68.31003 79.10447 88.61944
#
# Poissons Ratio (x) = 0.11565 0.54390
# Poissons Ratio (y) = 0.09987 0.23592
# Poissons Ratio (z) = 0.41925 0.21059
#
# Static dielectric constant tensor:
#      x y z
#    x 3.982720 0.106780 -0.230960 
#    y 0.106780 4.500060 -0.323860 
#    z -0.230960 -0.323860 4.226460 
# 
# 
# High freq. dielectric constant tensor:
#      x y z
#    x 1.870210 0.004330 -0.006350 
#    y 0.004330 1.902820 -0.001830 
#    z -0.006350 -0.001830 1.869180 
# 
# From -- ./inp_files/71713.got.cif
#   From: 2010.06.25/outbox.cif.g09.slc.cpg/sg2_36_cif.got.tgz:71713.got - 2010.06.27 13:26:56.
