data_PCOD8027646
_publ_section_title
;
Structure prediction by ZEFSAII (Michael W. Deem and Ramdas Pophale) SiO2 
 PCOD8027646
Probable space group: P -1
;
_chemical_formula_sum "Si O2"
_cell_formula_units_Z 16
_cell_length_a 24.995210
_cell_length_b 9.632310
_cell_length_c 9.437270
_cell_angle_alpha 136.679068
_cell_angle_beta 149.755007
_cell_angle_gamma 43.697604
_cell_volume 755.271716
_symmetry_space_group_name_H-M "P -1"
_symmetry_group_IT_number 2
_symmetry_cell_setting 'triclinic'
loop_
_space_group_symop_operation_xyz
x,y,z
-x,-y,-z
loop_
_atom_site_type_symbol
_atom_site_label
_atom_site_fract_x
_atom_site_fract_y
_atom_site_fract_z
Si Si1 0.696903 0.147936 0.309462
Si Si2 0.251945 0.462756 0.376399
Si Si3 0.418702 0.608698 0.271583
Si Si4 0.228967 0.421996 0.611349
Si Si5 0.101044 0.668283 0.745604
Si Si6 0.851938 0.720781 0.234284
Si Si7 0.498560 0.233624 0.705560
Si Si8 0.732810 0.068497 0.644623
O O1 0.772388 0.307226 0.579622
O O2 0.666259 0.142412 0.400835
O O3 0.763401 0.916530 0.243521
O O4 0.587420 0.235636 0.031139
O O5 0.206007 0.498146 0.455390
O O6 0.382033 0.352212 0.592621
O O7 0.186923 0.318398 0.040747
O O8 0.500000 0.500000 0.500000
O O9 0.481310 0.648329 0.303568
O O10 0.344796 0.833661 0.327762
O O11 0.344075 0.452812 0.953097
O O12 0.127946 0.569026 0.577527
O O13 0.230637 0.180721 0.447680
O O14 0.148334 0.481820 0.825369
O O15 0.970331 0.766462 0.534167
O O16 0.156091 0.855605 0.041167
O O17 0.500000 0.000000 0.500000
#
# Coordination Sequence:
#
# PCOD8027646 Si02
#       8
#     2   2   2   2   2   2   2   2
#     4  12  24  42  68  98 130 177 223 262 328 396
#     4  12  25  44  67  98 137 175 217 270 329 395
#     4  11  26  42  62  96 139 175 219 269 324 389
#     4  11  25  44  65  97 136 171 216 274 332 390
#     4  10  24  46  68  99 133 166 225 284 325 388
#     4  11  24  44  71  98 130 174 221 278 331 390
#     4  12  25  43  68  97 139 177 218 271 322 393
#     4  11  24  42  69  96 130 176 220 270 329 394
#
# _framework density 21.184428
#
# number of rings (size 3 to 8) (size 9 to 14) (size 15 to 20)
#    0.000    0.750    5.000    1.875    5.250    2.500 
#    0.000    1.250    0.000    0.000    0.000    0.000 
#    0.000    0.000    0.000    0.000    0.000    0.000 
#
# Total GULP energy -198477.207987 kJ/mol
# GULP energy per Si atom -12404.825499 kJ/mol
# Density = 2.113621 g / cm^3
# Si number density = 21.184428 Si / 1000 Ang^3
#
#
#
# Elastic Constant Matrix: (Units=GPa)
#
#
# Indices 1 2 3 4 5 6 
#
# 1 90.6735 0.8589 11.8224 -3.6475 -20.9563 9.9004
# 2 0.8589 66.3808 21.1826 13.5067 -1.5524 5.5167
# 3 11.8224 21.1826 83.1549 7.2459 -12.7901 -5.4626
# 4 -3.6475 13.5067 7.2459 41.3193 1.8478 -1.5493
# 5 -20.9563 -1.5524 -12.7901 1.8478 27.1122 9.0348
# 6 9.9004 5.5167 -5.4626 -1.5493 9.0348 20.5316
#
#
#
# Elastic Compliance Matrix: (Units=1/GPa)
#
#
# Indices 1 2 3 4 5 6 
#
# 1 0.017477 0.002184 -0.001245 -0.000467 0.018989 -0.017736
# 2 0.002184 0.018504 -0.004519 -0.005605 0.004157 -0.009480
# 3 -0.001245 -0.004519 0.014380 -0.001219 0.004449 0.003591
# 4 -0.000467 -0.005605 -0.001219 0.026637 -0.004935 0.005588
# 5 0.018989 0.004157 0.004449 -0.004935 0.067248 -0.039054
# 6 -0.017736 -0.009480 0.003591 0.005588 -0.039054 0.078368
#
#
# Mechanical properties :
#
#
# Convention : Reuss Voigt Hill
#
# Bulk Modulus (GPa) = 23.14747 34.21525 28.68136
# Shear Modulus (GPa) = 20.47724 31.54896 26.01310
#
# Velocity S-wave (km/s) = 3.11242 3.86327 3.50799
# Velocity P-wave (km/s) = 4.88534 6.00716 5.47506
#
# Compressibility (1/GPa) = 0.04320126
#
# Stress axis : x y z
#
# Youngs Moduli (GPa) = 57.21940 54.04273 69.53913
#
# Poissons Ratio (x) = -0.11804 0.08657
# Poissons Ratio (y) = -0.12498 0.31426
# Poissons Ratio (z) = 0.07123 0.24423
#
# Static dielectric constant tensor:
#      x y z
#    x 4.071020 -0.062190 -0.229340 
#    y -0.062190 4.036050 0.449430 
#    z -0.229340 0.449430 4.179940 
# 
# 
# High freq. dielectric constant tensor:
#      x y z
#    x 1.840720 0.000570 -0.013180 
#    y 0.000570 1.832090 0.016330 
#    z -0.013180 0.016330 1.838290 
# 
# From -- ./inp_files/216858.got.cif
#   From: 2010.06.25/outbox.cif.g09.slc.cpg/sg2_109_cif.got.tgz:216858.got - 2010.06.27 13:26:56.
