data_PCOD8027039
_publ_section_title
;
Structure prediction by ZEFSAII (Michael W. Deem and Ramdas Pophale) SiO2 
 PCOD8027039
Probable space group: P -1
;
_chemical_formula_sum "Si O2"
_cell_formula_units_Z 16
_cell_length_a 12.869863
_cell_length_b 9.520024
_cell_length_c 9.398652
_cell_angle_alpha 81.927667
_cell_angle_beta 74.441005
_cell_angle_gamma 44.141632
_cell_volume 770.251181
_symmetry_space_group_name_H-M "P -1"
_symmetry_group_IT_number 2
_symmetry_cell_setting 'triclinic'
loop_
_space_group_symop_operation_xyz
x,y,z
-x,-y,-z
loop_
_atom_site_type_symbol
_atom_site_label
_atom_site_fract_x
_atom_site_fract_y
_atom_site_fract_z
Si Si1 0.940450 0.613401 0.650761
Si Si2 0.604654 0.315311 0.277740
Si Si3 0.045238 0.081793 0.364400
Si Si4 0.621532 0.047087 0.101008
Si Si5 0.100945 0.803816 0.899354
Si Si6 0.030165 0.343931 0.910630
Si Si7 0.406484 0.987112 0.210649
Si Si8 0.628980 0.241634 0.596203
O O1 0.015668 0.700280 0.619193
O O2 0.757223 0.791669 0.716552
O O3 0.000000 0.500000 0.500000
O O4 0.008642 0.426191 0.751587
O O5 0.556271 0.240269 0.191498
O O6 0.722254 0.313217 0.159720
O O7 0.676442 0.190903 0.418786
O O8 0.452012 0.538114 0.356299
O O9 0.980775 0.103880 0.233663
O O10 0.228317 0.913268 0.327560
O O11 0.000000 0.000000 0.500000
O O12 0.534698 0.986146 0.185304
O O13 0.800490 0.877236 0.099472
O O14 0.599553 0.079678 0.934638
O O15 0.095942 0.655265 0.997651
O O16 0.000000 0.000000 0.000000
O O17 0.000000 0.500000 0.000000
O O18 0.467388 0.809725 0.323774
#
# Coordination Sequence:
#
# PCOD8027039 Si02
#       8
#     2   2   2   2   2   2   2   2
#     4  11  26  43  67 100 131 173 219 268 331 389
#     4  11  25  44  64  98 130 173 220 267 326 393
#     4  11  23  44  66  96 135 171 213 272 324 387
#     4  11  24  44  67  95 132 169 222 271 325 385
#     4  12  25  42  69  99 129 175 221 271 331 379
#     4  12  23  44  67  97 132 171 222 273 318 392
#     4  10  24  45  65  94 131 174 214 274 327 383
#     4  10  24  44  65  93 135 169 215 268 326 391
#
# _framework density 20.772444
#
# number of rings (size 3 to 8) (size 9 to 14) (size 15 to 20)
#    0.000    1.000    5.000    0.750    7.000    2.000 
#    0.000    0.000    0.000    0.000    0.000    0.000 
#    0.000    0.000    0.000    0.000    0.000    0.000 
#
# Total GULP energy -198244.492410 kJ/mol
# GULP energy per Si atom -12390.280776 kJ/mol
# Density = 2.072517 g / cm^3
# Si number density = 20.772444 Si / 1000 Ang^3
#
#
#
# Elastic Constant Matrix: (Units=GPa)
#
#
# Indices 1 2 3 4 5 6 
#
# 1 105.0180 24.0326 55.1941 -5.3172 -6.8220 27.8638
# 2 24.0326 66.2766 40.6535 -4.4086 3.9949 23.7657
# 3 55.1941 40.6535 142.1249 1.5183 0.9843 29.8552
# 4 -5.3172 -4.4086 1.5183 47.3386 13.2001 -4.8133
# 5 -6.8220 3.9949 0.9843 13.2001 39.9770 -6.7979
# 6 27.8638 23.7657 29.8552 -4.8133 -6.7979 34.6616
#
#
#
# Elastic Compliance Matrix: (Units=1/GPa)
#
#
# Indices 1 2 3 4 5 6 
#
# 1 0.013531 0.000019 -0.003714 0.000627 0.000930 -0.007422
# 2 0.000019 0.022439 -0.003709 0.002325 -0.005106 -0.012885
# 3 -0.003714 -0.003709 0.010333 -0.001266 -0.000727 -0.003690
# 4 0.000627 0.002325 -0.001266 0.023701 -0.007792 0.000756
# 5 0.000930 -0.005106 -0.000727 -0.007792 0.029654 0.008114
# 6 -0.007422 -0.012885 -0.003690 0.000756 0.008114 0.048525
#
#
# Mechanical properties :
#
#
# Convention : Reuss Voigt Hill
#
# Bulk Modulus (GPa) = 31.75121 61.46442 46.60782
# Shear Modulus (GPa) = 28.82003 37.29806 33.05904
#
# Velocity S-wave (km/s) = 3.72884 4.24200 3.99367
# Velocity P-wave (km/s) = 5.81872 7.32437 6.61452
#
# Compressibility (1/GPa) = 0.03149486
#
# Stress axis : x y z
#
# Youngs Moduli (GPa) = 73.90253 44.56537 96.77716
#
# Poissons Ratio (x) = -0.00083 0.35946
# Poissons Ratio (y) = -0.00138 0.35891
# Poissons Ratio (z) = 0.27450 0.16528
#
# Static dielectric constant tensor:
#      x y z
#    x 4.113100 0.276840 -0.311830 
#    y 0.276840 3.655640 -0.104170 
#    z -0.311830 -0.104170 3.872620 
# 
# 
# High freq. dielectric constant tensor:
#      x y z
#    x 1.816180 0.016640 -0.010560 
#    y 0.016640 1.812530 -0.004400 
#    z -0.010560 -0.004400 1.830390 
# 
# From -- ./inp_files/243968.got.cif
#   From: 2010.06.25/outbox.cif.g09.slc.cpg/sg2_122_cif.got.tgz:243968.got - 2010.06.27 13:26:56.
