data_PCOD8027937
_publ_section_title
;
Structure prediction by ZEFSAII (Michael W. Deem and Ramdas Pophale) SiO2 
 PCOD8027937
Probable space group: P -1
;
_chemical_formula_sum "Si O2"
_cell_formula_units_Z 16
_cell_length_a 16.987680
_cell_length_b 8.582069
_cell_length_c 9.096966
_cell_angle_alpha 48.882335
_cell_angle_beta 46.458531
_cell_angle_gamma 65.129446
_cell_volume 722.972108
_symmetry_space_group_name_H-M "P -1"
_symmetry_group_IT_number 2
_symmetry_cell_setting 'triclinic'
loop_
_space_group_symop_operation_xyz
x,y,z
-x,-y,-z
loop_
_atom_site_type_symbol
_atom_site_label
_atom_site_fract_x
_atom_site_fract_y
_atom_site_fract_z
Si Si1 0.810940 0.437258 0.669145
Si Si2 0.135832 0.222988 0.371079
Si Si3 0.008023 0.469091 0.181024
Si Si4 0.656285 0.919537 0.938675
Si Si5 0.615668 0.689676 0.651381
Si Si6 0.246716 0.035050 0.902246
Si Si7 0.516091 0.293825 0.901622
Si Si8 0.988774 0.903259 0.920981
O O1 0.867251 0.588441 0.626109
O O2 0.704847 0.541904 0.687857
O O3 0.894061 0.401849 0.450938
O O4 0.774370 0.212974 0.922364
O O5 0.098258 0.311089 0.207715
O O6 0.250327 0.119556 0.276482
O O7 0.049848 0.036118 0.634887
O O8 0.000000 0.500000 0.000000
O O9 0.047810 0.701241 0.023069
O O10 0.557646 0.758035 0.115754
O O11 0.702917 0.874154 0.067276
O O12 0.621352 0.156609 0.834404
O O13 0.546233 0.540733 0.717657
O O14 0.666550 0.894583 0.379096
O O15 0.543723 0.770990 0.827291
O O16 0.135259 0.144632 0.942751
O O17 0.000000 0.000000 0.000000
#
# Coordination Sequence:
#
# PCOD8027937 Si02
#       8
#     2   2   2   2   2   2   2   2
#     4  12  23  46  67 102 139 184 232 282 342 421
#     4  12  25  45  70  98 148 187 227 283 345 416
#     4  12  26  41  68 102 142 186 230 281 346 409
#     4  11  25  45  69 104 137 181 226 293 348 402
#     4  11  23  47  77  98 134 184 228 293 344 414
#     4  12  25  42  73 103 138 179 232 280 352 417
#     4  10  24  49  73  99 137 177 236 295 350 400
#     4  12  24  43  70 105 140 188 231 276 340 430
#
# _framework density 22.130868
#
# number of rings (size 3 to 8) (size 9 to 14) (size 15 to 20)
#    0.000    0.500    6.250    1.875    1.750    2.000 
#    0.000    1.250    0.000    0.000    0.000    0.000 
#    0.000    0.000    0.000    0.000    0.000    0.000 
#
# Total GULP energy -198255.402253 kJ/mol
# GULP energy per Si atom -12390.962641 kJ/mol
# Density = 2.208050 g / cm^3
# Si number density = 22.130868 Si / 1000 Ang^3
#
#
#
# Elastic Constant Matrix: (Units=GPa)
#
#
# Indices 1 2 3 4 5 6 
#
# 1 107.7392 23.5432 29.5288 5.7671 -2.9948 -7.9613
# 2 23.5432 100.2040 48.6386 5.4925 -7.2101 -14.9342
# 3 29.5288 48.6386 154.3514 -15.1515 -2.9217 -6.7598
# 4 5.7671 5.4925 -15.1515 40.2027 -0.0730 -3.1898
# 5 -2.9948 -7.2101 -2.9217 -0.0730 24.2014 -3.9591
# 6 -7.9613 -14.9342 -6.7598 -3.1898 -3.9591 26.8052
#
#
#
# Elastic Compliance Matrix: (Units=1/GPa)
#
#
# Indices 1 2 3 4 5 6 
#
# 1 0.010257 -0.001135 -0.001676 -0.001793 0.001039 0.001931
# 2 -0.001135 0.013625 -0.003963 -0.002660 0.004513 0.006604
# 3 -0.001676 -0.003963 0.008420 0.003941 -0.000387 -0.000170
# 4 -0.001793 -0.002660 0.003941 0.027154 -0.000097 0.002196
# 5 0.001039 0.004513 -0.000387 -0.000097 0.044259 0.009250
# 6 0.001931 0.006604 -0.000170 0.002196 0.009250 0.043144
#
#
# Mechanical properties :
#
#
# Convention : Reuss Voigt Hill
#
# Bulk Modulus (GPa) = 53.32417 62.85729 58.09073
# Shear Modulus (GPa) = 30.00162 35.61411 32.80787
#
# Velocity S-wave (km/s) = 3.68590 4.01590 3.85443
# Velocity P-wave (km/s) = 6.50090 7.06877 6.79077
#
# Compressibility (1/GPa) = 0.01875322
#
# Stress axis : x y z
#
# Youngs Moduli (GPa) = 97.49690 73.39679 118.76325
#
# Poissons Ratio (x) = 0.08333 0.19907
# Poissons Ratio (y) = 0.11070 0.47061
# Poissons Ratio (z) = 0.16342 0.29084
#
# Static dielectric constant tensor:
#      x y z
#    x 4.088520 0.070360 -0.064650 
#    y 0.070360 4.155690 0.069040 
#    z -0.064650 0.069040 3.971690 
# 
# 
# High freq. dielectric constant tensor:
#      x y z
#    x 1.880690 0.005750 -0.002920 
#    y 0.005750 1.885610 0.000470 
#    z -0.002920 0.000470 1.860440 
# 
# From -- ./inp_files/327025.got.cif
#   From: 2010.06.25/outbox.cif.g09.slc.cpg/sg2_164_cif.got.tgz:327025.got - 2010.06.27 13:26:56.
