data_PCOD8027223
_publ_section_title
;
Structure prediction by ZEFSAII (Michael W. Deem and Ramdas Pophale) SiO2 
 PCOD8027223
Probable space group: P -1
;
_chemical_formula_sum "Si O2"
_cell_formula_units_Z 14
_cell_length_a 7.801647
_cell_length_b 13.946954
_cell_length_c 14.132384
_cell_angle_alpha 159.699968
_cell_angle_beta 90.482899
_cell_angle_gamma 92.657185
_cell_volume 526.909994
_symmetry_space_group_name_H-M "P -1"
_symmetry_group_IT_number 2
_symmetry_cell_setting 'triclinic'
loop_
_space_group_symop_operation_xyz
x,y,z
-x,-y,-z
loop_
_atom_site_type_symbol
_atom_site_label
_atom_site_fract_x
_atom_site_fract_y
_atom_site_fract_z
Si Si1 0.264142 0.610144 0.258302
Si Si2 0.623751 0.813089 0.778157
Si Si3 0.157076 0.171594 0.717254
Si Si4 0.628311 0.536959 0.171661
Si Si5 0.229331 0.533448 0.403001
Si Si6 0.699667 0.974702 0.729718
Si Si7 0.006463 0.039414 0.156375
O O1 0.425598 0.481434 0.094354
O O2 0.293194 0.647082 0.405822
O O3 0.265064 0.928494 0.522067
O O4 0.111711 0.367328 0.988848
O O5 0.617531 0.517622 0.565343
O O6 0.836395 0.937662 0.900880
O O7 0.578808 0.819368 0.671448
O O8 0.500000 0.000000 0.000000
O O9 0.256357 0.416009 0.877167
O O10 0.000000 0.000000 0.500000
O O11 0.652165 0.832431 0.499097
O O12 0.679018 0.298883 0.020892
O O13 0.107289 0.714413 0.624515
O O14 0.121411 0.242645 0.106649
O O15 0.899233 0.945913 0.727019
#
# Coordination Sequence:
#
# PCOD8027223 Si02
#       7
#     2   2   2   2   2   2   2
#     4  12  27  46  73 104 142 186 237 292 359 429
#     4  10  24  44  70 108 145 186 240 290 349 425
#     4  12  28  46  73 106 139 182 239 298 361 424
#     4  12  24  49  72 103 143 188 233 299 357 419
#     4  12  24  46  71 102 148 190 235 291 355 423
#     4  10  25  40  75 101 141 185 240 280 358 411
#     4  10  25  43  69  99 148 184 240 286 353 412
#
# _framework density 26.570004000000001
#
# number of rings (size 3 to 8) (size 9 to 14) (size 15 to 20)
#    0.857    0.000    0.000    6.429    6.000    2.286 
#    0.000    4.286    0.000    0.000    0.000    0.000 
#    0.000    0.000    0.000    0.000    0.000    0.000 
#
# Total GULP energy -173440.695655 kJ/mol
# GULP energy per Si atom -12388.621118 kJ/mol
# Density = 2.650953 g / cm^3
# Si number density = 26.570004 Si / 1000 Ang^3
#
#
#
# Elastic Constant Matrix: (Units=GPa)
#
#
# Indices 1 2 3 4 5 6 
#
# 1 82.8079 53.7900 22.9091 11.1175 -29.3795 -9.3067
# 2 53.7900 185.1109 43.0338 18.7392 -4.3906 -9.9893
# 3 22.9091 43.0338 140.1451 12.2840 -18.3992 -8.6010
# 4 11.1175 18.7392 12.2840 59.6161 -7.8308 -1.7158
# 5 -29.3795 -4.3906 -18.3992 -7.8308 43.0410 6.2708
# 6 -9.3067 -9.9893 -8.6010 -1.7158 6.2708 39.6063
#
#
#
# Elastic Compliance Matrix: (Units=1/GPa)
#
#
# Indices 1 2 3 4 5 6 
#
# 1 0.020577 -0.005608 0.000218 -0.000332 0.013310 0.001346
# 2 -0.005608 0.007537 -0.001770 -0.001488 -0.004203 0.000800
# 3 0.000218 -0.001770 0.008180 -0.000724 0.003210 0.000841
# 4 -0.000332 -0.001488 -0.000724 0.017785 0.002584 -0.000249
# 5 0.013310 -0.004203 0.003210 0.002584 0.034100 -0.002522
# 6 0.001346 0.000800 0.000841 -0.000249 -0.002522 0.026338
#
#
# Mechanical properties :
#
#
# Convention : Reuss Voigt Hill
#
# Bulk Modulus (GPa) = 45.50951 71.94773 58.72862
# Shear Modulus (GPa) = 36.72078 47.67474 42.19776
#
# Velocity S-wave (km/s) = 3.72161 4.24052 3.98951
# Velocity P-wave (km/s) = 5.96930 7.14936 6.58581
#
# Compressibility (1/GPa) = 0.02197343
#
# Stress axis : x y z
#
# Youngs Moduli (GPa) = 48.59814 132.67350 122.24950
#
# Poissons Ratio (x) = 0.74402 -0.02659
# Poissons Ratio (y) = 0.27253 0.21639
# Poissons Ratio (z) = -0.01057 0.23484
#
# Static dielectric constant tensor:
#      x y z
#    x 5.226520 -0.391660 0.351600 
#    y -0.391660 5.657320 -0.185820 
#    z 0.351600 -0.185820 4.569940 
# 
# 
# High freq. dielectric constant tensor:
#      x y z
#    x 2.073300 -0.018420 0.017820 
#    y -0.018420 2.098510 -0.001000 
#    z 0.017820 -0.001000 2.072140 
# 
# From -- ./inp_files/503439.got.cif
#   From: 2010.06.25/outbox.cif.g09.slc.cpg/sg2_252_cif.got.tgz:503439.got - 2010.06.27 13:26:56.
