data_PCOD8027933
_publ_section_title
;
Structure prediction by ZEFSAII (Michael W. Deem and Ramdas Pophale) SiO2 
 PCOD8027933
Probable space group: P -1
;
_chemical_formula_sum "Si O2"
_cell_formula_units_Z 16
_cell_length_a 8.814955
_cell_length_b 12.587429
_cell_length_c 6.802864
_cell_angle_alpha 108.288542
_cell_angle_beta 72.388120
_cell_angle_gamma 84.841129
_cell_volume 668.704438
_symmetry_space_group_name_H-M "P -1"
_symmetry_group_IT_number 2
_symmetry_cell_setting 'triclinic'
loop_
_space_group_symop_operation_xyz
x,y,z
-x,-y,-z
loop_
_atom_site_type_symbol
_atom_site_label
_atom_site_fract_x
_atom_site_fract_y
_atom_site_fract_z
Si Si1 0.905067 0.294082 0.465197
Si Si2 0.433564 0.699227 0.599083
Si Si3 0.871924 0.474420 0.880072
Si Si4 0.351058 0.940498 0.973009
Si Si5 0.423304 0.607015 0.953425
Si Si6 0.361978 0.296788 0.843601
Si Si7 0.130014 0.149771 0.980585
Si Si8 0.096048 0.886452 0.303009
O O1 0.729219 0.325521 0.450289
O O2 0.946765 0.410362 0.613110
O O3 0.892100 0.208993 0.595510
O O4 0.050798 0.240698 0.230659
O O5 0.408865 0.831056 0.749350
O O6 0.480331 0.607833 0.705235
O O7 0.591003 0.677207 0.382642
O O8 0.769980 0.386028 0.967312
O O9 0.759175 0.595944 0.947601
O O10 0.000000 0.500000 0.000000
O O11 0.276053 0.901511 0.180205
O O12 0.500000 0.000000 0.000000
O O13 0.204653 0.026923 0.971383
O O14 0.500000 0.500000 0.000000
O O15 0.472686 0.718752 0.099656
O O16 0.279595 0.188327 0.831233
O O17 0.990904 0.143787 0.877147
O O18 0.000000 0.000000 0.500000
#
# Coordination Sequence:
#
# PCOD8027933 Si02
#       8
#     2   2   2   2   2   2   2   2
#     4  12  26  47  78 106 150 202 248 310 376 443
#     4  12  26  47  78 107 149 200 245 306 379 440
#     4  11  25  46  73 108 144 189 248 308 372 439
#     4  12  27  45  75 112 149 197 253 302 372 450
#     4  10  24  49  72 106 147 188 243 306 367 443
#     4  11  27  47  72 107 149 189 251 308 368 441
#     4  12  27  49  72 112 150 198 254 306 371 444
#     4  12  25  47  74 105 153 195 247 312 372 438
#
# _framework density 23.926864999999999
#
# number of rings (size 3 to 8) (size 9 to 14) (size 15 to 20)
#    0.000    0.500    3.750    3.375    5.250    6.000 
#    0.000    0.000    0.000    0.000    0.000    0.000 
#    0.000    0.000    0.000    0.000    0.000    0.000 
#
# Total GULP energy -198313.001403 kJ/mol
# GULP energy per Si atom -12394.562588 kJ/mol
# Density = 2.387241 g / cm^3
# Si number density = 23.926865 Si / 1000 Ang^3
#
#
#
# Elastic Constant Matrix: (Units=GPa)
#
#
# Indices 1 2 3 4 5 6 
#
# 1 125.2610 42.3676 52.2675 -7.6000 13.4209 25.0006
# 2 42.3676 94.3157 61.7696 -9.5155 3.3456 -5.6080
# 3 52.2675 61.7696 162.8025 -1.0691 6.3248 -1.5899
# 4 -7.6000 -9.5155 -1.0691 55.8346 6.1228 3.0786
# 5 13.4209 3.3456 6.3248 6.1228 41.0472 1.7731
# 6 25.0006 -5.6080 -1.5899 3.0786 1.7731 47.1534
#
#
#
# Elastic Compliance Matrix: (Units=1/GPa)
#
#
# Indices 1 2 3 4 5 6 
#
# 1 0.012169 -0.004108 -0.002280 0.001654 -0.003237 -0.007004
# 2 -0.004108 0.015911 -0.004682 0.001818 0.000333 0.003781
# 3 -0.002280 -0.004682 0.008658 -0.000987 -0.000104 0.001012
# 4 0.001654 0.001818 -0.000987 0.018885 -0.003276 -0.001804
# 5 -0.003237 0.000333 -0.000104 -0.003276 0.025855 0.000994
# 6 -0.007004 0.003781 0.001012 -0.001804 0.000994 0.025485
#
#
# Mechanical properties :
#
#
# Convention : Reuss Voigt Hill
#
# Bulk Modulus (GPa) = 68.50195 77.24316 72.87255
# Shear Modulus (GPa) = 37.32200 43.87203 40.59701
#
# Velocity S-wave (km/s) = 3.95376 4.28669 4.12359
# Velocity P-wave (km/s) = 7.03810 7.54016 7.29345
#
# Compressibility (1/GPa) = 0.01459813
#
# Stress axis : x y z
#
# Youngs Moduli (GPa) = 82.17445 62.85027 115.49676
#
# Poissons Ratio (x) = 0.25819 0.26334
# Poissons Ratio (y) = 0.33758 0.54075
# Poissons Ratio (z) = 0.18736 0.29426
#
# Static dielectric constant tensor:
#      x y z
#    x 5.929290 0.480660 -0.223560 
#    y 0.480660 4.407690 -0.015740 
#    z -0.223560 -0.015740 4.607540 
# 
# 
# High freq. dielectric constant tensor:
#      x y z
#    x 1.955990 0.005030 0.000980 
#    y 0.005030 1.959880 0.001800 
#    z 0.000980 0.001800 1.957400 
# 
# From -- ./inp_files/39729.got.cif
#   From: 2010.06.25/outbox.cif.g09.slc.cpg/sg2_20_cif.got.tgz:39729.got - 2010.06.27 13:26:56.
