data_PCOD8027706
_publ_section_title
;
Structure prediction by ZEFSAII (Michael W. Deem and Ramdas Pophale) SiO2 
 PCOD8027706
Probable space group: P -1
;
_chemical_formula_sum "Si O2"
_cell_formula_units_Z 10
_cell_length_a 8.328333
_cell_length_b 11.575895
_cell_length_c 8.892252
_cell_angle_alpha 124.570252
_cell_angle_beta 147.290033
_cell_angle_gamma 65.418343
_cell_volume 377.812123
_symmetry_space_group_name_H-M "P -1"
_symmetry_group_IT_number 2
_symmetry_cell_setting 'triclinic'
loop_
_space_group_symop_operation_xyz
x,y,z
-x,-y,-z
loop_
_atom_site_type_symbol
_atom_site_label
_atom_site_fract_x
_atom_site_fract_y
_atom_site_fract_z
Si Si1 0.047246 0.838159 0.189769
Si Si2 0.581154 0.364890 0.853191
Si Si3 0.566947 0.013704 0.888145
Si Si4 0.095163 0.680265 0.644292
Si Si5 0.102408 0.398353 0.882787
O O1 0.234178 0.743959 0.165723
O O2 0.797476 0.902758 0.943661
O O3 0.869548 0.749532 0.122527
O O4 0.263002 0.970877 0.525184
O O5 0.245951 0.295003 0.570483
O O6 0.774107 0.417657 0.196790
O O7 0.589720 0.513448 0.875830
O O8 0.695233 0.170844 0.055674
O O9 0.500000 0.000000 0.000000
O O10 0.129310 0.630054 0.461529
O O11 0.000000 0.500000 0.000000
#
# Coordination Sequence:
#
# PCOD8027706 Si02
#       5
#     2   2   2   2   2
#     4  11  25  45  71 101 136 180 224 274 335 401
#     4  11  26  45  69 104 137 176 223 279 339 397
#     4  12  25  43  72 100 137 176 229 276 332 405
#     4  12  25  44  71  99 139 178 222 281 338 392
#     4  10  24  46  71  99 137 179 227 276 332 405
#
# _framework density 26.468183
#
# number of rings (size 3 to 8) (size 9 to 14) (size 15 to 20)
#    0.000    0.800    2.000    4.200    2.800    6.400 
#    0.000    9.000    0.000    0.000    0.000    0.000 
#    0.000    0.000    0.000    0.000    0.000    0.000 
#
# Total GULP energy -123968.087878 kJ/mol
# GULP energy per Si atom -12396.808788 kJ/mol
# Density = 2.640794 g / cm^3
# Si number density = 26.468183 Si / 1000 Ang^3
#
#
#
# Elastic Constant Matrix: (Units=GPa)
#
#
# Indices 1 2 3 4 5 6 
#
# 1 125.6213 28.4867 41.5564 3.9991 -4.1233 1.9591
# 2 28.4867 57.4668 9.7710 15.1944 1.0041 17.8641
# 3 41.5564 9.7710 101.7112 6.7879 8.3673 9.1657
# 4 3.9991 15.1944 6.7879 40.3075 -5.9545 -5.9664
# 5 -4.1233 1.0041 8.3673 -5.9545 40.3184 -2.7463
# 6 1.9591 17.8641 9.1657 -5.9664 -2.7463 34.5842
#
#
#
# Elastic Compliance Matrix: (Units=1/GPa)
#
#
# Indices 1 2 3 4 5 6 
#
# 1 0.011158 -0.007454 -0.004854 0.003805 0.003265 0.005420
# 2 -0.007454 0.030631 0.003326 -0.015081 -0.005760 -0.019340
# 3 -0.004854 0.003326 0.012672 -0.004409 -0.004262 -0.005901
# 4 0.003805 -0.015081 -0.004409 0.034270 0.007781 0.015273
# 5 0.003265 -0.005760 -0.004262 0.007781 0.027823 0.007472
# 6 0.005420 -0.019340 -0.005901 0.015273 0.007472 0.043390
#
#
# Mechanical properties :
#
#
# Convention : Reuss Voigt Hill
#
# Bulk Modulus (GPa) = 27.39885 49.38084 38.38985
# Shear Modulus (GPa) = 26.30587 36.70769 31.50678
#
# Velocity S-wave (km/s) = 3.15599 3.72810 3.45391
# Velocity P-wave (km/s) = 4.86358 6.10154 5.51739
#
# Compressibility (1/GPa) = 0.03649788
#
# Stress axis : x y z
#
# Youngs Moduli (GPa) = 89.62318 32.64676 78.91450
#
# Poissons Ratio (x) = 0.24334 0.38303
# Poissons Ratio (y) = 0.66802 -0.26246
# Poissons Ratio (z) = 0.43500 -0.10858
#
# Static dielectric constant tensor:
#      x y z
#    x 5.380110 0.514740 0.027850 
#    y 0.514740 5.220250 0.204050 
#    z 0.027850 0.204050 4.882920 
# 
# 
# High freq. dielectric constant tensor:
#      x y z
#    x 2.082950 0.005240 0.000610 
#    y 0.005240 2.074220 0.017550 
#    z 0.000610 0.017550 2.063400 
# 
# From -- ./inp_files/15814.got.cif
#   From: 2010.06.25/outbox.cif.g09.slc.cpg/sg2_8_cif.got.tgz:15814.got - 2010.06.27 13:26:56.
