data_PCOD8027224
_publ_section_title
;
Structure prediction by ZEFSAII (Michael W. Deem and Ramdas Pophale) SiO2 
 PCOD8027224
Probable space group: P -1
;
_chemical_formula_sum "Si O2"
_cell_formula_units_Z 16
_cell_length_a 12.578772
_cell_length_b 11.311467
_cell_length_c 11.799598
_cell_angle_alpha 141.105702
_cell_angle_beta 74.919749
_cell_angle_gamma 76.833015
_cell_volume 717.050882
_symmetry_space_group_name_H-M "P -1"
_symmetry_group_IT_number 2
_symmetry_cell_setting 'triclinic'
loop_
_space_group_symop_operation_xyz
x,y,z
-x,-y,-z
loop_
_atom_site_type_symbol
_atom_site_label
_atom_site_fract_x
_atom_site_fract_y
_atom_site_fract_z
Si Si1 0.185120 0.780922 0.301014
Si Si2 0.866149 0.810463 0.046174
Si Si3 0.641558 0.427182 0.567304
Si Si4 0.595656 0.521155 0.188758
Si Si5 0.734025 0.628827 0.861392
Si Si6 0.781079 0.594790 0.327842
Si Si7 0.447545 0.158805 0.247987
Si Si8 0.712344 0.971725 0.436097
O O1 0.246767 0.509297 0.130597
O O2 0.228642 0.886838 0.458233
O O3 0.273801 0.717390 0.111226
O O4 0.000000 0.000000 0.500000
O O5 0.756269 0.118549 0.271609
O O6 0.802532 0.791328 0.165220
O O7 0.866152 0.635117 0.825379
O O8 0.039252 0.679842 0.915655
O O9 0.499410 0.533943 0.767499
O O10 0.736881 0.482466 0.644674
O O11 0.572563 0.594997 0.593633
O O12 0.683340 0.532592 0.268792
O O13 0.474648 0.800069 0.360604
O O14 0.577520 0.949172 0.149670
O O15 0.714096 0.726747 0.569542
O O16 0.761023 0.790835 0.394414
O O17 0.500000 0.000000 0.000000
#
# Coordination Sequence:
#
# PCOD8027224 Si02
#       8
#     2   2   2   2   2   2   2   2
#     4  12  23  38  65 100 137 171 209 270 336 397
#     4  11  23  42  68  98 139 168 209 278 334 399
#     4  10  24  46  66  95 128 175 229 268 325 378
#     4  11  23  38  66  95 130 174 219 269 324 398
#     4  11  22  44  68  92 135 173 217 270 328 383
#     4  12  24  40  65 101 131 172 222 268 337 383
#     4  10  24  44  70  92 127 177 228 278 309 388
#     4  11  22  40  63  96 137 170 216 266 326 402
#
# _framework density 22.313618999999999
#
# number of rings (size 3 to 8) (size 9 to 14) (size 15 to 20)
#    0.000    1.000    2.500    5.625    3.500    2.500 
#    0.000    2.500    0.000    0.000    0.000    0.000 
#    0.000    0.000    0.000    0.000    0.000    0.000 
#
# Total GULP energy -198321.036501 kJ/mol
# GULP energy per Si atom -12395.064781 kJ/mol
# Density = 2.226283 g / cm^3
# Si number density = 22.313619 Si / 1000 Ang^3
#
#
#
# Elastic Constant Matrix: (Units=GPa)
#
#
# Indices 1 2 3 4 5 6 
#
# 1 135.1005 22.4355 40.0863 16.6296 3.5649 -2.8781
# 2 22.4355 153.7904 51.9679 29.1740 -13.8382 18.0330
# 3 40.0863 51.9679 99.5872 4.2561 -21.9046 -0.7051
# 4 16.6296 29.1740 4.2561 25.6044 1.6313 5.6411
# 5 3.5649 -13.8382 -21.9046 1.6313 43.4766 8.0350
# 6 -2.8781 18.0330 -0.7051 5.6411 8.0350 18.8878
#
#
#
# Elastic Compliance Matrix: (Units=1/GPa)
#
#
# Indices 1 2 3 4 5 6 
#
# 1 0.009733 0.000705 -0.004717 -0.007049 -0.003464 0.004212
# 2 0.000705 0.011625 -0.005262 -0.010994 0.003109 -0.009226
# 3 -0.004717 -0.005262 0.015842 0.005929 0.006397 0.000404
# 4 -0.007049 -0.010994 0.005929 0.056762 -0.000774 -0.006979
# 5 -0.003464 0.003109 0.006397 -0.000774 0.030482 -0.015993
# 6 0.004212 -0.009226 0.000404 -0.006979 -0.015993 0.071298
#
#
# Mechanical properties :
#
#
# Convention : Reuss Voigt Hill
#
# Bulk Modulus (GPa) = 53.60838 68.60639 61.10738
# Shear Modulus (GPa) = 22.67509 35.85965 29.26737
#
# Velocity S-wave (km/s) = 3.19125 4.01318 3.62558
# Velocity P-wave (km/s) = 6.13644 7.23100 6.70609
#
# Compressibility (1/GPa) = 0.01865380
#
# Stress axis : x y z
#
# Youngs Moduli (GPa) = 102.74294 86.02394 63.12224
#
# Poissons Ratio (x) = -0.06069 0.29773
# Poissons Ratio (y) = -0.07248 0.33214
# Poissons Ratio (z) = 0.48462 0.45264
#
# Static dielectric constant tensor:
#      x y z
#    x 4.053190 -0.048340 -0.027910 
#    y -0.048340 4.404400 0.207150 
#    z -0.027910 0.207150 3.959200 
# 
# 
# High freq. dielectric constant tensor:
#      x y z
#    x 1.880580 -0.001920 0.005650 
#    y -0.001920 1.882580 0.012470 
#    z 0.005650 0.012470 1.868900 
# 
# From -- ./inp_files/429056.got.cif
#   From: 2010.06.25/outbox.cif.g09.slc.cpg/sg2_215_cif.got.tgz:429056.got - 2010.06.27 13:26:56.
