data_PCOD8027508
_publ_section_title
;
Structure prediction by ZEFSAII (Michael W. Deem and Ramdas Pophale) SiO2 
 PCOD8027508
Probable space group: P -1
;
_chemical_formula_sum "Si O2"
_cell_formula_units_Z 16
_cell_length_a 11.674563
_cell_length_b 17.561302
_cell_length_c 8.768294
_cell_angle_alpha 119.953635
_cell_angle_beta 127.689967
_cell_angle_gamma 29.556603
_cell_volume 699.283862
_symmetry_space_group_name_H-M "P -1"
_symmetry_group_IT_number 2
_symmetry_cell_setting 'triclinic'
loop_
_space_group_symop_operation_xyz
x,y,z
-x,-y,-z
loop_
_atom_site_type_symbol
_atom_site_label
_atom_site_fract_x
_atom_site_fract_y
_atom_site_fract_z
Si Si1 0.636345 0.019935 0.590812
Si Si2 0.713179 0.607702 0.644716
Si Si3 0.363663 0.656274 0.585416
Si Si4 0.389104 0.423953 0.772371
Si Si5 0.389133 0.186928 0.035373
Si Si6 0.185317 0.712083 0.829558
Si Si7 0.814682 0.897402 0.279945
Si Si8 0.286852 0.320864 0.783893
O O1 0.684375 0.997866 0.428083
O O2 0.896203 0.890738 0.772485
O O3 0.500000 0.000000 0.500000
O O4 0.449531 0.192244 0.655868
O O5 0.550476 0.641774 0.678169
O O6 0.574056 0.661388 0.424164
O O7 0.729489 0.701355 0.804818
O O8 0.000013 0.427201 0.677237
O O9 0.500000 0.500000 0.500000
O O10 0.315644 0.682223 0.752038
O O11 0.103798 0.786939 0.405211
O O12 0.203640 0.596895 0.744638
O O13 0.270527 0.430829 0.827383
O O14 0.669616 0.318900 0.938838
O O15 0.669625 0.011481 0.131450
O O16 0.203686 0.199439 0.847195
O O17 0.426016 0.235411 0.972701
#
# Coordination Sequence:
#
# PCOD8027508 Si02
#       8
#     2   2   2   2   2   2   2   2
#     4  11  22  44  73  97 141 181 230 291 343 426
#     4  12  25  44  70 105 142 183 232 291 353 408
#     4  11  22  44  73  97 141 181 230 291 343 426
#     4  11  24  44  67 104 141 179 236 285 350 419
#     4  11  24  44  67 104 141 179 236 285 350 419
#     4  10  24  45  70 105 136 185 234 282 357 413
#     4  10  24  45  70 105 136 185 234 282 357 413
#     4  12  25  44  70 105 142 183 232 291 353 408
#
# _framework density 22.880551000000001
#
# number of rings (size 3 to 8) (size 9 to 14) (size 15 to 20)
#    0.000    1.000    2.500    3.750    0.000    4.000 
#    0.000    0.000    0.000    0.000    0.000    0.000 
#    0.000    0.000    0.000    0.000    0.000    0.000 
#
# Total GULP energy -198363.284146 kJ/mol
# GULP energy per Si atom -12397.705259 kJ/mol
# Density = 2.282847 g / cm^3
# Si number density = 22.880551 Si / 1000 Ang^3
#
#
#
# Elastic Constant Matrix: (Units=GPa)
#
#
# Indices 1 2 3 4 5 6 
#
# 1 129.1601 53.3722 34.3050 -16.3087 -2.5049 5.0768
# 2 53.3722 116.7952 54.4116 -1.1431 7.1079 -14.0344
# 3 34.3050 54.4116 131.4710 8.4754 -3.3168 0.5537
# 4 -16.3087 -1.1431 8.4754 37.1072 1.8984 -2.6580
# 5 -2.5049 7.1079 -3.3168 1.8984 28.7774 -9.5245
# 6 5.0768 -14.0344 0.5537 -2.6580 -9.5245 37.1271
#
#
#
# Elastic Compliance Matrix: (Units=1/GPa)
#
#
# Indices 1 2 3 4 5 6 
#
# 1 0.010670 -0.004684 -0.001109 0.004567 0.000766 -0.002690
# 2 -0.004684 0.013559 -0.004468 -0.000120 -0.002553 0.005169
# 3 -0.001109 -0.004468 0.009999 -0.003108 0.001893 -0.001423
# 4 0.004567 -0.000120 -0.003108 0.029820 -0.001528 0.001120
# 5 0.000766 -0.002553 0.001893 -0.001528 0.038648 0.008707
# 6 -0.002690 0.005169 -0.001423 0.001120 0.008707 0.031591
#
#
# Mechanical properties :
#
#
# Convention : Reuss Voigt Hill
#
# Bulk Modulus (GPa) = 72.96426 73.51155 73.23790
# Shear Modulus (GPa) = 31.37182 36.29151 33.83166
#
# Velocity S-wave (km/s) = 3.70687 3.98694 3.84946
# Velocity P-wave (km/s) = 7.09081 7.30701 7.19972
#
# Compressibility (1/GPa) = 0.01370534
#
# Stress axis : x y z
#
# Youngs Moduli (GPa) = 93.72297 73.74956 100.01079
#
# Poissons Ratio (x) = 0.34546 0.11093
# Poissons Ratio (y) = 0.43902 0.44685
# Poissons Ratio (z) = 0.10395 0.32951
#
# Static dielectric constant tensor:
#      x y z
#    x 4.178730 0.553050 0.239630 
#    y 0.553050 4.263940 0.079190 
#    z 0.239630 0.079190 4.433760 
# 
# 
# High freq. dielectric constant tensor:
#      x y z
#    x 1.898360 0.008920 -0.004510 
#    y 0.008920 1.898510 -0.005170 
#    z -0.004510 -0.005170 1.917550 
# 
# From -- ./inp_files/279724.got.cif
#   From: 2010.06.25/outbox.cif.g09.slc.cpg/sg2_140_cif.got.tgz:279724.got - 2010.06.27 13:26:56.
