data_PCOD8027048
_publ_section_title
;
Structure prediction by ZEFSAII (Michael W. Deem and Ramdas Pophale) SiO2 
 PCOD8027048
Probable space group: P -1
;
_chemical_formula_sum "Si O2"
_cell_formula_units_Z 16
_cell_length_a 17.862560
_cell_length_b 18.054247
_cell_length_c 9.072720
_cell_angle_alpha 150.637836
_cell_angle_beta 141.246430
_cell_angle_gamma 30.334770
_cell_volume 720.050548
_symmetry_space_group_name_H-M "P -1"
_symmetry_group_IT_number 2
_symmetry_cell_setting 'triclinic'
loop_
_space_group_symop_operation_xyz
x,y,z
-x,-y,-z
loop_
_atom_site_type_symbol
_atom_site_label
_atom_site_fract_x
_atom_site_fract_y
_atom_site_fract_z
Si Si1 0.463310 0.241369 0.293614
Si Si2 0.679563 0.166637 0.261547
Si Si3 0.007623 0.676999 0.301670
Si Si4 0.249580 0.601137 0.050854
Si Si5 0.683167 0.930385 0.308899
Si Si6 0.982376 0.831929 0.208592
Si Si7 0.566969 0.227118 0.869425
Si Si8 0.275110 0.626385 0.803197
O O1 0.525026 0.269076 0.288629
O O2 0.406997 0.403925 0.608899
O O3 0.600813 0.052173 0.248648
O O4 0.326066 0.243422 0.027750
O O5 0.730878 0.295673 0.606807
O O6 0.804496 0.943516 0.102699
O O7 0.647685 0.179664 0.064611
O O8 0.853166 0.856639 0.443619
O O9 0.024391 0.727398 0.249275
O O10 0.134444 0.663611 0.567182
O O11 0.000000 0.500000 0.000000
O O12 0.085629 0.660700 0.950195
O O13 0.388235 0.381195 0.878427
O O14 0.235097 0.689152 0.020721
O O15 0.596807 0.041714 0.519546
O O16 0.000000 0.000000 0.500000
O O17 0.655809 0.274117 0.981745
#
# Coordination Sequence:
#
# PCOD8027048 Si02
#       8
#     2   2   2   2   2   2   2   2
#     4  11  22  44  71  93 135 183 223 281 352 403
#     4  11  23  42  68  97 139 178 220 290 346 404
#     4  12  26  46  71 100 142 186 228 280 348 417
#     4  11  23  41  67 102 137 173 230 290 340 402
#     4  11  25  44  68  98 135 179 233 283 336 418
#     4  10  24  44  66 100 138 181 221 281 346 402
#     4  12  25  40  71 104 131 176 239 286 339 402
#     4  12  24  41  71 103 132 183 229 284 343 408
#
# _framework density 22.220662000000001
#
# number of rings (size 3 to 8) (size 9 to 14) (size 15 to 20)
#    0.000    0.750    5.000    3.000    5.250    1.000 
#    0.000    0.625    0.000    0.000    0.000    0.000 
#    0.000    0.000    0.000    0.000    0.000    0.000 
#
# Total GULP energy -198235.256181 kJ/mol
# GULP energy per Si atom -12389.703511 kJ/mol
# Density = 2.217009 g / cm^3
# Si number density = 22.220662 Si / 1000 Ang^3
#
#
#
# Elastic Constant Matrix: (Units=GPa)
#
#
# Indices 1 2 3 4 5 6 
#
# 1 96.9616 42.0214 22.3786 12.5624 -30.0785 -7.9601
# 2 42.0214 93.2536 4.8991 -4.4242 -11.8103 -9.1239
# 3 22.3786 4.8991 63.2195 1.2587 -19.7070 8.3400
# 4 12.5624 -4.4242 1.2587 21.9475 0.9055 -5.6347
# 5 -30.0785 -11.8103 -19.7070 0.9055 40.7202 -0.2529
# 6 -7.9601 -9.1239 8.3400 -5.6347 -0.2529 47.4420
#
#
#
# Elastic Compliance Matrix: (Units=1/GPa)
#
#
# Indices 1 2 3 4 5 6 
#
# 1 0.019465 -0.007753 -0.002669 -0.012809 0.011127 0.000782
# 2 -0.007753 0.014621 0.000744 0.007992 -0.001289 0.002323
# 3 -0.002669 0.000744 0.019634 -0.000744 0.007739 -0.003803
# 4 -0.012809 0.007992 -0.000744 0.056496 -0.008722 0.006182
# 5 0.011127 -0.001289 0.007739 -0.008722 0.036339 -0.000584
# 6 0.000782 0.002323 -0.003803 0.006182 -0.000584 0.023056
#
#
# Mechanical properties :
#
#
# Convention : Reuss Voigt Hill
#
# Bulk Modulus (GPa) = 29.09996 43.55919 36.32957
# Shear Modulus (GPa) = 24.94741 34.29765 29.62253
#
# Velocity S-wave (km/s) = 3.35433 3.93301 3.65514
# Velocity P-wave (km/s) = 5.30343 6.34589 5.84793
#
# Compressibility (1/GPa) = 0.03436431
#
# Stress axis : x y z
#
# Youngs Moduli (GPa) = 51.37439 68.39468 50.93168
#
# Poissons Ratio (x) = 0.53026 0.13593
# Poissons Ratio (y) = 0.39830 -0.03789
# Poissons Ratio (z) = 0.13711 -0.05088
#
# Static dielectric constant tensor:
#      x y z
#    x 4.334700 -0.510290 -0.107850 
#    y -0.510290 4.466840 0.063090 
#    z -0.107850 0.063090 3.933170 
# 
# 
# High freq. dielectric constant tensor:
#      x y z
#    x 1.882530 -0.017450 -0.017230 
#    y -0.017450 1.890040 -0.001260 
#    z -0.017230 -0.001260 1.853990 
# 
# From -- ./inp_files/207304.got.cif
#   From: 2010.06.25/outbox.cif.g09.slc.cpg/sg2_104_cif.got.tgz:207304.got - 2010.06.27 13:26:56.
