data_PCOD8027461
_publ_section_title
;
Structure prediction by ZEFSAII (Michael W. Deem and Ramdas Pophale) SiO2 
 PCOD8027461
Probable space group: P -1
;
_chemical_formula_sum "Si O2"
_cell_formula_units_Z 14
_cell_length_a 13.885352
_cell_length_b 8.087743
_cell_length_c 20.087013
_cell_angle_alpha 137.327849
_cell_angle_beta 21.535184
_cell_angle_gamma 134.542110
_cell_volume 559.855253
_symmetry_space_group_name_H-M "P -1"
_symmetry_group_IT_number 2
_symmetry_cell_setting 'triclinic'
loop_
_space_group_symop_operation_xyz
x,y,z
-x,-y,-z
loop_
_atom_site_type_symbol
_atom_site_label
_atom_site_fract_x
_atom_site_fract_y
_atom_site_fract_z
Si Si1 0.124526 0.720390 0.899784
Si Si2 0.707848 0.079779 0.833929
Si Si3 0.098526 0.178457 0.719231
Si Si4 0.535548 0.864692 0.130492
Si Si5 0.034995 0.658478 0.459108
Si Si6 0.327167 0.940420 0.700688
Si Si7 0.978972 0.262681 0.273137
O O1 0.131634 0.425783 0.815710
O O2 0.204363 0.774100 0.788814
O O3 0.343583 0.857565 0.848481
O O4 0.826654 0.807657 0.129110
O O5 0.583350 0.202359 0.886376
O O6 0.941191 0.236982 0.769717
O O7 0.827963 0.856912 0.653623
O O8 0.500000 0.000000 0.000000
O O9 0.357987 0.040586 0.489425
O O10 0.939332 0.967179 0.801809
O O11 0.334440 0.773741 0.291208
O O12 0.787064 0.699766 0.921315
O O13 0.000000 0.500000 0.500000
O O14 0.946028 0.504843 0.406552
O O15 0.289245 0.800849 0.613017
#
# Coordination Sequence:
#
# PCOD8027461 Si02
#       7
#     2   2   2   2   2   2   2
#     4  10  25  46  75 105 148 195 243 312 365 435
#     4  12  26  48  71 110 146 193 249 300 370 442
#     4  12  24  46  73 105 149 192 244 301 364 441
#     4  11  25  49  72 108 147 190 251 299 377 437
#     4  12  25  45  74 103 146 195 244 309 367 439
#     4  10  24  45  69 108 143 196 250 294 371 439
#     4  11  25  46  71 111 145 193 245 307 368 439
#
# _framework density 25.006466
#
# number of rings (size 3 to 8) (size 9 to 14) (size 15 to 20)
#    0.000    0.857    2.857    2.571    4.000    3.429 
#    7.714    0.000    0.000    0.000    0.000    0.000 
#    0.000    0.000    0.000    0.000    0.000    0.000 
#
# Total GULP energy -173457.214988 kJ/mol
# GULP energy per Si atom -12389.801071 kJ/mol
# Density = 2.494955 g / cm^3
# Si number density = 25.006466 Si / 1000 Ang^3
#
#
#
# Elastic Constant Matrix: (Units=GPa)
#
#
# Indices 1 2 3 4 5 6 
#
# 1 116.8755 9.0049 21.2136 -6.2744 -4.5981 31.3164
# 2 9.0049 75.9009 40.0774 -4.8176 9.4437 28.8749
# 3 21.2136 40.0774 160.8775 -8.3160 7.6120 12.0358
# 4 -6.2744 -4.8176 -8.3160 26.2949 10.4193 12.1354
# 5 -4.5981 9.4437 7.6120 10.4193 39.1301 7.4147
# 6 31.3164 28.8749 12.0358 12.1354 7.4147 38.2055
#
#
#
# Elastic Compliance Matrix: (Units=1/GPa)
#
#
# Indices 1 2 3 4 5 6 
#
# 1 0.015569 0.009349 -0.001738 0.016047 0.000267 -0.024429
# 2 0.009349 0.030535 -0.004576 0.025192 -0.005212 -0.036290
# 3 -0.001738 -0.004576 0.007458 0.000336 -0.001142 0.002648
# 4 0.016047 0.025192 0.000336 0.077298 -0.014607 -0.054016
# 5 0.000267 -0.005212 -0.001142 -0.014607 0.030423 0.002815
# 6 -0.024429 -0.036290 0.002648 -0.054016 0.002815 0.089402
#
#
# Mechanical properties :
#
#
# Convention : Reuss Voigt Hill
#
# Bulk Modulus (GPa) = 16.76916 54.91620 35.84268
# Shear Modulus (GPa) = 18.90419 39.61663 29.26041
#
# Velocity S-wave (km/s) = 2.75248 3.98459 3.42440
# Velocity P-wave (km/s) = 4.10146 6.57098 5.47721
#
# Compressibility (1/GPa) = 0.05963329
#
# Stress axis : x y z
#
# Youngs Moduli (GPa) = 64.23144 32.74913 134.07928
#
# Poissons Ratio (x) = -0.30617 0.23296
# Poissons Ratio (y) = -0.60050 0.61353
# Poissons Ratio (z) = 0.11160 0.14986
#
# Static dielectric constant tensor:
#      x y z
#    x 4.668210 0.200610 0.197570 
#    y 0.200610 4.245350 -0.033260 
#    z 0.197570 -0.033260 4.725110 
# 
# 
# High freq. dielectric constant tensor:
#      x y z
#    x 2.008910 0.016640 0.011520 
#    y 0.016640 1.970950 -0.001010 
#    z 0.011520 -0.001010 2.013750 
# 
# From -- ./inp_files/597427.got.cif
#   From: 2010.06.25/outbox.cif.g09.slc.cpg/sg2_299_cif.got.tgz:597427.got - 2010.06.27 13:26:56.
