data_PCOD8027186
_publ_section_title
;
Structure prediction by ZEFSAII (Michael W. Deem and Ramdas Pophale) SiO2 
 PCOD8027186
Probable space group: P -1
;
_chemical_formula_sum "Si O2"
_cell_formula_units_Z 16
_cell_length_a 27.561594
_cell_length_b 10.592393
_cell_length_c 9.636326
_cell_angle_alpha 127.609505
_cell_angle_beta 30.911500
_cell_angle_gamma 147.504093
_cell_volume 707.912350
_symmetry_space_group_name_H-M "P -1"
_symmetry_group_IT_number 2
_symmetry_cell_setting 'triclinic'
loop_
_space_group_symop_operation_xyz
x,y,z
-x,-y,-z
loop_
_atom_site_type_symbol
_atom_site_label
_atom_site_fract_x
_atom_site_fract_y
_atom_site_fract_z
Si Si1 0.398653 0.313962 0.304706
Si Si2 0.210905 0.457306 0.166781
Si Si3 0.590569 0.261798 0.879267
Si Si4 0.683103 0.879218 0.917721
Si Si5 0.123485 0.013722 0.977559
Si Si6 0.664486 0.218905 0.178719
Si Si7 0.914349 0.225264 0.812197
Si Si8 0.167222 0.515381 0.792838
O O1 0.521829 0.620995 0.213193
O O2 0.280623 0.187057 0.630655
O O3 0.479561 0.249434 0.081647
O O4 0.309495 0.205586 0.303216
O O5 0.300281 0.515749 0.122734
O O6 0.093258 0.442012 0.484444
O O7 0.332099 0.684797 0.910685
O O8 0.113648 0.183594 0.160505
O O9 0.691722 0.325476 0.549752
O O10 0.500000 0.000000 0.000000
O O11 0.708804 0.096164 0.962662
O O12 0.817383 0.012312 0.784480
O O13 0.126021 0.908331 0.034482
O O14 0.976381 0.785261 0.091028
O O15 0.780612 0.458644 0.161576
O O16 0.500000 0.000000 0.500000
O O17 0.880075 0.363838 0.012346
#
# Coordination Sequence:
#
# PCOD8027186 Si02
#       8
#     2   2   2   2   2   2   2   2
#     4  11  25  43  71 101 139 178 228 282 342 402
#     4  12  27  43  71 101 142 179 223 284 349 396
#     4  12  25  44  72 102 136 182 230 281 339 404
#     4  10  24  44  69  96 135 182 226 276 345 398
#     4  12  26  44  68 106 139 177 228 279 344 408
#     4  11  24  45  67  98 137 178 234 281 335 406
#     4  11  25  45  70  99 140 179 226 280 340 409
#     4  11  26  43  72  99 138 182 228 278 337 407
#
# _framework density 22.601669000000001
#
# number of rings (size 3 to 8) (size 9 to 14) (size 15 to 20)
#    0.000    0.750    1.250    5.250    7.000    6.500 
#    0.000    0.000    0.000    0.000    0.000    0.000 
#    0.000    0.000    0.000    0.000    0.000    0.000 
#
# Total GULP energy -198449.641558 kJ/mol
# GULP energy per Si atom -12403.102597 kJ/mol
# Density = 2.255023 g / cm^3
# Si number density = 22.601669 Si / 1000 Ang^3
#
#
#
# Elastic Constant Matrix: (Units=GPa)
#
#
# Indices 1 2 3 4 5 6 
#
# 1 69.7989 10.3616 13.7596 3.6688 13.5645 26.8217
# 2 10.3616 98.5464 8.5632 2.2768 3.8184 16.2654
# 3 13.7596 8.5632 120.3083 4.1092 10.1438 2.6182
# 4 3.6688 2.2768 4.1092 29.2882 -4.1268 -1.4915
# 5 13.5645 3.8184 10.1438 -4.1268 33.5073 -4.3137
# 6 26.8217 16.2654 2.6182 -1.4915 -4.3137 33.7595
#
#
#
# Elastic Compliance Matrix: (Units=1/GPa)
#
#
# Indices 1 2 3 4 5 6 
#
# 1 0.026836 0.002030 -0.001218 -0.006659 -0.014685 -0.024376
# 2 0.002030 0.011393 -0.000548 -0.001893 -0.003159 -0.007547
# 3 -0.001218 -0.000548 0.008718 -0.001330 -0.002220 0.000213
# 4 -0.006659 -0.001893 -0.001330 0.037050 0.009049 0.009099
# 5 -0.014685 -0.003159 -0.002220 0.009049 0.040371 0.018920
# 6 -0.024376 -0.007547 0.000213 0.009099 0.018920 0.055427
#
#
# Mechanical properties :
#
#
# Convention : Reuss Voigt Hill
#
# Bulk Modulus (GPa) = 21.06270 39.33582 30.19926
# Shear Modulus (GPa) = 25.62891 36.37561 31.00226
#
# Velocity S-wave (km/s) = 3.37105 4.01611 3.70764
# Velocity P-wave (km/s) = 4.94887 6.24077 5.63199
#
# Compressibility (1/GPa) = 0.04747730
#
# Stress axis : x y z
#
# Youngs Moduli (GPa) = 37.26307 87.76954 114.70194
#
# Poissons Ratio (x) = -0.17819 0.13967
# Poissons Ratio (y) = -0.07565 0.06285
# Poissons Ratio (z) = 0.04537 0.04809
#
# Static dielectric constant tensor:
#      x y z
#    x 4.292390 0.337510 0.172790 
#    y 0.337510 4.110840 -0.070280 
#    z 0.172790 -0.070280 3.938440 
# 
# 
# High freq. dielectric constant tensor:
#      x y z
#    x 1.903140 0.010280 0.009580 
#    y 0.010280 1.903740 0.000070 
#    z 0.009580 0.000070 1.893070 
# 
# From -- ./inp_files/262640.got.cif
#   From: 2010.06.25/outbox.cif.g09.slc.cpg/sg2_132_cif.got.tgz:262640.got - 2010.06.27 13:26:56.
