data_PCOD8027923
_publ_section_title
;
Structure prediction by ZEFSAII (Michael W. Deem and Ramdas Pophale) SiO2 
 PCOD8027923
Probable space group: P -1
;
_chemical_formula_sum "Si O2"
_cell_formula_units_Z 16
_cell_length_a 11.022256
_cell_length_b 8.432131
_cell_length_c 16.085055
_cell_angle_alpha 133.930588
_cell_angle_beta 44.457128
_cell_angle_gamma 138.348960
_cell_volume 653.202387
_symmetry_space_group_name_H-M "P -1"
_symmetry_group_IT_number 2
_symmetry_cell_setting 'triclinic'
loop_
_space_group_symop_operation_xyz
x,y,z
-x,-y,-z
loop_
_atom_site_type_symbol
_atom_site_label
_atom_site_fract_x
_atom_site_fract_y
_atom_site_fract_z
Si Si1 0.103382 0.797351 0.392708
Si Si2 0.337074 0.012482 0.199380
Si Si3 0.057754 0.042211 0.668733
Si Si4 0.647206 0.444280 0.461901
Si Si5 0.309811 0.007579 0.767710
Si Si6 0.438210 0.418545 0.713118
Si Si7 0.592244 0.778785 0.023734
Si Si8 0.913521 0.707205 0.763265
O O1 0.270870 0.005770 0.325686
O O2 0.180285 0.598289 0.303141
O O3 0.882775 0.641745 0.400590
O O4 0.098540 0.966157 0.531177
O O5 0.431543 0.830537 0.073433
O O6 0.129121 0.908878 0.214370
O O7 0.503450 0.293129 0.189757
O O8 0.243471 0.296842 0.705758
O O9 0.019458 0.804842 0.658461
O O10 0.500000 0.500000 0.500000
O O11 0.618292 0.443437 0.575889
O O12 0.584953 0.154795 0.365588
O O13 0.412792 0.267181 0.756323
O O14 0.321177 0.042880 0.873648
O O15 0.074126 0.839162 0.805445
O O16 0.500000 0.500000 0.000000
O O17 0.756494 0.806023 0.886898
#
# Coordination Sequence:
#
# PCOD8027923 Si02
#       8
#     2   2   2   2   2   2   2   2
#     4  11  23  43  71 104 141 179 225 289 344 409
#     4  12  26  44  69 105 142 180 231 283 349 411
#     4  11  25  44  72 105 144 171 229 290 347 415
#     4  11  22  40  72 103 144 182 225 283 350 413
#     4  10  25  45  68 100 140 182 235 283 340 417
#     4  11  25  43  67 106 142 187 220 279 357 411
#     4  12  26  46  72  96 134 185 237 286 339 414
#     4  10  24  49  70 101 133 187 231 285 350 400
#
# _framework density 24.494706000000001
#
# number of rings (size 3 to 8) (size 9 to 14) (size 15 to 20)
#    0.000    1.000    2.500    3.000    5.250    1.500 
#    2.250    1.250    0.000    0.000    0.000    0.000 
#    0.000    0.000    0.000    0.000    0.000    0.000 
#
# Total GULP energy -198360.817135 kJ/mol
# GULP energy per Si atom -12397.551071 kJ/mol
# Density = 2.443895 g / cm^3
# Si number density = 24.494706 Si / 1000 Ang^3
#
#
#
# Elastic Constant Matrix: (Units=GPa)
#
#
# Indices 1 2 3 4 5 6 
#
# 1 91.9717 24.9345 28.4474 8.0820 -30.5945 9.3181
# 2 24.9345 121.4861 23.2000 3.8891 -13.8777 -12.3975
# 3 28.4474 23.2000 96.3188 9.2734 -38.2797 -3.0514
# 4 8.0820 3.8891 9.2734 30.0761 -5.8251 -5.2344
# 5 -30.5945 -13.8777 -38.2797 -5.8251 40.9967 -0.7489
# 6 9.3181 -12.3975 -3.0514 -5.2344 -0.7489 25.9074
#
#
#
# Elastic Compliance Matrix: (Units=1/GPa)
#
#
# Indices 1 2 3 4 5 6 
#
# 1 0.016179 -0.002798 0.000249 -0.003281 0.010757 -0.007480
# 2 -0.002798 0.009626 -0.001342 0.000934 0.000153 0.005647
# 3 0.000249 -0.001342 0.016939 -0.001924 0.015299 0.001316
# 4 -0.003281 0.000934 -0.001924 0.036406 0.001404 0.008796
# 5 0.010757 0.000153 0.015299 0.001404 0.046949 -0.000353
# 6 -0.007480 0.005647 0.001316 0.008796 -0.000353 0.045914
#
#
# Mechanical properties :
#
#
# Convention : Reuss Voigt Hill
#
# Bulk Modulus (GPa) = 28.60254 51.43780 40.02017
# Shear Modulus (GPa) = 26.11671 34.94237 30.52954
#
# Velocity S-wave (km/s) = 3.26884 3.78104 3.53423
# Velocity P-wave (km/s) = 5.09406 6.33299 5.74701
#
# Compressibility (1/GPa) = 0.03496193
#
# Stress axis : x y z
#
# Youngs Moduli (GPa) = 61.80978 103.88645 59.03561
#
# Poissons Ratio (x) = 0.29065 -0.01473
# Poissons Ratio (y) = 0.17293 0.07925
# Poissons Ratio (z) = -0.01542 0.13946
#
# Static dielectric constant tensor:
#      x y z
#    x 4.643790 0.002170 -0.222650 
#    y 0.002170 4.903660 -0.805500 
#    z -0.222650 -0.805500 6.624530 
# 
# 
# High freq. dielectric constant tensor:
#      x y z
#    x 1.983880 -0.006550 -0.010110 
#    y -0.006550 1.987800 -0.002400 
#    z -0.010110 -0.002400 1.960150 
# 
# From -- ./inp_files/428323.got.cif
#   From: 2010.06.25/outbox.cif.g09.slc.cpg/sg2_215_cif.got.tgz:428323.got - 2010.06.27 13:26:56.
