data_PCOD8027767
_publ_section_title
;
Structure prediction by ZEFSAII (Michael W. Deem and Ramdas Pophale) SiO2 
 PCOD8027767
Probable space group: P -1
;
_chemical_formula_sum "Si O2"
_cell_formula_units_Z 16
_cell_length_a 13.599059
_cell_length_b 5.478276
_cell_length_c 8.637839
_cell_angle_alpha 83.702764
_cell_angle_beta 94.979474
_cell_angle_gamma 72.819104
_cell_volume 606.255345
_symmetry_space_group_name_H-M "P -1"
_symmetry_group_IT_number 2
_symmetry_cell_setting 'triclinic'
loop_
_space_group_symop_operation_xyz
x,y,z
-x,-y,-z
loop_
_atom_site_type_symbol
_atom_site_label
_atom_site_fract_x
_atom_site_fract_y
_atom_site_fract_z
Si Si1 0.777803 0.985431 0.984678
Si Si2 0.015290 0.571127 0.258324
Si Si3 0.582565 0.267494 0.111153
Si Si4 0.107056 0.635515 0.953755
Si Si5 0.728489 0.123394 0.644236
Si Si6 0.838030 0.732171 0.447613
Si Si7 0.473724 0.970166 0.324253
Si Si8 0.660106 0.512890 0.363516
O O1 0.833722 0.153902 0.085650
O O2 0.794649 0.104633 0.809736
O O3 0.824060 0.673299 0.015383
O O4 0.655511 0.068399 0.010642
O O5 0.046233 0.710224 0.104403
O O6 0.110520 0.478865 0.397923
O O7 0.919217 0.761462 0.327871
O O8 0.976159 0.336772 0.199734
O O9 0.669193 0.314892 0.237254
O O10 0.503906 0.159035 0.200068
O O11 0.500000 0.500000 0.000000
O O12 0.649059 0.974934 0.701271
O O13 0.668349 0.405960 0.549429
O O14 0.796173 0.000538 0.512387
O O15 0.745183 0.664200 0.348670
O O16 0.542002 0.684126 0.306503
O O17 0.500000 0.000000 0.500000
#
# Coordination Sequence:
#
# PCOD8027767 Si02
#       8
#     2   2   2   2   2   2   2   2
#     4  12  29  49  80 111 160 206 263 320 402 465
#     4  10  24  46  76 105 152 197 264 323 395 461
#     4  12  30  47  75 117 155 207 261 328 387 469
#     4  11  26  52  75 110 153 209 256 330 393 472
#     4  12  26  45  76 110 153 208 257 322 390 474
#     4  11  23  47  70 111 146 198 259 325 386 468
#     4  12  26  47  75 108 158 198 259 315 389 468
#     4  12  25  46  75 109 151 207 256 320 393 465
#
# _framework density 26.391518999999999
#
# number of rings (size 3 to 8) (size 9 to 14) (size 15 to 20)
#    0.000    0.500    3.750    2.625    8.750    3.000 
#    4.500    1.875    0.000    0.000    0.000    0.000 
#    0.000    0.000    0.000    0.000    0.000    0.000 
#
# Total GULP energy -198240.104114 kJ/mol
# GULP energy per Si atom -12390.006507 kJ/mol
# Density = 2.633145 g / cm^3
# Si number density = 26.391519 Si / 1000 Ang^3
#
#
#
# Elastic Constant Matrix: (Units=GPa)
#
#
# Indices 1 2 3 4 5 6 
#
# 1 99.7281 19.8243 16.0251 17.1742 -15.6136 -14.1177
# 2 19.8243 80.0799 21.1243 -3.4102 -14.3165 -0.7870
# 3 16.0251 21.1243 123.2959 4.7664 -12.5610 -11.1873
# 4 17.1742 -3.4102 4.7664 34.6307 -1.4464 -1.6719
# 5 -15.6136 -14.3165 -12.5610 -1.4464 47.5283 9.4767
# 6 -14.1177 -0.7870 -11.1873 -1.6719 9.4767 30.8060
#
#
#
# Elastic Compliance Matrix: (Units=1/GPa)
#
#
# Indices 1 2 3 4 5 6 
#
# 1 0.012717 -0.002920 -0.000273 -0.006243 0.002105 0.004668
# 2 -0.002920 0.014498 -0.002113 0.003184 0.003471 -0.002630
# 3 -0.000273 -0.002113 0.008901 -0.001125 0.001061 0.002666
# 4 -0.006243 0.003184 -0.001125 0.032368 -0.000126 -0.001393
# 5 0.002105 0.003471 0.001061 -0.000126 0.024256 -0.006030
# 6 0.004668 -0.002630 0.002666 -0.001393 -0.006030 0.037281
#
#
# Mechanical properties :
#
#
# Convention : Reuss Voigt Hill
#
# Bulk Modulus (GPa) = 39.20748 46.33901 42.77325
# Shear Modulus (GPa) = 33.52687 39.00170 36.26429
#
# Velocity S-wave (km/s) = 3.56809 3.84840 3.71089
# Velocity P-wave (km/s) = 5.64476 6.11092 5.88246
#
# Compressibility (1/GPa) = 0.02550534
#
# Stress axis : x y z
#
# Youngs Moduli (GPa) = 78.63422 68.97569 112.34105
#
# Poissons Ratio (x) = 0.20139 0.03070
# Poissons Ratio (y) = 0.22959 0.23733
# Poissons Ratio (z) = 0.02149 0.14571
#
# Static dielectric constant tensor:
#      x y z
#    x 3.958910 0.160120 0.022420 
#    y 0.160120 4.360690 0.318120 
#    z 0.022420 0.318120 5.152500 
# 
# 
# High freq. dielectric constant tensor:
#      x y z
#    x 2.065390 -0.014630 0.001130 
#    y -0.014630 2.035940 0.007560 
#    z 0.001130 0.007560 2.084450 
# 
# From -- ./inp_files/288849.got.cif
#   From: 2010.06.25/outbox.cif.g09.slc.cpg/sg2_145_cif.got.tgz:288849.got - 2010.06.27 13:26:56.
