data_PCOD8027344
_publ_section_title
;
Structure prediction by ZEFSAII (Michael W. Deem and Ramdas Pophale) SiO2 
 PCOD8027344
Probable space group: P -1
;
_chemical_formula_sum "Si O2"
_cell_formula_units_Z 14
_cell_length_a 14.288699
_cell_length_b 5.387992
_cell_length_c 22.794729
_cell_angle_alpha 106.642919
_cell_angle_beta 157.990602
_cell_angle_gamma 65.126306
_cell_volume 568.308232
_symmetry_space_group_name_H-M "P -1"
_symmetry_group_IT_number 2
_symmetry_cell_setting 'triclinic'
loop_
_space_group_symop_operation_xyz
x,y,z
-x,-y,-z
loop_
_atom_site_type_symbol
_atom_site_label
_atom_site_fract_x
_atom_site_fract_y
_atom_site_fract_z
Si Si1 0.610152 0.580080 0.721911
Si Si2 0.566012 0.675617 0.499177
Si Si3 0.608369 0.106094 0.987168
Si Si4 0.886344 0.308148 0.982373
Si Si5 0.179423 0.438893 0.858371
Si Si6 0.102134 0.089072 0.505993
Si Si7 0.614460 0.631578 0.237075
O O1 0.591091 0.331688 0.653387
O O2 0.851266 0.647549 0.837706
O O3 0.298362 0.835801 0.559849
O O4 0.701586 0.520143 0.838533
O O5 0.500000 0.500000 0.500000
O O6 0.891320 0.509172 0.664308
O O7 0.500000 0.000000 0.500000
O O8 0.807467 0.261810 0.098443
O O9 0.783866 0.764847 0.076678
O O10 0.428433 0.254089 0.948485
O O11 0.411177 0.161927 0.819200
O O12 0.687521 0.351429 0.924802
O O13 0.000000 0.000000 0.000000
O O14 0.282216 0.261608 0.638653
O O15 0.833219 0.303089 0.327105
O O16 0.000000 0.000000 0.500000
#
# Coordination Sequence:
#
# PCOD8027344 Si02
#       7
#     2   2   2   2   2   2   2
#     4  11  27  47  77 102 157 196 254 320 378 460
#     4  12  30  50  76 110 149 209 258 315 377 459
#     4  10  24  44  76 103 143 193 242 322 363 454
#     4  11  24  46  71 112 145 202 244 308 390 459
#     4  10  24  47  69 106 142 190 260 298 384 427
#     4  11  24  44  68 116 144 191 253 309 392 459
#     4  11  25  40  75 107 152 192 251 313 384 464
#
# _framework density 24.634522
#
# number of rings (size 3 to 8) (size 9 to 14) (size 15 to 20)
#    0.000    1.143    2.857    0.857    8.000    4.571 
#    0.000    0.000    0.000    0.000    0.000    0.000 
#    0.000    0.000    0.000    0.000    0.000    0.000 
#
# Total GULP energy -173543.334721 kJ/mol
# GULP energy per Si atom -12395.952480 kJ/mol
# Density = 2.457845 g / cm^3
# Si number density = 24.634522 Si / 1000 Ang^3
#
#
#
# Elastic Constant Matrix: (Units=GPa)
#
#
# Indices 1 2 3 4 5 6 
#
# 1 72.5820 41.2284 40.8417 -0.6457 -1.4613 12.4823
# 2 41.2284 149.4937 57.3966 1.8449 7.5226 8.0609
# 3 40.8417 57.3966 132.2938 -3.0149 10.1352 0.2159
# 4 -0.6457 1.8449 -3.0149 36.7580 1.0917 -6.4572
# 5 -1.4613 7.5226 10.1352 1.0917 40.7309 0.9888
# 6 12.4823 8.0609 0.2159 -6.4572 0.9888 43.1003
#
#
#
# Elastic Compliance Matrix: (Units=1/GPa)
#
#
# Indices 1 2 3 4 5 6 
#
# 1 0.019251 -0.003350 -0.004702 -0.000856 0.002626 -0.005114
# 2 -0.003350 0.008753 -0.002702 -0.000822 -0.001024 -0.000753
# 3 -0.004702 -0.002702 0.010390 0.001338 -0.002341 0.002069
# 4 -0.000856 -0.000822 0.001338 0.028189 -0.001080 0.004643
# 5 0.002626 -0.001024 -0.002341 -0.001080 0.025478 -0.001304
# 6 -0.005114 -0.000753 0.002069 0.004643 -0.001304 0.025539
#
#
# Mechanical properties :
#
#
# Convention : Reuss Voigt Hill
#
# Bulk Modulus (GPa) = 59.22543 70.36701 64.79622
# Shear Modulus (GPa) = 34.54589 38.44471 36.49530
#
# Velocity S-wave (km/s) = 3.74884 3.95473 3.85316
# Velocity P-wave (km/s) = 6.54463 7.03417 6.79382
#
# Compressibility (1/GPa) = 0.01688464
#
# Stress axis : x y z
#
# Youngs Moduli (GPa) = 51.94587 114.24816 96.25062
#
# Poissons Ratio (x) = 0.38269 0.45259
# Poissons Ratio (y) = 0.17400 0.26011
# Poissons Ratio (z) = 0.24426 0.30875
#
# Static dielectric constant tensor:
#      x y z
#    x 4.125340 0.200600 0.286360 
#    y 0.200600 4.646510 0.066080 
#    z 0.286360 0.066080 4.644310 
# 
# 
# High freq. dielectric constant tensor:
#      x y z
#    x 1.970790 0.007560 0.009910 
#    y 0.007560 1.983230 0.001720 
#    z 0.009910 0.001720 1.990910 
# 
# From -- ./inp_files/611306.got.cif
#   From: 2010.06.25/outbox.cif.g09.slc.cpg/sg2_306_cif.got.tgz:611306.got - 2010.06.27 13:26:56.
