data_PCOD8027131
_publ_section_title
;
Structure prediction by ZEFSAII (Michael W. Deem and Ramdas Pophale) SiO2 
 PCOD8027131
Probable space group: P -1
;
_chemical_formula_sum "Si O2"
_cell_formula_units_Z 16
_cell_length_a 8.393987
_cell_length_b 24.103049
_cell_length_c 8.753098
_cell_angle_alpha 131.434004
_cell_angle_beta 51.527530
_cell_angle_gamma 148.913040
_cell_volume 678.481228
_symmetry_space_group_name_H-M "P -1"
_symmetry_group_IT_number 2
_symmetry_cell_setting 'triclinic'
loop_
_space_group_symop_operation_xyz
x,y,z
-x,-y,-z
loop_
_atom_site_type_symbol
_atom_site_label
_atom_site_fract_x
_atom_site_fract_y
_atom_site_fract_z
Si Si1 0.194432 0.626186 0.468681
Si Si2 0.095197 0.213706 0.106116
Si Si3 0.210720 0.765494 0.908134
Si Si4 0.618135 0.817945 0.354677
Si Si5 0.348061 0.385945 0.811934
Si Si6 0.492753 0.423828 0.461123
Si Si7 0.328873 0.001527 0.821520
Si Si8 0.815469 0.018128 0.464125
O O1 0.222490 0.681193 0.709582
O O2 0.279576 0.704551 0.419119
O O3 0.435223 0.625636 0.318604
O O4 0.846080 0.498501 0.430501
O O5 0.345274 0.316579 0.259701
O O6 0.893606 0.222089 0.162569
O O7 0.279067 0.221877 0.881294
O O8 0.877778 0.096210 0.108866
O O9 0.553200 0.888548 0.976463
O O10 0.979365 0.718336 0.100824
O O11 0.847249 0.894171 0.501005
O O12 0.600796 0.887812 0.393401
O O13 0.292296 0.382936 0.659405
O O14 0.500000 0.500000 0.000000
O O15 0.500000 0.500000 0.500000
O O16 0.640598 0.041471 0.673999
O O17 0.134918 0.963409 0.713994
#
# Coordination Sequence:
#
# PCOD8027131 Si02
#       8
#     2   2   2   2   2   2   2   2
#     4  12  26  48  79 105 142 200 240 300 373 430
#     4  12  25  45  70 108 151 192 240 314 358 429
#     4  12  25  48  75 109 148 194 244 302 373 434
#     4  11  25  45  71 103 151 190 242 297 367 437
#     4  12  26  51  76 108 145 190 250 303 363 440
#     4  12  28  48  74 109 147 188 249 306 363 442
#     4  11  25  43  73 105 144 193 245 297 370 428
#     4  10  24  44  68 107 143 195 240 300 358 441
#
# _framework density 23.582082
#
# number of rings (size 3 to 8) (size 9 to 14) (size 15 to 20)
#    0.000    0.500    5.000    1.500    8.750    2.000 
#    0.000    0.000    0.000    0.000    0.000    0.000 
#    0.000    0.000    0.000    0.000    0.000    0.000 
#
# Total GULP energy -198493.590522 kJ/mol
# GULP energy per Si atom -12405.849408 kJ/mol
# Density = 2.352841 g / cm^3
# Si number density = 23.582082 Si / 1000 Ang^3
#
#
#
# Elastic Constant Matrix: (Units=GPa)
#
#
# Indices 1 2 3 4 5 6 
#
# 1 53.7283 13.4780 35.3066 -6.5966 3.8994 -15.9267
# 2 13.4780 144.8746 54.9327 -1.6808 12.8346 -6.7217
# 3 35.3066 54.9327 145.1312 8.4373 7.1094 2.5427
# 4 -6.5966 -1.6808 8.4373 47.1850 -8.8524 11.3210
# 5 3.8994 12.8346 7.1094 -8.8524 36.6304 -0.0289
# 6 -15.9267 -6.7217 2.5427 11.3210 -0.0289 34.9856
#
#
#
# Elastic Compliance Matrix: (Units=1/GPa)
#
#
# Indices 1 2 3 4 5 6 
#
# 1 0.027139 0.000930 -0.007215 0.001877 -0.001351 0.012449
# 2 0.000930 0.008395 -0.003329 0.000033 -0.002385 0.002265
# 3 -0.007215 -0.003329 0.010123 -0.002081 -0.000536 -0.003987
# 4 0.001877 0.000033 -0.002081 0.024652 0.006145 -0.006960
# 5 -0.001351 -0.002385 -0.000536 0.006145 0.029866 -0.002998
# 6 0.012449 0.002265 -0.003987 -0.006960 -0.002998 0.037225
#
#
# Mechanical properties :
#
#
# Convention : Reuss Voigt Hill
#
# Bulk Modulus (GPa) = 37.83719 61.24096 49.53908
# Shear Modulus (GPa) = 30.22308 39.76131 34.99219
#
# Velocity S-wave (km/s) = 3.58384 4.11065 3.85625
# Velocity P-wave (km/s) = 5.76238 6.96818 6.39377
#
# Compressibility (1/GPa) = 0.02642902
#
# Stress axis : x y z
#
# Youngs Moduli (GPa) = 36.84717 119.12077 98.78845
#
# Poissons Ratio (x) = -0.11080 0.71279
# Poissons Ratio (y) = -0.03427 0.32882
# Poissons Ratio (z) = 0.26587 0.39650
#
# Static dielectric constant tensor:
#      x y z
#    x 4.209600 -0.244870 0.121160 
#    y -0.244870 4.361100 -0.053440 
#    z 0.121160 -0.053440 4.507410 
# 
# 
# High freq. dielectric constant tensor:
#      x y z
#    x 1.922510 -0.016420 0.001090 
#    y -0.016420 1.949170 0.000130 
#    z 0.001090 0.000130 1.952040 
# 
# From -- ./inp_files/226446.got.cif
#   From: 2010.06.25/outbox.cif.g09.slc.cpg/sg2_114_cif.got.tgz:226446.got - 2010.06.27 13:26:56.
