data_PCOD8027263
_publ_section_title
;
Structure prediction by ZEFSAII (Michael W. Deem and Ramdas Pophale) SiO2 
 PCOD8027263
Probable space group: P -1
;
_chemical_formula_sum "Si O2"
_cell_formula_units_Z 16
_cell_length_a 8.097862
_cell_length_b 11.066972
_cell_length_c 9.361028
_cell_angle_alpha 97.328002
_cell_angle_beta 91.250651
_cell_angle_gamma 54.047606
_cell_volume 672.094133
_symmetry_space_group_name_H-M "P -1"
_symmetry_group_IT_number 2
_symmetry_cell_setting 'triclinic'
loop_
_space_group_symop_operation_xyz
x,y,z
-x,-y,-z
loop_
_atom_site_type_symbol
_atom_site_label
_atom_site_fract_x
_atom_site_fract_y
_atom_site_fract_z
Si Si1 0.352043 0.092656 0.377302
Si Si2 0.413693 0.831115 0.799933
Si Si3 0.663303 0.543976 0.204164
Si Si4 0.088205 0.595069 0.061248
Si Si5 0.639787 0.498490 0.692225
Si Si6 0.064321 0.604547 0.559974
Si Si7 0.000260 0.097044 0.885758
Si Si8 0.597610 0.152635 0.859706
O O1 0.424447 0.177722 0.303406
O O2 0.120597 0.220452 0.445038
O O3 0.500000 0.000000 0.500000
O O4 0.339583 0.995029 0.243197
O O5 0.452405 0.672854 0.744697
O O6 0.438963 0.854237 0.972334
O O7 0.185339 0.970924 0.768059
O O8 0.458356 0.586376 0.281135
O O9 0.870869 0.432593 0.279375
O O10 0.613784 0.708221 0.195092
O O11 0.710055 0.464442 0.038947
O O12 0.159631 0.554050 0.219575
O O13 0.953127 0.778355 0.063949
O O14 0.000000 0.500000 0.000000
O O15 0.726931 0.448790 0.526539
O O16 0.000000 0.500000 0.500000
O O17 0.773028 0.178273 0.831280
O O18 0.000000 0.000000 0.000000
#
# Coordination Sequence:
#
# PCOD8027263 Si02
#       8
#     2   2   2   2   2   2   2   2
#     4  12  29  48  71 104 150 190 240 300 365 444
#     4  11  25  45  75 105 145 186 241 303 365 434
#     4  12  25  45  75 105 144 188 245 299 365 434
#     4  12  26  43  76 111 146 193 248 308 366 433
#     4  12  25  48  72 108 145 193 243 302 365 438
#     4  12  27  49  70 102 147 190 246 298 367 443
#     4  10  24  44  71 109 151 185 239 306 371 438
#     4  11  24  46  73 107 142 188 238 301 366 430
#
# _framework density 23.806190999999998
#
# number of rings (size 3 to 8) (size 9 to 14) (size 15 to 20)
#    0.000    0.500    3.750    4.125    8.750    0.000 
#    0.000    1.250    0.000    0.000    0.000    0.000 
#    0.000    0.000    0.000    0.000    0.000    0.000 
#
# Total GULP energy -198215.743370 kJ/mol
# GULP energy per Si atom -12388.483961 kJ/mol
# Density = 2.375201 g / cm^3
# Si number density = 23.806191 Si / 1000 Ang^3
#
#
#
# Elastic Constant Matrix: (Units=GPa)
#
#
# Indices 1 2 3 4 5 6 
#
# 1 42.7276 10.0871 11.0172 -15.1356 -10.0041 -1.3032
# 2 10.0871 167.3702 36.3513 1.8515 -0.7182 -11.8785
# 3 11.0172 36.3513 97.8199 4.3981 -9.0143 -5.4986
# 4 -15.1356 1.8515 4.3981 38.6296 -10.0606 -2.1222
# 5 -10.0041 -0.7182 -9.0143 -10.0606 39.0109 1.6964
# 6 -1.3032 -11.8785 -5.4986 -2.1222 1.6964 40.6978
#
#
#
# Elastic Compliance Matrix: (Units=1/GPa)
#
#
# Indices 1 2 3 4 5 6 
#
# 1 0.033193 -0.001484 -0.002784 0.016576 0.012090 0.000614
# 2 -0.001484 0.006679 -0.002286 -0.000832 -0.001070 0.001594
# 3 -0.002784 -0.002286 0.011639 -0.001902 0.001414 0.000658
# 4 0.016576 -0.000832 -0.001902 0.036112 0.013049 0.001370
# 5 0.012090 -0.001070 0.001414 0.013049 0.032424 -0.000405
# 6 0.000614 0.001594 0.000658 0.001370 -0.000405 0.025234
#
#
# Mechanical properties :
#
#
# Convention : Reuss Voigt Hill
#
# Bulk Modulus (GPa) = 26.03965 46.98100 36.51033
# Shear Modulus (GPa) = 29.20751 40.36512 34.78632
#
# Velocity S-wave (km/s) = 3.50649 4.12220 3.82675
# Velocity P-wave (km/s) = 5.23029 6.51416 5.90721
#
# Compressibility (1/GPa) = 0.03840298
#
# Stress axis : x y z
#
# Youngs Moduli (GPa) = 30.12658 149.73398 85.91927
#
# Poissons Ratio (x) = 0.22218 0.23918
# Poissons Ratio (y) = 0.04470 0.19643
# Poissons Ratio (z) = 0.08386 0.34233
#
# Static dielectric constant tensor:
#      x y z
#    x 4.716430 -0.515280 -0.011850 
#    y -0.515280 4.797860 -0.195440 
#    z -0.011850 -0.195440 4.720160 
# 
# 
# High freq. dielectric constant tensor:
#      x y z
#    x 1.935960 -0.003860 -0.015100 
#    y -0.003860 1.966260 0.000310 
#    z -0.015100 0.000310 1.937590 
# 
# From -- ./inp_files/187487.got.cif
#   From: 2010.06.25/outbox.cif.g09.slc.cpg/sg2_94_cif.got.tgz:187487.got - 2010.06.27 13:26:56.
