data_PCOD8027560
_publ_section_title
;
Structure prediction by ZEFSAII (Michael W. Deem and Ramdas Pophale) SiO2 
 PCOD8027560
Probable space group: P -1
;
_chemical_formula_sum "Si O2"
_cell_formula_units_Z 12
_cell_length_a 5.102398
_cell_length_b 9.130341
_cell_length_c 10.851847
_cell_angle_alpha 105.742162
_cell_angle_beta 67.972449
_cell_angle_gamma 104.157659
_cell_volume 445.252200
_symmetry_space_group_name_H-M "P -1"
_symmetry_group_IT_number 2
_symmetry_cell_setting 'triclinic'
loop_
_space_group_symop_operation_xyz
x,y,z
-x,-y,-z
loop_
_atom_site_type_symbol
_atom_site_label
_atom_site_fract_x
_atom_site_fract_y
_atom_site_fract_z
Si Si1 0.477684 0.750401 0.982687
Si Si2 0.742987 0.462294 0.227868
Si Si3 0.901061 0.995566 0.877353
Si Si4 0.903132 0.623536 0.635231
Si Si5 0.789083 0.106176 0.508637
Si Si6 0.620242 0.767855 0.230013
O O1 0.257590 0.616396 0.926180
O O2 0.736920 0.816798 0.852003
O O3 0.329438 0.893968 0.081276
O O4 0.594048 0.697143 0.079885
O O5 0.003073 0.416536 0.251266
O O6 0.774228 0.647180 0.252729
O O7 0.437816 0.395146 0.326796
O O8 0.176791 0.061429 0.759211
O O9 0.000000 0.000000 0.000000
O O10 0.054623 0.795600 0.609763
O O11 0.000000 0.500000 0.500000
O O12 0.691907 0.220871 0.656308
O O13 0.500000 0.000000 0.500000
O O14 0.000000 0.000000 0.500000
#
# Coordination Sequence:
#
# PCOD8027560 Si02
#       6
#     2   2   2   2   2   2
#     4  10  24  45  72 112 148 198 245 312 382 444
#     4  12  28  46  82 107 153 200 249 304 382 454
#     4   9  22  41  69 101 156 188 247 300 377 431
#     4  12  28  52  75 107 154 200 250 310 375 441
#     4  12  30  49  79 112 147 200 260 310 373 444
#     4  11  26  46  75 109 154 195 252 316 369 454
#
# _framework density 26.951018999999999
#
# number of rings (size 3 to 8) (size 9 to 14) (size 15 to 20)
#    0.000    1.000    1.667    2.000   14.000    6.000 
#    0.000    0.000    0.000    0.000    0.000    0.000 
#    0.000    0.000    0.000    0.000    0.000    0.000 
#
# Total GULP energy -148762.756275 kJ/mol
# GULP energy per Si atom -12396.896356 kJ/mol
# Density = 2.688968 g / cm^3
# Si number density = 26.951019 Si / 1000 Ang^3
#
#
#
# Elastic Constant Matrix: (Units=GPa)
#
#
# Indices 1 2 3 4 5 6 
#
# 1 97.0715 28.2368 7.0215 -17.3448 6.6151 -13.0919
# 2 28.2368 136.1718 13.5290 -24.9917 12.9435 -14.4588
# 3 7.0215 13.5290 67.0394 -26.7562 -1.5148 -4.3900
# 4 -17.3448 -24.9917 -26.7562 43.9878 7.3887 0.7847
# 5 6.6151 12.9435 -1.5148 7.3887 38.9291 -0.0769
# 6 -13.0919 -14.4588 -4.3900 0.7847 -0.0769 51.5958
#
#
#
# Elastic Compliance Matrix: (Units=1/GPa)
#
#
# Indices 1 2 3 4 5 6 
#
# 1 0.012020 -0.001112 0.001164 0.005205 -0.002610 0.002754
# 2 -0.001112 0.009186 0.000630 0.005784 -0.003934 0.002252
# 3 0.001164 0.000630 0.020079 0.013358 -0.002157 0.001974
# 4 0.005205 0.005784 0.013358 0.037721 -0.009441 0.003491
# 5 -0.002610 -0.003934 -0.002157 -0.009441 0.029144 -0.001761
# 6 0.002754 0.002252 0.001974 0.003491 -0.001761 0.020824
#
#
# Mechanical properties :
#
#
# Convention : Reuss Voigt Hill
#
# Bulk Modulus (GPa) = 23.44677 44.20635 33.82656
# Shear Modulus (GPa) = 35.25413 43.66889 39.46151
#
# Velocity S-wave (km/s) = 3.62066 4.02967 3.83063
# Velocity P-wave (km/s) = 5.11836 6.17163 5.66951
#
# Compressibility (1/GPa) = 0.04264979
#
# Stress axis : x y z
#
# Youngs Moduli (GPa) = 83.19146 108.85603 49.80270
#
# Poissons Ratio (x) = 0.12109 -0.05799
# Poissons Ratio (y) = 0.09254 -0.03137
# Poissons Ratio (z) = -0.09687 -0.06856
#
# Static dielectric constant tensor:
#      x y z
#    x 5.181170 -0.082050 -0.112430 
#    y -0.082050 5.603330 -0.214040 
#    z -0.112430 -0.214040 5.362870 
# 
# 
# High freq. dielectric constant tensor:
#      x y z
#    x 2.083680 0.004170 -0.011700 
#    y 0.004170 2.100310 0.000270 
#    z -0.011700 0.000270 2.091810 
# 
# From -- ./inp_files/61162.got.cif
#   From: 2010.06.25/outbox.cif.g09.slc.cpg/sg2_31_cif.got.tgz:61162.got - 2010.06.27 13:26:56.
