data_PCOD8027927
_publ_section_title
;
Structure prediction by ZEFSAII (Michael W. Deem and Ramdas Pophale) SiO2 
 PCOD8027927
Probable space group: P -1
;
_chemical_formula_sum "Si O2"
_cell_formula_units_Z 12
_cell_length_a 13.295530
_cell_length_b 5.044844
_cell_length_c 7.452204
_cell_angle_alpha 72.262678
_cell_angle_beta 103.237169
_cell_angle_gamma 66.524238
_cell_volume 400.029152
_symmetry_space_group_name_H-M "P -1"
_symmetry_group_IT_number 2
_symmetry_cell_setting 'triclinic'
loop_
_space_group_symop_operation_xyz
x,y,z
-x,-y,-z
loop_
_atom_site_type_symbol
_atom_site_label
_atom_site_fract_x
_atom_site_fract_y
_atom_site_fract_z
Si Si1 0.752076 0.451414 0.269531
Si Si2 0.721744 0.350826 0.904311
Si Si3 0.074303 0.152591 0.717852
Si Si4 0.733870 0.770368 0.532007
Si Si5 0.947845 0.753402 0.765263
Si Si6 0.468482 0.560539 0.680029
O O1 0.845868 0.051774 0.388150
O O2 0.796521 0.636428 0.384931
O O3 0.621296 0.558674 0.270807
O O4 0.740186 0.553617 0.034375
O O5 0.728038 0.479552 0.686068
O O6 0.592707 0.380492 0.879233
O O7 0.830595 0.984522 0.046734
O O8 0.975920 0.042104 0.737140
O O9 0.009696 0.545915 0.642652
O O10 0.805983 0.883333 0.667921
O O11 0.598650 0.056075 0.391427
O O12 0.000000 0.500000 0.000000
O O13 0.500000 0.500000 0.500000
#
# Coordination Sequence:
#
# PCOD8027927 Si02
#       6
#     2   2   2   2   2   2
#     4  10  26  47  71 110 144 194 251 303 380 441
#     4  10  24  49  70 106 146 191 248 304 377 440
#     4  10  27  46  76 111 144 205 244 305 378 440
#     4  12  27  45  74 107 146 197 248 310 373 445
#     4  12  25  47  78 109 154 196 250 307 372 448
#     4  12  26  45  75 106 147 194 250 313 374 446
#
# _framework density 29.997817000000001
#
# number of rings (size 3 to 8) (size 9 to 14) (size 15 to 20)
#    1.000    0.000    3.333    1.500    7.000    2.000 
#    3.000    0.000    0.000    0.000    0.000    0.000 
#    0.000    0.000    0.000    0.000    0.000    0.000 
#
# Total GULP energy -148709.293083 kJ/mol
# GULP energy per Si atom -12392.441090 kJ/mol
# Density = 2.992954 g / cm^3
# Si number density = 29.997817 Si / 1000 Ang^3
#
#
#
# Elastic Constant Matrix: (Units=GPa)
#
#
# Indices 1 2 3 4 5 6 
#
# 1 94.1263 18.3638 4.9605 -10.0335 32.6861 -13.4181
# 2 18.3638 155.0699 31.5491 5.7002 27.2954 -4.3264
# 3 4.9605 31.5491 74.1692 18.0376 27.1402 -9.4543
# 4 -10.0335 5.7002 18.0376 44.6961 -17.0019 4.8551
# 5 32.6861 27.2954 27.1402 -17.0019 64.7463 0.4187
# 6 -13.4181 -4.3264 -9.4543 4.8551 0.4187 44.4514
#
#
#
# Elastic Compliance Matrix: (Units=1/GPa)
#
#
# Indices 1 2 3 4 5 6 
#
# 1 0.014285 -0.000626 0.004017 -0.002472 -0.009316 0.005463
# 2 -0.000626 0.007372 -0.001919 -0.001214 -0.002308 0.000275
# 3 0.004017 -0.001919 0.024610 -0.015636 -0.015694 0.008116
# 4 -0.002472 -0.001214 -0.015636 0.035958 0.017810 -0.008285
# 5 -0.009316 -0.002308 -0.015694 0.017810 0.032432 -0.008625
# 6 0.005463 0.000275 0.008116 -0.008285 -0.008625 0.026885
#
#
# Mechanical properties :
#
#
# Convention : Reuss Voigt Hill
#
# Bulk Modulus (GPa) = 20.32051 48.12358 34.22205
# Shear Modulus (GPa) = 32.25797 48.67823 40.46810
#
# Velocity S-wave (km/s) = 3.28280 4.03268 3.67691
# Velocity P-wave (km/s) = 4.59976 6.14496 5.42763
#
# Compressibility (1/GPa) = 0.04921136
#
# Stress axis : x y z
#
# Youngs Moduli (GPa) = 70.00456 135.65227 40.63361
#
# Poissons Ratio (x) = 0.08490 -0.16324
# Poissons Ratio (y) = 0.04382 0.07798
# Poissons Ratio (z) = -0.28123 0.26033
#
# Static dielectric constant tensor:
#      x y z
#    x 5.682460 -0.393630 0.438410 
#    y -0.393630 5.372200 0.052920 
#    z 0.438410 0.052920 6.510900 
# 
# 
# High freq. dielectric constant tensor:
#      x y z
#    x 2.237040 -0.017400 0.004640 
#    y -0.017400 2.223310 0.008990 
#    z 0.004640 0.008990 2.257180 
# 
# From -- ./inp_files/279079.got.cif
#   From: 2010.06.25/outbox.cif.g09.slc.cpg/sg2_140_cif.got.tgz:279079.got - 2010.06.27 13:26:56.
