data_PCOD8027520
_publ_section_title
;
Structure prediction by ZEFSAII (Michael W. Deem and Ramdas Pophale) SiO2 
 PCOD8027520
Probable space group: P -1
;
_chemical_formula_sum "Si O2"
_cell_formula_units_Z 14
_cell_length_a 8.374454
_cell_length_b 22.971987
_cell_length_c 8.797193
_cell_angle_alpha 42.271065
_cell_angle_beta 125.076980
_cell_angle_gamma 145.816794
_cell_volume 636.429570
_symmetry_space_group_name_H-M "P -1"
_symmetry_group_IT_number 2
_symmetry_cell_setting 'triclinic'
loop_
_space_group_symop_operation_xyz
x,y,z
-x,-y,-z
loop_
_atom_site_type_symbol
_atom_site_label
_atom_site_fract_x
_atom_site_fract_y
_atom_site_fract_z
Si Si1 0.727561 0.526210 0.176720
Si Si2 0.379117 0.022631 0.518419
Si Si3 0.187287 0.806647 0.997081
Si Si4 0.279245 0.108407 0.037365
Si Si5 0.166970 0.763403 0.405943
Si Si6 0.014077 0.477930 0.222833
Si Si7 0.429452 0.354191 0.629750
O O1 0.936260 0.534378 0.175788
O O2 0.570642 0.413459 0.427938
O O3 0.906452 0.658348 0.104521
O O4 0.500000 0.500000 0.000000
O O5 0.238750 0.058562 0.284232
O O6 0.632272 0.136630 0.544984
O O7 0.500000 0.000000 0.500000
O O8 0.150071 0.891927 0.742991
O O9 0.242349 0.835479 0.150868
O O10 0.455709 0.849390 0.982352
O O11 0.316152 0.221673 0.846622
O O12 0.000000 0.000000 0.000000
O O13 0.205547 0.672485 0.579981
O O14 0.837991 0.669246 0.454921
O O15 0.335294 0.551229 0.295249
O O16 0.000000 0.500000 0.000000
#
# Coordination Sequence:
#
# PCOD8027520 Si02
#       7
#     2   2   2   2   2   2   2
#     4  12  27  44  74 104 143 191 227 287 355 425
#     4  10  24  45  70  96 136 185 232 291 345 412
#     4  11  24  47  69 100 145 182 238 286 351 415
#     4  11  24  44  72 100 136 189 236 288 352 417
#     4  12  25  44  72 105 139 185 236 296 348 414
#     4  12  25  43  67 104 145 177 234 291 344 419
#     4  12  24  44  68 104 143 183 235 281 361 412
#
# _framework density 21.997722
#
# number of rings (size 3 to 8) (size 9 to 14) (size 15 to 20)
#    0.000    0.571    2.857    5.571   10.000    0.000 
#    0.000    1.429    0.000    0.000    0.000    0.000 
#    0.000    0.000    0.000    0.000    0.000    0.000 
#
# Total GULP energy -173634.117877 kJ/mol
# GULP energy per Si atom -12402.436991 kJ/mol
# Density = 2.194765 g / cm^3
# Si number density = 21.997722 Si / 1000 Ang^3
#
#
#
# Elastic Constant Matrix: (Units=GPa)
#
#
# Indices 1 2 3 4 5 6 
#
# 1 48.9236 26.9684 22.1752 4.4944 -3.1745 -7.4159
# 2 26.9684 121.6812 68.5102 11.2691 13.4086 -33.2568
# 3 22.1752 68.5102 191.9157 3.0019 -8.8202 -17.4634
# 4 4.4944 11.2691 3.0019 48.1715 -9.1581 1.4152
# 5 -3.1745 13.4086 -8.8202 -9.1581 31.2533 4.0769
# 6 -7.4159 -33.2568 -17.4634 1.4152 4.0769 31.9880
#
#
#
# Elastic Compliance Matrix: (Units=1/GPa)
#
#
# Indices 1 2 3 4 5 6 
#
# 1 0.024105 -0.006128 -0.000520 0.000264 0.005236 -0.001746
# 2 -0.006128 0.020093 -0.005343 -0.007265 -0.015336 0.018829
# 3 -0.000520 -0.005343 0.007156 0.001904 0.005144 -0.002508
# 4 0.000264 -0.007265 0.001904 0.024895 0.012163 -0.009104
# 5 0.005236 -0.015336 0.005144 0.012163 0.046523 -0.018389
# 6 -0.001746 0.018829 -0.002508 -0.009104 -0.018389 0.051810
#
#
# Mechanical properties :
#
#
# Convention : Reuss Voigt Hill
#
# Bulk Modulus (GPa) = 36.53269 66.42535 51.47902
# Shear Modulus (GPa) = 24.07456 38.60700 31.34078
#
# Velocity S-wave (km/s) = 3.31178 4.19387 3.77865
# Velocity P-wave (km/s) = 5.59172 7.32894 6.51847
#
# Compressibility (1/GPa) = 0.02737275
#
# Stress axis : x y z
#
# Youngs Moduli (GPa) = 41.48583 49.76778 139.73616
#
# Poissons Ratio (x) = 0.30498 0.07265
# Poissons Ratio (y) = 0.25423 0.74657
# Poissons Ratio (z) = 0.02157 0.26589
#
# Static dielectric constant tensor:
#      x y z
#    x 3.860470 -0.089230 0.176440 
#    y -0.089230 4.093810 0.073520 
#    z 0.176440 0.073520 4.876360 
# 
# 
# High freq. dielectric constant tensor:
#      x y z
#    x 1.849500 -0.014720 0.001160 
#    y -0.014720 1.876240 -0.001070 
#    z 0.001160 -0.001070 1.895620 
# 
# From -- ./inp_files/158921.got.cif
#   From: 2010.06.25/outbox.cif.g09.slc.cpg/sg2_80_cif.got.tgz:158921.got - 2010.06.27 13:26:56.
