data_PCOD8027256
_publ_section_title
;
Structure prediction by ZEFSAII (Michael W. Deem and Ramdas Pophale) SiO2 
 PCOD8027256
Probable space group: P -1
;
_chemical_formula_sum "Si O2"
_cell_formula_units_Z 14
_cell_length_a 9.022509
_cell_length_b 15.150474
_cell_length_c 15.921261
_cell_angle_alpha 38.802242
_cell_angle_beta 30.130470
_cell_angle_gamma 34.428341
_cell_volume 600.758637
_symmetry_space_group_name_H-M "P -1"
_symmetry_group_IT_number 2
_symmetry_cell_setting 'triclinic'
loop_
_space_group_symop_operation_xyz
x,y,z
-x,-y,-z
loop_
_atom_site_type_symbol
_atom_site_label
_atom_site_fract_x
_atom_site_fract_y
_atom_site_fract_z
Si Si1 0.762497 0.706046 0.925443
Si Si2 0.624390 0.027399 0.672010
Si Si3 0.763795 0.235800 0.725437
Si Si4 0.723329 0.696259 0.232505
Si Si5 0.767752 0.414411 0.073084
Si Si6 0.159996 0.382225 0.344042
Si Si7 0.386099 0.960650 0.671184
O O1 0.608772 0.878838 0.832662
O O2 0.098591 0.671965 0.837821
O O3 0.531250 0.677537 0.127938
O O4 0.813564 0.574531 0.927194
O O5 0.473250 0.047026 0.639296
O O6 0.371807 0.183298 0.732184
O O7 0.000000 0.000000 0.500000
O O8 0.620176 0.244749 0.695454
O O9 0.992824 0.324222 0.541625
O O10 0.979985 0.051330 0.790645
O O11 0.864625 0.516682 0.332829
O O12 0.008527 0.698779 0.029925
O O13 0.380901 0.456266 0.222644
O O14 0.423208 0.231966 0.268707
O O15 0.500000 0.000000 0.500000
#
# Coordination Sequence:
#
# PCOD8027256 Si02
#       7
#     2   2   2   2   2   2   2
#     4  10  25  45  68 102 149 182 240 287 354 414
#     4  12  27  44  74 103 141 182 240 292 353 422
#     4  10  24  44  72 102 144 192 231 293 348 407
#     4  11  25  44  71 108 139 187 237 289 354 410
#     4  10  24  44  71 104 144 193 228 295 348 415
#     4  11  23  43  75  99 146 184 243 279 352 420
#     4  10  24  45  69 102 138 181 230 291 349 415
#
# _framework density 23.303867
#
# number of rings (size 3 to 8) (size 9 to 14) (size 15 to 20)
#    0.000    1.429    0.000    3.429   10.000    5.714 
#    0.000    0.000    0.000    0.000    0.000    0.000 
#    0.000    0.000    0.000    0.000    0.000    0.000 
#
# Total GULP energy -173517.405333 kJ/mol
# GULP energy per Si atom -12394.100381 kJ/mol
# Density = 2.325083 g / cm^3
# Si number density = 23.303867 Si / 1000 Ang^3
#
#
#
# Elastic Constant Matrix: (Units=GPa)
#
#
# Indices 1 2 3 4 5 6 
#
# 1 155.8249 74.3569 43.9710 2.6137 2.4084 -6.9128
# 2 74.3569 153.0836 23.9603 -5.9045 6.1452 -9.3538
# 3 43.9710 23.9603 89.7163 0.1523 -4.0323 5.0136
# 4 2.6137 -5.9045 0.1523 29.1182 -3.3055 5.2343
# 5 2.4084 6.1452 -4.0323 -3.3055 30.4806 7.2190
# 6 -6.9128 -9.3538 5.0136 5.2343 7.2190 45.0523
#
#
#
# Elastic Compliance Matrix: (Units=1/GPa)
#
#
# Indices 1 2 3 4 5 6 
#
# 1 0.009469 -0.003970 -0.003702 -0.002006 -0.000995 0.001433
# 2 -0.003970 0.008760 -0.000546 0.001707 -0.001656 0.001337
# 3 -0.003702 -0.000546 0.013391 0.000980 0.002933 -0.002755
# 4 -0.002006 0.001707 0.000980 0.036360 0.005096 -0.005103
# 5 -0.000995 -0.001656 0.002933 0.005096 0.035857 -0.007160
# 6 0.001433 0.001337 -0.002755 -0.005103 -0.007160 0.024741
#
#
# Mechanical properties :
#
#
# Convention : Reuss Voigt Hill
#
# Bulk Modulus (GPa) = 65.85844 75.91123 70.88484
# Shear Modulus (GPa) = 33.31683 38.01932 35.66808
#
# Velocity S-wave (km/s) = 3.78520 4.04352 3.91649
# Velocity P-wave (km/s) = 6.88663 7.37870 7.13691
#
# Compressibility (1/GPa) = 0.01518408
#
# Stress axis : x y z
#
# Youngs Moduli (GPa) = 105.60730 114.15349 74.67920
#
# Poissons Ratio (x) = 0.45317 0.27647
# Poissons Ratio (y) = 0.41924 0.04077
# Poissons Ratio (z) = 0.39096 0.06232
#
# Static dielectric constant tensor:
#      x y z
#    x 3.950550 0.396300 0.285070 
#    y 0.396300 3.515200 -0.345260 
#    z 0.285070 -0.345260 3.682670 
# 
# 
# High freq. dielectric constant tensor:
#      x y z
#    x 1.928150 -0.013000 0.005010 
#    y -0.013000 1.931810 0.009740 
#    z 0.005010 0.009740 1.905640 
# 
# From -- ./inp_files/505196.got.cif
#   From: 2010.06.25/outbox.cif.g09.slc.cpg/sg2_253_cif.got.tgz:505196.got - 2010.06.27 13:26:56.
