data_PCOD8027393
_publ_section_title
;
Structure prediction by ZEFSAII (Michael W. Deem and Ramdas Pophale) SiO2 
 PCOD8027393
Probable space group: P -1
;
_chemical_formula_sum "Si O2"
_cell_formula_units_Z 16
_cell_length_a 9.051514
_cell_length_b 11.577008
_cell_length_c 13.806313
_cell_angle_alpha 124.355602
_cell_angle_beta 43.605231
_cell_angle_gamma 133.338690
_cell_volume 719.140372
_symmetry_space_group_name_H-M "P -1"
_symmetry_group_IT_number 2
_symmetry_cell_setting 'triclinic'
loop_
_space_group_symop_operation_xyz
x,y,z
-x,-y,-z
loop_
_atom_site_type_symbol
_atom_site_label
_atom_site_fract_x
_atom_site_fract_y
_atom_site_fract_z
Si Si1 0.016598 0.598556 0.661580
Si Si2 0.659895 0.316905 0.985932
Si Si3 0.299232 0.134956 0.241225
Si Si4 0.559476 0.593417 0.158136
Si Si5 0.249851 0.823234 0.831677
Si Si6 0.987239 0.214048 0.871378
Si Si7 0.054648 0.726003 0.506092
Si Si8 0.491248 0.844763 0.211556
O O1 0.725588 0.517114 0.740407
O O2 0.088898 0.458903 0.549185
O O3 0.096954 0.667576 0.763544
O O4 0.133801 0.732158 0.584535
O O5 0.905159 0.341674 0.934413
O O6 0.640321 0.205041 0.852844
O O7 0.428220 0.224226 0.123199
O O8 0.680371 0.483240 0.017764
O O9 0.496756 0.165724 0.245835
O O10 0.122590 0.200195 0.393898
O O11 0.133057 0.946077 0.210431
O O12 0.608140 0.728155 0.118339
O O13 0.713981 0.693185 0.227909
O O14 0.301217 0.971240 0.806917
O O15 0.089887 0.825242 0.998170
O O16 0.303563 0.828393 0.376969
#
# Coordination Sequence:
#
# PCOD8027393 Si02
#       8
#     2   2   2   2   2   2   2   2
#     4  10  24  47  64  98 135 173 227 272 326 396
#     4  11  21  45  67  98 138 167 226 274 327 394
#     4  11  22  47  70  96 133 181 217 271 337 387
#     4  11  25  39  67  98 131 179 214 271 334 383
#     4  11  24  43  70  99 137 171 222 279 323 397
#     4  11  24  42  70 102 135 172 220 274 333 392
#     4  10  24  45  67  93 138 178 221 271 328 397
#     4  11  24  42  65 104 134 170 222 276 329 393
#
# _framework density 22.248784000000001
#
# number of rings (size 3 to 8) (size 9 to 14) (size 15 to 20)
#    0.000    1.250    3.750    1.500    7.000    2.000 
#    4.500    0.000    0.000    0.000    0.000    0.000 
#    0.000    0.000    0.000    0.000    0.000    0.000 
#
# Total GULP energy -198325.123330 kJ/mol
# GULP energy per Si atom -12395.320208 kJ/mol
# Density = 2.219814 g / cm^3
# Si number density = 22.248784 Si / 1000 Ang^3
#
#
#
# Elastic Constant Matrix: (Units=GPa)
#
#
# Indices 1 2 3 4 5 6 
#
# 1 127.8609 68.5701 60.9249 9.6798 -11.0786 10.8306
# 2 68.5701 95.5735 43.7337 21.3841 -9.9155 -2.7116
# 3 60.9249 43.7337 83.5223 6.3878 0.1275 -2.3239
# 4 9.6798 21.3841 6.3878 19.9353 -2.0632 0.8989
# 5 -11.0786 -9.9155 0.1275 -2.0632 25.7347 7.2857
# 6 10.8306 -2.7116 -2.3239 0.8989 7.2857 46.9402
#
#
#
# Elastic Compliance Matrix: (Units=1/GPa)
#
#
# Indices 1 2 3 4 5 6 
#
# 1 0.017546 -0.009433 -0.008436 0.005205 0.006093 -0.006056
# 2 -0.009433 0.023800 -0.003998 -0.019547 0.002622 0.003321
# 3 -0.008436 -0.003998 0.020248 0.001088 -0.006222 0.003663
# 4 0.005205 -0.019547 0.001088 0.068556 0.001272 -0.003787
# 5 0.006093 0.002622 -0.006222 0.001272 0.045053 -0.008579
# 6 -0.006056 0.003321 0.003663 -0.003787 -0.008579 0.024478
#
#
# Mechanical properties :
#
#
# Convention : Reuss Voigt Hill
#
# Bulk Modulus (GPa) = 55.98812 72.60158 64.29485
# Shear Modulus (GPa) = 20.05069 27.43724 23.74397
#
# Velocity S-wave (km/s) = 3.00526 3.51551 3.27035
# Velocity P-wave (km/s) = 6.10421 7.01291 6.57428
#
# Compressibility (1/GPa) = 0.01786093
#
# Stress axis : x y z
#
# Youngs Moduli (GPa) = 56.99272 42.01662 49.38821
#
# Poissons Ratio (x) = 0.39634 0.41662
# Poissons Ratio (y) = 0.53761 0.19745
# Poissons Ratio (z) = 0.48076 0.16798
#
# Static dielectric constant tensor:
#      x y z
#    x 4.142880 -0.102420 -0.038090 
#    y -0.102420 4.179490 0.076990 
#    z -0.038090 0.076990 3.774350 
# 
# 
# High freq. dielectric constant tensor:
#      x y z
#    x 1.884360 -0.010090 -0.000530 
#    y -0.010090 1.883510 0.005960 
#    z -0.000530 0.005960 1.854360 
# 
# From -- ./inp_files/392810.got.cif
#   From: 2010.06.25/outbox.cif.g09.slc.cpg/sg2_197_cif.got.tgz:392810.got - 2010.06.27 13:26:56.
