data_PCOD8027877
_publ_section_title
;
Structure prediction by ZEFSAII (Michael W. Deem and Ramdas Pophale) SiO2 
 PCOD8027877
Probable space group: P -1
;
_chemical_formula_sum "Si O2"
_cell_formula_units_Z 12
_cell_length_a 10.994819
_cell_length_b 8.948021
_cell_length_c 8.281722
_cell_angle_alpha 96.513776
_cell_angle_beta 138.817694
_cell_angle_gamma 69.369069
_cell_volume 486.626568
_symmetry_space_group_name_H-M "P -1"
_symmetry_group_IT_number 2
_symmetry_cell_setting 'triclinic'
loop_
_space_group_symop_operation_xyz
x,y,z
-x,-y,-z
loop_
_atom_site_type_symbol
_atom_site_label
_atom_site_fract_x
_atom_site_fract_y
_atom_site_fract_z
Si Si1 0.513865 0.169742 0.490444
Si Si2 0.941091 0.180439 0.411666
Si Si3 0.790155 0.481246 0.705094
Si Si4 0.109319 0.398880 0.750892
Si Si5 0.563461 0.322845 0.259742
Si Si6 0.117775 0.820593 0.014348
O O1 0.303067 0.333782 0.289730
O O2 0.608874 0.163254 0.403909
O O3 0.652147 0.197266 0.770539
O O4 0.500000 0.000000 0.500000
O O5 0.707323 0.281138 0.242896
O O6 0.101305 0.223937 0.682974
O O7 0.965198 0.197054 0.246690
O O8 0.000000 0.000000 0.500000
O O9 0.609136 0.458898 0.424366
O O10 0.888850 0.331152 0.910431
O O11 0.979623 0.477388 0.790179
O O12 0.000000 0.500000 0.500000
O O13 0.331039 0.397609 0.980687
O O14 0.000000 0.000000 0.000000
#
# Coordination Sequence:
#
# PCOD8027877 Si02
#       6
#     2   2   2   2   2   2
#     4  11  26  45  73 105 140 191 245 298 359 427
#     4  11  26  47  71 104 150 189 232 299 368 430
#     4  10  25  49  73 102 147 192 241 299 365 421
#     4  11  27  43  72 109 139 189 245 291 362 440
#     4  10  24  48  70 104 144 187 243 294 365 435
#     4  11  24  47  75 102 146 191 236 299 363 427
#
# _framework density 24.659566000000002
#
# number of rings (size 3 to 8) (size 9 to 14) (size 15 to 20)
#    0.000    1.333    0.000    5.000   11.667    5.333 
#    0.000    0.000    0.000    0.000    0.000    0.000 
#    0.000    0.000    0.000    0.000    0.000    0.000 
#
# Total GULP energy -148696.938459 kJ/mol
# GULP energy per Si atom -12391.411538 kJ/mol
# Density = 2.460344 g / cm^3
# Si number density = 24.659566 Si / 1000 Ang^3
#
#
#
# Elastic Constant Matrix: (Units=GPa)
#
#
# Indices 1 2 3 4 5 6 
#
# 1 122.9599 52.7509 45.5498 -0.9248 -6.0102 -3.7256
# 2 52.7509 152.8444 35.5275 -22.8072 0.6497 3.8431
# 3 45.5498 35.5275 127.3452 4.5888 19.9553 5.3396
# 4 -0.9248 -22.8072 4.5888 45.4903 16.3293 -2.6492
# 5 -6.0102 0.6497 19.9553 16.3293 49.0746 6.7988
# 6 -3.7256 3.8431 5.3396 -2.6492 6.7988 42.7883
#
#
#
# Elastic Compliance Matrix: (Units=1/GPa)
#
#
# Indices 1 2 3 4 5 6 
#
# 1 0.011071 -0.003387 -0.003516 -0.002299 0.003455 0.001016
# 2 -0.003387 0.008737 -0.001127 0.005011 -0.001690 -0.000360
# 3 -0.003516 -0.001127 0.010150 -0.000129 -0.004392 -0.000782
# 4 -0.002299 0.005011 -0.000129 0.028232 -0.010065 0.002713
# 5 0.003455 -0.001690 -0.004392 -0.010065 0.026488 -0.003831
# 6 0.001016 -0.000360 -0.000782 0.002713 -0.003831 0.024366
#
#
# Mechanical properties :
#
#
# Convention : Reuss Voigt Hill
#
# Bulk Modulus (GPa) = 71.94825 74.53398 73.24112
# Shear Modulus (GPa) = 38.53938 45.42540 41.98239
#
# Velocity S-wave (km/s) = 3.95759 4.29663 4.13059
# Velocity P-wave (km/s) = 7.07978 7.40982 7.24668
#
# Compressibility (1/GPa) = 0.01389888
#
# Stress axis : x y z
#
# Youngs Moduli (GPa) = 90.32989 114.45078 98.51882
#
# Poissons Ratio (x) = 0.38762 0.34639
# Poissons Ratio (y) = 0.30593 0.11102
# Poissons Ratio (z) = 0.31760 0.12897
#
# Static dielectric constant tensor:
#      x y z
#    x 4.188650 0.066520 -0.238760 
#    y 0.066520 4.701230 -0.065590 
#    z -0.238760 -0.065590 4.198430 
# 
# 
# High freq. dielectric constant tensor:
#      x y z
#    x 1.985130 0.013240 -0.001160 
#    y 0.013240 1.991020 0.006730 
#    z -0.001160 0.006730 1.992730 
# 
# From -- ./inp_files/244269.got.cif
#   From: 2010.06.25/outbox.cif.g09.slc.cpg/sg2_123_cif.got.tgz:244269.got - 2010.06.27 13:26:56.
