data_PCOD8027702
_publ_section_title
;
Structure prediction by ZEFSAII (Michael W. Deem and Ramdas Pophale) SiO2 
 PCOD8027702
Probable space group: P -1
;
_chemical_formula_sum "Si O2"
_cell_formula_units_Z 16
_cell_length_a 11.321216
_cell_length_b 13.094573
_cell_length_c 9.328817
_cell_angle_alpha 74.482055
_cell_angle_beta 99.483938
_cell_angle_gamma 147.583191
_cell_volume 709.334747
_symmetry_space_group_name_H-M "P -1"
_symmetry_group_IT_number 2
_symmetry_cell_setting 'triclinic'
loop_
_space_group_symop_operation_xyz
x,y,z
-x,-y,-z
loop_
_atom_site_type_symbol
_atom_site_label
_atom_site_fract_x
_atom_site_fract_y
_atom_site_fract_z
Si Si1 0.505920 0.580364 0.264433
Si Si2 0.802721 0.782192 0.986819
Si Si3 0.902905 0.652603 0.874634
Si Si4 0.920179 0.529803 0.183747
Si Si5 0.560691 0.766688 0.746722
Si Si6 0.261830 0.200709 0.491747
Si Si7 0.706901 0.104839 0.677128
Si Si8 0.218854 0.809054 0.660983
O O1 0.655179 0.637790 0.148463
O O2 0.338496 0.541033 0.175396
O O3 0.351148 0.378578 0.384190
O O4 0.664261 0.757307 0.344071
O O5 0.905387 0.757941 0.936338
O O6 0.649405 0.732441 0.864789
O O7 0.000000 0.000000 0.000000
O O8 0.096926 0.806492 0.735710
O O9 0.949878 0.582466 0.003382
O O10 0.704550 0.430987 0.235299
O O11 0.897588 0.388376 0.250927
O O12 0.134418 0.728739 0.235834
O O13 0.635750 0.817195 0.576602
O O14 0.655590 0.945066 0.767767
O O15 0.000000 0.000000 0.500000
O O16 0.825094 0.198734 0.511122
O O17 0.480896 0.004631 0.671031
#
# Coordination Sequence:
#
# PCOD8027702 Si02
#       8
#     2   2   2   2   2   2   2   2
#     4  11  25  43  66  97 142 183 225 280 330 405
#     4  12  24  45  68 103 144 184 220 274 346 410
#     4  12  24  44  69 100 139 176 226 280 333 415
#     4  11  23  45  71  94 131 181 221 284 340 393
#     4  11  23  41  68 100 136 173 225 271 337 412
#     4  11  25  43  64 100 140 184 229 274 332 408
#     4  10  24  46  71  97 134 172 225 286 336 400
#     4  10  25  46  67  99 131 172 232 282 336 397
#
# _framework density 22.556346000000001
#
# number of rings (size 3 to 8) (size 9 to 14) (size 15 to 20)
#    0.000    1.000    2.500    3.375    3.500    1.500 
#    2.250    0.000    0.000    0.000    0.000    0.000 
#    0.000    0.000    0.000    0.000    0.000    0.000 
#
# Total GULP energy -198460.397853 kJ/mol
# GULP energy per Si atom -12403.774866 kJ/mol
# Density = 2.250501 g / cm^3
# Si number density = 22.556346 Si / 1000 Ang^3
#
#
#
# Elastic Constant Matrix: (Units=GPa)
#
#
# Indices 1 2 3 4 5 6 
#
# 1 55.8970 22.1436 28.0276 3.4375 -17.0425 2.3732
# 2 22.1436 148.2815 47.2749 19.8528 -6.6180 10.5118
# 3 28.0276 47.2749 133.9142 9.0229 -20.0167 12.1601
# 4 3.4375 19.8528 9.0229 40.6235 6.4847 0.6124
# 5 -17.0425 -6.6180 -20.0167 6.4847 48.5856 -8.5953
# 6 2.3732 10.5118 12.1601 0.6124 -8.5953 23.5924
#
#
#
# Elastic Compliance Matrix: (Units=1/GPa)
#
#
# Indices 1 2 3 4 5 6 
#
# 1 0.022336 -0.002065 -0.003070 -0.001354 0.006970 0.002830
# 2 -0.002065 0.008330 -0.002129 -0.003312 -0.000465 -0.002490
# 3 -0.003070 -0.002129 0.009523 -0.001125 0.002208 -0.002817
# 4 -0.001354 -0.003312 -0.001125 0.027422 -0.005118 -0.000385
# 5 0.006970 -0.000465 0.002208 -0.005118 0.025965 0.007960
# 6 0.002830 -0.002490 -0.002817 -0.000385 0.007960 0.047574
#
#
# Mechanical properties :
#
#
# Convention : Reuss Voigt Hill
#
# Bulk Modulus (GPa) = 38.96811 59.22053 49.09432
# Shear Modulus (GPa) = 30.44503 38.60342 34.52422
#
# Velocity S-wave (km/s) = 3.67786 4.14142 3.91650
# Velocity P-wave (km/s) = 5.94549 7.01284 6.50111
#
# Compressibility (1/GPa) = 0.02566201
#
# Stress axis : x y z
#
# Youngs Moduli (GPa) = 44.77165 120.04567 105.00661
#
# Poissons Ratio (x) = 0.24790 0.32233
# Poissons Ratio (y) = 0.09246 0.22354
# Poissons Ratio (z) = 0.13743 0.25556
#
# Static dielectric constant tensor:
#      x y z
#    x 4.042800 0.098990 0.005420 
#    y 0.098990 4.116830 0.014830 
#    z 0.005420 0.014830 4.461280 
# 
# 
# High freq. dielectric constant tensor:
#      x y z
#    x 1.882960 0.005310 -0.001700 
#    y 0.005310 1.895100 -0.003630 
#    z -0.001700 -0.003630 1.904330 
# 
# From -- ./inp_files/272941.got.cif
#   From: 2010.06.25/outbox.cif.g09.slc.cpg/sg2_137_cif.got.tgz:272941.got - 2010.06.27 13:26:56.
