data_PCOD8027812
_publ_section_title
;
Structure prediction by ZEFSAII (Michael W. Deem and Ramdas Pophale) SiO2 
 PCOD8027812
Probable space group: P -1
;
_chemical_formula_sum "Si O2"
_cell_formula_units_Z 16
_cell_length_a 14.821598
_cell_length_b 15.294779
_cell_length_c 8.105073
_cell_angle_alpha 79.895924
_cell_angle_beta 129.270568
_cell_angle_gamma 141.466082
_cell_volume 663.460296
_symmetry_space_group_name_H-M "P -1"
_symmetry_group_IT_number 2
_symmetry_cell_setting 'triclinic'
loop_
_space_group_symop_operation_xyz
x,y,z
-x,-y,-z
loop_
_atom_site_type_symbol
_atom_site_label
_atom_site_fract_x
_atom_site_fract_y
_atom_site_fract_z
Si Si1 0.968935 0.227791 0.849441
Si Si2 0.939083 0.253887 0.191969
Si Si3 0.761927 0.899687 0.764826
Si Si4 0.505769 0.590760 0.367702
Si Si5 0.414247 0.899542 0.606171
Si Si6 0.352942 0.205545 0.966772
Si Si7 0.831874 0.435548 0.463306
Si Si8 0.875688 0.797638 0.449755
O O1 0.808362 0.186519 0.563676
O O2 0.834358 0.043817 0.730354
O O3 0.994797 0.272583 0.057772
O O4 0.242864 0.415454 0.027624
O O5 0.009304 0.399449 0.280952
O O6 0.092894 0.287775 0.474694
O O7 0.644744 0.049241 0.948432
O O8 0.539560 0.704288 0.472740
O O9 0.666961 0.846937 0.857058
O O10 0.000000 0.000000 0.000000
O O11 0.500000 0.500000 0.500000
O O12 0.742069 0.744179 0.475444
O O13 0.301869 0.726109 0.520515
O O14 0.500000 0.000000 0.500000
O O15 0.296671 0.275719 0.872382
O O16 0.622392 0.357851 0.161084
O O17 0.148377 0.021778 0.675751
O O18 0.000000 0.500000 0.500000
#
# Coordination Sequence:
#
# PCOD8027812 Si02
#       8
#     2   2   2   2   2   2   2   2
#     4  11  23  40  70 104 135 177 229 287 344 413
#     4  11  22  48  72  96 142 185 230 292 357 416
#     4  12  21  42  69 105 141 182 225 290 354 413
#     4  12  22  39  68 103 143 174 227 279 345 423
#     4  10  24  47  70  98 136 180 239 287 348 413
#     4  11  23  45  70  98 148 177 232 286 353 426
#     4  12  28  47  71 101 140 193 240 289 350 420
#     4  11  23  43  70 104 135 188 221 283 367 417
#
# _framework density 24.115987000000001
#
# number of rings (size 3 to 8) (size 9 to 14) (size 15 to 20)
#    0.000    0.750    6.250    1.500    1.750    4.000 
#    2.250    0.000    0.000    0.000    0.000    0.000 
#    0.000    0.000    0.000    0.000    0.000    0.000 
#
# Total GULP energy -198269.074161 kJ/mol
# GULP energy per Si atom -12391.817135 kJ/mol
# Density = 2.406110 g / cm^3
# Si number density = 24.115987 Si / 1000 Ang^3
#
#
#
# Elastic Constant Matrix: (Units=GPa)
#
#
# Indices 1 2 3 4 5 6 
#
# 1 91.9126 36.1200 49.3766 14.2573 19.4441 -25.4384
# 2 36.1200 117.7272 50.9081 13.6131 -0.8474 -36.4196
# 3 49.3766 50.9081 125.2175 13.3060 43.3761 -20.4299
# 4 14.2573 13.6131 13.3060 37.8755 -10.9093 1.4153
# 5 19.4441 -0.8474 43.3761 -10.9093 44.1347 5.4224
# 6 -25.4384 -36.4196 -20.4299 1.4153 5.4224 45.7749
#
#
#
# Elastic Compliance Matrix: (Units=1/GPa)
#
#
# Indices 1 2 3 4 5 6 
#
# 1 0.018694 -0.001305 0.000827 -0.011109 -0.013249 0.011632
# 2 -0.001305 0.013659 -0.005462 -0.001326 0.004999 0.007153
# 3 0.000827 -0.005462 0.022532 -0.014530 -0.027418 0.009867
# 4 -0.011109 -0.001326 -0.014530 0.046368 0.032951 -0.019051
# 5 -0.013249 0.004999 -0.027418 0.032951 0.066697 -0.024542
# 6 0.011632 0.007153 0.009867 -0.019051 -0.024542 0.041902
#
#
# Mechanical properties :
#
#
# Convention : Reuss Voigt Hill
#
# Bulk Modulus (GPa) = 23.25360 67.51853 45.38606
# Shear Modulus (GPa) = 21.18038 38.78720 29.98379
#
# Velocity S-wave (km/s) = 2.96678 4.01479 3.52989
# Velocity P-wave (km/s) = 4.62591 7.03914 5.95603
#
# Compressibility (1/GPa) = 0.04300410
#
# Stress axis : x y z
#
# Youngs Moduli (GPa) = 53.49310 73.21311 44.38079
#
# Poissons Ratio (x) = 0.09558 -0.03670
# Poissons Ratio (y) = 0.06983 0.24240
# Poissons Ratio (z) = -0.04423 0.39988
#
# Static dielectric constant tensor:
#      x y z
#    x 3.999490 -2.090780 0.931860 
#    y -2.090780 -3.659180 1.456300 
#    z 0.931860 1.456300 5.208620 
# 
# 
# High freq. dielectric constant tensor:
#      x y z
#    x 1.938300 -0.013560 0.033810 
#    y -0.013560 1.967650 0.012800 
#    z 0.033810 0.012800 1.958580 
# 
# From -- ./inp_files/315146.got.cif
#   From: 2010.06.25/outbox.cif.g09.slc.cpg/sg2_158_cif.got.tgz:315146.got - 2010.06.27 13:26:56.
