data_PCOD8027094
_publ_section_title
;
Structure prediction by ZEFSAII (Michael W. Deem and Ramdas Pophale) SiO2 
 PCOD8027094
Probable space group: P -1
;
_chemical_formula_sum "Si O2"
_cell_formula_units_Z 16
_cell_length_a 8.890124
_cell_length_b 14.688392
_cell_length_c 11.626188
_cell_angle_alpha 115.129241
_cell_angle_beta 56.938703
_cell_angle_gamma 69.484080
_cell_volume 738.835958
_symmetry_space_group_name_H-M "P -1"
_symmetry_group_IT_number 2
_symmetry_cell_setting 'triclinic'
loop_
_space_group_symop_operation_xyz
x,y,z
-x,-y,-z
loop_
_atom_site_type_symbol
_atom_site_label
_atom_site_fract_x
_atom_site_fract_y
_atom_site_fract_z
Si Si1 0.386130 0.786779 0.948169
Si Si2 0.218861 0.378615 0.097822
Si Si3 0.102592 0.149765 0.769121
Si Si4 0.248859 0.064143 0.212155
Si Si5 0.600758 0.601605 0.552992
Si Si6 0.346034 0.624728 0.459016
Si Si7 0.840929 0.470570 0.004006
Si Si8 0.531679 0.052615 0.696239
O O1 0.642886 0.657901 0.857765
O O2 0.514609 0.735649 0.737520
O O3 0.177689 0.783114 0.039485
O O4 0.219351 0.958987 0.140816
O O5 0.901141 0.481070 0.303864
O O6 0.237151 0.472353 0.065306
O O7 0.378854 0.222201 0.879352
O O8 0.308130 0.067200 0.749677
O O9 0.240807 0.026828 0.541727
O O10 0.046193 0.287328 0.823266
O O11 0.964627 0.240519 0.389984
O O12 0.312116 0.057599 0.316019
O O13 0.500000 0.000000 0.000000
O O14 0.373995 0.685039 0.591048
O O15 0.589393 0.515260 0.602107
O O16 0.558745 0.569359 0.243341
O O17 0.000000 0.500000 0.000000
#
# Coordination Sequence:
#
# PCOD8027094 Si02
#       8
#     2   2   2   2   2   2   2   2
#     4  11  26  42  70  97 135 174 226 275 336 395
#     4  11  24  43  70  98 137 178 218 280 340 393
#     4  11  24  44  67 101 129 181 220 278 329 401
#     4  11  27  46  66  98 135 180 223 278 333 402
#     4  11  23  45  69 100 135 178 220 275 340 404
#     4  11  24  41  73  97 136 178 223 276 340 396
#     4  12  23  42  69 104 133 172 229 278 333 397
#     4  10  24  44  67  91 143 174 220 268 344 392
#
# _framework density 21.655688000000001
#
# number of rings (size 3 to 8) (size 9 to 14) (size 15 to 20)
#    0.000    1.000    3.750    1.875    7.000    4.000 
#    0.000    0.000    0.000    0.000    0.000    0.000 
#    0.000    0.000    0.000    0.000    0.000    0.000 
#
# Total GULP energy -198450.794712 kJ/mol
# GULP energy per Si atom -12403.174669 kJ/mol
# Density = 2.160640 g / cm^3
# Si number density = 21.655688 Si / 1000 Ang^3
#
#
#
# Elastic Constant Matrix: (Units=GPa)
#
#
# Indices 1 2 3 4 5 6 
#
# 1 102.5754 40.3984 50.3466 -5.1904 -2.4326 -22.9036
# 2 40.3984 80.7017 24.6324 -18.0619 -7.5591 -8.2362
# 3 50.3466 24.6324 122.0131 -17.0682 -2.6709 -8.1025
# 4 -5.1904 -18.0619 -17.0682 26.3552 -1.9439 -3.1238
# 5 -2.4326 -7.5591 -2.6709 -1.9439 43.5486 -5.8739
# 6 -22.9036 -8.2362 -8.1025 -3.1238 -5.8739 42.8934
#
#
#
# Elastic Compliance Matrix: (Units=1/GPa)
#
#
# Indices 1 2 3 4 5 6 
#
# 1 0.016281 -0.006813 -0.005550 -0.004343 0.000005 0.006021
# 2 -0.006813 0.018856 0.000965 0.012671 0.003733 0.001599
# 3 -0.005550 0.000965 0.011278 0.006932 0.000855 -0.000026
# 4 -0.004343 0.012671 0.006932 0.051365 0.005472 0.005913
# 5 0.000005 0.003733 0.000855 0.005472 0.024533 0.004639
# 6 0.006021 0.001599 -0.000026 0.005913 0.004639 0.027897
#
#
# Mechanical properties :
#
#
# Convention : Reuss Voigt Hill
#
# Bulk Modulus (GPa) = 42.34042 59.56056 50.95049
# Shear Modulus (GPa) = 27.64253 35.22028 31.43140
#
# Velocity S-wave (km/s) = 3.57663 4.03721 3.81388
# Velocity P-wave (km/s) = 6.05396 7.02106 6.55537
#
# Compressibility (1/GPa) = 0.02361809
#
# Stress axis : x y z
#
# Youngs Moduli (GPa) = 61.41999 53.03339 88.66832
#
# Poissons Ratio (x) = 0.36133 0.49214
# Poissons Ratio (y) = 0.41847 -0.08557
# Poissons Ratio (z) = 0.34090 -0.05118
#
# Static dielectric constant tensor:
#      x y z
#    x 4.058990 -0.157830 0.156050 
#    y -0.157830 4.495670 0.335800 
#    z 0.156050 0.335800 4.258130 
# 
# 
# High freq. dielectric constant tensor:
#      x y z
#    x 1.858930 -0.012340 0.000910 
#    y -0.012340 1.846240 -0.007630 
#    z 0.000910 -0.007630 1.861220 
# 
# From -- ./inp_files/297818.got.cif
#   From: 2010.06.25/outbox.cif.g09.slc.cpg/sg2_149_cif.got.tgz:297818.got - 2010.06.27 13:26:56.
