data_PCOD8027212
_publ_section_title
;
Structure prediction by ZEFSAII (Michael W. Deem and Ramdas Pophale) SiO2 
 PCOD8027212
Probable space group: P -1
;
_chemical_formula_sum "Si O2"
_cell_formula_units_Z 14
_cell_length_a 12.906486
_cell_length_b 18.079524
_cell_length_c 9.557968
_cell_angle_alpha 135.939750
_cell_angle_beta 144.324953
_cell_angle_gamma 28.419833
_cell_volume 618.958593
_symmetry_space_group_name_H-M "P -1"
_symmetry_group_IT_number 2
_symmetry_cell_setting 'triclinic'
loop_
_space_group_symop_operation_xyz
x,y,z
-x,-y,-z
loop_
_atom_site_type_symbol
_atom_site_label
_atom_site_fract_x
_atom_site_fract_y
_atom_site_fract_z
Si Si1 0.781606 0.827642 0.087942
Si Si2 0.054395 0.726432 0.539491
Si Si3 0.968987 0.105534 0.725737
Si Si4 0.567277 0.437287 0.828035
Si Si5 0.019538 0.395824 0.208569
Si Si6 0.202217 0.899778 0.963010
Si Si7 0.770534 0.720651 0.428934
O O1 0.886821 0.769461 0.279477
O O2 0.960900 0.818759 0.173393
O O3 0.809373 0.699354 0.873399
O O4 0.500000 0.000000 0.000000
O O5 0.306925 0.543820 0.594071
O O6 0.166643 0.794514 0.734137
O O7 0.851985 0.794317 0.538275
O O8 0.693910 0.262701 0.709645
O O9 0.000000 0.000000 0.500000
O O10 0.154284 0.995530 0.907583
O O11 0.500000 0.500000 0.000000
O O12 0.744311 0.455638 0.989348
O O13 0.975999 0.540633 0.363664
O O14 0.199151 0.273351 0.365320
O O15 0.483380 0.806894 0.199913
O O16 0.000000 0.000000 0.000000
#
# Coordination Sequence:
#
# PCOD8027212 Si02
#       7
#     2   2   2   2   2   2   2
#     4  11  26  46  68 102 147 187 234 294 362 427
#     4  12  25  45  76 104 138 194 238 291 358 427
#     4  11  25  45  69 104 145 187 233 299 365 421
#     4  11  22  45  74 104 141 187 246 291 358 432
#     4  10  24  44  70 102 143 186 233 301 354 421
#     4  12  27  44  72 108 142 189 241 298 359 427
#     4  11  25  44  71 105 140 182 246 290 350 429
#
# _framework density 22.618639000000002
#
# number of rings (size 3 to 8) (size 9 to 14) (size 15 to 20)
#    0.000    0.857    4.286    1.714    4.000    5.714 
#    0.000    0.000    0.000    0.000    0.000    0.000 
#    0.000    0.000    0.000    0.000    0.000    0.000 
#
# Total GULP energy -173453.705034 kJ/mol
# GULP energy per Si atom -12389.550360 kJ/mol
# Density = 2.256716 g / cm^3
# Si number density = 22.618639 Si / 1000 Ang^3
#
#
#
# Elastic Constant Matrix: (Units=GPa)
#
#
# Indices 1 2 3 4 5 6 
#
# 1 66.8520 19.8641 22.2590 -16.8100 -16.3196 5.7652
# 2 19.8641 119.3659 46.5038 -10.0781 -26.4813 -15.2889
# 3 22.2590 46.5038 112.9689 -28.4995 -28.5491 -4.6938
# 4 -16.8100 -10.0781 -28.4995 38.6837 15.2501 -11.2259
# 5 -16.3196 -26.4813 -28.5491 15.2501 36.8432 4.6292
# 6 5.7652 -15.2889 -4.6938 -11.2259 4.6292 35.3998
#
#
#
# Elastic Compliance Matrix: (Units=1/GPa)
#
#
# Indices 1 2 3 4 5 6 
#
# 1 0.018220 -0.001700 -0.000739 0.004036 0.005004 -0.003174
# 2 -0.001700 0.011401 -0.003205 -0.000929 0.004860 0.003846
# 3 -0.000739 -0.003205 0.013461 0.007781 0.004273 0.002430
# 4 0.004036 -0.000929 0.007781 0.042259 -0.012224 0.014973
# 5 0.005004 0.004860 0.004273 -0.012224 0.042170 -0.007540
# 6 -0.003174 0.003846 0.002430 0.014973 -0.007540 0.036483
#
#
# Mechanical properties :
#
#
# Convention : Reuss Voigt Hill
#
# Bulk Modulus (GPa) = 31.45215 52.93784 42.19500
# Shear Modulus (GPa) = 26.89909 36.22267 31.56088
#
# Velocity S-wave (km/s) = 3.45228 4.00616 3.73949
# Velocity P-wave (km/s) = 5.46137 6.69734 6.11069
#
# Compressibility (1/GPa) = 0.03179433
#
# Stress axis : x y z
#
# Youngs Moduli (GPa) = 54.88543 87.70890 74.28887
#
# Poissons Ratio (x) = 0.14907 0.05493
# Poissons Ratio (y) = 0.09328 0.23809
# Poissons Ratio (z) = 0.04058 0.28110
#
# Static dielectric constant tensor:
#      x y z
#    x 4.447130 0.000620 -0.138520 
#    y 0.000620 4.719320 0.223210 
#    z -0.138520 0.223210 4.012940 
# 
# 
# High freq. dielectric constant tensor:
#      x y z
#    x 1.894000 0.000260 -0.005520 
#    y 0.000260 1.903720 -0.000860 
#    z -0.005520 -0.000860 1.894540 
# 
# From -- ./inp_files/238018.got.cif
#   From: 2010.06.25/outbox.cif.g09.slc.cpg/sg2_120_cif.got.tgz:238018.got - 2010.06.27 13:26:56.
