data_PCOD8027914
_publ_section_title
;
Structure prediction by ZEFSAII (Michael W. Deem and Ramdas Pophale) SiO2 
 PCOD8027914
Probable space group: P -1
;
_chemical_formula_sum "Si O2"
_cell_formula_units_Z 12
_cell_length_a 14.186472
_cell_length_b 4.761116
_cell_length_c 8.390563
_cell_angle_alpha 97.858117
_cell_angle_beta 128.448739
_cell_angle_gamma 68.562195
_cell_volume 409.934457
_symmetry_space_group_name_H-M "P -1"
_symmetry_group_IT_number 2
_symmetry_cell_setting 'triclinic'
loop_
_space_group_symop_operation_xyz
x,y,z
-x,-y,-z
loop_
_atom_site_type_symbol
_atom_site_label
_atom_site_fract_x
_atom_site_fract_y
_atom_site_fract_z
Si Si1 0.708722 0.435045 0.718602
Si Si2 0.783952 0.479676 0.263387
Si Si3 0.933908 0.060797 0.132577
Si Si4 0.517530 0.381519 0.279125
Si Si5 0.608569 0.100519 0.039221
Si Si6 0.889567 0.603655 0.706839
O O1 0.656287 0.288884 0.504422
O O2 0.584925 0.651748 0.703157
O O3 0.790136 0.626065 0.746491
O O4 0.798034 0.169512 0.906409
O O5 0.909285 0.244085 0.288756
O O6 0.689384 0.306676 0.200723
O O7 0.822198 0.631840 0.467895
O O8 0.708114 0.758120 0.084204
O O9 0.053249 0.129136 0.178258
O O10 0.983321 0.702428 0.181626
O O11 0.523673 0.136699 0.122649
O O12 0.472367 0.726263 0.187131
#
# Coordination Sequence:
#
# PCOD8027914 Si02
#       6
#     2   2   2   2   2   2
#     4  11  24  48  73 109 145 193 232 297 365 428
#     4  12  24  48  76 105 143 186 248 291 353 421
#     4  12  26  48  73 108 146 189 239 294 356 427
#     4  10  24  48  78 104 146 188 242 296 358 426
#     4  11  24  49  74 107 141 188 241 299 348 422
#     4  12  26  48  73 108 146 189 239 294 356 427
#
# _framework density 29.272970999999998
#
# number of rings (size 3 to 8) (size 9 to 14) (size 15 to 20)
#    0.000    0.667    3.333    4.000    0.000    2.667 
#    0.000    1.667    0.000    0.000    0.000    0.000 
#    0.000    0.000    0.000    0.000    0.000    0.000 
#
# Total GULP energy -148889.566824 kJ/mol
# GULP energy per Si atom -12407.463902 kJ/mol
# Density = 2.920634 g / cm^3
# Si number density = 29.272971 Si / 1000 Ang^3
#
#
#
# Elastic Constant Matrix: (Units=GPa)
#
#
# Indices 1 2 3 4 5 6 
#
# 1 92.8028 2.6479 18.0831 1.6092 2.2554 -7.2483
# 2 2.6479 105.4067 16.3883 4.0832 2.8069 7.9823
# 3 18.0831 16.3883 145.4749 10.1806 16.7459 24.2807
# 4 1.6092 4.0832 10.1806 38.4260 4.8439 -0.3618
# 5 2.2554 2.8069 16.7459 4.8439 49.6700 9.8930
# 6 -7.2483 7.9823 24.2807 -0.3618 9.8930 28.7412
#
#
#
# Elastic Compliance Matrix: (Units=1/GPa)
#
#
# Indices 1 2 3 4 5 6 
#
# 1 0.011632 -0.000331 -0.002196 0.000283 -0.000826 0.005168
# 2 -0.000331 0.009802 -0.000632 -0.000912 0.000234 -0.002364
# 3 -0.002196 -0.000632 0.008727 -0.002080 -0.001133 -0.007387
# 4 0.000283 -0.000912 -0.002080 0.027013 -0.002552 0.003300
# 5 -0.000826 0.000234 -0.001133 -0.002552 0.022179 -0.006983
# 6 0.005168 -0.002364 -0.007387 0.003300 -0.006983 0.045439
#
#
# Mechanical properties :
#
#
# Convention : Reuss Voigt Hill
#
# Bulk Modulus (GPa) = 41.94034 46.43590 44.18812
# Shear Modulus (GPa) = 35.95666 43.80510 39.88088
#
# Velocity S-wave (km/s) = 3.50855 3.87258 3.69505
# Velocity P-wave (km/s) = 5.54722 5.99110 5.77343
#
# Compressibility (1/GPa) = 0.02384339
#
# Stress axis : x y z
#
# Youngs Moduli (GPa) = 85.97186 102.02295 114.58589
#
# Poissons Ratio (x) = 0.03378 0.25162
# Poissons Ratio (y) = 0.02847 0.07236
# Poissons Ratio (z) = 0.18879 0.06443
#
# Static dielectric constant tensor:
#      x y z
#    x 5.873470 0.086010 0.072480 
#    y 0.086010 5.228770 0.185550 
#    z 0.072480 0.185550 5.586140 
# 
# 
# High freq. dielectric constant tensor:
#      x y z
#    x 2.216910 0.000300 0.007000 
#    y 0.000300 2.191410 0.018390 
#    z 0.007000 0.018390 2.208860 
# 
# From -- ./inp_files/286329.got.cif
#   From: 2010.06.25/outbox.cif.g09.slc.cpg/sg2_144_cif.got.tgz:286329.got - 2010.06.27 13:26:56.
