data_PCOD8027957
_publ_section_title
;
Structure prediction by ZEFSAII (Michael W. Deem and Ramdas Pophale) SiO2 
 PCOD8027957
Probable space group: P -1
;
_chemical_formula_sum "Si O2"
_cell_formula_units_Z 10
_cell_length_a 8.710735
_cell_length_b 8.277418
_cell_length_c 7.695208
_cell_angle_alpha 63.530182
_cell_angle_beta 55.015591
_cell_angle_gamma 94.736596
_cell_volume 361.104117
_symmetry_space_group_name_H-M "P -1"
_symmetry_group_IT_number 2
_symmetry_cell_setting 'triclinic'
loop_
_space_group_symop_operation_xyz
x,y,z
-x,-y,-z
loop_
_atom_site_type_symbol
_atom_site_label
_atom_site_fract_x
_atom_site_fract_y
_atom_site_fract_z
Si Si1 0.584548 0.245224 0.240877
Si Si2 0.400236 0.738632 0.392456
Si Si3 0.866609 0.264991 0.736367
Si Si4 0.102220 0.033406 0.603408
Si Si5 0.762964 0.645030 0.120257
O O1 0.581523 0.149664 0.483879
O O2 0.349997 0.155048 0.364768
O O3 0.677836 0.490467 0.085136
O O4 0.726010 0.203242 0.030522
O O5 0.293478 0.824850 0.282552
O O6 0.630775 0.773326 0.163348
O O7 0.259217 0.492090 0.628541
O O8 0.000000 0.500000 0.500000
O O9 0.022339 0.166522 0.705053
O O10 0.000000 0.000000 0.500000
O O11 0.009408 0.806376 0.857955
#
# Coordination Sequence:
#
# PCOD8027957 Si02
#       5
#     2   2   2   2   2
#     4  10  24  50  75 100 148 191 234 293 361 423
#     4   9  22  47  75 102 146 190 238 291 356 431
#     4  12  26  46  77 109 141 189 243 295 356 423
#     4  12  26  45  77 108 142 190 240 295 358 423
#     4   9  21  47  74 100 145 191 235 288 360 422
#
# _framework density 27.692844000000001
#
# number of rings (size 3 to 8) (size 9 to 14) (size 15 to 20)
#    1.200    0.400    0.000    3.600    0.000    7.200 
#    0.000    6.000    0.000    0.000    0.000    0.000 
#    0.000    0.000    0.000    0.000    0.000    0.000 
#
# Total GULP energy -124000.709932 kJ/mol
# GULP energy per Si atom -12400.070993 kJ/mol
# Density = 2.762981 g / cm^3
# Si number density = 27.692844 Si / 1000 Ang^3
#
#
#
# Elastic Constant Matrix: (Units=GPa)
#
#
# Indices 1 2 3 4 5 6 
#
# 1 72.8747 39.1296 13.5176 11.9386 0.6194 7.3857
# 2 39.1296 115.6623 44.6613 27.2973 -17.2574 13.2912
# 3 13.5176 44.6613 154.2985 3.0938 -20.6939 4.6788
# 4 11.9386 27.2973 3.0938 60.7320 3.9544 1.9860
# 5 0.6194 -17.2574 -20.6939 3.9544 38.1533 9.7742
# 6 7.3857 13.2912 4.6788 1.9860 9.7742 46.6493
#
#
#
# Elastic Compliance Matrix: (Units=1/GPa)
#
#
# Indices 1 2 3 4 5 6 
#
# 1 0.017120 -0.006039 -0.000128 -0.000442 -0.002945 -0.000341
# 2 -0.006039 0.014454 -0.002492 -0.005498 0.006911 -0.004126
# 3 -0.000128 -0.002492 0.007646 0.000575 0.003147 -0.000720
# 4 -0.000442 -0.005498 0.000575 0.019238 -0.004604 0.001724
# 5 -0.002945 0.006911 0.003147 -0.004604 0.033797 -0.008704
# 6 -0.000341 -0.004126 -0.000720 0.001724 -0.008704 0.024489
#
#
# Mechanical properties :
#
#
# Convention : Reuss Voigt Hill
#
# Bulk Modulus (GPa) = 45.65688 59.71692 52.68690
# Shear Modulus (GPa) = 35.37008 45.47539 40.42273
#
# Velocity S-wave (km/s) = 3.57771 4.05672 3.82472
# Velocity P-wave (km/s) = 5.79563 6.59951 6.21059
#
# Compressibility (1/GPa) = 0.02190251
#
# Stress axis : x y z
#
# Youngs Moduli (GPa) = 58.41036 69.18528 130.78870
#
# Poissons Ratio (x) = 0.41778 0.01672
# Poissons Ratio (y) = 0.35271 0.32598
# Poissons Ratio (z) = 0.00747 0.17244
#
# Static dielectric constant tensor:
#      x y z
#    x 4.808180 0.031450 -0.018430 
#    y 0.031450 5.295490 -0.096670 
#    z -0.018430 -0.096670 5.343030 
# 
# 
# High freq. dielectric constant tensor:
#      x y z
#    x 2.102380 0.002960 -0.005060 
#    y 0.002960 2.137520 -0.006480 
#    z -0.005060 -0.006480 2.133080 
# 
# From -- ./inp_files/145232.got.cif
#   From: 2010.06.25/outbox.cif.g09.slc.cpg/sg2_73_cif.got.tgz:145232.got - 2010.06.27 13:26:56.
