data_PCOD8027099
_publ_section_title
;
Structure prediction by ZEFSAII (Michael W. Deem and Ramdas Pophale) SiO2 
 PCOD8027099
Probable space group: P -1
;
_chemical_formula_sum "Si O2"
_cell_formula_units_Z 14
_cell_length_a 15.214779
_cell_length_b 21.375653
_cell_length_c 12.524645
_cell_angle_alpha 30.326613
_cell_angle_beta 29.041032
_cell_angle_gamma 20.218059
_cell_volume 660.790714
_symmetry_space_group_name_H-M "P -1"
_symmetry_group_IT_number 2
_symmetry_cell_setting 'triclinic'
loop_
_space_group_symop_operation_xyz
x,y,z
-x,-y,-z
loop_
_atom_site_type_symbol
_atom_site_label
_atom_site_fract_x
_atom_site_fract_y
_atom_site_fract_z
Si Si1 0.272666 0.783254 0.005746
Si Si2 0.996370 0.718392 0.497793
Si Si3 0.295015 0.152367 0.899711
Si Si4 0.300401 0.921519 0.577898
Si Si5 0.108879 0.984918 0.292855
Si Si6 0.795569 0.567552 0.904191
Si Si7 0.376995 0.433463 0.692258
O O1 0.167776 0.694843 0.254104
O O2 0.399229 0.762147 0.789276
O O3 0.505537 0.673587 0.009471
O O4 0.000000 0.000000 0.000000
O O5 0.197716 0.539483 0.622366
O O6 0.803830 0.711543 0.661207
O O7 0.832750 0.900339 0.474907
O O8 0.452867 0.148881 0.647455
O O9 0.058451 0.363808 0.879186
O O10 0.500000 0.000000 0.000000
O O11 0.141761 0.115926 0.060891
O O12 0.088243 0.963180 0.665404
O O13 0.400736 0.778389 0.266708
O O14 0.000000 0.000000 0.500000
O O15 0.801955 0.533537 0.072498
O O16 0.500000 0.500000 0.500000
#
# Coordination Sequence:
#
# PCOD8027099 Si02
#       7
#     2   2   2   2   2   2   2
#     4  10  24  44  67  95 131 173 225 271 324 391
#     4  11  23  41  70  98 130 167 224 274 324 390
#     4  12  25  42  66  98 137 171 214 267 334 395
#     4  11  24  43  64  97 129 173 219 267 330 390
#     4  12  24  41  68  93 135 172 211 275 337 383
#     4  12  25  42  69 100 132 174 220 272 328 390
#     4  12  20  40  69  99 128 167 220 274 329 381
#
# _framework density 21.186737999999998
#
# number of rings (size 3 to 8) (size 9 to 14) (size 15 to 20)
#    0.000    0.571    4.286    4.714    0.000    4.000 
#    0.000    1.429    0.000    0.000    0.000    0.000 
#    0.000    0.000    0.000    0.000    0.000    0.000 
#
# Total GULP energy -173570.630142 kJ/mol
# GULP energy per Si atom -12397.902153 kJ/mol
# Density = 2.113852 g / cm^3
# Si number density = 21.186738 Si / 1000 Ang^3
#
#
#
# Elastic Constant Matrix: (Units=GPa)
#
#
# Indices 1 2 3 4 5 6 
#
# 1 166.4345 -54.0053 103.4636 1.1990 -50.8552 3.3458
# 2 -54.0053 187.4906 4.8046 6.8584 39.3870 23.9689
# 3 103.4636 4.8046 240.5425 16.7961 -19.1063 9.6066
# 4 1.1990 6.8584 16.7961 31.5803 0.3791 1.5774
# 5 -50.8552 39.3870 -19.1063 0.3791 67.2013 1.1307
# 6 3.3458 23.9689 9.6066 1.5774 1.1307 36.6296
#
#
#
# Elastic Compliance Matrix: (Units=1/GPa)
#
#
# Indices 1 2 3 4 5 6 
#
# 1 0.011430 0.002290 -0.004521 0.001481 0.006040 -0.001607
# 2 0.002290 0.007199 -0.001109 -0.000803 -0.002721 -0.004511
# 3 -0.004521 -0.001109 0.006263 -0.002889 -0.000969 -0.000350
# 4 0.001481 -0.000803 -0.002889 0.033328 0.000587 -0.000306
# 5 0.006040 -0.002721 -0.000969 0.000587 0.020754 0.000817
# 6 -0.001607 -0.004511 -0.000350 -0.000306 0.000817 0.030478
#
#
# Mechanical properties :
#
#
# Convention : Reuss Voigt Hill
#
# Bulk Modulus (GPa) = 54.90808 78.11040 66.50924
# Shear Modulus (GPa) = 40.91551 63.09590 52.00571
#
# Velocity S-wave (km/s) = 4.39929 5.46310 4.95980
# Velocity P-wave (km/s) = 7.19566 8.76023 8.01621
#
# Compressibility (1/GPa) = 0.01821225
#
# Stress axis : x y z
#
# Youngs Moduli (GPa) = 87.49276 138.89963 159.66963
#
# Poissons Ratio (x) = -0.31814 0.72192
# Poissons Ratio (y) = -0.20040 0.17706
# Poissons Ratio (z) = 0.39559 0.15403
#
# Static dielectric constant tensor:
#      x y z
#    x 4.100600 -0.019810 0.018410 
#    y -0.019810 3.782480 0.034560 
#    z 0.018410 0.034560 4.634340 
# 
# 
# High freq. dielectric constant tensor:
#      x y z
#    x 1.826670 -0.002850 -0.007140 
#    y -0.002850 1.826550 0.005740 
#    z -0.007140 0.005740 1.860940 
# 
# From -- ./inp_files/183733.got.cif
#   From: 2010.06.25/outbox.cif.g09.slc.cpg/sg2_92_cif.got.tgz:183733.got - 2010.06.27 13:26:56.
