data_PCOD8027774
_publ_section_title
;
Structure prediction by ZEFSAII (Michael W. Deem and Ramdas Pophale) SiO2 
 PCOD8027774
Probable space group: P -1
;
_chemical_formula_sum "Si O2"
_cell_formula_units_Z 16
_cell_length_a 14.893108
_cell_length_b 12.350284
_cell_length_c 11.430082
_cell_angle_alpha 95.594112
_cell_angle_beta 117.138710
_cell_angle_gamma 30.549295
_cell_volume 720.239104
_symmetry_space_group_name_H-M "P -1"
_symmetry_group_IT_number 2
_symmetry_cell_setting 'triclinic'
loop_
_space_group_symop_operation_xyz
x,y,z
-x,-y,-z
loop_
_atom_site_type_symbol
_atom_site_label
_atom_site_fract_x
_atom_site_fract_y
_atom_site_fract_z
Si Si1 0.867750 0.247527 0.949553
Si Si2 0.703112 0.506701 0.481649
Si Si3 0.926952 0.834145 0.142600
Si Si4 0.417759 0.455887 0.957528
Si Si5 0.867504 0.598511 0.805944
Si Si6 0.005505 0.194589 0.416399
Si Si7 0.593401 0.383689 0.414562
Si Si8 0.655392 0.979750 0.551487
O O1 0.801560 0.348290 0.052546
O O2 0.589850 0.517605 0.750969
O O3 0.051722 0.151257 0.980300
O O4 0.000000 0.000000 0.000000
O O5 0.940092 0.310460 0.517408
O O6 0.593558 0.501651 0.364015
O O7 0.482552 0.817173 0.402485
O O8 0.826147 0.356877 0.665935
O O9 0.946207 0.685108 0.153718
O O10 0.674089 0.128423 0.090960
O O11 0.500000 0.500000 0.000000
O O12 0.284775 0.536749 0.774573
O O13 0.559535 0.865256 0.645807
O O14 0.864320 0.694480 0.713425
O O15 0.000000 0.500000 0.000000
O O16 0.128067 0.951986 0.461190
O O17 0.181226 0.104012 0.441873
O O18 0.500000 0.500000 0.500000
#
# Coordination Sequence:
#
# PCOD8027774 Si02
#       8
#     2   2   2   2   2   2   2   2
#     4  12  24  39  65  94 136 177 219 273 324 407
#     4  11  23  41  68  93 136 174 218 279 334 402
#     4  11  24  44  64  99 130 174 224 276 343 395
#     4  12  25  40  63 101 141 175 218 266 329 410
#     4  10  24  46  78  95 132 179 228 296 346 399
#     4  12  25  41  67  98 137 181 219 275 336 404
#     4  12  20  39  63  95 132 179 218 263 332 403
#     4  10  24  48  69 102 130 174 236 282 346 405
#
# _framework density 22.214843999999999
#
# number of rings (size 3 to 8) (size 9 to 14) (size 15 to 20)
#    0.000    0.750    3.750    4.125    3.500    0.000 
#    0.000    7.500    0.000    0.000    0.000    0.000 
#    0.000    0.000    0.000    0.000    0.000    0.000 
#
# Total GULP energy -198223.802431 kJ/mol
# GULP energy per Si atom -12388.987652 kJ/mol
# Density = 2.216428 g / cm^3
# Si number density = 22.214844 Si / 1000 Ang^3
#
#
#
# Elastic Constant Matrix: (Units=GPa)
#
#
# Indices 1 2 3 4 5 6 
#
# 1 114.4579 74.2919 21.5457 -0.2444 -11.1825 1.9237
# 2 74.2919 141.9877 8.9730 -15.2097 -20.3884 -2.0250
# 3 21.5457 8.9730 88.1778 0.8744 -3.5914 12.3914
# 4 -0.2444 -15.2097 0.8744 32.0667 6.0027 -9.1836
# 5 -11.1825 -20.3884 -3.5914 6.0027 31.7849 -0.3239
# 6 1.9237 -2.0250 12.3914 -9.1836 -0.3239 42.4678
#
#
#
# Elastic Compliance Matrix: (Units=1/GPa)
#
#
# Indices 1 2 3 4 5 6 
#
# 1 0.014226 -0.007639 -0.002481 -0.003869 0.000544 -0.001117
# 2 -0.007639 0.012233 0.000453 0.005528 0.004187 0.002025
# 3 -0.002481 0.000453 0.012494 -0.001436 0.001062 -0.003814
# 4 -0.003869 0.005528 -0.001436 0.037283 -0.004928 0.008883
# 5 0.000544 0.004187 0.001062 -0.004928 0.035380 -0.000931
# 6 -0.001117 0.002025 -0.003814 0.008883 -0.000931 0.026721
#
#
# Mechanical properties :
#
#
# Convention : Reuss Voigt Hill
#
# Bulk Modulus (GPa) = 50.97013 61.58272 56.27642
# Shear Modulus (GPa) = 30.44863 37.25142 33.85003
#
# Velocity S-wave (km/s) = 3.70624 4.09940 3.90777
# Velocity P-wave (km/s) = 6.42720 7.08438 6.76378
#
# Compressibility (1/GPa) = 0.01961934
#
# Stress axis : x y z
#
# Youngs Moduli (GPa) = 70.29562 81.74385 80.03618
#
# Poissons Ratio (x) = 0.62442 0.19858
# Poissons Ratio (y) = 0.53697 -0.03624
# Poissons Ratio (z) = 0.17441 -0.03702
#
# Static dielectric constant tensor:
#      x y z
#    x 4.091790 0.106500 -0.225630 
#    y 0.106500 3.969460 0.074470 
#    z -0.225630 0.074470 4.586270 
# 
# 
# High freq. dielectric constant tensor:
#      x y z
#    x 1.864480 -0.001000 -0.008980 
#    y -0.001000 1.875040 -0.003040 
#    z -0.008980 -0.003040 1.883490 
# 
# From -- ./inp_files/255812.got.cif
#   From: 2010.06.25/outbox.cif.g09.slc.cpg/sg2_128_cif.got.tgz:255812.got - 2010.06.27 13:26:56.
