data_PCOD8027693
_publ_section_title
;
Structure prediction by ZEFSAII (Michael W. Deem and Ramdas Pophale) SiO2 
 PCOD8027693
Probable space group: P -1
;
_chemical_formula_sum "Si O2"
_cell_formula_units_Z 16
_cell_length_a 12.128906
_cell_length_b 11.240409
_cell_length_c 11.024514
_cell_angle_alpha 99.037178
_cell_angle_beta 107.969989
_cell_angle_gamma 140.681950
_cell_volume 683.237675
_symmetry_space_group_name_H-M "P -1"
_symmetry_group_IT_number 2
_symmetry_cell_setting 'triclinic'
loop_
_space_group_symop_operation_xyz
x,y,z
-x,-y,-z
loop_
_atom_site_type_symbol
_atom_site_label
_atom_site_fract_x
_atom_site_fract_y
_atom_site_fract_z
Si Si1 0.502293 0.565300 0.706535
Si Si2 0.544567 0.221372 0.855438
Si Si3 0.661088 0.144994 0.694820
Si Si4 0.835737 0.358481 0.160051
Si Si5 0.294098 0.370975 0.985595
Si Si6 0.155676 0.163343 0.344407
Si Si7 0.644553 0.306576 0.323965
Si Si8 0.960335 0.239856 0.296183
O O1 0.675661 0.653612 0.872105
O O2 0.255992 0.269607 0.535095
O O3 0.636562 0.701612 0.646711
O O4 0.445610 0.646857 0.752407
O O5 0.628267 0.247985 0.758378
O O6 0.693127 0.474789 0.978870
O O7 0.260428 0.988836 0.724054
O O8 0.603785 0.174483 0.970181
O O9 0.935306 0.371345 0.785118
O O10 0.500000 0.000000 0.500000
O O11 0.575625 0.968341 0.736495
O O12 0.789170 0.366315 0.280097
O O13 0.873889 0.248508 0.159471
O O14 0.500000 0.500000 0.000000
O O15 0.056192 0.125010 0.789454
O O16 0.059191 0.204829 0.270251
O O17 0.831722 0.498679 0.525036
#
# Coordination Sequence:
#
# PCOD8027693 Si02
#       8
#     2   2   2   2   2   2   2   2
#     4  10  25  46  73 101 139 191 238 297 353 427
#     4  12  27  44  67 106 145 185 237 291 359 427
#     4  12  26  45  71 106 140 185 236 292 356 427
#     4  12  25  45  71 102 147 182 232 294 357 421
#     4  12  25  46  67 104 143 185 238 292 352 422
#     4  10  24  46  71 102 135 188 241 289 356 419
#     4  11  24  46  73 104 140 187 237 290 363 424
#     4  11  22  45  71  99 140 186 231 290 357 426
#
# _framework density 23.417911
#
# number of rings (size 3 to 8) (size 9 to 14) (size 15 to 20)
#    0.000    0.750    3.750    3.000    3.500    1.500 
#    2.250    0.000    0.000    0.000    0.000    0.000 
#    0.000    0.000    0.000    0.000    0.000    0.000 
#
# Total GULP energy -198386.818407 kJ/mol
# GULP energy per Si atom -12399.176150 kJ/mol
# Density = 2.336461 g / cm^3
# Si number density = 23.417911 Si / 1000 Ang^3
#
#
#
# Elastic Constant Matrix: (Units=GPa)
#
#
# Indices 1 2 3 4 5 6 
#
# 1 109.7537 20.4952 19.3945 4.8923 -13.7475 -0.6303
# 2 20.4952 82.0133 14.8999 16.1298 -10.4683 14.3157
# 3 19.3945 14.8999 78.4837 15.1622 -11.4239 1.4361
# 4 4.8923 16.1298 15.1622 41.5529 -1.6272 4.9220
# 5 -13.7475 -10.4683 -11.4239 -1.6272 42.4503 2.5861
# 6 -0.6303 14.3157 1.4361 4.9220 2.5861 37.7814
#
#
#
# Elastic Compliance Matrix: (Units=1/GPa)
#
#
# Indices 1 2 3 4 5 6 
#
# 1 0.010101 -0.002112 -0.001844 0.000290 0.002213 0.000850
# 2 -0.002112 0.015085 -0.000945 -0.004516 0.002933 -0.005328
# 3 -0.001844 -0.000945 0.014707 -0.004688 0.002937 0.000178
# 4 0.000290 -0.004516 -0.004688 0.027645 -0.001123 -0.001630
# 5 0.002213 0.002933 0.002937 -0.001123 0.025916 -0.002814
# 6 0.000850 -0.005328 0.000178 -0.001630 -0.002814 0.028899
#
#
# Mechanical properties :
#
#
# Convention : Reuss Voigt Hill
#
# Bulk Modulus (GPa) = 33.23377 42.20335 37.71856
# Shear Modulus (GPa) = 35.16547 38.72099 36.94323
#
# Velocity S-wave (km/s) = 3.87931 4.07071 3.97616
# Velocity P-wave (km/s) = 5.85558 6.33681 6.10094
#
# Compressibility (1/GPa) = 0.03008988
#
# Stress axis : x y z
#
# Youngs Moduli (GPa) = 99.00189 66.29022 67.99635
#
# Poissons Ratio (x) = 0.14000 0.12542
# Poissons Ratio (y) = 0.20908 0.06426
# Poissons Ratio (z) = 0.18261 0.06265
#
# Static dielectric constant tensor:
#      x y z
#    x 4.180060 0.203130 -0.879400 
#    y 0.203130 4.092090 0.589020 
#    z -0.879400 0.589020 0.882600 
# 
# 
# High freq. dielectric constant tensor:
#      x y z
#    x 1.939080 0.006910 -0.002190 
#    y 0.006910 1.910790 0.012900 
#    z -0.002190 0.012900 1.938240 
# 
# From -- ./inp_files/428138.got.cif
#   From: 2010.06.25/outbox.cif.g09.slc.cpg/sg2_215_cif.got.tgz:428138.got - 2010.06.27 13:26:56.
