data_PCOD8027210
_publ_section_title
;
Structure prediction by ZEFSAII (Michael W. Deem and Ramdas Pophale) SiO2 
 PCOD8027210
Probable space group: P -1
;
_chemical_formula_sum "Si O2"
_cell_formula_units_Z 16
_cell_length_a 19.225347
_cell_length_b 13.020267
_cell_length_c 9.679134
_cell_angle_alpha 130.208843
_cell_angle_beta 26.254330
_cell_angle_gamma 136.779785
_cell_volume 733.700543
_symmetry_space_group_name_H-M "P -1"
_symmetry_group_IT_number 2
_symmetry_cell_setting 'triclinic'
loop_
_space_group_symop_operation_xyz
x,y,z
-x,-y,-z
loop_
_atom_site_type_symbol
_atom_site_label
_atom_site_fract_x
_atom_site_fract_y
_atom_site_fract_z
Si Si1 0.165507 0.101912 0.385569
Si Si2 0.718666 0.649500 0.003016
Si Si3 0.657936 0.122411 0.740927
Si Si4 0.960308 0.060128 0.259556
Si Si5 0.450318 0.983530 0.731718
Si Si6 0.197511 0.555511 0.144796
Si Si7 0.661534 0.358238 0.327602
Si Si8 0.296628 0.434313 0.334117
O O1 0.225412 0.275685 0.401028
O O2 0.123644 0.074249 0.598355
O O3 0.000000 0.000000 0.500000
O O4 0.322194 0.059421 0.042199
O O5 0.527478 0.642875 0.342978
O O6 0.735835 0.565324 0.034125
O O7 0.775275 0.582961 0.709127
O O8 0.856569 0.821868 0.902883
O O9 0.835408 0.135364 0.504443
O O10 0.670556 0.287305 0.882511
O O11 0.622286 0.071469 0.599276
O O12 0.500000 0.000000 0.000000
O O13 0.000000 0.000000 0.000000
O O14 0.352860 0.807723 0.787607
O O15 0.500000 0.000000 0.500000
O O16 0.000000 0.500000 0.500000
O O17 0.214867 0.563069 0.954679
O O18 0.752167 0.453637 0.388236
O O19 0.500000 0.500000 0.000000
#
# Coordination Sequence:
#
# PCOD8027210 Si02
#       8
#     2   2   2   2   2   2   2   2
#     4  12  26  47  73 104 145 187 230 299 359 413
#     4  11  24  45  69 102 147 186 233 299 353 423
#     4  12  25  47  70 102 142 190 235 294 357 416
#     4  12  26  43  72 104 145 184 245 295 351 424
#     4  12  27  47  76 102 141 187 242 291 353 430
#     4  12  26  45  71 103 145 183 234 295 360 416
#     4  11  25  46  71 107 140 188 242 287 356 428
#     4  10  24  44  70 102 141 185 235 283 358 422
#
# _framework density 21.807261
#
# number of rings (size 3 to 8) (size 9 to 14) (size 15 to 20)
#    0.000    0.500    5.000    2.625    8.750    0.000 
#    0.000    1.250    0.000    0.000    0.000    0.000 
#    0.000    0.000    0.000    0.000    0.000    0.000 
#
# Total GULP energy -198359.182922 kJ/mol
# GULP energy per Si atom -12397.448933 kJ/mol
# Density = 2.175763 g / cm^3
# Si number density = 21.807261 Si / 1000 Ang^3
#
#
#
# Elastic Constant Matrix: (Units=GPa)
#
#
# Indices 1 2 3 4 5 6 
#
# 1 92.8276 -1.9520 27.1084 -11.2591 29.0669 13.1145
# 2 -1.9520 82.6608 7.4243 -12.4989 9.1648 13.7454
# 3 27.1084 7.4243 96.7533 -14.3654 22.2080 9.0848
# 4 -11.2591 -12.4989 -14.3654 34.7605 -2.5435 5.5109
# 5 29.0669 9.1648 22.2080 -2.5435 50.8309 4.9316
# 6 13.1145 13.7454 9.0848 5.5109 4.9316 45.7722
#
#
#
# Elastic Compliance Matrix: (Units=1/GPa)
#
#
# Indices 1 2 3 4 5 6 
#
# 1 0.015019 0.002970 -0.001380 0.005546 -0.007782 -0.004750
# 2 0.002970 0.014550 0.000468 0.007038 -0.003614 -0.005771
# 3 -0.001380 0.000468 0.012651 0.005011 -0.004340 -0.002392
# 4 0.005546 0.007038 0.005011 0.036243 -0.003979 -0.008632
# 5 -0.007782 -0.003614 -0.004340 -0.003979 0.026295 0.001822
# 6 -0.004750 -0.005771 -0.002392 -0.008632 0.001822 0.026259
#
#
# Mechanical properties :
#
#
# Convention : Reuss Voigt Hill
#
# Bulk Modulus (GPa) = 21.58187 37.48924 29.53556
# Shear Modulus (GPa) = 35.12528 42.25010 38.68769
#
# Velocity S-wave (km/s) = 4.01773 4.40640 4.21654
# Velocity P-wave (km/s) = 5.60722 6.56635 6.10565
#
# Compressibility (1/GPa) = 0.04633518
#
# Stress axis : x y z
#
# Youngs Moduli (GPa) = 66.58322 68.72730 79.04498
#
# Poissons Ratio (x) = -0.20412 0.10909
# Poissons Ratio (y) = -0.19775 -0.03697
# Poissons Ratio (z) = 0.09189 -0.03214
#
# Static dielectric constant tensor:
#      x y z
#    x 3.969420 -0.291580 -0.631050 
#    y -0.291580 3.787220 -0.884500 
#    z -0.631050 -0.884500 2.445260 
# 
# 
# High freq. dielectric constant tensor:
#      x y z
#    x 1.869260 0.002570 0.014860 
#    y 0.002570 1.869170 -0.006710 
#    z 0.014860 -0.006710 1.856780 
# 
# From -- ./inp_files/243837.got.cif
#   From: 2010.06.25/outbox.cif.g09.slc.cpg/sg2_122_cif.got.tgz:243837.got - 2010.06.27 13:26:56.
