data_PCOD8027347
_publ_section_title
;
Structure prediction by ZEFSAII (Michael W. Deem and Ramdas Pophale) SiO2 
 PCOD8027347
Probable space group: P -1
;
_chemical_formula_sum "Si O2"
_cell_formula_units_Z 14
_cell_length_a 5.025551
_cell_length_b 20.423808
_cell_length_c 12.514663
_cell_angle_alpha 148.131409
_cell_angle_beta 106.108280
_cell_angle_gamma 64.456557
_cell_volume 601.190636
_symmetry_space_group_name_H-M "P -1"
_symmetry_group_IT_number 2
_symmetry_cell_setting 'triclinic'
loop_
_space_group_symop_operation_xyz
x,y,z
-x,-y,-z
loop_
_atom_site_type_symbol
_atom_site_label
_atom_site_fract_x
_atom_site_fract_y
_atom_site_fract_z
Si Si1 0.212452 0.631437 0.774109
Si Si2 0.593219 0.036239 0.448976
Si Si3 0.427843 0.335965 0.321700
Si Si4 0.838325 0.403807 0.880601
Si Si5 0.874455 0.225126 0.825903
Si Si6 0.500357 0.867342 0.764515
Si Si7 0.057489 0.168422 0.420311
O O1 0.408798 0.474108 0.564964
O O2 0.299894 0.710878 0.798357
O O3 0.864707 0.655186 0.763932
O O4 0.297390 0.676952 0.960969
O O5 0.666747 0.169796 0.654389
O O6 0.327996 0.063821 0.373995
O O7 0.500000 0.000000 0.500000
O O8 0.874944 0.901720 0.261740
O O9 0.494536 0.233270 0.281849
O O10 0.986690 0.309978 0.870992
O O11 0.871522 0.309113 0.651264
O O12 0.500000 0.500000 0.000000
O O13 0.000000 0.500000 0.000000
O O14 0.791504 0.804438 0.633490
O O15 0.181840 0.901486 0.717114
O O16 0.500000 0.000000 0.000000
#
# Coordination Sequence:
#
# PCOD8027347 Si02
#       7
#     2   2   2   2   2   2   2
#     4  10  24  44  76  99 140 185 237 305 356 416
#     4  11  25  46  72 107 150 187 247 297 361 446
#     4  10  24  48  67 107 138 181 248 298 355 428
#     4  12  27  47  73 111 151 192 243 293 372 453
#     4  11  26  45  74 110 144 195 242 297 371 435
#     4  12  28  48  75 106 145 197 248 298 371 432
#     4  12  27  49  73 108 149 194 239 310 358 430
#
# _framework density 23.287123999999999
#
# number of rings (size 3 to 8) (size 9 to 14) (size 15 to 20)
#    0.000    0.857    1.429    3.857   10.000    0.000 
#    0.000    0.000    0.000    0.000    0.000    0.000 
#    0.000    0.000    0.000    0.000    0.000    0.000 
#
# Total GULP energy -173612.977192 kJ/mol
# GULP energy per Si atom -12400.926942 kJ/mol
# Density = 2.323412 g / cm^3
# Si number density = 23.287124 Si / 1000 Ang^3
#
#
#
# Elastic Constant Matrix: (Units=GPa)
#
#
# Indices 1 2 3 4 5 6 
#
# 1 149.1699 36.7752 79.8307 -3.4018 1.3447 15.8778
# 2 36.7752 96.5220 75.0907 1.3800 3.8531 15.3513
# 3 79.8307 75.0907 160.9917 -14.1556 -0.1410 10.0981
# 4 -3.4018 1.3800 -14.1556 28.8447 4.4667 -1.7456
# 5 1.3447 3.8531 -0.1410 4.4667 34.2299 -11.4370
# 6 15.8778 15.3513 10.0981 -1.7456 -11.4370 49.5729
#
#
#
# Elastic Compliance Matrix: (Units=1/GPa)
#
#
# Indices 1 2 3 4 5 6 
#
# 1 0.009442 0.000762 -0.004997 -0.001351 -0.001155 -0.002556
# 2 0.000762 0.017948 -0.008881 -0.004947 -0.003070 -0.004875
# 3 -0.004997 -0.008881 0.013252 0.006291 0.001143 0.002137
# 4 -0.001351 -0.004947 0.006291 0.038523 -0.004019 0.001112
# 5 -0.001155 -0.003070 0.001143 -0.004019 0.032994 0.008558
# 6 -0.002556 -0.004875 0.002137 0.001112 0.008558 0.024079
#
#
# Mechanical properties :
#
#
# Convention : Reuss Voigt Hill
#
# Bulk Modulus (GPa) = 69.39774 87.78630 78.59202
# Shear Modulus (GPa) = 29.89145 36.86197 33.37671
#
# Velocity S-wave (km/s) = 3.58663 3.98293 3.78996
# Velocity P-wave (km/s) = 6.85693 7.67664 7.27833
#
# Compressibility (1/GPa) = 0.01440969
#
# Stress axis : x y z
#
# Youngs Moduli (GPa) = 105.91352 55.71715 75.46239
#
# Poissons Ratio (x) = -0.04245 0.37706
# Poissons Ratio (y) = -0.08069 0.67018
# Poissons Ratio (z) = 0.52921 0.49482
#
# Static dielectric constant tensor:
#      x y z
#    x 4.625340 0.377090 0.211660 
#    y 0.377090 4.706070 0.550390 
#    z 0.211660 0.550390 4.846590 
# 
# 
# High freq. dielectric constant tensor:
#      x y z
#    x 1.936100 0.013240 -0.001470 
#    y 0.013240 1.918990 -0.000780 
#    z -0.001470 -0.000780 1.929500 
# 
# From -- ./inp_files/370560.got.cif
#   From: 2010.06.25/outbox.cif.g09.slc.cpg/sg2_186_cif.got.tgz:370560.got - 2010.06.27 13:26:56.
