data_PCOD8027848
_publ_section_title
;
Structure prediction by ZEFSAII (Michael W. Deem and Ramdas Pophale) SiO2 
 PCOD8027848
Probable space group: P -1
;
_chemical_formula_sum "Si O2"
_cell_formula_units_Z 16
_cell_length_a 15.070510
_cell_length_b 5.178596
_cell_length_c 8.542602
_cell_angle_alpha 76.931695
_cell_angle_beta 90.176472
_cell_angle_gamma 99.645456
_cell_volume 639.831416
_symmetry_space_group_name_H-M "P -1"
_symmetry_group_IT_number 2
_symmetry_cell_setting 'triclinic'
loop_
_space_group_symop_operation_xyz
x,y,z
-x,-y,-z
loop_
_atom_site_type_symbol
_atom_site_label
_atom_site_fract_x
_atom_site_fract_y
_atom_site_fract_z
Si Si1 0.709776 0.303211 0.905108
Si Si2 0.365176 0.208271 0.236311
Si Si3 0.004234 0.169164 0.225912
Si Si4 0.074174 0.318148 0.530247
Si Si5 0.872596 0.541550 0.057539
Si Si6 0.542489 0.170741 0.119289
Si Si7 0.752874 0.507449 0.334709
Si Si8 0.356966 0.066857 0.604205
O O1 0.696622 0.565232 0.768860
O O2 0.685240 0.030664 0.843014
O O3 0.813341 0.338987 0.959548
O O4 0.641499 0.325298 0.049599
O O5 0.464748 0.340524 0.149607
O O6 0.383447 0.094314 0.420560
O O7 0.068097 0.181422 0.378430
O O8 0.938300 0.389129 0.182721
O O9 0.068594 0.204826 0.068161
O O10 0.942771 0.877516 0.288728
O O11 0.174818 0.480622 0.525547
O O12 0.000000 0.500000 0.500000
O O13 0.801801 0.644374 0.159477
O O14 0.555480 0.974266 0.291342
O O15 0.500000 0.000000 0.000000
O O16 0.720219 0.194039 0.343843
O O17 0.674579 0.669349 0.359540
#
# Coordination Sequence:
#
# PCOD8027848 Si02
#       8
#     2   2   2   2   2   2   2   2
#     4  11  25  45  73 106 144 190 236 301 358 423
#     4  11  26  46  71 107 143 189 241 293 357 432
#     4  10  25  47  71 103 145 191 242 298 362 429
#     4  11  24  45  69 103 141 192 232 302 362 429
#     4  11  24  47  71 106 143 191 245 298 359 430
#     4  10  24  47  75 106 146 188 236 295 363 429
#     4  12  27  45  74 103 146 185 246 295 358 424
#     4  12  27  47  73 106 142 193 236 298 357 427
#
# _framework density 25.006589999999999
#
# number of rings (size 3 to 8) (size 9 to 14) (size 15 to 20)
#    0.000    1.000    2.500    2.250    8.750    2.500 
#    2.250    4.375    0.000    0.000    0.000    0.000 
#    0.000    0.000    0.000    0.000    0.000    0.000 
#
# Total GULP energy -198306.592037 kJ/mol
# GULP energy per Si atom -12394.162002 kJ/mol
# Density = 2.494967 g / cm^3
# Si number density = 25.006590 Si / 1000 Ang^3
#
#
#
# Elastic Constant Matrix: (Units=GPa)
#
#
# Indices 1 2 3 4 5 6 
#
# 1 79.3013 5.3197 17.6683 1.3033 6.9593 13.0790
# 2 5.3197 71.2715 6.2022 -11.4224 -0.2705 3.0532
# 3 17.6683 6.2022 119.3508 -8.3531 0.9963 15.0770
# 4 1.3033 -11.4224 -8.3531 29.8487 -1.7010 2.5029
# 5 6.9593 -0.2705 0.9963 -1.7010 47.1058 6.7895
# 6 13.0790 3.0532 15.0770 2.5029 6.7895 34.9510
#
#
#
# Elastic Compliance Matrix: (Units=1/GPa)
#
#
# Indices 1 2 3 4 5 6 
#
# 1 0.013835 -0.000910 -0.001555 -0.001131 -0.001472 -0.004060
# 2 -0.000910 0.015129 -0.000047 0.005981 0.000657 -0.001517
# 3 -0.001555 -0.000047 0.009292 0.003006 0.000685 -0.003771
# 4 -0.001131 0.005981 0.003006 0.037178 0.002125 -0.004471
# 5 -0.001472 0.000657 0.000685 0.002125 0.022125 -0.004252
# 6 -0.004060 -0.001517 -0.003771 -0.004471 -0.004252 0.033036
#
#
# Mechanical properties :
#
#
# Convention : Reuss Voigt Hill
#
# Bulk Modulus (GPa) = 30.09099 36.47823 33.28461
# Shear Modulus (GPa) = 34.08411 38.42998 36.25704
#
# Velocity S-wave (km/s) = 3.69590 3.92445 3.81189
# Velocity P-wave (km/s) = 5.50202 5.92910 5.71954
#
# Compressibility (1/GPa) = 0.03323254
#
# Stress axis : x y z
#
# Youngs Moduli (GPa) = 72.28057 66.09894 107.61661
#
# Poissons Ratio (x) = 0.06017 0.16732
# Poissons Ratio (y) = 0.06579 0.00503
# Poissons Ratio (z) = 0.11238 0.00309
#
# Static dielectric constant tensor:
#      x y z
#    x 4.896030 0.352510 0.221320 
#    y 0.352510 4.173620 0.088510 
#    z 0.221320 0.088510 5.121780 
# 
# 
# High freq. dielectric constant tensor:
#      x y z
#    x 2.001970 0.011700 0.013590 
#    y 0.011700 1.974950 0.007280 
#    z 0.013590 0.007280 2.015580 
# 
# From -- ./inp_files/99687.got.cif
#   From: 2010.06.25/outbox.cif.g09.slc.cpg/sg2_50_cif.got.tgz:99687.got - 2010.06.27 13:26:56.
