data_PCOD8027977
_publ_section_title
;
Structure prediction by ZEFSAII (Michael W. Deem and Ramdas Pophale) SiO2 
 PCOD8027977
Probable space group: P -1
;
_chemical_formula_sum "Si O2"
_cell_formula_units_Z 16
_cell_length_a 5.004799
_cell_length_b 7.349072
_cell_length_c 25.577955
_cell_angle_alpha 44.462793
_cell_angle_beta 89.501956
_cell_angle_gamma 75.738318
_cell_volume 618.995073
_symmetry_space_group_name_H-M "P -1"
_symmetry_group_IT_number 2
_symmetry_cell_setting 'triclinic'
loop_
_space_group_symop_operation_xyz
x,y,z
-x,-y,-z
loop_
_atom_site_type_symbol
_atom_site_label
_atom_site_fract_x
_atom_site_fract_y
_atom_site_fract_z
Si Si1 0.046574 0.178282 0.662177
Si Si2 0.753003 0.685928 0.168618
Si Si3 0.327184 0.251533 0.412898
Si Si4 0.161737 0.763573 0.655447
Si Si5 0.392245 0.989196 0.244982
Si Si6 0.236486 0.692725 0.993686
Si Si7 0.287264 0.596784 0.123137
Si Si8 0.263213 0.121607 0.110007
O O1 0.820102 0.489805 0.600803
O O2 0.888314 0.980671 0.727290
O O3 0.316097 0.204262 0.688525
O O4 0.139845 0.038459 0.633613
O O5 0.866240 0.495598 0.258173
O O6 0.457066 0.647161 0.161985
O O7 0.965796 0.632586 0.131911
O O8 0.599214 0.029761 0.105400
O O9 0.538929 0.331309 0.356590
O O10 0.099022 0.156859 0.400839
O O11 0.500000 0.000000 0.500000
O O12 0.448419 0.273833 0.178088
O O13 0.324316 0.906006 0.203333
O O14 0.302631 0.780004 0.034174
O O15 0.112336 0.441086 0.061126
O O16 0.500000 0.500000 0.000000
O O17 0.964060 0.937958 0.917708
#
# Coordination Sequence:
#
# PCOD8027977 Si02
#       8
#     2   2   2   2   2   2   2   2
#     4  12  24  45  74 104 143 185 231 289 350 399
#     4  12  24  43  67 103 124 169 225 292 341 393
#     4  12  28  47  72 109 147 186 230 277 338 425
#     4  12  25  47  74 107 143 180 237 284 345 419
#     4  11  22  43  68  99 129 180 229 284 343 403
#     4  10  25  43  59  88 127 185 225 270 347 428
#     4  11  24  41  66  91 135 164 226 283 339 407
#     4  10  25  39  65  88 131 174 228 285 345 410
#
# _framework density 25.848348000000001
#
# number of rings (size 3 to 8) (size 9 to 14) (size 15 to 20)
#    0.000    0.750    2.500    4.125   10.500    2.000 
#    0.000    0.000    0.000    0.000    0.000    0.000 
#    0.000    0.000    0.000    0.000    0.000    0.000 
#
# Total GULP energy -198224.669566 kJ/mol
# GULP energy per Si atom -12389.041848 kJ/mol
# Density = 2.578952 g / cm^3
# Si number density = 25.848348 Si / 1000 Ang^3
#
#
#
# Elastic Constant Matrix: (Units=GPa)
#
#
# Indices 1 2 3 4 5 6 
#
# 1 107.7674 16.3511 27.3827 8.5714 24.2465 -14.6203
# 2 16.3511 109.4069 55.6488 -11.4861 11.4003 -11.1570
# 3 27.3827 55.6488 127.8402 -2.9518 24.3872 4.9894
# 4 8.5714 -11.4861 -2.9518 34.4844 3.4796 0.9550
# 5 24.2465 11.4003 24.3872 3.4796 39.3783 2.3399
# 6 -14.6203 -11.1570 4.9894 0.9550 2.3399 47.8931
#
#
#
# Elastic Compliance Matrix: (Units=1/GPa)
#
#
# Indices 1 2 3 4 5 6 
#
# 1 0.011877 -0.000235 -0.001449 -0.002626 -0.006358 0.004085
# 2 -0.000235 0.012752 -0.005404 0.003823 -0.000741 0.003422
# 3 -0.001449 -0.005404 0.011445 0.000066 -0.004478 -0.002676
# 4 -0.002626 0.003823 0.000066 0.031170 -0.002260 -0.000429
# 5 -0.006358 -0.000741 -0.004478 -0.002260 0.032687 -0.003199
# 6 0.004085 0.003422 -0.002676 -0.000429 -0.003199 0.023368
#
#
# Mechanical properties :
#
#
# Convention : Reuss Voigt Hill
#
# Bulk Modulus (GPa) = 45.66653 60.41997 53.04325
# Shear Modulus (GPa) = 34.53655 40.72662 37.63158
#
# Velocity S-wave (km/s) = 3.65927 3.97369 3.81971
# Velocity P-wave (km/s) = 5.96314 6.66927 6.32607
#
# Compressibility (1/GPa) = 0.02189788
#
# Stress axis : x y z
#
# Youngs Moduli (GPa) = 84.19955 78.42052 87.37130
#
# Poissons Ratio (x) = 0.01839 0.12659
# Poissons Ratio (y) = 0.01975 0.47219
# Poissons Ratio (z) = 0.12200 0.42382
#
# Static dielectric constant tensor:
#      x y z
#    x 5.162050 0.474370 -0.164480 
#    y 0.474370 5.279840 -0.178610 
#    z -0.164480 -0.178610 4.964670 
# 
# 
# High freq. dielectric constant tensor:
#      x y z
#    x 2.046670 -0.003410 0.013000 
#    y -0.003410 2.056510 -0.014750 
#    z 0.013000 -0.014750 2.025110 
# 
# From -- ./inp_files/615243.got.cif
#   From: 2010.06.25/outbox.cif.g09.slc.cpg/sg2_308_cif.got.tgz:615243.got - 2010.06.27 13:26:56.
