data_PCOD8027888
_publ_section_title
;
Structure prediction by ZEFSAII (Michael W. Deem and Ramdas Pophale) SiO2 
 PCOD8027888
Probable space group: P -1
;
_chemical_formula_sum "Si O2"
_cell_formula_units_Z 14
_cell_length_a 22.384503
_cell_length_b 22.527890
_cell_length_c 12.900163
_cell_angle_alpha 153.485068
_cell_angle_beta 161.143000
_cell_angle_gamma 17.338421
_cell_volume 624.138262
_symmetry_space_group_name_H-M "P -1"
_symmetry_group_IT_number 2
_symmetry_cell_setting 'triclinic'
loop_
_space_group_symop_operation_xyz
x,y,z
-x,-y,-z
loop_
_atom_site_type_symbol
_atom_site_label
_atom_site_fract_x
_atom_site_fract_y
_atom_site_fract_z
Si Si1 0.059279 0.208551 0.154635
Si Si2 0.655607 0.542664 0.371751
Si Si3 0.576761 0.075360 0.865047
Si Si4 0.333096 0.466686 0.136029
Si Si5 0.829740 0.718542 0.855047
Si Si6 0.868161 0.097958 0.823000
Si Si7 0.826188 0.841123 0.263521
O O1 0.282337 0.205103 0.530834
O O2 0.172926 0.051130 0.004146
O O3 0.786624 0.432002 0.015856
O O4 0.007733 0.152477 0.086331
O O5 0.676164 0.657921 0.508558
O O6 0.461411 0.695591 0.386518
O O7 0.972314 0.342532 0.611701
O O8 0.500000 0.500000 0.000000
O O9 0.619869 0.936424 0.801884
O O10 0.555816 0.228758 0.124460
O O11 0.500000 0.500000 0.500000
O O12 0.101206 0.553254 0.973783
O O13 0.905902 0.735879 0.119796
O O14 0.905065 0.954222 0.580895
O O15 0.000000 0.000000 0.000000
O O16 0.500000 0.000000 0.000000
#
# Coordination Sequence:
#
# PCOD8027888 Si02
#       7
#     2   2   2   2   2   2   2
#     4  10  25  44  71 102 140 187 244 291 358 429
#     4  12  27  46  71 109 145 192 249 296 363 444
#     4  10  24  48  71  99 142 189 239 299 359 428
#     4  11  27  44  72 105 141 188 240 298 364 424
#     4  11  27  45  72 105 142 190 239 302 368 435
#     4  12  26  46  73 110 144 195 241 299 368 438
#     4  12  28  45  71 104 150 191 239 302 369 436
#
# _framework density 22.430928000000002
#
# number of rings (size 3 to 8) (size 9 to 14) (size 15 to 20)
#    0.000    0.857    2.857    1.714   10.000    1.143 
#    0.000    0.000    0.000    0.000    0.000    0.000 
#    0.000    0.000    0.000    0.000    0.000    0.000 
#
# Total GULP energy -173588.342502 kJ/mol
# GULP energy per Si atom -12399.167322 kJ/mol
# Density = 2.237987 g / cm^3
# Si number density = 22.430928 Si / 1000 Ang^3
#
#
#
# Elastic Constant Matrix: (Units=GPa)
#
#
# Indices 1 2 3 4 5 6 
#
# 1 120.5474 42.0980 32.2305 8.4987 12.2193 16.5809
# 2 42.0980 146.6000 43.4431 8.3396 5.8193 9.5495
# 3 32.2305 43.4431 97.9793 12.1151 3.5909 12.9474
# 4 8.4987 8.3396 12.1151 52.0206 1.9673 -5.0294
# 5 12.2193 5.8193 3.5909 1.9673 38.4578 0.4906
# 6 16.5809 9.5495 12.9474 -5.0294 0.4906 33.6625
#
#
#
# Elastic Compliance Matrix: (Units=1/GPa)
#
#
# Indices 1 2 3 4 5 6 
#
# 1 0.010383 -0.002028 -0.001730 -0.001254 -0.002715 -0.004021
# 2 -0.002028 0.008323 -0.002933 -0.000335 -0.000321 -0.000279
# 3 -0.001730 -0.002933 0.012882 -0.002600 -0.000030 -0.003658
# 4 -0.001254 -0.000335 -0.002600 0.020566 -0.000421 0.004792
# 5 -0.002715 -0.000321 -0.000030 -0.000421 0.026925 0.000984
# 6 -0.004021 -0.000279 -0.003658 0.004792 0.000984 0.033875
#
#
# Mechanical properties :
#
#
# Convention : Reuss Voigt Hill
#
# Bulk Modulus (GPa) = 54.92967 66.74111 60.83539
# Shear Modulus (GPa) = 37.76270 41.31854 39.54062
#
# Velocity S-wave (km/s) = 4.10751 4.29655 4.20309
# Velocity P-wave (km/s) = 6.85836 7.37783 7.12283
#
# Compressibility (1/GPa) = 0.01820510
#
# Stress axis : x y z
#
# Youngs Moduli (GPa) = 96.31072 120.15269 77.62804
#
# Poissons Ratio (x) = 0.24364 0.13433
# Poissons Ratio (y) = 0.19529 0.22769
# Poissons Ratio (z) = 0.16666 0.35242
#
# Static dielectric constant tensor:
#      x y z
#    x 3.874820 0.030660 -0.159560 
#    y 0.030660 4.364110 0.047240 
#    z -0.159560 0.047240 3.997130 
# 
# 
# High freq. dielectric constant tensor:
#      x y z
#    x 1.875800 -0.000920 0.002620 
#    y -0.000920 1.903150 0.002140 
#    z 0.002620 0.002140 1.888510 
# 
# From -- ./inp_files/416012.got.cif
#   From: 2010.06.25/outbox.cif.g09.slc.cpg/sg2_209_cif.got.tgz:416012.got - 2010.06.27 13:26:56.
