data_PCOD8027282
_publ_section_title
;
Structure prediction by ZEFSAII (Michael W. Deem and Ramdas Pophale) SiO2 
 PCOD8027282
Probable space group: P -1
;
_chemical_formula_sum "Si O2"
_cell_formula_units_Z 14
_cell_length_a 23.926615
_cell_length_b 5.172963
_cell_length_c 14.275900
_cell_angle_alpha 107.395745
_cell_angle_beta 157.968354
_cell_angle_gamma 82.508008
_cell_volume 576.905153
_symmetry_space_group_name_H-M "P -1"
_symmetry_group_IT_number 2
_symmetry_cell_setting 'triclinic'
loop_
_space_group_symop_operation_xyz
x,y,z
-x,-y,-z
loop_
_atom_site_type_symbol
_atom_site_label
_atom_site_fract_x
_atom_site_fract_y
_atom_site_fract_z
Si Si1 0.694438 0.487741 0.138905
Si Si2 0.854740 0.281014 0.688788
Si Si3 0.170635 0.277268 0.815691
Si Si4 0.076342 0.266564 0.313534
Si Si5 0.496120 0.104245 0.111962
Si Si6 0.753328 0.242470 0.868318
Si Si7 0.436942 0.193571 0.315760
O O1 0.773849 0.490934 0.160169
O O2 0.847677 0.684302 0.460817
O O3 0.563037 0.631015 0.951289
O O4 0.614610 0.157425 0.019612
O O5 0.863559 0.423065 0.615114
O O6 0.678843 0.227418 0.451670
O O7 0.873896 0.971894 0.685988
O O8 0.000000 0.500000 0.000000
O O9 0.157603 0.422853 0.911973
O O10 0.323565 0.179060 0.049048
O O11 0.000000 0.000000 0.500000
O O12 0.881018 0.137558 0.006909
O O13 0.500000 0.000000 0.000000
O O14 0.610937 0.177464 0.560861
O O15 0.672536 0.063363 0.814729
O O16 0.500000 0.500000 0.500000
#
# Coordination Sequence:
#
# PCOD8027282 Si02
#       7
#     2   2   2   2   2   2   2
#     4  12  26  43  77 109 138 196 241 283 374 425
#     4  12  28  50  72 108 140 180 244 308 360 425
#     4  11  26  42  71 109 153 184 244 298 348 434
#     4  12  25  45  78 103 141 191 234 289 378 422
#     4  12  24  50  75  99 143 186 241 305 354 429
#     4  10  24  44  72 100 148 191 236 293 354 440
#     4   9  21  45  65  94 147 189 234 289 355 409
#
# _framework density 24.267420999999999
#
# number of rings (size 3 to 8) (size 9 to 14) (size 15 to 20)
#    0.000    0.857    2.857    2.571   10.000    2.286 
#   10.286    0.000    0.000    0.000    0.000    0.000 
#    0.000    0.000    0.000    0.000    0.000    0.000 
#
# Total GULP energy -173515.803565 kJ/mol
# GULP energy per Si atom -12393.985969 kJ/mol
# Density = 2.421219 g / cm^3
# Si number density = 24.267421 Si / 1000 Ang^3
#
#
#
# Elastic Constant Matrix: (Units=GPa)
#
#
# Indices 1 2 3 4 5 6 
#
# 1 67.7065 10.6680 24.6659 -6.0052 2.2144 14.9432
# 2 10.6680 97.6962 34.1694 -12.4886 4.1085 5.7757
# 3 24.6659 34.1694 175.1779 -16.2565 10.4638 18.8789
# 4 -6.0052 -12.4886 -16.2565 39.5341 -2.8701 2.6818
# 5 2.2144 4.1085 10.4638 -2.8701 33.4724 -7.7198
# 6 14.9432 5.7757 18.8789 2.6818 -7.7198 25.3129
#
#
#
# Elastic Compliance Matrix: (Units=1/GPa)
#
#
# Indices 1 2 3 4 5 6 
#
# 1 0.017952 -0.000542 -0.000769 0.002764 -0.003221 -0.011176
# 2 -0.000542 0.011375 -0.001638 0.002879 -0.000984 -0.001659
# 3 -0.000769 -0.001638 0.007168 0.002477 -0.003097 -0.005726
# 4 0.002764 0.002879 0.002477 0.028095 -0.000583 -0.007290
# 5 -0.003221 -0.000984 -0.003097 -0.000583 0.034598 0.015049
# 6 -0.011176 -0.001659 -0.005726 -0.007290 0.015049 0.056114
#
#
# Mechanical properties :
#
#
# Convention : Reuss Voigt Hill
#
# Bulk Modulus (GPa) = 32.68095 53.28746 42.98421
# Shear Modulus (GPa) = 29.17168 37.73569 33.45368
#
# Velocity S-wave (km/s) = 3.47088 3.94762 3.71690
# Velocity P-wave (km/s) = 5.43681 6.54098 6.01429
#
# Compressibility (1/GPa) = 0.03059886
#
# Stress axis : x y z
#
# Youngs Moduli (GPa) = 55.70341 87.90996 139.50763
#
# Poissons Ratio (x) = 0.04764 0.10724
# Poissons Ratio (y) = 0.03019 0.22848
# Poissons Ratio (z) = 0.04282 0.14397
#
# Static dielectric constant tensor:
#      x y z
#    x 4.114350 0.215500 -0.045890 
#    y 0.215500 4.800740 -0.406300 
#    z -0.045890 -0.406300 5.176440 
# 
# 
# High freq. dielectric constant tensor:
#      x y z
#    x 1.944990 0.008900 -0.000840 
#    y 0.008900 1.972820 -0.009120 
#    z -0.000840 -0.009120 1.989760 
# 
# From -- ./inp_files/459412.got.cif
#   From: 2010.06.25/outbox.cif.g09.slc.cpg/sg2_230_cif.got.tgz:459412.got - 2010.06.27 13:26:56.
