data_PCOD8027432
_publ_section_title
;
Structure prediction by ZEFSAII (Michael W. Deem and Ramdas Pophale) SiO2 
 PCOD8027432
Probable space group: P -1
;
_chemical_formula_sum "Si O2"
_cell_formula_units_Z 14
_cell_length_a 12.181183
_cell_length_b 9.992918
_cell_length_c 14.970967
_cell_angle_alpha 113.244072
_cell_angle_beta 152.742663
_cell_angle_gamma 83.240151
_cell_volume 638.447135
_symmetry_space_group_name_H-M "P -1"
_symmetry_group_IT_number 2
_symmetry_cell_setting 'triclinic'
loop_
_space_group_symop_operation_xyz
x,y,z
-x,-y,-z
loop_
_atom_site_type_symbol
_atom_site_label
_atom_site_fract_x
_atom_site_fract_y
_atom_site_fract_z
Si Si1 0.850776 0.308149 0.542337
Si Si2 0.294343 0.221860 0.187211
Si Si3 0.680959 0.354445 0.255841
Si Si4 0.252502 0.192417 0.755022
Si Si5 0.527054 0.465213 0.731837
Si Si6 0.048412 0.172317 0.186552
Si Si7 0.288268 0.664517 0.019114
O O1 0.594728 0.229871 0.409265
O O2 0.688462 0.240810 0.311931
O O3 0.097527 0.270876 0.716951
O O4 0.016702 0.517087 0.726190
O O5 0.308226 0.374049 0.177375
O O6 0.230419 0.250403 0.248271
O O7 0.048886 0.028212 0.922094
O O8 0.548919 0.461824 0.219420
O O9 0.000000 0.500000 0.500000
O O10 0.497037 0.218747 0.007397
O O11 0.413330 0.279089 0.800612
O O12 0.000000 0.000000 0.500000
O O13 0.720244 0.405199 0.904371
O O14 0.254379 0.290136 0.446938
O O15 0.762837 0.178468 0.973595
#
# Coordination Sequence:
#
# PCOD8027432 Si02
#       7
#     2   2   2   2   2   2   2
#     4  11  22  40  65  92 132 175 222 269 332 398
#     4  10  24  45  68  95 136 173 220 282 335 402
#     4  11  20  38  65  90 130 177 219 264 331 394
#     4  12  25  40  63 101 138 172 225 281 335 397
#     4  11  23  40  67  96 130 175 217 274 339 396
#     4  11  23  47  66  97 133 172 226 278 335 400
#     4  12  23  40  69  97 130 178 221 278 331 401
#
# _framework density 21.928204999999998
#
# number of rings (size 3 to 8) (size 9 to 14) (size 15 to 20)
#    0.000    0.857    5.714    2.571    0.000    3.429 
#    2.571    1.429    0.000    0.000    0.000    0.000 
#    0.000    0.000    0.000    0.000    0.000    0.000 
#
# Total GULP energy -173447.856737 kJ/mol
# GULP energy per Si atom -12389.132624 kJ/mol
# Density = 2.187830 g / cm^3
# Si number density = 21.928205 Si / 1000 Ang^3
#
#
#
# Elastic Constant Matrix: (Units=GPa)
#
#
# Indices 1 2 3 4 5 6 
#
# 1 93.8112 3.6928 37.1385 -5.8472 11.5751 -2.6979
# 2 3.6928 49.8625 34.7206 -4.5475 -13.7820 9.0017
# 3 37.1385 34.7206 137.4604 9.5549 -12.3171 12.2742
# 4 -5.8472 -4.5475 9.5549 38.1344 -0.4970 1.0962
# 5 11.5751 -13.7820 -12.3171 -0.4970 32.2196 -2.3670
# 6 -2.6979 9.0017 12.2742 1.0962 -2.3670 29.2343
#
#
#
# Elastic Compliance Matrix: (Units=1/GPa)
#
#
# Indices 1 2 3 4 5 6 
#
# 1 0.013585 0.000424 -0.004786 0.003179 -0.006295 0.002503
# 2 0.000424 0.028501 -0.006360 0.005337 0.009285 -0.005515
# 3 -0.004786 -0.006360 0.010964 -0.004124 0.002929 -0.002695
# 4 0.003179 0.005337 -0.004124 0.028399 -0.000048 -0.000687
# 5 -0.006295 0.009285 0.002929 -0.000048 0.038274 -0.001569
# 6 0.002503 -0.005515 -0.002695 -0.000687 -0.001569 0.037166
#
#
# Mechanical properties :
#
#
# Convention : Reuss Voigt Hill
#
# Bulk Modulus (GPa) = 31.63942 48.02643 39.83293
# Shear Modulus (GPa) = 26.47355 33.62314 30.04834
#
# Velocity S-wave (km/s) = 3.47837 3.92002 3.70578
# Velocity P-wave (km/s) = 5.53100 6.51444 6.04276
#
# Compressibility (1/GPa) = 0.03160614
#
# Stress axis : x y z
#
# Youngs Moduli (GPa) = 73.61256 35.08634 91.20673
#
# Poissons Ratio (x) = -0.01489 0.43652
# Poissons Ratio (y) = -0.03124 0.58010
# Poissons Ratio (z) = 0.35231 0.22316
#
# Static dielectric constant tensor:
#      x y z
#    x 16.686730 -15.326640 -0.808530 
#    y -15.326640 22.715870 1.154820 
#    z -0.808530 1.154820 3.942790 
# 
# 
# High freq. dielectric constant tensor:
#      x y z
#    x 1.867090 -0.006580 -0.000440 
#    y -0.006580 1.847140 0.004920 
#    z -0.000440 0.004920 1.865990 
# 
# From -- ./inp_files/255841.got.cif
#   From: 2010.06.25/outbox.cif.g09.slc.cpg/sg2_128_cif.got.tgz:255841.got - 2010.06.27 13:26:56.
