data_PCOD8027401
_publ_section_title
;
Structure prediction by ZEFSAII (Michael W. Deem and Ramdas Pophale) SiO2 
 PCOD8027401
Probable space group: P -1
;
_chemical_formula_sum "Si O2"
_cell_formula_units_Z 16
_cell_length_a 29.019255
_cell_length_b 12.547931
_cell_length_c 9.862940
_cell_angle_alpha 141.016360
_cell_angle_beta 153.627445
_cell_angle_gamma 27.170802
_cell_volume 725.041408
_symmetry_space_group_name_H-M "P -1"
_symmetry_group_IT_number 2
_symmetry_cell_setting 'triclinic'
loop_
_space_group_symop_operation_xyz
x,y,z
-x,-y,-z
loop_
_atom_site_type_symbol
_atom_site_label
_atom_site_fract_x
_atom_site_fract_y
_atom_site_fract_z
Si Si1 0.880982 0.940414 0.008674
Si Si2 0.013304 0.469097 0.293016
Si Si3 0.228900 0.190036 0.818576
Si Si4 0.478238 0.702709 0.076676
Si Si5 0.547719 0.263317 0.434646
Si Si6 0.480837 0.152052 0.401496
Si Si7 0.371177 0.320074 0.790092
Si Si8 0.076495 0.730419 0.559365
O O1 0.928943 0.900609 0.252620
O O2 0.899486 0.107186 0.153803
O O3 0.983428 0.679250 0.959065
O O4 0.719232 0.056024 0.685089
O O5 0.112669 0.283407 0.490172
O O6 0.065384 0.597675 0.512180
O O7 0.849926 0.666601 0.108838
O O8 0.331795 0.221265 0.066772
O O9 0.318426 0.915229 0.806716
O O10 0.499179 0.821668 0.363861
O O11 0.591410 0.588356 0.139425
O O12 0.500000 0.500000 0.000000
O O13 0.500000 0.500000 0.500000
O O14 0.479680 0.310908 0.451889
O O15 0.482167 0.206486 0.096794
O O16 0.612109 0.886007 0.432311
O O17 0.209746 0.537000 0.622348
#
# Coordination Sequence:
#
# PCOD8027401 Si02
#       8
#     2   2   2   2   2   2   2   2
#     4  11  25  41  68 102 137 175 229 283 346 406
#     4  11  24  46  69  95 141 181 226 283 337 415
#     4  10  24  45  67  97 132 181 229 271 344 416
#     4  11  25  42  68 100 138 174 225 284 346 411
#     4  12  23  41  69 100 135 172 226 287 340 398
#     4  11  24  41  70  96 130 177 224 278 342 404
#     4  11  22  43  67  97 133 175 228 280 337 410
#     4  11  25  42  68 101 135 180 228 284 341 407
#
# _framework density 22.067706000000001
#
# number of rings (size 3 to 8) (size 9 to 14) (size 15 to 20)
#    0.000    1.000    1.250    6.000    5.250    1.000 
#    0.000    1.250    0.000    0.000    0.000    0.000 
#    0.000    0.000    0.000    0.000    0.000    0.000 
#
# Total GULP energy -198401.381863 kJ/mol
# GULP energy per Si atom -12400.086366 kJ/mol
# Density = 2.201748 g / cm^3
# Si number density = 22.067706 Si / 1000 Ang^3
#
#
#
# Elastic Constant Matrix: (Units=GPa)
#
#
# Indices 1 2 3 4 5 6 
#
# 1 121.6307 47.2201 7.6423 -3.6358 15.9830 8.2662
# 2 47.2201 111.9282 18.8638 -1.9267 25.3052 10.0130
# 3 7.6423 18.8638 62.4856 -2.5791 -1.4306 5.0040
# 4 -3.6358 -1.9267 -2.5791 32.6773 6.5054 -1.0107
# 5 15.9830 25.3052 -1.4306 6.5054 29.9413 2.0930
# 6 8.2662 10.0130 5.0040 -1.0107 2.0930 38.0698
#
#
#
# Elastic Compliance Matrix: (Units=1/GPa)
#
#
# Indices 1 2 3 4 5 6 
#
# 1 0.010050 -0.003511 -0.000086 0.001395 -0.002630 -0.001066
# 2 -0.003511 0.013485 -0.003650 0.002060 -0.010026 -0.001699
# 3 -0.000086 -0.003650 0.017341 0.000301 0.004000 -0.001513
# 4 0.001395 0.002060 0.000301 0.032838 -0.009642 0.000518
# 5 -0.002630 -0.010026 0.004000 -0.009642 0.045567 -0.000079
# 6 -0.001066 -0.001699 -0.001513 0.000518 -0.000079 0.027163
#
#
# Mechanical properties :
#
#
# Convention : Reuss Voigt Hill
#
# Bulk Modulus (GPa) = 37.90673 49.27743 43.59208
# Shear Modulus (GPa) = 29.45798 34.95890 32.20844
#
# Velocity S-wave (km/s) = 3.65758 3.98448 3.82452
# Velocity P-wave (km/s) = 5.92047 6.59899 6.26891
#
# Compressibility (1/GPa) = 0.02638054
#
# Stress axis : x y z
#
# Youngs Moduli (GPa) = 99.50305 74.15710 57.66593
#
# Poissons Ratio (x) = 0.26039 0.00498
# Poissons Ratio (y) = 0.34939 0.21048
# Poissons Ratio (z) = 0.00860 0.27067
#
# Static dielectric constant tensor:
#      x y z
#    x 4.245770 0.002210 -0.174310 
#    y 0.002210 4.091660 -0.082930 
#    z -0.174310 -0.082930 4.448710 
# 
# 
# High freq. dielectric constant tensor:
#      x y z
#    x 1.872980 0.004840 -0.002580 
#    y 0.004840 1.876860 -0.003100 
#    z -0.002580 -0.003100 1.863720 
# 
# From -- ./inp_files/357103.got.cif
#   From: 2010.06.25/outbox.cif.g09.slc.cpg/sg2_179_cif.got.tgz:357103.got - 2010.06.27 13:26:56.
