data_PCOD8027032
_publ_section_title
;
Structure prediction by ZEFSAII (Michael W. Deem and Ramdas Pophale) SiO2 
 PCOD8027032
Probable space group: P -1
;
_chemical_formula_sum "Si O2"
_cell_formula_units_Z 12
_cell_length_a 7.960269
_cell_length_b 8.498595
_cell_length_c 9.177346
_cell_angle_alpha 111.252295
_cell_angle_beta 66.825469
_cell_angle_gamma 124.753896
_cell_volume 461.032107
_symmetry_space_group_name_H-M "P -1"
_symmetry_group_IT_number 2
_symmetry_cell_setting 'triclinic'
loop_
_space_group_symop_operation_xyz
x,y,z
-x,-y,-z
loop_
_atom_site_type_symbol
_atom_site_label
_atom_site_fract_x
_atom_site_fract_y
_atom_site_fract_z
Si Si1 0.091034 0.965530 0.292156
Si Si2 0.283917 0.818676 0.971007
Si Si3 0.105491 0.635224 0.683738
Si Si4 0.325109 0.850262 0.405684
Si Si5 0.329987 0.566448 0.102829
Si Si6 0.251849 0.333497 0.516156
O O1 0.187855 0.203184 0.343190
O O2 0.861028 0.295635 0.470679
O O3 0.110240 0.878490 0.101838
O O4 0.238668 0.941615 0.351369
O O5 0.263639 0.628034 0.994783
O O6 0.278802 0.790243 0.789242
O O7 0.500000 0.000000 0.000000
O O8 0.112557 0.435694 0.619978
O O9 0.884196 0.602693 0.809250
O O10 0.426450 0.740761 0.245882
O O11 0.500000 0.000000 0.500000
O O12 0.156980 0.161802 0.616762
O O13 0.500000 0.500000 0.000000
O O14 0.500000 0.500000 0.500000
#
# Coordination Sequence:
#
# PCOD8027032 Si02
#       6
#     2   2   2   2   2   2
#     4  10  24  44  65 106 140 175 235 289 338 421
#     4  11  23  46  70  98 139 181 229 288 345 411
#     4  12  24  46  72 101 139 181 230 287 345 413
#     4  11  23  46  70  98 139 181 229 288 345 411
#     4  11  26  47  67 102 137 182 229 280 348 414
#     4  11  22  41  72 102 135 183 233 285 349 412
#
# _framework density 26.028554
#
# number of rings (size 3 to 8) (size 9 to 14) (size 15 to 20)
#    0.000    1.000    3.333    5.000    0.000    4.000 
#    6.000    1.667    0.000    0.000    0.000    0.000 
#    0.000    0.000    0.000    0.000    0.000    0.000 
#
# Total GULP energy -148657.681681 kJ/mol
# GULP energy per Si atom -12388.140140 kJ/mol
# Density = 2.596931 g / cm^3
# Si number density = 26.028554 Si / 1000 Ang^3
#
#
#
# Elastic Constant Matrix: (Units=GPa)
#
#
# Indices 1 2 3 4 5 6 
#
# 1 89.5874 28.9675 43.8644 14.5772 -21.8695 13.1731
# 2 28.9675 84.2750 23.8713 22.9574 -11.3140 22.7587
# 3 43.8644 23.8713 156.0494 28.4179 -13.5368 -24.7733
# 4 14.5772 22.9574 28.4179 46.0882 5.4530 -0.6294
# 5 -21.8695 -11.3140 -13.5368 5.4530 55.0368 -1.0023
# 6 13.1731 22.7587 -24.7733 -0.6294 -1.0023 36.7508
#
#
#
# Elastic Compliance Matrix: (Units=1/GPa)
#
#
# Indices 1 2 3 4 5 6 
#
# 1 0.016986 -0.000373 -0.005212 -0.002750 0.005495 -0.009268
# 2 -0.000373 0.019481 -0.003339 -0.008145 0.003583 -0.014223
# 3 -0.005212 -0.003339 0.010780 -0.003233 0.000418 0.011159
# 4 -0.002750 -0.008145 -0.003233 0.029432 -0.006402 0.004180
# 5 0.005495 0.003583 0.000418 -0.006402 0.021765 -0.003423
# 6 -0.009268 -0.014223 0.011159 0.004180 -0.003423 0.046840
#
#
# Mechanical properties :
#
#
# Convention : Reuss Voigt Hill
#
# Bulk Modulus (GPa) = 34.01277 58.14645 46.07961
# Shear Modulus (GPa) = 28.91328 43.12239 36.01783
#
# Velocity S-wave (km/s) = 3.33653 4.07472 3.72396
# Velocity P-wave (km/s) = 5.28574 6.67276 6.01933
#
# Compressibility (1/GPa) = 0.02940072
#
# Stress axis : x y z
#
# Youngs Moduli (GPa) = 58.87143 51.33324 92.76144
#
# Poissons Ratio (x) = 0.01913 0.48343
# Poissons Ratio (y) = 0.02194 0.30973
# Poissons Ratio (z) = 0.30681 0.17140
#
# Static dielectric constant tensor:
#      x y z
#    x 4.441760 0.290070 -0.263580 
#    y 0.290070 5.234950 -0.022040 
#    z -0.263580 -0.022040 6.225810 
# 
# 
# High freq. dielectric constant tensor:
#      x y z
#    x 2.022980 0.020980 -0.009630 
#    y 0.020980 2.046680 0.015590 
#    z -0.009630 0.015590 2.061880 
# 
# From -- ./inp_files/230164.got.cif
#   From: 2010.06.25/outbox.cif.g09.slc.cpg/sg2_116_cif.got.tgz:230164.got - 2010.06.27 13:26:56.
