data_PCOD8027725
_publ_section_title
;
Structure prediction by ZEFSAII (Michael W. Deem and Ramdas Pophale) SiO2 
 PCOD8027725
Probable space group: P -1
;
_chemical_formula_sum "Si O2"
_cell_formula_units_Z 14
_cell_length_a 8.706035
_cell_length_b 5.477500
_cell_length_c 20.748658
_cell_angle_alpha 68.943059
_cell_angle_beta 137.539533
_cell_angle_gamma 120.440271
_cell_volume 575.706750
_symmetry_space_group_name_H-M "P -1"
_symmetry_group_IT_number 2
_symmetry_cell_setting 'triclinic'
loop_
_space_group_symop_operation_xyz
x,y,z
-x,-y,-z
loop_
_atom_site_type_symbol
_atom_site_label
_atom_site_fract_x
_atom_site_fract_y
_atom_site_fract_z
Si Si1 0.808575 0.199399 0.705664
Si Si2 0.526838 0.125453 0.811975
Si Si3 0.470978 0.615813 0.670946
Si Si4 0.014366 0.220968 0.899651
Si Si5 0.701658 0.189411 0.996367
Si Si6 0.639973 0.654834 0.466293
Si Si7 0.891411 0.325709 0.340090
O O1 0.522271 0.174525 0.625710
O O2 0.980507 0.335484 0.807447
O O3 0.947309 0.360760 0.668845
O O4 0.743283 0.863295 0.719903
O O5 0.538535 0.366353 0.743187
O O6 0.752376 0.038084 0.868687
O O7 0.267213 0.861775 0.749725
O O8 0.559622 0.234434 0.885053
O O9 0.346102 0.549163 0.568040
O O10 0.283723 0.669095 0.656886
O O11 0.152318 0.499853 0.959020
O O12 0.140039 0.993474 0.957150
O O13 0.500000 0.000000 0.000000
O O14 0.500000 0.500000 0.500000
O O15 0.924435 0.819883 0.561312
#
# Coordination Sequence:
#
# PCOD8027725 Si02
#       7
#     2   2   2   2   2   2   2
#     4  11  25  46  74 107 153 198 259 315 388 451
#     4  12  27  47  73 112 152 200 257 316 391 461
#     4  12  24  45  72 107 152 194 256 314 390 448
#     4  12  25  49  77 111 155 205 253 323 385 464
#     4  12  29  48  80 114 155 202 264 320 393 464
#     4  10  24  46  72 107 151 197 256 316 387 455
#     4  11  26  44  74 107 150 200 259 314 384 465
#
# _framework density 24.317934999999999
#
# number of rings (size 3 to 8) (size 9 to 14) (size 15 to 20)
#    0.000    0.571    2.857    3.429    4.000    8.000 
#    0.000    0.000    0.000    0.000    0.000    0.000 
#    0.000    0.000    0.000    0.000    0.000    0.000 
#
# Total GULP energy -173478.512937 kJ/mol
# GULP energy per Si atom -12391.322353 kJ/mol
# Density = 2.426259 g / cm^3
# Si number density = 24.317935 Si / 1000 Ang^3
#
#
#
# Elastic Constant Matrix: (Units=GPa)
#
#
# Indices 1 2 3 4 5 6 
#
# 1 86.9777 54.4802 64.2613 11.0344 -17.2314 11.2467
# 2 54.4802 110.0298 34.4015 18.2996 10.0285 13.3705
# 3 64.2613 34.4015 143.2125 32.1684 -14.0623 -0.2028
# 4 11.0344 18.2996 32.1684 34.9243 4.9268 -3.3866
# 5 -17.2314 10.0285 -14.0623 4.9268 44.6893 -3.8869
# 6 11.2467 13.3705 -0.2028 -3.3866 -3.8869 41.7620
#
#
#
# Elastic Compliance Matrix: (Units=1/GPa)
#
#
# Indices 1 2 3 4 5 6 
#
# 1 0.027975 -0.012216 -0.009789 0.004982 0.009693 -0.002364
# 2 -0.012216 0.016527 0.002142 -0.006043 -0.007354 -0.003166
# 3 -0.009789 0.002142 0.013295 -0.010317 0.001178 0.001288
# 4 0.004982 -0.006043 -0.010317 0.040649 -0.004150 0.003453
# 5 0.009693 -0.007354 0.001178 -0.004150 0.028775 0.002091
# 6 -0.002364 -0.003166 0.001288 0.003453 0.002091 0.026076
#
#
# Mechanical properties :
#
#
# Convention : Reuss Voigt Hill
#
# Bulk Modulus (GPa) = 55.33309 71.83401 63.58355
# Shear Modulus (GPa) = 25.11968 36.74692 30.93330
#
# Velocity S-wave (km/s) = 3.21747 3.89151 3.57043
# Velocity P-wave (km/s) = 6.05031 7.05659 6.57273
#
# Compressibility (1/GPa) = 0.01807237
#
# Stress axis : x y z
#
# Youngs Moduli (GPa) = 35.74608 60.50642 75.21347
#
# Poissons Ratio (x) = 0.73913 0.73627
# Poissons Ratio (y) = 0.43666 -0.16111
# Poissons Ratio (z) = 0.34992 -0.12961
#
# Static dielectric constant tensor:
#      x y z
#    x 4.667670 -0.045760 0.250700 
#    y -0.045760 4.368540 0.079840 
#    z 0.250700 0.079840 5.605550 
# 
# 
# High freq. dielectric constant tensor:
#      x y z
#    x 1.976170 0.011150 -0.008460 
#    y 0.011150 1.951520 -0.001430 
#    z -0.008460 -0.001430 1.992090 
# 
# From -- ./inp_files/323387.got.cif
#   From: 2010.06.25/outbox.cif.g09.slc.cpg/sg2_162_cif.got.tgz:323387.got - 2010.06.27 13:26:56.
