data_PCOD8027751
_publ_section_title
;
Structure prediction by ZEFSAII (Michael W. Deem and Ramdas Pophale) SiO2 
 PCOD8027751
Probable space group: P -1
;
_chemical_formula_sum "Si O2"
_cell_formula_units_Z 14
_cell_length_a 8.837510
_cell_length_b 9.251415
_cell_length_c 10.568392
_cell_angle_alpha 114.397344
_cell_angle_beta 136.012004
_cell_angle_gamma 68.633667
_cell_volume 543.425657
_symmetry_space_group_name_H-M "P -1"
_symmetry_group_IT_number 2
_symmetry_cell_setting 'triclinic'
loop_
_space_group_symop_operation_xyz
x,y,z
-x,-y,-z
loop_
_atom_site_type_symbol
_atom_site_label
_atom_site_fract_x
_atom_site_fract_y
_atom_site_fract_z
Si Si1 0.915589 0.149143 0.745780
Si Si2 0.411061 0.583386 0.739479
Si Si3 0.068191 0.599368 0.338586
Si Si4 0.286941 0.279914 0.654124
Si Si5 0.307598 0.952910 0.182509
Si Si6 0.105963 0.826346 0.772719
Si Si7 0.785622 0.695868 0.840064
O O1 0.813611 0.259093 0.609453
O O2 0.740756 0.087971 0.715517
O O3 0.072881 0.993990 0.735610
O O4 0.061412 0.274098 0.941102
O O5 0.185362 0.565421 0.527875
O O6 0.456834 0.410676 0.770935
O O7 0.341957 0.729557 0.847793
O O8 0.590042 0.611724 0.754168
O O9 0.073345 0.431244 0.209611
O O10 0.820919 0.664982 0.255014
O O11 0.440083 0.115517 0.713366
O O12 0.108385 0.261257 0.426493
O O13 0.299804 0.143230 0.228433
O O14 0.127562 0.878387 0.954393
#
# Coordination Sequence:
#
# PCOD8027751 Si02
#       7
#     2   2   2   2   2   2   2
#     4  11  26  44  73 103 141 189 231 293 354 412
#     4  11  26  44  73 103 141 189 231 293 354 412
#     4  11  25  46  71 104 145 182 234 291 355 418
#     4  11  27  46  76 104 139 192 234 290 354 415
#     4  11  27  46  76 104 139 192 234 290 354 415
#     4  10  24  46  74 104 146 178 242 288 352 418
#     4  11  25  46  71 104 145 182 234 291 355 418
#
# _framework density 25.762494
#
# number of rings (size 3 to 8) (size 9 to 14) (size 15 to 20)
#    0.000    1.143    0.000    5.143   14.000    3.429 
#    0.000    0.000    0.000    0.000    0.000    0.000 
#    0.000    0.000    0.000    0.000    0.000    0.000 
#
# Total GULP energy -173484.195386 kJ/mol
# GULP energy per Si atom -12391.728242 kJ/mol
# Density = 2.570386 g / cm^3
# Si number density = 25.762494 Si / 1000 Ang^3
#
#
#
# Elastic Constant Matrix: (Units=GPa)
#
#
# Indices 1 2 3 4 5 6 
#
# 1 121.7185 78.1314 27.0665 16.2264 7.0291 4.2324
# 2 78.1314 127.8100 4.5253 17.3089 -11.0837 1.8186
# 3 27.0665 4.5253 33.2569 13.5921 -3.2461 2.3898
# 4 16.2264 17.3089 13.5921 30.9673 -8.1711 4.1081
# 5 7.0291 -11.0837 -3.2461 -8.1711 29.4087 2.3053
# 6 4.2324 1.8186 2.3898 4.1081 2.3053 43.0404
#
#
#
# Elastic Compliance Matrix: (Units=1/GPa)
#
#
# Indices 1 2 3 4 5 6 
#
# 1 0.021220 -0.013496 -0.016879 0.000716 -0.011822 -0.000014
# 2 -0.013496 0.017186 0.011680 -0.005125 0.009574 -0.000071
# 3 -0.016879 0.011680 0.050187 -0.017214 0.009230 -0.000472
# 4 0.000716 -0.005125 -0.017214 0.045156 0.008832 -0.003681
# 5 -0.011822 0.009574 0.009230 0.008832 0.044142 -0.002962
# 6 -0.000014 -0.000071 -0.000472 -0.003681 -0.002962 0.023775
#
#
# Mechanical properties :
#
#
# Convention : Reuss Voigt Hill
#
# Bulk Modulus (GPa) = 19.53041 55.80353 37.66697
# Shear Modulus (GPa) = 19.52167 32.22078 25.87122
#
# Velocity S-wave (km/s) = 2.75572 3.54034 3.17238
# Velocity P-wave (km/s) = 4.20984 6.19837 5.29823
#
# Compressibility (1/GPa) = 0.05120220
#
# Stress axis : x y z
#
# Youngs Moduli (GPa) = 47.12491 58.18571 19.92541
#
# Poissons Ratio (x) = 0.78530 0.33633
# Poissons Ratio (y) = 0.63601 -0.23272
# Poissons Ratio (z) = 0.79543 -0.67960
#
# Static dielectric constant tensor:
#      x y z
#    x 4.543550 -0.389440 -0.314690 
#    y -0.389440 5.065270 0.162720 
#    z -0.314690 0.162720 4.514270 
# 
# 
# High freq. dielectric constant tensor:
#      x y z
#    x 2.022300 -0.009080 -0.010700 
#    y -0.009080 2.055020 0.010000 
#    z -0.010700 0.010000 2.015700 
# 
# From -- ./inp_files/159373.got.cif
#   From: 2010.06.25/outbox.cif.g09.slc.cpg/sg2_80_cif.got.tgz:159373.got - 2010.06.27 13:26:56.
