data_PCOD8027771
_publ_section_title
;
Structure prediction by ZEFSAII (Michael W. Deem and Ramdas Pophale) SiO2 
 PCOD8027771
Probable space group: P -1
;
_chemical_formula_sum "Si O2"
_cell_formula_units_Z 12
_cell_length_a 9.459623
_cell_length_b 11.614746
_cell_length_c 8.127331
_cell_angle_alpha 98.575301
_cell_angle_beta 65.868939
_cell_angle_gamma 140.549669
_cell_volume 495.987099
_symmetry_space_group_name_H-M "P -1"
_symmetry_group_IT_number 2
_symmetry_cell_setting 'triclinic'
loop_
_space_group_symop_operation_xyz
x,y,z
-x,-y,-z
loop_
_atom_site_type_symbol
_atom_site_label
_atom_site_fract_x
_atom_site_fract_y
_atom_site_fract_z
Si Si1 0.255865 0.171224 0.817216
Si Si2 0.858358 0.306935 0.453909
Si Si3 0.771107 0.581151 0.217506
Si Si4 0.535891 0.799442 0.584107
Si Si5 0.297134 0.914730 0.212580
Si Si6 0.673279 0.489707 0.893496
O O1 0.294797 0.324773 0.765900
O O2 0.268587 0.091463 0.639020
O O3 0.491935 0.284648 0.851866
O O4 0.000000 0.000000 0.000000
O O5 0.692115 0.249213 0.365598
O O6 0.678923 0.143592 0.641922
O O7 0.000000 0.500000 0.500000
O O8 0.074681 0.343197 0.300402
O O9 0.559532 0.389536 0.383788
O O10 0.030549 0.729946 0.221421
O O11 0.776777 0.512539 0.028016
O O12 0.669686 0.930500 0.712459
O O13 0.500000 0.000000 0.000000
O O14 0.500000 0.500000 0.000000
#
# Coordination Sequence:
#
# PCOD8027771 Si02
#       6
#     2   2   2   2   2   2
#     4  11  26  46  74 109 146 196 249 302 367 443
#     4  12  24  47  76 103 148 195 244 299 372 426
#     4  11  26  47  72 108 150 190 247 296 376 430
#     4  12  27  47  77 104 151 197 243 307 369 434
#     4  12  29  45  73 110 148 187 252 306 362 441
#     4  10  24  46  77 101 149 194 240 300 370 434
#
# _framework density 24.194177
#
# number of rings (size 3 to 8) (size 9 to 14) (size 15 to 20)
#    0.000    0.667    3.333    2.000   11.667    3.333 
#    0.000    0.000    0.000    0.000    0.000    0.000 
#    0.000    0.000    0.000    0.000    0.000    0.000 
#
# Total GULP energy -148733.620724 kJ/mol
# GULP energy per Si atom -12394.468394 kJ/mol
# Density = 2.413911 g / cm^3
# Si number density = 24.194177 Si / 1000 Ang^3
#
#
#
# Elastic Constant Matrix: (Units=GPa)
#
#
# Indices 1 2 3 4 5 6 
#
# 1 72.2291 23.8912 32.4056 -6.2701 9.6236 -5.2543
# 2 23.8912 136.9264 63.8143 1.7370 13.9016 -0.0780
# 3 32.4056 63.8143 207.2980 -1.3528 -9.4717 0.4223
# 4 -6.2701 1.7370 -1.3528 43.7317 4.4452 7.5021
# 5 9.6236 13.9016 -9.4717 4.4452 31.1883 10.3112
# 6 -5.2543 -0.0780 0.4223 7.5021 10.3112 29.1340
#
#
#
# Elastic Compliance Matrix: (Units=1/GPa)
#
#
# Indices 1 2 3 4 5 6 
#
# 1 0.016977 -0.000943 -0.002711 0.002272 -0.007697 0.005238
# 2 -0.000943 0.009423 -0.003006 -0.000381 -0.005398 0.001907
# 3 -0.002711 -0.003006 0.006401 -0.000179 0.004899 -0.002278
# 4 0.002272 -0.000381 -0.000179 0.024303 -0.002397 -0.004999
# 5 -0.007697 -0.005398 0.004899 -0.002397 0.044119 -0.016471
# 6 0.005238 0.001907 -0.002278 -0.004999 -0.016471 0.042424
#
#
# Mechanical properties :
#
#
# Convention : Reuss Voigt Hill
#
# Bulk Modulus (GPa) = 51.33666 72.96395 62.15031
# Shear Modulus (GPa) = 30.58846 40.56698 35.57772
#
# Velocity S-wave (km/s) = 3.55954 4.09923 3.83888
# Velocity P-wave (km/s) = 6.17725 7.25451 6.73745
#
# Compressibility (1/GPa) = 0.01947926
#
# Stress axis : x y z
#
# Youngs Moduli (GPa) = 58.90388 106.12530 156.23656
#
# Poissons Ratio (x) = 0.10008 0.42357
# Poissons Ratio (y) = 0.05555 0.46970
# Poissons Ratio (z) = 0.15969 0.31905
#
# Static dielectric constant tensor:
#      x y z
#    x 4.436500 0.404910 0.258770 
#    y 0.404910 4.917480 0.256270 
#    z 0.258770 0.256270 4.795870 
# 
# 
# High freq. dielectric constant tensor:
#      x y z
#    x 1.941100 0.013350 0.007320 
#    y 0.013350 1.974660 0.011430 
#    z 0.007320 0.011430 1.975300 
# 
# From -- ./inp_files/188354.got.cif
#   From: 2010.06.25/outbox.cif.g09.slc.cpg/sg2_95_cif.got.tgz:188354.got - 2010.06.27 13:26:56.
