data_PCOD8027109
_publ_section_title
;
Structure prediction by ZEFSAII (Michael W. Deem and Ramdas Pophale) SiO2 
 PCOD8027109
Probable space group: P -1
;
_chemical_formula_sum "Si O2"
_cell_formula_units_Z 10
_cell_length_a 7.462154
_cell_length_b 9.874937
_cell_length_c 11.298777
_cell_angle_alpha 58.272457
_cell_angle_beta 87.028806
_cell_angle_gamma 47.103394
_cell_volume 451.865383
_symmetry_space_group_name_H-M "P -1"
_symmetry_group_IT_number 2
_symmetry_cell_setting 'triclinic'
loop_
_space_group_symop_operation_xyz
x,y,z
-x,-y,-z
loop_
_atom_site_type_symbol
_atom_site_label
_atom_site_fract_x
_atom_site_fract_y
_atom_site_fract_z
Si Si1 0.339950 0.716967 0.811619
Si Si2 0.384928 0.152791 0.313059
Si Si3 0.249597 0.474029 0.806626
Si Si4 0.775380 0.719194 0.317795
Si Si5 0.840250 0.003166 0.100779
O O1 0.532313 0.719395 0.745840
O O2 0.233263 0.678493 0.724565
O O3 0.500000 0.500000 0.000000
O O4 0.093972 0.969512 0.782616
O O5 0.050359 0.384012 0.205496
O O6 0.500000 0.000000 0.500000
O O7 0.509386 0.971272 0.280788
O O8 0.314876 0.368420 0.720281
O O9 0.502344 0.236719 0.987635
O O10 0.082001 0.237655 0.788429
O O11 0.000000 0.500000 0.500000
O O12 0.000000 0.000000 0.000000
#
# Coordination Sequence:
#
# PCOD8027109 Si02
#       5
#     2   2   2   2   2
#     4   9  23  42  64  98 129 168 223 268 319 394
#     4  11  24  45  67  96 138 170 220 277 323 394
#     4  11  24  43  73  94 133 181 216 268 343 378
#     4  11  24  44  66 101 133 172 221 271 328 393
#     4  10  24  44  67  99 135 170 224 273 321 398
#
# _framework density 22.130483000000002
#
# number of rings (size 3 to 8) (size 9 to 14) (size 15 to 20)
#    0.000    1.600    2.000    0.600    8.400    8.000 
#    0.000    2.000    0.000    0.000    0.000    0.000 
#    0.000    0.000    0.000    0.000    0.000    0.000 
#
# Total GULP energy -123890.672195 kJ/mol
# GULP energy per Si atom -12389.067220 kJ/mol
# Density = 2.208011 g / cm^3
# Si number density = 22.130483 Si / 1000 Ang^3
#
#
#
# Elastic Constant Matrix: (Units=GPa)
#
#
# Indices 1 2 3 4 5 6 
#
# 1 169.7354 83.9436 65.7203 8.9048 -23.1299 17.0043
# 2 83.9436 145.6896 33.6841 20.3829 5.0000 24.0042
# 3 65.7203 33.6841 103.8143 -3.0774 -20.5518 4.0197
# 4 8.9048 20.3829 -3.0774 32.4597 2.9185 11.5963
# 5 -23.1299 5.0000 -20.5518 2.9185 29.3569 8.6648
# 6 17.0043 24.0042 4.0197 11.5963 8.6648 57.1928
#
#
#
# Elastic Compliance Matrix: (Units=1/GPa)
#
#
# Indices 1 2 3 4 5 6 
#
# 1 0.011416 -0.005669 -0.003743 0.000063 0.007913 -0.001963
# 2 -0.005669 0.011595 -0.001620 -0.004896 -0.006780 -0.001047
# 3 -0.003743 -0.001620 0.014066 0.003056 0.007134 -0.000896
# 4 0.000063 -0.004896 0.003056 0.036077 0.001108 -0.005662
# 5 0.007913 -0.006780 0.007134 0.001108 0.048578 -0.007593
# 6 -0.001963 -0.001047 -0.000896 -0.005662 -0.007593 0.020869
#
#
# Mechanical properties :
#
#
# Convention : Reuss Voigt Hill
#
# Bulk Modulus (GPa) = 66.61396 87.32612 76.97004
# Shear Modulus (GPa) = 29.46878 39.52796 34.49837
#
# Velocity S-wave (km/s) = 3.65306 4.23085 3.95253
# Velocity P-wave (km/s) = 6.92524 7.96317 7.46228
#
# Compressibility (1/GPa) = 0.01501187
#
# Stress axis : x y z
#
# Youngs Moduli (GPa) = 87.59312 86.24222 71.09572
#
# Poissons Ratio (x) = 0.48894 0.26613
# Poissons Ratio (y) = 0.49660 0.11517
# Poissons Ratio (z) = 0.32789 0.13971
#
# Static dielectric constant tensor:
#      x y z
#    x 4.488290 1.004640 0.119580 
#    y 1.004640 5.419230 0.347450 
#    z 0.119580 0.347450 3.901440 
# 
# 
# High freq. dielectric constant tensor:
#      x y z
#    x 1.864420 0.023370 -0.010480 
#    y 0.023370 1.893610 0.003850 
#    z -0.010480 0.003850 1.855680 
# 
# From -- ./inp_files/106379.got.cif
#   From: 2010.06.25/outbox.cif.g09.slc.cpg/sg2_54_cif.got.tgz:106379.got - 2010.06.27 13:26:56.
