data_PCOD8027569
_publ_section_title
;
Structure prediction by ZEFSAII (Michael W. Deem and Ramdas Pophale) SiO2 
 PCOD8027569
Probable space group: P -1
;
_chemical_formula_sum "Si O2"
_cell_formula_units_Z 16
_cell_length_a 11.751424
_cell_length_b 8.462842
_cell_length_c 20.780803
_cell_angle_alpha 141.137112
_cell_angle_beta 35.627382
_cell_angle_gamma 143.197053
_cell_volume 671.063382
_symmetry_space_group_name_H-M "P -1"
_symmetry_group_IT_number 2
_symmetry_cell_setting 'triclinic'
loop_
_space_group_symop_operation_xyz
x,y,z
-x,-y,-z
loop_
_atom_site_type_symbol
_atom_site_label
_atom_site_fract_x
_atom_site_fract_y
_atom_site_fract_z
Si Si1 0.799506 0.193784 0.611428
Si Si2 0.724261 0.100262 0.888575
Si Si3 0.545494 0.246221 0.208293
Si Si4 0.532123 0.004803 0.410035
Si Si5 0.119898 0.263188 0.981741
Si Si6 0.507711 0.291512 0.873451
Si Si7 0.893738 0.802778 0.172659
Si Si8 0.286063 0.383048 0.470677
O O1 0.735244 0.334793 0.747969
O O2 0.061012 0.357130 0.533990
O O3 0.678385 0.201745 0.602597
O O4 0.745103 0.870053 0.548489
O O5 0.896525 0.025709 0.823800
O O6 0.662450 0.926486 0.796608
O O7 0.857410 0.431051 0.911453
O O8 0.500000 0.000000 0.000000
O O9 0.763907 0.468437 0.142617
O O10 0.462251 0.420326 0.346658
O O11 0.611773 0.028714 0.145168
O O12 0.604526 0.318646 0.447673
O O13 0.500000 0.000000 0.500000
O O14 0.734676 0.941983 0.287121
O O15 0.372093 0.314536 0.882276
O O16 0.007288 0.178046 0.937448
O O17 0.000000 0.000000 0.000000
O O18 0.500000 0.500000 0.000000
#
# Coordination Sequence:
#
# PCOD8027569 Si02
#       8
#     2   2   2   2   2   2   2   2
#     4  10  24  47  70 105 144 184 243 306 356 426
#     4  12  27  46  73 100 144 198 238 297 374 438
#     4  11  24  46  72 102 143 192 244 295 364 447
#     4  12  25  44  71 103 139 188 241 295 362 427
#     4  12  26  45  71 104 144 185 243 305 361 434
#     4  11  23  44  71 105 141 186 242 296 363 435
#     4  12  27  48  69 104 146 191 243 303 366 437
#     4  10  24  45  73 101 142 189 240 302 359 421
#
# _framework density 23.842756000000001
#
# number of rings (size 3 to 8) (size 9 to 14) (size 15 to 20)
#    0.000    0.750    5.000    1.500    3.500    3.500 
#    2.250    0.000    0.000    0.000    0.000    0.000 
#    0.000    0.000    0.000    0.000    0.000    0.000 
#
# Total GULP energy -198254.812861 kJ/mol
# GULP energy per Si atom -12390.925804 kJ/mol
# Density = 2.378849 g / cm^3
# Si number density = 23.842756 Si / 1000 Ang^3
#
#
#
# Elastic Constant Matrix: (Units=GPa)
#
#
# Indices 1 2 3 4 5 6 
#
# 1 137.5012 -1.8730 31.8591 -0.5330 -5.4618 14.8847
# 2 -1.8730 65.8937 20.6150 5.9166 6.5454 -7.9797
# 3 31.8591 20.6150 93.2440 11.6402 -11.2669 -4.1812
# 4 -0.5330 5.9166 11.6402 33.9639 -2.1206 3.9923
# 5 -5.4618 6.5454 -11.2669 -2.1206 40.4639 -3.1825
# 6 14.8847 -7.9797 -4.1812 3.9923 -3.1825 32.0458
#
#
#
# Elastic Compliance Matrix: (Units=1/GPa)
#
#
# Indices 1 2 3 4 5 6 
#
# 1 0.008587 0.000662 -0.003524 0.001747 -0.000193 -0.004520
# 2 0.000662 0.017465 -0.004102 -0.002261 -0.003728 0.003418
# 3 -0.003524 -0.004102 0.014022 -0.004287 0.004134 0.003390
# 4 0.001747 -0.002261 -0.004287 0.032062 0.000627 -0.005866
# 5 -0.000193 -0.003728 0.004134 0.000627 0.026653 0.002270
# 6 -0.004520 0.003418 0.003390 -0.005866 0.002270 0.035554
#
#
# Mechanical properties :
#
#
# Convention : Reuss Voigt Hill
#
# Bulk Modulus (GPa) = 38.24903 44.20455 41.22679
# Shear Modulus (GPa) = 31.84948 37.69724 34.77336
#
# Velocity S-wave (km/s) = 3.65884 3.98059 3.82310
# Velocity P-wave (km/s) = 5.82465 6.30136 6.06769
#
# Compressibility (1/GPa) = 0.02614445
#
# Stress axis : x y z
#
# Youngs Moduli (GPa) = 116.45994 57.25608 71.31469
#
# Poissons Ratio (x) = -0.03788 0.25133
# Poissons Ratio (y) = -0.07705 0.29256
# Poissons Ratio (z) = 0.41043 0.23489
#
# Static dielectric constant tensor:
#      x y z
#    x 4.439730 0.198320 0.323260 
#    y 0.198320 4.156520 -0.089510 
#    z 0.323260 -0.089510 3.864280 
# 
# 
# High freq. dielectric constant tensor:
#      x y z
#    x 1.959000 -0.004370 -0.017200 
#    y -0.004370 1.941610 0.007970 
#    z -0.017200 0.007970 1.946740 
# 
# From -- ./inp_files/594248.got.cif
#   From: 2010.06.25/outbox.cif.g09.slc.cpg/sg2_298_cif.got.tgz:594248.got - 2010.06.27 13:26:56.
