data_PCOD8027448
_publ_section_title
;
Structure prediction by ZEFSAII (Michael W. Deem and Ramdas Pophale) SiO2 
 PCOD8027448
Probable space group: P -1
;
_chemical_formula_sum "Si O2"
_cell_formula_units_Z 16
_cell_length_a 12.148461
_cell_length_b 8.920428
_cell_length_c 11.443668
_cell_angle_alpha 111.962318
_cell_angle_beta 49.350279
_cell_angle_gamma 135.119283
_cell_volume 654.987009
_symmetry_space_group_name_H-M "P -1"
_symmetry_group_IT_number 2
_symmetry_cell_setting 'triclinic'
loop_
_space_group_symop_operation_xyz
x,y,z
-x,-y,-z
loop_
_atom_site_type_symbol
_atom_site_label
_atom_site_fract_x
_atom_site_fract_y
_atom_site_fract_z
Si Si1 0.387444 0.068043 0.146943
Si Si2 0.717673 0.533261 0.586427
Si Si3 0.952280 0.737515 0.898579
Si Si4 0.027495 0.607879 0.252933
Si Si5 0.388298 0.086489 0.608639
Si Si6 0.439586 0.303619 0.397186
Si Si7 0.179405 0.177774 0.193456
Si Si8 0.131575 0.288462 0.783417
O O1 0.495950 0.223119 0.228784
O O2 0.352600 0.178844 0.102711
O O3 0.182638 0.847540 0.266759
O O4 0.500000 0.000000 0.000000
O O5 0.504787 0.297188 0.673499
O O6 0.720287 0.689114 0.541161
O O7 0.803468 0.654568 0.685236
O O8 0.850308 0.486728 0.430471
O O9 0.883754 0.503985 0.855173
O O10 0.809857 0.745020 0.922803
O O11 0.177251 0.915309 0.760693
O O12 0.916933 0.766338 0.063169
O O13 0.953546 0.605626 0.174181
O O14 0.369013 0.146275 0.509430
O O15 0.500000 0.000000 0.500000
O O16 0.638160 0.551706 0.358679
O O17 0.971263 0.935714 0.278867
#
# Coordination Sequence:
#
# PCOD8027448 Si02
#       8
#     2   2   2   2   2   2   2   2
#     4  10  24  45  69 101 136 183 235 283 346 415
#     4  11  24  46  69 105 137 182 237 278 346 414
#     4  12  25  44  71 104 143 179 230 288 349 405
#     4  11  24  43  72  99 139 185 230 283 343 414
#     4  12  25  43  67 109 139 179 227 290 344 397
#     4  11  24  44  75  99 138 184 236 284 333 420
#     4  10  26  43  72 100 138 183 226 292 345 406
#     4  11  23  47  70 101 134 190 233 276 344 418
#
# _framework density 24.427965
#
# number of rings (size 3 to 8) (size 9 to 14) (size 15 to 20)
#    0.000    1.000    2.500    2.625    5.250    7.000 
#    0.000   10.000    0.000    0.000    0.000    0.000 
#    0.000    0.000    0.000    0.000    0.000    0.000 
#
# Total GULP energy -198378.827546 kJ/mol
# GULP energy per Si atom -12398.676722 kJ/mol
# Density = 2.437237 g / cm^3
# Si number density = 24.427965 Si / 1000 Ang^3
#
#
#
# Elastic Constant Matrix: (Units=GPa)
#
#
# Indices 1 2 3 4 5 6 
#
# 1 104.6870 34.3591 32.0837 0.8244 7.9150 -7.3581
# 2 34.3591 93.6012 16.2600 18.1107 13.5470 1.5392
# 3 32.0837 16.2600 93.7993 3.5042 10.8082 2.5048
# 4 0.8244 18.1107 3.5042 42.5538 -3.0746 4.2008
# 5 7.9150 13.5470 10.8082 -3.0746 30.3111 8.5711
# 6 -7.3581 1.5392 2.5048 4.2008 8.5711 38.6164
#
#
#
# Elastic Compliance Matrix: (Units=1/GPa)
#
#
# Indices 1 2 3 4 5 6 
#
# 1 0.012206 -0.004096 -0.003509 0.001475 -0.000724 0.002717
# 2 -0.004096 0.014359 -0.000153 -0.006537 -0.006165 0.000736
# 3 -0.003509 -0.000153 0.012330 -0.001065 -0.003349 -0.000603
# 4 0.001475 -0.006537 -0.001065 0.027210 0.006765 -0.003851
# 5 -0.000724 -0.006165 -0.003349 0.006765 0.040472 -0.009394
# 6 0.002717 0.000736 -0.000603 -0.003851 -0.009394 0.028927
#
#
# Mechanical properties :
#
#
# Convention : Reuss Voigt Hill
#
# Bulk Modulus (GPa) = 42.77644 50.83257 46.80451
# Shear Modulus (GPa) = 31.48335 36.25523 33.86929
#
# Velocity S-wave (km/s) = 3.59391 3.85667 3.72761
# Velocity P-wave (km/s) = 5.89669 6.37858 6.14236
#
# Compressibility (1/GPa) = 0.02337735
#
# Stress axis : x y z
#
# Youngs Moduli (GPa) = 81.92455 69.64314 81.10486
#
# Poissons Ratio (x) = 0.28529 0.28462
# Poissons Ratio (y) = 0.33560 0.01241
# Poissons Ratio (z) = 0.28750 0.01066
#
# Static dielectric constant tensor:
#      x y z
#    x 4.795060 0.100720 0.026570 
#    y 0.100720 4.806480 0.096730 
#    z 0.026570 0.096730 4.133290 
# 
# 
# High freq. dielectric constant tensor:
#      x y z
#    x 1.978110 0.000990 -0.003310 
#    y 0.000990 1.990080 0.010730 
#    z -0.003310 0.010730 1.958590 
# 
# From -- ./inp_files/261537.got.cif
#   From: 2010.06.25/outbox.cif.g09.slc.cpg/sg2_131_cif.got.tgz:261537.got - 2010.06.27 13:26:56.
