data_PCOD8027234
_publ_section_title
;
Structure prediction by ZEFSAII (Michael W. Deem and Ramdas Pophale) SiO2 
 PCOD8027234
Probable space group: P -1
;
_chemical_formula_sum "Si O2"
_cell_formula_units_Z 12
_cell_length_a 4.904192
_cell_length_b 19.529644
_cell_length_c 10.924903
_cell_angle_alpha 149.735891
_cell_angle_beta 72.753846
_cell_angle_gamma 116.699384
_cell_volume 461.269597
_symmetry_space_group_name_H-M "P -1"
_symmetry_group_IT_number 2
_symmetry_cell_setting 'triclinic'
loop_
_space_group_symop_operation_xyz
x,y,z
-x,-y,-z
loop_
_atom_site_type_symbol
_atom_site_label
_atom_site_fract_x
_atom_site_fract_y
_atom_site_fract_z
Si Si1 0.227441 0.666661 0.996600
Si Si2 0.661550 0.929283 0.500376
Si Si3 0.601899 0.195402 0.051617
Si Si4 0.051732 0.865804 0.876404
Si Si5 0.550311 0.816878 0.600981
Si Si6 0.528065 0.500072 0.852886
O O1 0.275118 0.539125 0.871822
O O2 0.862093 0.626717 0.971082
O O3 0.403642 0.828478 0.283154
O O4 0.330481 0.670493 0.846662
O O5 0.650667 0.824439 0.456679
O O6 0.542758 0.051071 0.753385
O O7 0.000000 0.000000 0.500000
O O8 0.881568 0.213030 0.133521
O O9 0.317747 0.186376 0.161825
O O10 0.209143 0.824249 0.672695
O O11 0.195791 0.045096 0.146190
O O12 0.528783 0.666042 0.434936
O O13 0.500000 0.500000 0.000000
#
# Coordination Sequence:
#
# PCOD8027234 Si02
#       6
#     2   2   2   2   2   2
#     4  12  25  43  65 102 139 176 222 273 342 404
#     4  11  23  42  72 104 136 175 223 290 343 388
#     4  11  24  43  69  97 135 173 232 274 338 385
#     4  10  24  45  70  98 128 182 226 288 317 393
#     4  10  24  44  70  98 137 173 233 270 340 395
#     4  12  26  42  66 100 141 181 215 270 343 413
#
# _framework density 26.015156999999999
#
# number of rings (size 3 to 8) (size 9 to 14) (size 15 to 20)
#    0.000    1.000    1.667    5.000    2.333    8.667 
#    0.000    5.000    0.000    0.000    0.000    0.000 
#    0.000    0.000    0.000    0.000    0.000    0.000 
#
# Total GULP energy -148782.435834 kJ/mol
# GULP energy per Si atom -12398.536320 kJ/mol
# Density = 2.595595 g / cm^3
# Si number density = 26.015157 Si / 1000 Ang^3
#
#
#
# Elastic Constant Matrix: (Units=GPa)
#
#
# Indices 1 2 3 4 5 6 
#
# 1 66.7081 23.5416 7.0568 -2.2412 -12.1821 -1.0342
# 2 23.5416 167.6924 18.0486 -15.8467 -4.1839 -4.1837
# 3 7.0568 18.0486 54.1529 -7.7118 -5.0642 3.2658
# 4 -2.2412 -15.8467 -7.7118 29.3445 3.2195 -7.6269
# 5 -12.1821 -4.1839 -5.0642 3.2195 35.2023 -0.3940
# 6 -1.0342 -4.1837 3.2658 -7.6269 -0.3940 58.8022
#
#
#
# Elastic Compliance Matrix: (Units=1/GPa)
#
#
# Indices 1 2 3 4 5 6 
#
# 1 0.016853 -0.002180 -0.001070 -0.000736 0.005488 0.000142
# 2 -0.002180 0.006772 -0.001595 0.003375 -0.000477 0.000967
# 3 -0.001070 -0.001595 0.019916 0.003891 0.001941 -0.000721
# 4 -0.000736 0.003375 0.003891 0.038464 -0.002756 0.004982
# 5 0.005488 -0.000477 0.001941 -0.002756 0.030779 -0.000196
# 6 0.000142 0.000967 -0.000721 0.004982 -0.000196 0.017762
#
#
# Mechanical properties :
#
#
# Convention : Reuss Voigt Hill
#
# Bulk Modulus (GPa) = 29.54084 42.87194 36.20639
# Shear Modulus (GPa) = 32.99891 40.66355 36.83123
#
# Velocity S-wave (km/s) = 3.56539 3.95786 3.76674
# Velocity P-wave (km/s) = 5.32252 6.11568 5.73284
#
# Compressibility (1/GPa) = 0.03385144
#
# Stress axis : x y z
#
# Youngs Moduli (GPa) = 59.33724 147.66312 50.20981
#
# Poissons Ratio (x) = 0.32189 0.05372
# Poissons Ratio (y) = 0.12935 0.08010
# Poissons Ratio (z) = 0.06348 0.23557
#
# Static dielectric constant tensor:
#      x y z
#    x 4.477810 -0.125260 -0.130800 
#    y -0.125260 5.563290 0.136550 
#    z -0.130800 0.136550 4.678870 
# 
# 
# High freq. dielectric constant tensor:
#      x y z
#    x 2.042910 -0.018170 -0.008970 
#    y -0.018170 2.072280 -0.004950 
#    z -0.008970 -0.004950 2.022160 
# 
# From -- ./inp_files/69542.got.cif
#   From: 2010.06.25/outbox.cif.g09.slc.cpg/sg2_35_cif.got.tgz:69542.got - 2010.06.27 13:26:56.
