data_PCOD8027418
_publ_section_title
;
Structure prediction by ZEFSAII (Michael W. Deem and Ramdas Pophale) SiO2 
 PCOD8027418
Probable space group: P -1
;
_chemical_formula_sum "Si O2"
_cell_formula_units_Z 14
_cell_length_a 9.979960
_cell_length_b 15.807375
_cell_length_c 15.293601
_cell_angle_alpha 151.703323
_cell_angle_beta 143.887934
_cell_angle_gamma 34.218073
_cell_volume 613.677062
_symmetry_space_group_name_H-M "P -1"
_symmetry_group_IT_number 2
_symmetry_cell_setting 'triclinic'
loop_
_space_group_symop_operation_xyz
x,y,z
-x,-y,-z
loop_
_atom_site_type_symbol
_atom_site_label
_atom_site_fract_x
_atom_site_fract_y
_atom_site_fract_z
Si Si1 0.711571 0.626428 0.975800
Si Si2 0.326694 0.692020 0.688499
Si Si3 0.417032 0.547061 0.900111
Si Si4 0.720055 0.020925 0.378630
Si Si5 0.384360 0.292153 0.309795
Si Si6 0.584396 0.128526 0.596588
Si Si7 0.007351 0.882334 0.071963
O O1 0.556703 0.587483 0.780492
O O2 0.625774 0.572016 0.973244
O O3 0.673764 0.848620 0.151451
O O4 0.000000 0.500000 0.000000
O O5 0.229968 0.526531 0.458214
O O6 0.411845 0.760603 0.707240
O O7 0.113290 0.882461 0.796193
O O8 0.376548 0.352209 0.672161
O O9 0.500000 0.500000 0.000000
O O10 0.170708 0.754931 0.959392
O O11 0.528006 0.213196 0.404379
O O12 0.652725 0.015609 0.439283
O O13 0.000000 0.000000 0.500000
O O14 0.203480 0.195571 0.093950
O O15 0.826043 0.151575 0.784065
O O16 0.500000 0.000000 0.500000
#
# Coordination Sequence:
#
# PCOD8027418 Si02
#       7
#     2   2   2   2   2   2   2
#     4  12  26  45  72 103 144 188 241 296 355 431
#     4  11  25  44  72 104 146 185 241 291 366 413
#     4  10  24  45  68 103 138 187 233 289 359 419
#     4  12  24  44  71 105 139 187 244 289 351 427
#     4  11  25  45  69 110 140 192 236 296 359 424
#     4  11  25  46  71 103 142 188 235 289 357 429
#     4  11  24  45  74  99 148 183 236 295 356 423
#
# _framework density 22.813300000000002
#
# number of rings (size 3 to 8) (size 9 to 14) (size 15 to 20)
#    0.000    0.857    1.429    5.571    8.000    1.714 
#    2.571    1.429    0.000    0.000    0.000    0.000 
#    0.000    0.000    0.000    0.000    0.000    0.000 
#
# Total GULP energy -173540.358005 kJ/mol
# GULP energy per Si atom -12395.739857 kJ/mol
# Density = 2.276138 g / cm^3
# Si number density = 22.813300 Si / 1000 Ang^3
#
#
#
# Elastic Constant Matrix: (Units=GPa)
#
#
# Indices 1 2 3 4 5 6 
#
# 1 139.1300 48.6518 25.1635 11.6090 0.6372 10.0941
# 2 48.6518 109.3362 41.1748 17.1288 -3.1179 -11.9409
# 3 25.1635 41.1748 127.1204 20.6622 2.7644 -1.5080
# 4 11.6090 17.1288 20.6622 51.5907 2.3962 -15.3289
# 5 0.6372 -3.1179 2.7644 2.3962 32.8588 6.9501
# 6 10.0941 -11.9409 -1.5080 -15.3289 6.9501 35.4184
#
#
#
# Elastic Compliance Matrix: (Units=1/GPa)
#
#
# Indices 1 2 3 4 5 6 
#
# 1 0.009259 -0.004258 -0.000179 -0.002160 0.000678 -0.005150
# 2 -0.004258 0.012903 -0.003197 -0.000562 0.000543 0.005077
# 3 -0.000179 -0.003197 0.009450 -0.003238 -0.000449 -0.001938
# 4 -0.002160 -0.000562 -0.003238 0.025095 -0.004097 0.011953
# 5 0.000678 0.000543 -0.000449 -0.004097 0.032540 -0.008188
# 6 -0.005150 0.005077 -0.001938 0.011953 -0.008188 0.038111
#
#
# Mechanical properties :
#
#
# Convention : Reuss Voigt Hill
#
# Bulk Modulus (GPa) = 61.17419 67.28520 64.22970
# Shear Modulus (GPa) = 33.76719 41.34668 37.55693
#
# Velocity S-wave (km/s) = 3.85145 4.26184 4.06183
# Velocity P-wave (km/s) = 6.83020 7.33318 7.08615
#
# Compressibility (1/GPa) = 0.01634676
#
# Stress axis : x y z
#
# Youngs Moduli (GPa) = 107.99810 77.50433 105.81532
#
# Poissons Ratio (x) = 0.32999 0.01890
# Poissons Ratio (y) = 0.45982 0.33825
# Poissons Ratio (z) = 0.01929 0.24775
#
# Static dielectric constant tensor:
#      x y z
#    x 4.094000 -0.259180 -0.218410 
#    y -0.259180 4.323060 0.438680 
#    z -0.218410 0.438680 4.487630 
# 
# 
# High freq. dielectric constant tensor:
#      x y z
#    x 1.894260 -0.000220 -0.008450 
#    y -0.000220 1.897150 0.022290 
#    z -0.008450 0.022290 1.920060 
# 
# From -- ./inp_files/153927.got.cif
#   From: 2010.06.25/outbox.cif.g09.slc.cpg/sg2_77_cif.got.tgz:153927.got - 2010.06.27 13:26:56.
