data_PCOD8027258
_publ_section_title
;
Structure prediction by ZEFSAII (Michael W. Deem and Ramdas Pophale) SiO2 
 PCOD8027258
Probable space group: P -1
;
_chemical_formula_sum "Si O2"
_cell_formula_units_Z 14
_cell_length_a 10.849125
_cell_length_b 10.681429
_cell_length_c 13.776596
_cell_angle_alpha 150.604983
_cell_angle_beta 47.913843
_cell_angle_gamma 123.705101
_cell_volume 579.689502
_symmetry_space_group_name_H-M "P -1"
_symmetry_group_IT_number 2
_symmetry_cell_setting 'triclinic'
loop_
_space_group_symop_operation_xyz
x,y,z
-x,-y,-z
loop_
_atom_site_type_symbol
_atom_site_label
_atom_site_fract_x
_atom_site_fract_y
_atom_site_fract_z
Si Si1 0.000345 0.276188 0.638174
Si Si2 0.528889 0.331557 0.151466
Si Si3 0.818084 0.252349 0.098488
Si Si4 0.626293 0.305224 0.860108
Si Si5 0.534366 0.079780 0.427971
Si Si6 0.848614 0.175964 0.241421
Si Si7 0.161142 0.265297 0.340905
O O1 0.810155 0.380019 0.788072
O O2 0.072151 0.506185 0.818850
O O3 0.108155 0.221163 0.448596
O O4 0.000000 0.000000 0.500000
O O5 0.670607 0.252220 0.099729
O O6 0.477489 0.625806 0.385964
O O7 0.360871 0.197701 0.175213
O O8 0.594365 0.281345 0.974495
O O9 0.754127 0.281230 0.262833
O O10 0.918439 0.961542 0.834750
O O11 0.600898 0.027438 0.643457
O O12 0.500000 0.500000 0.000000
O O13 0.728001 0.996507 0.242342
O O14 0.500000 0.000000 0.500000
O O15 0.893811 0.432660 0.451747
O O16 0.000000 0.000000 0.000000
#
# Coordination Sequence:
#
# PCOD8027258 Si02
#       7
#     2   2   2   2   2   2   2
#     4  11  26  45  69 108 146 189 237 301 356 429
#     4  11  24  46  74 107 140 190 239 295 361 435
#     4  11  24  45  75 104 148 187 240 298 363 427
#     4  12  26  44  70 102 147 184 240 295 359 427
#     4  11  24  44  71 103 139 187 234 291 360 426
#     4  10  25  44  70 104 142 183 240 295 353 422
#     4  10  24  44  71 105 138 189 239 290 359 423
#
# _framework density 24.150862
#
# number of rings (size 3 to 8) (size 9 to 14) (size 15 to 20)
#    0.000    1.143    1.429    3.000    4.000   12.571 
#    0.000    0.000    0.000    0.000    0.000    0.000 
#    0.000    0.000    0.000    0.000    0.000    0.000 
#
# Total GULP energy -173457.298606 kJ/mol
# GULP energy per Si atom -12389.807043 kJ/mol
# Density = 2.409589 g / cm^3
# Si number density = 24.150862 Si / 1000 Ang^3
#
#
#
# Elastic Constant Matrix: (Units=GPa)
#
#
# Indices 1 2 3 4 5 6 
#
# 1 49.6038 35.3979 47.7110 -3.7383 14.7519 17.6902
# 2 35.3979 158.8528 63.0520 -3.3652 5.2041 16.8763
# 3 47.7110 63.0520 117.5612 0.1342 15.3082 25.8521
# 4 -3.7383 -3.3652 0.1342 52.6121 2.5256 15.9899
# 5 14.7519 5.2041 15.3082 2.5256 45.2494 4.2242
# 6 17.6902 16.8763 25.8521 15.9899 4.2242 38.7396
#
#
#
# Elastic Compliance Matrix: (Units=1/GPa)
#
#
# Indices 1 2 3 4 5 6 
#
# 1 0.039838 -0.002870 -0.011070 0.006519 -0.008217 -0.011349
# 2 -0.002870 0.008269 -0.003342 0.000384 0.001126 -0.000343
# 3 -0.011070 -0.003342 0.015805 0.000229 -0.000991 -0.004023
# 4 0.006519 0.000384 0.000229 0.023476 -0.002369 -0.012729
# 5 -0.008217 0.001126 -0.000991 -0.002369 0.024913 0.002184
# 6 -0.011349 -0.000343 -0.004023 -0.012729 0.002184 0.038845
#
#
# Mechanical properties :
#
#
# Convention : Reuss Voigt Hill
#
# Bulk Modulus (GPa) = 34.07524 68.70441 51.38982
# Shear Modulus (GPa) = 25.57648 39.31068 32.44358
#
# Velocity S-wave (km/s) = 3.25780 4.03887 3.66918
# Velocity P-wave (km/s) = 5.31893 7.08941 6.26701
#
# Compressibility (1/GPa) = 0.02934682
#
# Stress axis : x y z
#
# Youngs Moduli (GPa) = 25.10156 120.93748 63.27298
#
# Poissons Ratio (x) = 0.34713 0.70045
# Poissons Ratio (y) = 0.07205 0.21143
# Poissons Ratio (z) = 0.27788 0.40413
#
# Static dielectric constant tensor:
#      x y z
#    x 5.125350 0.800150 0.160110 
#    y 0.800150 5.165550 0.234690 
#    z 0.160110 0.234690 4.478740 
# 
# 
# High freq. dielectric constant tensor:
#      x y z
#    x 1.953640 0.006750 0.011370 
#    y 0.006750 1.978190 0.015470 
#    z 0.011370 0.015470 1.978290 
# 
# From -- ./inp_files/519316.got.cif
#   From: 2010.06.25/outbox.cif.g09.slc.cpg/sg2_260_cif.got.tgz:519316.got - 2010.06.27 13:26:56.
