data_PCOD8027391
_publ_section_title
;
Structure prediction by ZEFSAII (Michael W. Deem and Ramdas Pophale) SiO2 
 PCOD8027391
Probable space group: P -1
;
_chemical_formula_sum "Si O2"
_cell_formula_units_Z 14
_cell_length_a 9.061395
_cell_length_b 10.424184
_cell_length_c 4.904030
_cell_angle_alpha 95.075396
_cell_angle_beta 75.989659
_cell_angle_gamma 95.683912
_cell_volume 446.234686
_symmetry_space_group_name_H-M "P -1"
_symmetry_group_IT_number 2
_symmetry_cell_setting 'triclinic'
loop_
_space_group_symop_operation_xyz
x,y,z
-x,-y,-z
loop_
_atom_site_type_symbol
_atom_site_label
_atom_site_fract_x
_atom_site_fract_y
_atom_site_fract_z
Si Si1 0.249101 0.281206 0.921478
Si Si2 0.430510 0.639477 0.016116
Si Si3 0.402941 0.080348 0.257756
Si Si4 0.041260 0.665690 0.642578
Si Si5 0.324163 0.824359 0.533040
Si Si6 0.297550 0.498642 0.533050
Si Si7 0.899081 0.871267 0.458488
O O1 0.404681 0.275425 0.030039
O O2 0.301255 0.359370 0.634538
O O3 0.182313 0.141220 0.805550
O O4 0.118141 0.361703 0.129293
O O5 0.321861 0.731594 0.248057
O O6 0.407529 0.506866 0.205343
O O7 0.365017 0.609118 0.735780
O O8 0.522847 0.190098 0.354777
O O9 0.240761 0.138366 0.248694
O O10 0.327294 0.976216 0.492315
O O11 0.500000 0.000000 0.000000
O O12 0.166952 0.772230 0.748367
O O13 0.123233 0.531082 0.537266
O O14 0.995026 0.744844 0.409346
O O15 0.000000 0.000000 0.500000
#
# Coordination Sequence:
#
# PCOD8027391 Si02
#       7
#     2   2   2   2   2   2   2
#     4  12  28  47  78 114 157 207 259 328 393 460
#     4  11  26  49  82 115 154 203 270 325 387 463
#     4  11  25  44  75 100 151 202 265 314 390 455
#     4  11  28  44  76 107 160 203 254 320 397 467
#     4  10  24  45  67 110 144 204 258 319 382 464
#     4  11  28  51  81 116 159 208 266 319 392 472
#     4  12  28  49  73 116 158 199 264 322 398 469
#
# _framework density 31.373625000000001
#
# number of rings (size 3 to 8) (size 9 to 14) (size 15 to 20)
#    0.000    0.857    2.857    1.286   16.000    1.143 
#    0.000    0.000    0.000    0.000    0.000    0.000 
#    0.000    0.000    0.000    0.000    0.000    0.000 
#
# Total GULP energy -173458.003352 kJ/mol
# GULP energy per Si atom -12389.857382 kJ/mol
# Density = 3.130222 g / cm^3
# Si number density = 31.373625 Si / 1000 Ang^3
#
#
#
# Elastic Constant Matrix: (Units=GPa)
#
#
# Indices 1 2 3 4 5 6 
#
# 1 232.3315 -2.8745 57.2297 2.6678 -7.0009 -2.1623
# 2 -2.8745 26.8317 2.4600 14.4198 7.1286 3.0672
# 3 57.2297 2.4600 158.8064 12.5377 3.8009 6.2781
# 4 2.6678 14.4198 12.5377 53.3766 11.6200 -6.3675
# 5 -7.0009 7.1286 3.8009 11.6200 59.0928 0.4790
# 6 -2.1623 3.0672 6.2781 -6.3675 0.4790 55.4934
#
#
#
# Elastic Compliance Matrix: (Units=1/GPa)
#
#
# Indices 1 2 3 4 5 6 
#
# 1 0.004764 0.000495 -0.001749 -0.000056 0.000625 0.000344
# 2 0.000495 0.045015 0.000301 -0.012067 -0.002987 -0.003862
# 3 -0.001749 0.000301 0.007109 -0.001716 -0.000355 -0.001083
# 4 -0.000056 -0.012067 -0.001716 0.023501 -0.003091 0.003582
# 5 0.000625 -0.002987 -0.000355 -0.003091 0.017990 -0.000280
# 6 0.000344 -0.003862 -0.001083 0.003582 -0.000280 0.018783
#
#
# Mechanical properties :
#
#
# Convention : Reuss Voigt Hill
#
# Bulk Modulus (GPa) = 18.18736 59.06669 38.62702
# Shear Modulus (GPa) = 36.39194 57.66952 47.03073
#
# Velocity S-wave (km/s) = 3.40950 4.29202 3.87596
# Velocity P-wave (km/s) = 4.61619 6.59012 5.68941
#
# Compressibility (1/GPa) = 0.05498324
#
# Stress axis : x y z
#
# Youngs Moduli (GPa) = 209.91961 22.21501 140.66290
#
# Poissons Ratio (x) = -0.01101 0.24595
# Poissons Ratio (y) = -0.10400 -0.04233
# Poissons Ratio (z) = 0.36705 -0.00669
#
# Static dielectric constant tensor:
#      x y z
#    x 6.687830 0.095450 -0.027770 
#    y 0.095450 6.568250 -0.531030 
#    z -0.027770 -0.531030 6.173190 
# 
# 
# High freq. dielectric constant tensor:
#      x y z
#    x 2.335150 0.008020 -0.006350 
#    y 0.008020 2.341800 -0.010760 
#    z -0.006350 -0.010760 2.278270 
# 
# From -- ./inp_files/28199.got.cif
#   From: 2010.06.25/outbox.cif.g09.slc.cpg/sg2_15_cif.got.tgz:28199.got - 2010.06.27 13:26:56.
