data_PCOD8027182
_publ_section_title
;
Structure prediction by ZEFSAII (Michael W. Deem and Ramdas Pophale) SiO2 
 PCOD8027182
Probable space group: P -1
;
_chemical_formula_sum "Si O2"
_cell_formula_units_Z 16
_cell_length_a 14.662201
_cell_length_b 11.666000
_cell_length_c 15.578314
_cell_angle_alpha 120.894230
_cell_angle_beta 37.446563
_cell_angle_gamma 147.873675
_cell_volume 750.368792
_symmetry_space_group_name_H-M "P -1"
_symmetry_group_IT_number 2
_symmetry_cell_setting 'triclinic'
loop_
_space_group_symop_operation_xyz
x,y,z
-x,-y,-z
loop_
_atom_site_type_symbol
_atom_site_label
_atom_site_fract_x
_atom_site_fract_y
_atom_site_fract_z
Si Si1 0.864608 0.543241 0.126370
Si Si2 0.644065 0.949197 0.598640
Si Si3 0.991281 0.777214 0.951743
Si Si4 0.289296 0.008495 0.108186
Si Si5 0.806511 0.232199 0.748876
Si Si6 0.290448 0.783171 0.641268
Si Si7 0.841603 0.802331 0.776993
Si Si8 0.688838 0.751786 0.054569
O O1 0.550538 0.298501 0.299669
O O2 0.037757 0.763041 0.146149
O O3 0.000000 0.500000 0.000000
O O4 0.840349 0.590043 0.069861
O O5 0.455396 0.882117 0.643890
O O6 0.776102 0.155839 0.645029
O O7 0.872047 0.029981 0.413051
O O8 0.059268 0.722277 0.806460
O O9 0.275758 0.065089 0.879566
O O10 0.782520 0.732155 0.056566
O O11 0.247929 0.930189 0.206926
O O12 0.283224 0.164962 0.169470
O O13 0.581253 0.178463 0.915964
O O14 0.120507 0.525385 0.636858
O O15 0.500000 0.000000 0.500000
O O16 0.633502 0.520040 0.824319
O O17 0.882726 0.871026 0.872196
#
# Coordination Sequence:
#
# PCOD8027182 Si02
#       8
#     2   2   2   2   2   2   2   2
#     4  12  21  44  71 100 137 179 232 284 342 404
#     4  12  27  44  68 106 140 176 229 287 347 402
#     4  11  22  44  70  99 128 190 229 277 342 412
#     4  11  22  44  72  97 136 183 230 286 336 410
#     4  11  25  44  72 103 134 180 236 280 346 408
#     4  12  26  45  69 101 142 178 227 289 339 409
#     4  11  25  45  65 103 137 181 228 282 343 411
#     4  10  24  44  69  94 141 182 230 274 346 417
#
# _framework density 21.322849000000001
#
# number of rings (size 3 to 8) (size 9 to 14) (size 15 to 20)
#    0.000    0.750    5.000    1.500    5.250    2.500 
#    0.000    0.000    0.000    0.000    0.000    0.000 
#    0.000    0.000    0.000    0.000    0.000    0.000 
#
# Total GULP energy -198438.187871 kJ/mol
# GULP energy per Si atom -12402.386742 kJ/mol
# Density = 2.127432 g / cm^3
# Si number density = 21.322849 Si / 1000 Ang^3
#
#
#
# Elastic Constant Matrix: (Units=GPa)
#
#
# Indices 1 2 3 4 5 6 
#
# 1 95.8389 29.7449 32.2190 -7.5669 20.8619 -5.7430
# 2 29.7449 111.1243 34.6024 -11.4995 16.4483 5.4050
# 3 32.2190 34.6024 116.9732 -17.7047 11.3840 -5.7140
# 4 -7.5669 -11.4995 -17.7047 26.0505 -4.5082 4.6148
# 5 20.8619 16.4483 11.3840 -4.5082 29.6630 1.2891
# 6 -5.7430 5.4050 -5.7140 4.6148 1.2891 38.2470
#
#
#
# Elastic Compliance Matrix: (Units=1/GPa)
#
#
# Indices 1 2 3 4 5 6 
#
# 1 0.013621 -0.001896 -0.002360 -0.000225 -0.007754 0.002249
# 2 -0.001896 0.011079 -0.002121 0.002717 -0.003480 -0.002378
# 3 -0.002360 -0.002121 0.010742 0.005430 -0.000500 0.000912
# 4 -0.000225 0.002717 0.005430 0.044741 0.003590 -0.005126
# 5 -0.007754 -0.003480 -0.000500 0.003590 0.041945 -0.002594
# 6 0.002249 -0.002378 0.000912 -0.005126 -0.002594 0.027662
#
#
# Mechanical properties :
#
#
# Convention : Reuss Voigt Hill
#
# Bulk Modulus (GPa) = 44.07936 57.45212 50.76574
# Shear Modulus (GPa) = 29.39321 33.95011 31.67166
#
# Velocity S-wave (km/s) = 3.71682 3.99456 3.85819
# Velocity P-wave (km/s) = 6.25595 6.94822 6.61115
#
# Compressibility (1/GPa) = 0.02268636
#
# Stress axis : x y z
#
# Youngs Moduli (GPa) = 73.41553 90.26234 93.09422
#
# Poissons Ratio (x) = 0.17112 0.21975
# Poissons Ratio (y) = 0.13918 0.19748
# Poissons Ratio (z) = 0.17330 0.19148
#
# Static dielectric constant tensor:
#      x y z
#    x 4.031300 -0.065540 0.256320 
#    y -0.065540 4.228160 -0.116360 
#    z 0.256320 -0.116360 3.750530 
# 
# 
# High freq. dielectric constant tensor:
#      x y z
#    x 1.844030 0.001790 0.016270 
#    y 0.001790 1.854420 -0.009110 
#    z 0.016270 -0.009110 1.820400 
# 
# From -- ./inp_files/432263.got.cif
#   From: 2010.06.25/outbox.cif.g09.slc.cpg/sg2_217_cif.got.tgz:432263.got - 2010.06.27 13:26:56.
