data_PCOD8027929
_publ_section_title
;
Structure prediction by ZEFSAII (Michael W. Deem and Ramdas Pophale) SiO2 
 PCOD8027929
Probable space group: P -1
;
_chemical_formula_sum "Si O2"
_cell_formula_units_Z 14
_cell_length_a 14.673131
_cell_length_b 15.868992
_cell_length_c 9.647140
_cell_angle_alpha 50.930989
_cell_angle_beta 108.880559
_cell_angle_gamma 151.611714
_cell_volume 646.985152
_symmetry_space_group_name_H-M "P -1"
_symmetry_group_IT_number 2
_symmetry_cell_setting 'triclinic'
loop_
_space_group_symop_operation_xyz
x,y,z
-x,-y,-z
loop_
_atom_site_type_symbol
_atom_site_label
_atom_site_fract_x
_atom_site_fract_y
_atom_site_fract_z
Si Si1 0.440063 0.309781 0.315735
Si Si2 0.729054 0.233639 0.969072
Si Si3 0.922746 0.331320 0.527296
Si Si4 0.877945 0.150295 0.145383
Si Si5 0.017190 0.218173 0.851777
Si Si6 0.606062 0.718324 0.997571
Si Si7 0.390628 0.713546 0.924684
O O1 0.713128 0.544984 0.224462
O O2 0.352471 0.201463 0.226143
O O3 0.239261 0.052992 0.589035
O O4 0.445323 0.443465 0.211249
O O5 0.978617 0.526201 0.716607
O O6 0.748050 0.129875 0.137918
O O7 0.712839 0.310597 0.991638
O O8 0.500000 0.000000 0.000000
O O9 0.000000 0.500000 0.500000
O O10 0.043047 0.345820 0.627595
O O11 0.636073 0.024987 0.666621
O O12 0.849480 0.077142 0.049831
O O13 0.172572 0.468764 0.963185
O O14 0.864496 0.969785 0.945483
O O15 0.464653 0.669387 0.059745
#
# Coordination Sequence:
#
# PCOD8027929 Si02
#       7
#     2   2   2   2   2   2   2
#     4  11  25  47  71  98 137 176 226 289 335 394
#     4  12  23  42  66 100 134 180 223 270 335 405
#     4  11  22  42  68  94 139 182 215 275 336 395
#     4  12  26  42  66 106 134 174 231 274 337 408
#     4  11  23  45  68 101 136 172 231 274 337 409
#     4  10  24  49  70  98 134 181 227 277 347 395
#     4  11  25  42  64 100 134 174 226 275 332 403
#
# _framework density 21.638828
#
# number of rings (size 3 to 8) (size 9 to 14) (size 15 to 20)
#    0.000    0.857    4.286    2.571    4.000    1.714 
#    0.000    0.000    0.000    0.000    0.000    0.000 
#    0.000    0.000    0.000    0.000    0.000    0.000 
#
# Total GULP energy -173463.558385 kJ/mol
# GULP energy per Si atom -12390.254170 kJ/mol
# Density = 2.158958 g / cm^3
# Si number density = 21.638828 Si / 1000 Ang^3
#
#
#
# Elastic Constant Matrix: (Units=GPa)
#
#
# Indices 1 2 3 4 5 6 
#
# 1 86.7208 33.1078 38.0916 -11.8413 3.1411 -7.4001
# 2 33.1078 140.4465 44.4257 -15.4024 -4.0364 -5.0971
# 3 38.0916 44.4257 133.0202 -7.7647 7.9722 -6.8030
# 4 -11.8413 -15.4024 -7.7647 32.3250 1.9066 -2.1487
# 5 3.1411 -4.0364 7.9722 1.9066 31.0603 -3.8179
# 6 -7.4001 -5.0971 -6.8030 -2.1487 -3.8179 32.0686
#
#
#
# Elastic Compliance Matrix: (Units=1/GPa)
#
#
# Indices 1 2 3 4 5 6 
#
# 1 0.014386 -0.001933 -0.003071 0.003828 -0.000843 0.002517
# 2 -0.001933 0.008682 -0.002246 0.002839 0.001832 0.000866
# 3 -0.003071 -0.002246 0.009332 0.000226 -0.002310 0.000654
# 4 0.003828 0.002839 0.000226 0.034078 -0.001743 0.003458
# 5 -0.000843 0.001832 -0.002310 -0.001743 0.033648 0.003496
# 6 0.002517 0.000866 0.000654 0.003458 0.003496 0.032688
#
#
# Mechanical properties :
#
#
# Convention : Reuss Voigt Hill
#
# Bulk Modulus (GPa) = 55.86542 65.71528 60.79035
# Shear Modulus (GPa) = 32.61975 35.39495 34.00735
#
# Velocity S-wave (km/s) = 3.88682 4.04878 3.96863
# Velocity P-wave (km/s) = 6.78354 7.23132 7.01100
#
# Compressibility (1/GPa) = 0.01790016
#
# Stress axis : x y z
#
# Youngs Moduli (GPa) = 69.51046 115.18687 107.15436
#
# Poissons Ratio (x) = 0.22264 0.32911
# Poissons Ratio (y) = 0.13435 0.24065
# Poissons Ratio (z) = 0.21349 0.25869
#
# Static dielectric constant tensor:
#      x y z
#    x 4.029470 -0.012190 0.257380 
#    y -0.012190 4.126020 -0.209640 
#    z 0.257380 -0.209640 3.733550 
# 
# 
# High freq. dielectric constant tensor:
#      x y z
#    x 1.863510 -0.007710 0.006180 
#    y -0.007710 1.868700 -0.010470 
#    z 0.006180 -0.010470 1.833790 
# 
# From -- ./inp_files/312803.got.cif
#   From: 2010.06.25/outbox.cif.g09.slc.cpg/sg2_157_cif.got.tgz:312803.got - 2010.06.27 13:26:56.
