data_PCOD8027795
_publ_section_title
;
Structure prediction by ZEFSAII (Michael W. Deem and Ramdas Pophale) SiO2 
 PCOD8027795
Probable space group: P -1
;
_chemical_formula_sum "Si O2"
_cell_formula_units_Z 12
_cell_length_a 15.950192
_cell_length_b 18.990912
_cell_length_c 12.340878
_cell_angle_alpha 27.063897
_cell_angle_beta 26.979949
_cell_angle_gamma 19.838168
_cell_volume 541.419863
_symmetry_space_group_name_H-M "P -1"
_symmetry_group_IT_number 2
_symmetry_cell_setting 'triclinic'
loop_
_space_group_symop_operation_xyz
x,y,z
-x,-y,-z
loop_
_atom_site_type_symbol
_atom_site_label
_atom_site_fract_x
_atom_site_fract_y
_atom_site_fract_z
Si Si1 0.871274 0.798260 0.716979
Si Si2 0.048486 0.544332 0.499327
Si Si3 0.871434 0.509577 0.969112
Si Si4 0.919775 0.950171 0.058703
Si Si5 0.413526 0.612885 0.264830
Si Si6 0.404269 0.730451 0.655600
O O1 0.785327 0.723192 0.829457
O O2 0.157332 0.695016 0.501885
O O3 0.654936 0.061928 0.605516
O O4 0.890650 0.707079 0.937888
O O5 0.968340 0.475516 0.781430
O O6 0.000000 0.500000 0.500000
O O7 0.354536 0.407461 0.348746
O O8 0.867534 0.806269 0.354453
O O9 0.628786 0.533442 0.215201
O O10 0.152344 0.809243 0.896101
O O11 0.656297 0.184470 0.993615
O O12 0.000000 0.000000 0.000000
O O13 0.529975 0.415897 0.320790
#
# Coordination Sequence:
#
# PCOD8027795 Si02
#       6
#     2   2   2   2   2   2
#     4  10  24  47  68  97 131 170 223 271 325 381
#     4  12  25  40  64 103 133 171 220 263 328 392
#     4  11  24  45  68  97 134 172 217 273 325 387
#     4  11  23  41  65  92 132 178 213 263 328 386
#     4  11  23  44  68  97 130 172 218 269 329 383
#     4  11  23  44  67  95 134 173 216 275 321 387
#
# _framework density 22.163944999999998
#
# number of rings (size 3 to 8) (size 9 to 14) (size 15 to 20)
#    0.000    1.000    3.333    3.000    4.667    2.000 
#    0.000    0.000    0.000    0.000    0.000    0.000 
#    0.000    0.000    0.000    0.000    0.000    0.000 
#
# Total GULP energy -148835.439354 kJ/mol
# GULP energy per Si atom -12402.953280 kJ/mol
# Density = 2.211350 g / cm^3
# Si number density = 22.163945 Si / 1000 Ang^3
#
#
#
# Elastic Constant Matrix: (Units=GPa)
#
#
# Indices 1 2 3 4 5 6 
#
# 1 155.6042 40.3831 45.8223 -13.1547 -11.3010 1.4822
# 2 40.3831 97.1272 27.4991 -30.6832 -1.9560 9.7170
# 3 45.8223 27.4991 86.0701 -23.9430 1.3582 13.6659
# 4 -13.1547 -30.6832 -23.9430 45.0798 -4.2523 -0.8049
# 5 -11.3010 -1.9560 1.3582 -4.2523 44.3698 3.0869
# 6 1.4822 9.7170 13.6659 -0.8049 3.0869 26.7871
#
#
#
# Elastic Compliance Matrix: (Units=1/GPa)
#
#
# Indices 1 2 3 4 5 6 
#
# 1 0.008498 -0.003048 -0.004492 -0.001762 0.001813 0.002665
# 2 -0.003048 0.015039 0.000284 0.009513 0.001157 -0.005279
# 3 -0.004492 0.000284 0.017499 0.007995 -0.000309 -0.008506
# 4 -0.001762 0.009513 0.007995 0.032581 0.003324 -0.006836
# 5 0.001813 0.001157 -0.000309 0.003324 0.023586 -0.002980
# 6 0.002665 -0.005279 -0.008506 -0.006836 -0.002980 0.043576
#
#
# Mechanical properties :
#
#
# Convention : Reuss Voigt Hill
#
# Bulk Modulus (GPa) = 37.70307 62.91229 50.30768
# Shear Modulus (GPa) = 30.46295 38.25382 34.35839
#
# Velocity S-wave (km/s) = 3.71136 4.15896 3.94152
# Velocity P-wave (km/s) = 5.95093 7.17699 6.59252
#
# Compressibility (1/GPa) = 0.02652304
#
# Stress axis : x y z
#
# Youngs Moduli (GPa) = 117.67702 66.49251 57.14643
#
# Poissons Ratio (x) = 0.20268 0.25672
# Poissons Ratio (y) = 0.35870 -0.01623
# Poissons Ratio (z) = 0.52864 -0.01888
#
# Static dielectric constant tensor:
#      x y z
#    x 3.982330 -0.209230 0.040480 
#    y -0.209230 3.580510 -0.398060 
#    z 0.040480 -0.398060 4.110580 
# 
# 
# High freq. dielectric constant tensor:
#      x y z
#    x 1.879970 -0.003560 0.000840 
#    y -0.003560 1.867700 -0.015410 
#    z 0.000840 -0.015410 1.882060 
# 
# From -- ./inp_files/21577.got.cif
#   From: 2010.06.25/outbox.cif.g09.slc.cpg/sg2_11_cif.got.tgz:21577.got - 2010.06.27 13:26:56.
