data_PCOD8027615
_publ_section_title
;
Structure prediction by ZEFSAII (Michael W. Deem and Ramdas Pophale) SiO2 
 PCOD8027615
Probable space group: P -1
;
_chemical_formula_sum "Si O2"
_cell_formula_units_Z 16
_cell_length_a 9.430077
_cell_length_b 18.423893
_cell_length_c 12.007922
_cell_angle_alpha 29.516549
_cell_angle_beta 53.284228
_cell_angle_gamma 44.837206
_cell_volume 723.612040
_symmetry_space_group_name_H-M "P -1"
_symmetry_group_IT_number 2
_symmetry_cell_setting 'triclinic'
loop_
_space_group_symop_operation_xyz
x,y,z
-x,-y,-z
loop_
_atom_site_type_symbol
_atom_site_label
_atom_site_fract_x
_atom_site_fract_y
_atom_site_fract_z
Si Si1 0.801448 0.567296 0.781777
Si Si2 0.905784 0.069264 0.128929
Si Si3 0.516031 0.370141 0.328764
Si Si4 0.043590 0.886104 0.527011
Si Si5 0.800224 0.754116 0.909076
Si Si6 0.540625 0.674968 0.978933
Si Si7 0.493022 0.962217 0.179350
Si Si8 0.892743 0.834805 0.269195
O O1 0.631086 0.547663 0.817632
O O2 0.888895 0.670996 0.534455
O O3 0.688366 0.654092 0.834022
O O4 0.999217 0.392294 0.936942
O O5 0.048853 0.985331 0.281430
O O6 0.962546 0.911595 0.233013
O O7 0.672848 0.157517 0.158311
O O8 0.961776 0.198092 0.863797
O O9 0.487663 0.522066 0.220850
O O10 0.475018 0.226285 0.590076
O O11 0.753148 0.280995 0.311467
O O12 0.868402 0.831763 0.670223
O O13 0.000000 0.000000 0.500000
O O14 0.708204 0.898753 0.853285
O O15 0.649827 0.688426 0.022129
O O16 0.670046 0.969606 0.155106
O O17 0.500000 0.000000 0.000000
#
# Coordination Sequence:
#
# PCOD8027615 Si02
#       8
#     2   2   2   2   2   2   2   2
#     4  11  25  44  71 101 147 177 232 286 350 411
#     4  11  25  43  71  99 143 179 236 282 348 415
#     4  11  25  42  68 101 137 180 232 281 344 411
#     4  12  24  41  71 104 135 182 236 286 347 408
#     4  12  26  43  70 106 140 182 232 287 355 407
#     4  12  25  43  69 108 140 181 228 293 347 411
#     4  11  24  47  68  98 139 186 235 285 343 421
#     4  10  24  46  66 101 137 189 225 286 347 415
#
# _framework density 22.111298000000001
#
# number of rings (size 3 to 8) (size 9 to 14) (size 15 to 20)
#    0.000    0.750    3.750    3.000    5.250    2.000 
#    0.000    3.750    0.000    0.000    0.000    0.000 
#    0.000    0.000    0.000    0.000    0.000    0.000 
#
# Total GULP energy -198272.051949 kJ/mol
# GULP energy per Si atom -12392.003247 kJ/mol
# Density = 2.206097 g / cm^3
# Si number density = 22.111298 Si / 1000 Ang^3
#
#
#
# Elastic Constant Matrix: (Units=GPa)
#
#
# Indices 1 2 3 4 5 6 
#
# 1 122.4087 37.0514 56.0044 -1.7252 4.9023 2.7153
# 2 37.0514 72.4474 47.3978 7.8044 14.4909 -8.0662
# 3 56.0044 47.3978 109.7373 9.2113 2.9493 7.3008
# 4 -1.7252 7.8044 9.2113 35.2780 -6.4346 2.4661
# 5 4.9023 14.4909 2.9493 -6.4346 41.4907 -5.2382
# 6 2.7153 -8.0662 7.3008 2.4661 -5.2382 39.6981
#
#
#
# Elastic Compliance Matrix: (Units=1/GPa)
#
#
# Indices 1 2 3 4 5 6 
#
# 1 0.011255 -0.003236 -0.004528 0.002576 0.000434 -0.000697
# 2 -0.003236 0.023519 -0.008288 -0.004933 -0.007266 0.005872
# 3 -0.004528 -0.008288 0.015375 -0.001846 0.001561 -0.003881
# 4 0.002576 -0.004933 -0.001846 0.031306 0.006156 -0.001971
# 5 0.000434 -0.007266 0.001561 0.006156 0.027618 0.001469
# 6 -0.000697 0.005872 -0.003881 -0.001971 0.001469 0.027461
#
#
# Mechanical properties :
#
#
# Convention : Reuss Voigt Hill
#
# Bulk Modulus (GPa) = 55.41758 65.05562 60.23660
# Shear Modulus (GPa) = 28.62838 34.23601 31.43219
#
# Velocity S-wave (km/s) = 3.60215 3.93918 3.77443
# Velocity P-wave (km/s) = 6.51292 7.08345 6.80417
#
# Compressibility (1/GPa) = 0.01804481
#
# Stress axis : x y z
#
# Youngs Moduli (GPa) = 88.85177 42.51866 65.04208
#
# Poissons Ratio (x) = 0.13757 0.29450
# Poissons Ratio (y) = 0.28748 0.53910
# Poissons Ratio (z) = 0.40231 0.35241
#
# Static dielectric constant tensor:
#      x y z
#    x 4.197300 -0.146880 -0.276760 
#    y -0.146880 3.695370 0.208890 
#    z -0.276760 0.208890 3.962530 
# 
# 
# High freq. dielectric constant tensor:
#      x y z
#    x 1.889370 -0.010110 -0.007720 
#    y -0.010110 1.858830 -0.001780 
#    z -0.007720 -0.001780 1.873980 
# 
# From -- ./inp_files/383307.got.cif
#   From: 2010.06.25/outbox.cif.g09.slc.cpg/sg2_192_cif.got.tgz:383307.got - 2010.06.27 13:26:56.
