data_PCOD8027409
_publ_section_title
;
Structure prediction by ZEFSAII (Michael W. Deem and Ramdas Pophale) SiO2 
 PCOD8027409
Probable space group: P -1
;
_chemical_formula_sum "Si O2"
_cell_formula_units_Z 14
_cell_length_a 10.379871
_cell_length_b 12.025697
_cell_length_c 6.649388
_cell_angle_alpha 52.995263
_cell_angle_beta 90.198634
_cell_angle_gamma 107.331358
_cell_volume 615.680001
_symmetry_space_group_name_H-M "P -1"
_symmetry_group_IT_number 2
_symmetry_cell_setting 'triclinic'
loop_
_space_group_symop_operation_xyz
x,y,z
-x,-y,-z
loop_
_atom_site_type_symbol
_atom_site_label
_atom_site_fract_x
_atom_site_fract_y
_atom_site_fract_z
Si Si1 0.591839 0.074223 0.225408
Si Si2 0.839146 0.213393 0.347183
Si Si3 0.156318 0.334196 0.233121
Si Si4 0.868633 0.922982 0.720419
Si Si5 0.543668 0.798519 0.253918
Si Si6 0.276484 0.579766 0.684177
Si Si7 0.203781 0.296449 0.720801
O O1 0.740233 0.192564 0.174057
O O2 0.500000 0.000000 0.500000
O O3 0.615709 0.947642 0.224672
O O4 0.522854 0.166827 0.988071
O O5 0.805751 0.307112 0.425843
O O6 0.999072 0.294058 0.191527
O O7 0.799398 0.045058 0.623530
O O8 0.224818 0.223505 0.250753
O O9 0.138551 0.306345 0.497864
O O10 0.256282 0.502465 0.990915
O O11 0.898773 0.855270 0.004531
O O12 0.000000 0.000000 0.500000
O O13 0.433895 0.675631 0.528704
O O14 0.648377 0.719787 0.274992
O O15 0.210657 0.446518 0.670850
#
# Coordination Sequence:
#
# PCOD8027409 Si02
#       7
#     2   2   2   2   2   2   2
#     4  11  23  43  68  99 133 169 224 285 327 386
#     4  11  22  44  70  96 135 170 222 280 332 390
#     4  10  24  45  67  99 135 178 218 273 341 395
#     4   9  21  42  65  96 130 170 223 270 328 389
#     4  11  25  43  68 100 130 179 229 267 337 393
#     4  11  25  44  63 103 134 179 222 269 338 394
#     4  11  24  43  66  97 140 176 221 272 330 407
#
# _framework density 22.739083000000001
#
# number of rings (size 3 to 8) (size 9 to 14) (size 15 to 20)
#    0.000    1.429    1.429    2.571    4.000    4.571 
#    7.714    0.000    0.000    0.000    0.000    0.000 
#    0.000    0.000    0.000    0.000    0.000    0.000 
#
# Total GULP energy -173488.036756 kJ/mol
# GULP energy per Si atom -12392.002625 kJ/mol
# Density = 2.268733 g / cm^3
# Si number density = 22.739083 Si / 1000 Ang^3
#
#
#
# Elastic Constant Matrix: (Units=GPa)
#
#
# Indices 1 2 3 4 5 6 
#
# 1 102.5026 52.4995 61.6592 -4.3040 -2.0879 -5.4550
# 2 52.4995 138.0765 61.1430 -8.7162 14.5545 -26.5855
# 3 61.6592 61.1430 155.3215 7.1560 -18.6193 4.7954
# 4 -4.3040 -8.7162 7.1560 39.2981 3.1133 4.2354
# 5 -2.0879 14.5545 -18.6193 3.1133 35.5587 -2.4505
# 6 -5.4550 -26.5855 4.7954 4.2354 -2.4505 42.3380
#
#
#
# Elastic Compliance Matrix: (Units=1/GPa)
#
#
# Indices 1 2 3 4 5 6 
#
# 1 0.014177 -0.003258 -0.004462 0.001656 -0.000308 0.000103
# 2 -0.003258 0.013473 -0.005405 0.003429 -0.008296 0.007829
# 3 -0.004462 -0.005405 0.011625 -0.003968 0.008080 -0.004421
# 4 0.001656 0.003429 -0.003968 0.027603 -0.005820 -0.000282
# 5 -0.000308 -0.008296 0.008080 -0.005820 0.036000 -0.003499
# 6 0.000103 0.007829 -0.004421 -0.000282 -0.003499 0.028875
#
#
# Mechanical properties :
#
#
# Convention : Reuss Voigt Hill
#
# Bulk Modulus (GPa) = 76.76841 82.94492 79.85667
# Shear Modulus (GPa) = 30.79897 38.14555 34.47226
#
# Velocity S-wave (km/s) = 3.68428 4.10021 3.89780
# Velocity P-wave (km/s) = 7.20641 7.67930 7.44661
#
# Compressibility (1/GPa) = 0.01302619
#
# Stress axis : x y z
#
# Youngs Moduli (GPa) = 70.53570 74.22436 86.02121
#
# Poissons Ratio (x) = 0.24180 0.38383
# Poissons Ratio (y) = 0.22978 0.46491
# Poissons Ratio (z) = 0.31474 0.40115
#
# Static dielectric constant tensor:
#      x y z
#    x 4.002460 -0.415850 0.020440 
#    y -0.415850 4.625130 -0.360420 
#    z 0.020440 -0.360420 4.513530 
# 
# 
# High freq. dielectric constant tensor:
#      x y z
#    x 1.878480 -0.023120 -0.012750 
#    y -0.023120 1.910070 -0.012460 
#    z -0.012750 -0.012460 1.905090 
# 
# From -- ./inp_files/68195.got.cif
#   From: 2010.06.25/outbox.cif.g09.slc.cpg/sg2_35_cif.got.tgz:68195.got - 2010.06.27 13:26:56.
