data_PCOD8027128
_publ_section_title
;
Structure prediction by ZEFSAII (Michael W. Deem and Ramdas Pophale) SiO2 
 PCOD8027128
Probable space group: P -1
;
_chemical_formula_sum "Si O2"
_cell_formula_units_Z 16
_cell_length_a 5.541431
_cell_length_b 11.179781
_cell_length_c 12.630654
_cell_angle_alpha 72.979567
_cell_angle_beta 68.672635
_cell_angle_gamma 61.628618
_cell_volume 634.456847
_symmetry_space_group_name_H-M "P -1"
_symmetry_group_IT_number 2
_symmetry_cell_setting 'triclinic'
loop_
_space_group_symop_operation_xyz
x,y,z
-x,-y,-z
loop_
_atom_site_type_symbol
_atom_site_label
_atom_site_fract_x
_atom_site_fract_y
_atom_site_fract_z
Si Si1 0.888129 0.209419 0.493569
Si Si2 0.097237 0.508738 0.245311
Si Si3 0.726852 0.348033 0.982649
Si Si4 0.657479 0.793481 0.740627
Si Si5 0.145155 0.126973 0.097592
Si Si6 0.550131 0.395654 0.673288
Si Si7 0.279953 0.948777 0.595607
Si Si8 0.591089 0.171164 0.886709
O O1 0.701862 0.350406 0.547245
O O2 0.698511 0.183711 0.439909
O O3 0.153419 0.222493 0.390908
O O4 0.978477 0.080229 0.595590
O O5 0.041626 0.628109 0.135792
O O6 0.299871 0.361251 0.198365
O O7 0.275528 0.531944 0.309575
O O8 0.786488 0.509194 0.319455
O O9 0.598616 0.256095 0.966650
O O10 0.500000 0.500000 0.000000
O O11 0.847850 0.261504 0.093820
O O12 0.734036 0.865092 0.808077
O O13 0.340262 0.896224 0.722444
O O14 0.136698 0.977076 0.130715
O O15 0.321552 0.136692 0.963071
O O16 0.564730 0.259335 0.763973
O O17 0.500000 0.000000 0.500000
#
# Coordination Sequence:
#
# PCOD8027128 Si02
#       8
#     2   2   2   2   2   2   2   2
#     4  10  24  44  72 100 138 190 238 300 364 428
#     4  11  27  46  71 108 145 194 242 291 369 436
#     4  11  24  45  73 101 148 191 237 298 361 436
#     4  11  26  42  71 104 142 185 243 299 357 435
#     4  11  24  44  70 102 144 183 243 301 358 427
#     4  11  26  47  73 101 147 194 238 303 360 436
#     4   9  22  44  65 100 136 179 247 291 362 426
#     4  10  24  44  68 105 137 189 241 295 363 427
#
# _framework density 25.218423000000001
#
# number of rings (size 3 to 8) (size 9 to 14) (size 15 to 20)
#    0.000    1.500    1.250    1.125   14.000    3.000 
#    2.250    0.000    0.000    0.000    0.000    0.000 
#    0.000    0.000    0.000    0.000    0.000    0.000 
#
# Total GULP energy -198262.873597 kJ/mol
# GULP energy per Si atom -12391.429600 kJ/mol
# Density = 2.516102 g / cm^3
# Si number density = 25.218423 Si / 1000 Ang^3
#
#
#
# Elastic Constant Matrix: (Units=GPa)
#
#
# Indices 1 2 3 4 5 6 
#
# 1 83.3275 29.4820 -1.6118 6.6319 19.6074 1.2894
# 2 29.4820 153.9518 12.7575 6.3800 20.0382 1.5409
# 3 -1.6118 12.7575 44.7772 0.1914 6.2843 -5.2595
# 4 6.6319 6.3800 0.1914 45.7131 2.1173 4.6003
# 5 19.6074 20.0382 6.2843 2.1173 32.4800 -0.8914
# 6 1.2894 1.5409 -5.2595 4.6003 -0.8914 43.6022
#
#
#
# Elastic Compliance Matrix: (Units=1/GPa)
#
#
# Indices 1 2 3 4 5 6 
#
# 1 0.014728 -0.001891 0.002193 -0.001498 -0.008054 -0.000111
# 2 -0.001891 0.007435 -0.001803 -0.000571 -0.003071 -0.000427
# 3 0.002193 -0.001803 0.023923 -0.000230 -0.004748 0.002812
# 4 -0.001498 -0.000571 -0.000230 0.022419 -0.000225 -0.002333
# 5 -0.008054 -0.003071 -0.004748 -0.000225 0.038494 0.000585
# 6 -0.000111 -0.000427 0.002812 -0.002333 0.000585 0.023550
#
#
# Mechanical properties :
#
#
# Convention : Reuss Voigt Hill
#
# Bulk Modulus (GPa) = 23.21050 40.36799 31.78924
# Shear Modulus (GPa) = 33.80374 40.45432 37.12903
#
# Velocity S-wave (km/s) = 3.66517 4.00954 3.84122
# Velocity P-wave (km/s) = 5.20913 6.12187 5.68385
#
# Compressibility (1/GPa) = 0.04308396
#
# Stress axis : x y z
#
# Youngs Moduli (GPa) = 67.89621 134.50521 41.80085
#
# Poissons Ratio (x) = 0.25430 -0.09165
# Poissons Ratio (y) = 0.12837 0.07536
# Poissons Ratio (z) = -0.14887 0.24251
#
# Static dielectric constant tensor:
#      x y z
#    x 4.604760 -0.151140 -0.055190 
#    y -0.151140 4.892560 -0.513610 
#    z -0.055190 -0.513610 4.703890 
# 
# 
# High freq. dielectric constant tensor:
#      x y z
#    x 1.997590 -0.000740 -0.008820 
#    y -0.000740 2.018260 -0.017760 
#    z -0.008820 -0.017760 2.013740 
# 
# From -- ./inp_files/364268.got.cif
#   From: 2010.06.25/outbox.cif.g09.slc.cpg/sg2_183_cif.got.tgz:364268.got - 2010.06.27 13:26:56.
