data_PCOD8027145
_publ_section_title
;
Structure prediction by ZEFSAII (Michael W. Deem and Ramdas Pophale) SiO2 
 PCOD8027145
Probable space group: P -1
;
_chemical_formula_sum "Si O2"
_cell_formula_units_Z 16
_cell_length_a 6.370895
_cell_length_b 17.927123
_cell_length_c 19.024850
_cell_angle_alpha 29.746460
_cell_angle_beta 135.358757
_cell_angle_gamma 131.779332
_cell_volume 750.173086
_symmetry_space_group_name_H-M "P -1"
_symmetry_group_IT_number 2
_symmetry_cell_setting 'triclinic'
loop_
_space_group_symop_operation_xyz
x,y,z
-x,-y,-z
loop_
_atom_site_type_symbol
_atom_site_label
_atom_site_fract_x
_atom_site_fract_y
_atom_site_fract_z
Si Si1 0.263584 0.937458 0.154784
Si Si2 0.856123 0.839066 0.338981
Si Si3 0.853730 0.588433 0.088448
Si Si4 0.694469 0.891646 0.835092
Si Si5 0.048032 0.832051 0.667944
Si Si6 0.105528 0.654792 0.437462
Si Si7 0.212439 0.335078 0.391672
Si Si8 0.779851 0.605275 0.894736
O O1 0.545509 0.910346 0.194735
O O2 0.110621 0.777586 0.277644
O O3 0.385042 0.050836 0.154078
O O4 0.000000 0.000000 0.000000
O O5 0.873515 0.780886 0.470098
O O6 0.874987 0.694852 0.410251
O O7 0.130439 0.970202 0.280822
O O8 0.559624 0.472595 0.133460
O O9 0.135122 0.504911 0.248389
O O10 0.877895 0.748336 0.004959
O O11 0.864775 0.633506 0.972614
O O12 0.392487 0.827151 0.774673
O O13 0.985254 0.725343 0.672828
O O14 0.829131 0.766677 0.733304
O O15 0.000000 0.000000 0.500000
O O16 0.434693 0.654021 0.550898
O O17 0.000000 0.500000 0.500000
O O18 0.000000 0.500000 0.000000
#
# Coordination Sequence:
#
# PCOD8027145 Si02
#       8
#     2   2   2   2   2   2   2   2
#     4  10  24  46  68  99 131 171 227 282 334 398
#     4  10  24  44  68  97 142 168 223 284 322 418
#     4  11  24  39  64  95 134 191 219 271 344 380
#     4  11  25  42  64 104 132 180 230 267 340 402
#     4  12  24  41  67  96 141 183 220 277 334 394
#     4  10  24  46  68  99 131 171 227 282 334 398
#     4  11  25  42  64 104 132 180 230 267 340 402
#     4  11  22  43  58  92 144 178 232 278 308 408
#
# _framework density 21.328410000000002
#
# number of rings (size 3 to 8) (size 9 to 14) (size 15 to 20)
#    0.000    1.250    2.500    3.000    7.000    7.500 
#    0.000    0.000    0.000    0.000    0.000    0.000 
#    0.000    0.000    0.000    0.000    0.000    0.000 
#
# Total GULP energy -198433.507099 kJ/mol
# GULP energy per Si atom -12402.094194 kJ/mol
# Density = 2.127987 g / cm^3
# Si number density = 21.328410 Si / 1000 Ang^3
#
#
#
# Elastic Constant Matrix: (Units=GPa)
#
#
# Indices 1 2 3 4 5 6 
#
# 1 144.3188 53.2286 52.3899 0.5299 12.2103 -5.4914
# 2 53.2286 116.4547 45.5103 -0.2379 9.4033 -10.2586
# 3 52.3899 45.5103 138.1563 -9.8509 16.4820 1.4773
# 4 0.5299 -0.2379 -9.8509 38.6754 1.6378 8.7601
# 5 12.2103 9.4033 16.4820 1.6378 44.4422 -10.6771
# 6 -5.4914 -10.2586 1.4773 8.7601 -10.6771 17.8859
#
#
#
# Elastic Compliance Matrix: (Units=1/GPa)
#
#
# Indices 1 2 3 4 5 6 
#
# 1 0.009035 -0.002995 -0.002468 -0.001080 -0.000542 0.001466
# 2 -0.002995 0.011826 -0.003238 -0.002691 0.001646 0.008431
# 3 -0.002468 -0.003238 0.010228 0.004759 -0.004666 -0.008576
# 4 -0.001080 -0.002691 0.004759 0.032530 -0.007554 -0.022710
# 5 -0.000542 0.001646 -0.004666 -0.007554 0.029745 0.022619
# 6 0.001466 0.008431 -0.008576 -0.022710 0.022619 0.086530
#
#
# Mechanical properties :
#
#
# Convention : Reuss Voigt Hill
#
# Bulk Modulus (GPa) = 73.05854 77.90970 75.48412
# Shear Modulus (GPa) = 24.76990 36.72076 30.74533
#
# Velocity S-wave (km/s) = 3.41157 4.15382 3.80085
# Velocity P-wave (km/s) = 7.06023 7.72098 7.39798
#
# Compressibility (1/GPa) = 0.01368765
#
# Stress axis : x y z
#
# Youngs Moduli (GPa) = 110.68083 84.56209 97.76707
#
# Poissons Ratio (x) = 0.25323 0.24126
# Poissons Ratio (y) = 0.33145 0.31660
# Poissons Ratio (z) = 0.27313 0.27384
#
# Static dielectric constant tensor:
#      x y z
#    x 4.286930 -0.045660 0.094300 
#    y -0.045660 3.700800 -0.225410 
#    z 0.094300 -0.225410 4.244870 
# 
# 
# High freq. dielectric constant tensor:
#      x y z
#    x 1.848310 -0.003460 0.008050 
#    y -0.003460 1.820100 -0.012860 
#    z 0.008050 -0.012860 1.850880 
# 
# From -- ./inp_files/550548.got.cif
#   From: 2010.06.25/outbox.cif.g09.slc.cpg/sg2_276_cif.got.tgz:550548.got - 2010.06.27 13:26:56.
