data_PCOD8027979
_publ_section_title
;
Structure prediction by ZEFSAII (Michael W. Deem and Ramdas Pophale) SiO2 
 PCOD8027979
Probable space group: P -1
;
_chemical_formula_sum "Si O2"
_cell_formula_units_Z 16
_cell_length_a 20.819638
_cell_length_b 8.880792
_cell_length_c 9.633346
_cell_angle_alpha 31.079003
_cell_angle_beta 126.062383
_cell_angle_gamma 128.491721
_cell_volume 712.817645
_symmetry_space_group_name_H-M "P -1"
_symmetry_group_IT_number 2
_symmetry_cell_setting 'triclinic'
loop_
_space_group_symop_operation_xyz
x,y,z
-x,-y,-z
loop_
_atom_site_type_symbol
_atom_site_label
_atom_site_fract_x
_atom_site_fract_y
_atom_site_fract_z
Si Si1 0.101060 0.319424 0.811104
Si Si2 0.997415 0.234400 0.011786
Si Si3 0.790127 0.105327 0.633491
Si Si4 0.077731 0.286447 0.344246
Si Si5 0.354429 0.039813 0.114107
Si Si6 0.393290 0.157612 0.388954
Si Si7 0.750686 0.546662 0.458677
Si Si8 0.489595 0.840026 0.965287
O O1 0.031044 0.325390 0.829021
O O2 0.147896 0.670371 0.569611
O O3 0.169090 0.158167 0.071387
O O4 0.053685 0.127705 0.768118
O O5 0.931737 0.416116 0.824146
O O6 0.074973 0.323336 0.145008
O O7 0.777041 0.304829 0.587928
O O8 0.699366 0.939062 0.588324
O O9 0.166654 0.239262 0.531754
O O10 0.000000 0.000000 0.500000
O O11 0.394792 0.100101 0.270853
O O12 0.420875 0.147841 0.991725
O O13 0.311041 0.673876 0.334423
O O14 0.289665 0.237527 0.853015
O O15 0.444290 0.970282 0.684404
O O16 0.435976 0.505522 0.197873
O O17 0.500000 0.000000 0.000000
#
# Coordination Sequence:
#
# PCOD8027979 Si02
#       8
#     2   2   2   2   2   2   2   2
#     4  11  23  42  65  96 132 174 228 278 333 385
#     4  10  25  40  64  94 128 184 228 277 332 400
#     4  11  22  41  67  98 131 168 219 284 325 385
#     4  11  24  42  65  92 136 181 226 276 337 395
#     4  11  24  44  72  98 128 177 229 271 322 404
#     4  11  23  44  73 100 129 180 225 263 328 413
#     4  11  23  42  67  98 130 174 226 278 328 387
#     4  12  25  46  69 103 140 172 209 279 342 400
#
# _framework density 22.446135000000002
#
# number of rings (size 3 to 8) (size 9 to 14) (size 15 to 20)
#    0.000    1.000    1.250    6.375    5.250    1.000 
#    6.750    0.000    0.000    0.000    0.000    0.000 
#    0.000    0.000    0.000    0.000    0.000    0.000 
#
# Total GULP energy -198351.916858 kJ/mol
# GULP energy per Si atom -12396.994804 kJ/mol
# Density = 2.239505 g / cm^3
# Si number density = 22.446135 Si / 1000 Ang^3
#
#
#
# Elastic Constant Matrix: (Units=GPa)
#
#
# Indices 1 2 3 4 5 6 
#
# 1 73.5701 66.5462 21.1070 8.6943 -8.0086 9.0820
# 2 66.5462 162.4365 60.9295 -0.8684 -7.0334 13.6806
# 3 21.1070 60.9295 99.8554 11.0131 10.6712 8.1143
# 4 8.6943 -0.8684 11.0131 34.1413 16.6098 -6.2191
# 5 -8.0086 -7.0334 10.6712 16.6098 35.3698 -3.2747
# 6 9.0820 13.6806 8.1143 -6.2191 -3.2747 40.2383
#
#
#
# Elastic Compliance Matrix: (Units=1/GPa)
#
#
# Indices 1 2 3 4 5 6 
#
# 1 0.025309 -0.010401 0.001723 -0.012055 0.008461 -0.003698
# 2 -0.010401 0.012706 -0.006078 0.005131 -0.000403 0.000014
# 3 0.001723 -0.006078 0.014334 -0.003892 -0.003510 -0.002100
# 4 -0.012055 0.005131 -0.003892 0.045328 -0.021169 0.007044
# 5 0.008461 -0.000403 -0.003510 -0.021169 0.041016 -0.000999
# 6 -0.003698 0.000014 -0.002100 0.007044 -0.000999 0.027113
#
#
# Mechanical properties :
#
#
# Convention : Reuss Voigt Hill
#
# Bulk Modulus (GPa) = 43.79164 70.33636 57.06400
# Shear Modulus (GPa) = 24.63891 34.43518 29.53704
#
# Velocity S-wave (km/s) = 3.31674 3.92104 3.63148
# Velocity P-wave (km/s) = 5.84976 7.20438 6.56212
#
# Compressibility (1/GPa) = 0.02283541
#
# Stress axis : x y z
#
# Youngs Moduli (GPa) = 39.51236 78.70184 69.76295
#
# Poissons Ratio (x) = 0.81859 -0.12019
# Poissons Ratio (y) = 0.41097 0.42405
# Poissons Ratio (z) = -0.06807 0.47838
#
# Static dielectric constant tensor:
#      x y z
#    x 4.211410 0.421600 -0.184580 
#    y 0.421600 4.473370 -0.068450 
#    z -0.184580 -0.068450 4.184090 
# 
# 
# High freq. dielectric constant tensor:
#      x y z
#    x 1.881650 0.020970 -0.000470 
#    y 0.020970 1.885380 -0.004550 
#    z -0.000470 -0.004550 1.896020 
# 
# From -- ./inp_files/351981.got.cif
#   From: 2010.06.25/outbox.cif.g09.slc.cpg/sg2_176_cif.got.tgz:351981.got - 2010.06.27 13:26:56.
