data_PCOD8027721
_publ_section_title
;
Structure prediction by ZEFSAII (Michael W. Deem and Ramdas Pophale) SiO2 
 PCOD8027721
Probable space group: P -1
;
_chemical_formula_sum "Si O2"
_cell_formula_units_Z 14
_cell_length_a 20.705484
_cell_length_b 15.397964
_cell_length_c 12.244922
_cell_angle_alpha 142.006917
_cell_angle_beta 31.164951
_cell_angle_gamma 163.419636
_cell_volume 562.802837
_symmetry_space_group_name_H-M "P -1"
_symmetry_group_IT_number 2
_symmetry_cell_setting 'triclinic'
loop_
_space_group_symop_operation_xyz
x,y,z
-x,-y,-z
loop_
_atom_site_type_symbol
_atom_site_label
_atom_site_fract_x
_atom_site_fract_y
_atom_site_fract_z
Si Si1 0.617126 0.378254 0.653115
Si Si2 0.300463 0.306696 0.319967
Si Si3 0.627011 0.363341 0.867879
Si Si4 0.542440 0.198310 0.181458
Si Si5 0.690995 0.767366 0.402446
Si Si6 0.981494 0.789750 0.979387
Si Si7 0.704577 0.250175 0.218622
O O1 0.717325 0.625697 0.700669
O O2 0.745314 0.491527 0.700820
O O3 0.725861 0.354152 0.404423
O O4 0.286459 0.041818 0.805795
O O5 0.527886 0.609461 0.367234
O O6 0.381240 0.227274 0.101846
O O7 0.000000 0.000000 0.500000
O O8 0.883130 0.652116 0.863095
O O9 0.506280 0.090196 0.800731
O O10 0.275958 0.038017 0.404480
O O11 0.599640 0.250200 0.278247
O O12 0.795118 0.523409 0.074344
O O13 0.500000 0.000000 0.000000
O O14 0.500000 0.500000 0.500000
O O15 0.964037 0.944498 0.170828
O O16 0.000000 0.500000 0.000000
#
# Coordination Sequence:
#
# PCOD8027721 Si02
#       7
#     2   2   2   2   2   2   2
#     4  12  26  48  71 101 146 187 227 306 361 413
#     4  11  24  45  68 101 137 184 241 289 347 423
#     4  11  25  45  67 108 143 183 239 284 362 429
#     4  11  21  45  72 103 139 189 239 287 342 421
#     4   9  21  41  69 102 135 182 234 293 348 408
#     4  10  24  46  72 104 145 181 238 297 355 419
#     4  12  25  46  69 100 143 191 240 289 356 425
#
# _framework density 24.875495000000001
#
# number of rings (size 3 to 8) (size 9 to 14) (size 15 to 20)
#    0.000    1.143    2.857    2.571    4.000    2.857 
#    5.143    0.000    0.000    0.000    0.000    0.000 
#    0.000    0.000    0.000    0.000    0.000    0.000 
#
# Total GULP energy -173562.046231 kJ/mol
# GULP energy per Si atom -12397.289016 kJ/mol
# Density = 2.481888 g / cm^3
# Si number density = 24.875495 Si / 1000 Ang^3
#
#
#
# Elastic Constant Matrix: (Units=GPa)
#
#
# Indices 1 2 3 4 5 6 
#
# 1 113.4825 37.1546 52.5025 12.8070 27.6253 -30.2009
# 2 37.1546 66.8084 18.6432 7.5638 3.3135 -13.8003
# 3 52.5025 18.6432 125.0077 23.7193 6.9400 -4.9222
# 4 12.8070 7.5638 23.7193 47.4034 -7.2062 3.1384
# 5 27.6253 3.3135 6.9400 -7.2062 44.9094 5.8021
# 6 -30.2009 -13.8003 -4.9222 3.1384 5.8021 26.5245
#
#
#
# Elastic Compliance Matrix: (Units=1/GPa)
#
#
# Indices 1 2 3 4 5 6 
#
# 1 0.030838 -0.005000 -0.007530 -0.009877 -0.023867 0.037503
# 2 -0.005000 0.018796 -0.000290 -0.001624 0.000954 0.004016
# 3 -0.007530 -0.000290 0.011218 -0.002542 0.003428 -0.007092
# 4 -0.009877 -0.001624 -0.002542 0.028620 0.013626 -0.018930
# 5 -0.023867 0.000954 0.003428 0.013626 0.043332 -0.037133
# 6 0.037503 0.004016 -0.007092 -0.018930 -0.037133 0.091538
#
#
# Mechanical properties :
#
#
# Convention : Reuss Voigt Hill
#
# Bulk Modulus (GPa) = 28.39981 57.98878 43.19429
# Shear Modulus (GPa) = 19.10444 36.90067 28.00255
#
# Velocity S-wave (km/s) = 2.77429 3.85569 3.35880
# Velocity P-wave (km/s) = 4.65874 6.57145 5.69596
#
# Compressibility (1/GPa) = 0.03521151
#
# Stress axis : x y z
#
# Youngs Moduli (GPa) = 32.42739 53.20331 89.14141
#
# Poissons Ratio (x) = 0.26602 0.67127
# Poissons Ratio (y) = 0.16214 0.02584
# Poissons Ratio (z) = 0.24419 0.01542
#
# Static dielectric constant tensor:
#      x y z
#    x 4.087540 0.131090 0.500010 
#    y 0.131090 3.452450 0.315090 
#    z 0.500010 0.315090 4.594510 
# 
# 
# High freq. dielectric constant tensor:
#      x y z
#    x 2.008250 -0.014410 0.005720 
#    y -0.014410 1.978670 0.009870 
#    z 0.005720 0.009870 2.011020 
# 
# From -- ./inp_files/471955.got.cif
#   From: 2010.06.25/outbox.cif.g09.slc.cpg/sg2_236_cif.got.tgz:471955.got - 2010.06.27 13:26:56.
