data_PCOD8027454
_publ_section_title
;
Structure prediction by ZEFSAII (Michael W. Deem and Ramdas Pophale) SiO2 
 PCOD8027454
Probable space group: P -1
;
_chemical_formula_sum "Si O2"
_cell_formula_units_Z 14
_cell_length_a 16.864845
_cell_length_b 5.467936
_cell_length_c 12.462786
_cell_angle_alpha 101.538444
_cell_angle_beta 149.371847
_cell_angle_gamma 74.438973
_cell_volume 562.935922
_symmetry_space_group_name_H-M "P -1"
_symmetry_group_IT_number 2
_symmetry_cell_setting 'triclinic'
loop_
_space_group_symop_operation_xyz
x,y,z
-x,-y,-z
loop_
_atom_site_type_symbol
_atom_site_label
_atom_site_fract_x
_atom_site_fract_y
_atom_site_fract_z
Si Si1 0.428833 0.613457 0.784784
Si Si2 0.007077 0.845745 0.604583
Si Si3 0.752036 0.544990 0.263737
Si Si4 0.759039 0.988696 0.729915
Si Si5 0.178126 0.167963 0.971538
Si Si6 0.518339 0.978055 0.277764
Si Si7 0.953333 0.364028 0.037418
O O1 0.274198 0.643957 0.684958
O O2 0.393520 0.834970 0.673882
O O3 0.461028 0.317311 0.757444
O O4 0.578593 0.672629 0.030452
O O5 0.144148 0.596541 0.724881
O O6 0.838928 0.767364 0.427462
O O7 0.000000 0.000000 0.500000
O O8 0.055834 0.992253 0.777822
O O9 0.769423 0.854214 0.845537
O O10 0.894462 0.863176 0.789233
O O11 0.587971 0.987488 0.479446
O O12 0.789439 0.270299 0.812928
O O13 0.332275 0.108055 0.070364
O O14 0.080611 0.460549 0.879069
O O15 0.000000 0.500000 0.000000
#
# Coordination Sequence:
#
# PCOD8027454 Si02
#       7
#     2   2   2   2   2   2   2
#     4  11  27  47  76 107 152 192 245 305 366 442
#     4  11  24  44  74 107 141 191 249 302 368 435
#     4  10  25  47  72 104 147 191 247 301 370 431
#     4  10  24  45  69 103 145 192 244 296 373 440
#     4  11  24  44  73 105 149 188 247 308 368 431
#     4  12  27  45  76 111 148 195 247 297 375 440
#     4   9  22  43  67  98 142 190 238 299 358 438
#
# _framework density 24.869616000000001
#
# number of rings (size 3 to 8) (size 9 to 14) (size 15 to 20)
#    0.000    1.429    1.429    1.286    8.000    8.571 
#    0.000    0.000    0.000    0.000    0.000    0.000 
#    0.000    0.000    0.000    0.000    0.000    0.000 
#
# Total GULP energy -173515.624792 kJ/mol
# GULP energy per Si atom -12393.973199 kJ/mol
# Density = 2.481301 g / cm^3
# Si number density = 24.869616 Si / 1000 Ang^3
#
#
#
# Elastic Constant Matrix: (Units=GPa)
#
#
# Indices 1 2 3 4 5 6 
#
# 1 91.0332 32.8640 29.6158 18.9290 5.1849 2.1420
# 2 32.8640 124.2589 35.3585 32.5244 3.5236 -8.3880
# 3 29.6158 35.3585 129.0287 33.7793 3.9454 3.4338
# 4 18.9290 32.5244 33.7793 37.3169 8.5065 -6.0066
# 5 5.1849 3.5236 3.9454 8.5065 35.2699 3.7617
# 6 2.1420 -8.3880 3.4338 -6.0066 3.7617 46.8954
#
#
#
# Elastic Compliance Matrix: (Units=1/GPa)
#
#
# Indices 1 2 3 4 5 6 
#
# 1 0.013029 -0.002200 -0.001425 -0.003481 -0.000560 -0.001285
# 2 -0.002200 0.010905 -0.000419 -0.008115 0.001137 0.000951
# 3 -0.001425 -0.000419 0.010608 -0.009193 0.001504 -0.002085
# 4 -0.003481 -0.008115 -0.009193 0.047163 -0.009685 0.006198
# 5 -0.000560 0.001137 0.001504 -0.009685 0.030873 -0.003598
# 6 -0.001285 0.000951 -0.002085 0.006198 -0.003598 0.022788
#
#
# Mechanical properties :
#
#
# Convention : Reuss Voigt Hill
#
# Bulk Modulus (GPa) = 37.80169 59.99971 48.90070
# Shear Modulus (GPa) = 32.83588 40.32859 36.58224
#
# Velocity S-wave (km/s) = 3.63756 4.03128 3.83947
# Velocity P-wave (km/s) = 5.73371 6.77099 6.27383
#
# Compressibility (1/GPa) = 0.02645384
#
# Stress axis : x y z
#
# Youngs Moduli (GPa) = 76.75338 91.70169 94.26559
#
# Poissons Ratio (x) = 0.20176 0.13433
# Poissons Ratio (y) = 0.16887 0.03948
# Poissons Ratio (z) = 0.10938 0.03841
#
# Static dielectric constant tensor:
#      x y z
#    x 4.704220 -0.347530 0.219200 
#    y -0.347530 5.134680 -0.000170 
#    z 0.219200 -0.000170 4.366790 
# 
# 
# High freq. dielectric constant tensor:
#      x y z
#    x 1.992300 -0.001140 0.006580 
#    y -0.001140 1.996170 0.014210 
#    z 0.006580 0.014210 1.982330 
# 
# From -- ./inp_files/84374.got.cif
#   From: 2010.06.25/outbox.cif.g09.slc.cpg/sg2_43_cif.got.tgz:84374.got - 2010.06.27 13:26:56.
