data_PCOD8027492
_publ_section_title
;
Structure prediction by ZEFSAII (Michael W. Deem and Ramdas Pophale) SiO2 
 PCOD8027492
Probable space group: P -1
;
_chemical_formula_sum "Si O2"
_cell_formula_units_Z 16
_cell_length_a 12.015380
_cell_length_b 9.057779
_cell_length_c 8.503012
_cell_angle_alpha 73.747720
_cell_angle_beta 116.541415
_cell_angle_gamma 117.009200
_cell_volume 734.140060
_symmetry_space_group_name_H-M "P -1"
_symmetry_group_IT_number 2
_symmetry_cell_setting 'triclinic'
loop_
_space_group_symop_operation_xyz
x,y,z
-x,-y,-z
loop_
_atom_site_type_symbol
_atom_site_label
_atom_site_fract_x
_atom_site_fract_y
_atom_site_fract_z
Si Si1 0.350942 0.414949 0.235267
Si Si2 0.153020 0.055962 0.755377
Si Si3 0.381002 0.291479 0.629504
Si Si4 0.934626 0.167396 0.721569
Si Si5 0.541184 0.014728 0.203582
Si Si6 0.164634 0.757223 0.665891
Si Si7 0.093411 0.462719 0.944477
Si Si8 0.299238 0.074523 0.156140
O O1 0.335179 0.351452 0.422914
O O2 0.497233 0.558861 0.256024
O O3 0.338519 0.269912 0.148601
O O4 0.234750 0.484816 0.106858
O O5 0.251782 0.225756 0.682331
O O6 0.016591 0.070580 0.718871
O O7 0.115672 0.895704 0.668246
O O8 0.228041 0.018669 0.961721
O O9 0.432277 0.144273 0.670792
O O10 0.897033 0.280040 0.537311
O O11 0.019968 0.275925 0.887708
O O12 0.796067 0.027784 0.734303
O O13 0.674690 0.178987 0.257857
O O14 0.431637 0.032593 0.246915
O O15 0.500000 0.000000 0.000000
O O16 0.111727 0.586035 0.775496
O O17 0.000000 0.500000 0.000000
#
# Coordination Sequence:
#
# PCOD8027492 Si02
#       8
#     2   2   2   2   2   2   2   2
#     4  11  26  45  67 101 136 175 230 274 334 398
#     4  11  23  44  73  98 136 177 222 277 337 405
#     4  10  24  45  70 101 133 178 220 279 335 393
#     4  12  27  45  68 102 136 175 232 275 336 405
#     4  11  22  45  73  99 132 173 225 276 337 399
#     4  11  25  45  71 101 133 179 223 281 334 397
#     4  12  28  45  68  96 140 184 221 278 336 399
#     4  12  24  43  72 100 132 178 224 276 334 401
#
# _framework density 21.794207
#
# number of rings (size 3 to 8) (size 9 to 14) (size 15 to 20)
#    0.000    0.750    3.750    4.125    5.250    3.500 
#    2.250    0.000    0.000    0.000    0.000    0.000 
#    0.000    0.000    0.000    0.000    0.000    0.000 
#
# Total GULP energy -198495.820202 kJ/mol
# GULP energy per Si atom -12405.988763 kJ/mol
# Density = 2.174460 g / cm^3
# Si number density = 21.794207 Si / 1000 Ang^3
#
#
#
# Elastic Constant Matrix: (Units=GPa)
#
#
# Indices 1 2 3 4 5 6 
#
# 1 162.0745 29.5790 13.1646 -4.6137 -1.6701 3.0555
# 2 29.5790 79.9024 1.5387 -3.8038 -4.3537 6.9441
# 3 13.1646 1.5387 84.9188 0.6997 0.5436 -3.3717
# 4 -4.6137 -3.8038 0.6997 37.5178 5.6742 -2.4815
# 5 -1.6701 -4.3537 0.5436 5.6742 22.9079 -4.3896
# 6 3.0555 6.9441 -3.3717 -2.4815 -4.3896 21.8349
#
#
#
# Elastic Compliance Matrix: (Units=1/GPa)
#
#
# Indices 1 2 3 4 5 6 
#
# 1 0.006715 -0.002421 -0.001013 0.000603 -0.000151 -0.000288
# 2 -0.002421 0.013849 -0.000037 0.000622 0.001597 -0.003679
# 3 -0.001013 -0.000037 0.012014 -0.000231 0.000074 0.001997
# 4 0.000603 0.000622 -0.000231 0.027872 -0.006438 0.001555
# 5 -0.000151 0.001597 0.000074 -0.006438 0.047123 0.008266
# 6 -0.000288 -0.003679 0.001997 0.001555 0.008266 0.049156
#
#
# Mechanical properties :
#
#
# Convention : Reuss Voigt Hill
#
# Bulk Modulus (GPa) = 39.00615 46.16226 42.58421
# Shear Modulus (GPa) = 29.03346 35.29301 32.16324
#
# Velocity S-wave (km/s) = 3.65384 4.02851 3.84574
# Velocity P-wave (km/s) = 5.97805 6.54718 6.26908
#
# Compressibility (1/GPa) = 0.02563698
#
# Stress axis : x y z
#
# Youngs Moduli (GPa) = 148.91807 72.20964 83.23383
#
# Poissons Ratio (x) = 0.17481 0.08428
# Poissons Ratio (y) = 0.36051 0.00309
# Poissons Ratio (z) = 0.15079 0.00268
#
# Static dielectric constant tensor:
#      x y z
#    x 4.127800 0.161500 0.151780 
#    y 0.161500 3.916430 0.017950 
#    z 0.151780 0.017950 4.081380 
# 
# 
# High freq. dielectric constant tensor:
#      x y z
#    x 1.861530 0.009740 0.004570 
#    y 0.009740 1.856030 0.000500 
#    z 0.004570 0.000500 1.873170 
# 
# From -- ./inp_files/185046.got.cif
#   From: 2010.06.25/outbox.cif.g09.slc.cpg/sg2_93_cif.got.tgz:185046.got - 2010.06.27 13:26:56.
