data_PCOD8027994
_publ_section_title
;
Structure prediction by ZEFSAII (Michael W. Deem and Ramdas Pophale) SiO2 
 PCOD8027994
Probable space group: P -1
;
_chemical_formula_sum "Si O2"
_cell_formula_units_Z 16
_cell_length_a 11.499793
_cell_length_b 14.922692
_cell_length_c 8.914791
_cell_angle_alpha 147.235863
_cell_angle_beta 64.111775
_cell_angle_gamma 106.384401
_cell_volume 733.382963
_symmetry_space_group_name_H-M "P -1"
_symmetry_group_IT_number 2
_symmetry_cell_setting 'triclinic'
loop_
_space_group_symop_operation_xyz
x,y,z
-x,-y,-z
loop_
_atom_site_type_symbol
_atom_site_label
_atom_site_fract_x
_atom_site_fract_y
_atom_site_fract_z
Si Si1 0.981701 0.975848 0.727692
Si Si2 0.127351 0.500426 0.332710
Si Si3 0.177375 0.840460 0.674225
Si Si4 0.383976 0.461454 0.339932
Si Si5 0.530861 0.315604 0.794085
Si Si6 0.532982 0.745290 0.723579
Si Si7 0.618801 0.903786 0.608960
Si Si8 0.097218 0.188997 0.730410
O O1 0.966693 0.815301 0.406147
O O2 0.110640 0.933965 0.697786
O O3 0.002172 0.129046 0.823064
O O4 0.852683 0.036579 0.990312
O O5 0.112311 0.678335 0.511021
O O6 0.254764 0.464478 0.317074
O O7 0.000000 0.500000 0.500000
O O8 0.130016 0.369516 0.010301
O O9 0.330598 0.787893 0.482051
O O10 0.413805 0.650723 0.606463
O O11 0.369837 0.375638 0.388452
O O12 0.511572 0.347576 0.027999
O O13 0.424370 0.203030 0.652817
O O14 0.500000 0.500000 0.000000
O O15 0.616974 0.789238 0.597497
O O16 0.474550 0.917981 0.080360
O O17 0.764173 0.938080 0.540288
#
# Coordination Sequence:
#
# PCOD8027994 Si02
#       8
#     2   2   2   2   2   2   2   2
#     4  10  26  45  66  93 133 172 217 268 321 390
#     4  12  24  43  67  92 131 174 215 265 323 386
#     4  11  24  45  67  95 130 176 213 263 335 381
#     4  11  24  45  63  96 131 171 216 264 329 393
#     4  12  22  41  70  94 134 171 210 267 328 388
#     4  10  25  41  64  98 130 170 211 272 328 379
#     4  11  23  41  67  98 127 166 216 272 321 381
#     4  11  24  44  66  96 127 169 219 268 317 385
#
# _framework density 21.816706
#
# number of rings (size 3 to 8) (size 9 to 14) (size 15 to 20)
#    0.000    1.000    5.000    0.000    7.000    3.000 
#    2.250    0.000    0.000    0.000    0.000    0.000 
#    0.000    0.000    0.000    0.000    0.000    0.000 
#
# Total GULP energy -198364.238191 kJ/mol
# GULP energy per Si atom -12397.764887 kJ/mol
# Density = 2.176705 g / cm^3
# Si number density = 21.816706 Si / 1000 Ang^3
#
#
#
# Elastic Constant Matrix: (Units=GPa)
#
#
# Indices 1 2 3 4 5 6 
#
# 1 85.3188 26.1650 41.5843 -14.7440 8.8529 -0.7938
# 2 26.1650 73.3533 30.2891 -7.0026 5.5209 -5.6496
# 3 41.5843 30.2891 104.7884 -7.1171 20.1211 -13.4142
# 4 -14.7440 -7.0026 -7.1171 25.4600 5.1467 1.3510
# 5 8.8529 5.5209 20.1211 5.1467 48.5007 -6.3851
# 6 -0.7938 -5.6496 -13.4142 1.3510 -6.3851 29.8707
#
#
#
# Elastic Compliance Matrix: (Units=1/GPa)
#
#
# Indices 1 2 3 4 5 6 
#
# 1 0.016790 -0.003169 -0.005286 0.007907 -0.001780 -0.003265
# 2 -0.003169 0.016345 -0.003168 0.001683 0.000054 0.001520
# 3 -0.005286 -0.003168 0.013936 0.000503 -0.003895 0.004663
# 4 0.007907 0.001683 0.000503 0.046047 -0.007105 -0.002847
# 5 -0.001780 0.000054 -0.003895 -0.007105 0.023783 0.003619
# 6 -0.003265 0.001520 0.004663 -0.002847 0.003619 0.036675
#
#
# Mechanical properties :
#
#
# Convention : Reuss Voigt Hill
#
# Bulk Modulus (GPa) = 41.97518 51.05970 46.51744
# Shear Modulus (GPa) = 27.06166 31.79441 29.42803
#
# Velocity S-wave (km/s) = 3.52577 3.82166 3.67669
# Velocity P-wave (km/s) = 5.98802 6.55196 6.27633
#
# Compressibility (1/GPa) = 0.02382360
#
# Stress axis : x y z
#
# Youngs Moduli (GPa) = 59.56051 61.18087 71.75828
#
# Poissons Ratio (x) = 0.19387 0.37932
# Poissons Ratio (y) = 0.18874 0.22736
# Poissons Ratio (z) = 0.31484 0.19385
#
# Static dielectric constant tensor:
#      x y z
#    x 3.819490 0.130300 0.041740 
#    y 0.130300 4.104280 -0.378850 
#    z 0.041740 -0.378850 6.237260 
# 
# 
# High freq. dielectric constant tensor:
#      x y z
#    x 1.849000 0.005770 0.014160 
#    y 0.005770 1.855210 -0.014010 
#    z 0.014160 -0.014010 1.872870 
# 
# From -- ./inp_files/216405.got.cif
#   From: 2010.06.25/outbox.cif.g09.slc.cpg/sg2_109_cif.got.tgz:216405.got - 2010.06.27 13:26:56.
