data_PCOD8027140
_publ_section_title
;
Structure prediction by ZEFSAII (Michael W. Deem and Ramdas Pophale) SiO2 
 PCOD8027140
Probable space group: P -1
;
_chemical_formula_sum "Si O2"
_cell_formula_units_Z 16
_cell_length_a 19.542558
_cell_length_b 20.315079
_cell_length_c 8.659477
_cell_angle_alpha 128.473828
_cell_angle_beta 41.438938
_cell_angle_gamma 160.330575
_cell_volume 709.637720
_symmetry_space_group_name_H-M "P -1"
_symmetry_group_IT_number 2
_symmetry_cell_setting 'triclinic'
loop_
_space_group_symop_operation_xyz
x,y,z
-x,-y,-z
loop_
_atom_site_type_symbol
_atom_site_label
_atom_site_fract_x
_atom_site_fract_y
_atom_site_fract_z
Si Si1 0.996756 0.749446 0.787655
Si Si2 0.834527 0.962767 0.574757
Si Si3 0.125071 0.584057 0.137898
Si Si4 0.777951 0.180742 0.230189
Si Si5 0.723100 0.421562 0.578510
Si Si6 0.399735 0.124741 0.435269
Si Si7 0.479876 0.807794 0.117836
Si Si8 0.199391 0.256098 0.661724
O O1 0.034369 0.699673 0.768376
O O2 0.771059 0.548275 0.759924
O O3 0.252198 0.952712 0.549336
O O4 0.925571 0.780311 0.046197
O O5 0.815211 0.992967 0.484133
O O6 0.854109 0.878574 0.390502
O O7 0.563539 0.782799 0.857521
O O8 0.072618 0.174194 0.586488
O O9 0.223585 0.657220 0.255348
O O10 0.915775 0.351770 0.136048
O O11 0.991496 0.572736 0.302957
O O12 0.378826 0.762365 0.863060
O O13 0.500000 0.000000 0.500000
O O14 0.724317 0.054091 0.042997
O O15 0.550287 0.306908 0.550529
O O16 0.568942 0.244055 0.695304
O O17 0.500000 0.500000 0.500000
#
# Coordination Sequence:
#
# PCOD8027140 Si02
#       8
#     2   2   2   2   2   2   2   2
#     4  12  25  42  67  98 135 174 224 273 337 396
#     4  10  24  44  68  96 130 169 220 273 344 392
#     4  11  24  39  65  98 134 183 230 269 320 389
#     4  12  21  37  67  98 128 174 226 269 315 387
#     4  12  22  40  64  99 139 178 222 268 334 392
#     4  11  26  43  64  96 143 177 211 279 338 400
#     4  11  20  38  67  94 132 172 226 279 318 386
#     4  11  24  45  74  99 123 167 230 285 328 396
#
# _framework density 22.546714999999999
#
# number of rings (size 3 to 8) (size 9 to 14) (size 15 to 20)
#    0.000    0.750    5.000    2.250    1.750    5.000 
#    0.000    1.250    0.000    0.000    0.000    0.000 
#    0.000    0.000    0.000    0.000    0.000    0.000 
#
# Total GULP energy -198342.145017 kJ/mol
# GULP energy per Si atom -12396.384064 kJ/mol
# Density = 2.249540 g / cm^3
# Si number density = 22.546715 Si / 1000 Ang^3
#
#
#
# Elastic Constant Matrix: (Units=GPa)
#
#
# Indices 1 2 3 4 5 6 
#
# 1 95.0432 35.4084 36.9162 12.1066 2.2594 29.1347
# 2 35.4084 117.1414 39.8443 12.2745 5.6960 14.6787
# 3 36.9162 39.8443 99.9932 3.6512 0.9828 -6.8856
# 4 12.1066 12.2745 3.6512 42.1579 -0.5370 3.3363
# 5 2.2594 5.6960 0.9828 -0.5370 28.7338 3.7028
# 6 29.1347 14.6787 -6.8856 3.3363 3.7028 39.5060
#
#
#
# Elastic Compliance Matrix: (Units=1/GPa)
#
#
# Indices 1 2 3 4 5 6 
#
# 1 0.018544 -0.001011 -0.007322 -0.003249 0.000785 -0.014376
# 2 -0.001011 0.011052 -0.004191 -0.002287 -0.001527 -0.003755
# 3 -0.007322 -0.004191 0.014984 0.001270 -0.000305 0.009490
# 4 -0.003249 -0.002287 0.001270 0.025122 0.000973 0.001255
# 5 0.000785 -0.001527 -0.000305 0.000973 0.035520 -0.003476
# 6 -0.014376 -0.003755 0.009490 0.001255 -0.003476 0.039184
#
#
# Mechanical properties :
#
#
# Convention : Reuss Voigt Hill
#
# Bulk Modulus (GPa) = 51.19791 59.61282 55.40536
# Shear Modulus (GPa) = 28.41466 35.41345 31.91405
#
# Velocity S-wave (km/s) = 3.55386 3.96747 3.76635
# Velocity P-wave (km/s) = 6.29259 6.89092 6.59854
#
# Compressibility (1/GPa) = 0.01953205
#
# Stress axis : x y z
#
# Youngs Moduli (GPa) = 53.92470 90.48018 66.73773
#
# Poissons Ratio (x) = 0.09148 0.48868
# Poissons Ratio (y) = 0.05452 0.27968
# Poissons Ratio (z) = 0.39486 0.37918
#
# Static dielectric constant tensor:
#      x y z
#    x 4.055260 0.281760 -0.025190 
#    y 0.281760 4.335590 0.248500 
#    z -0.025190 0.248500 4.040910 
# 
# 
# High freq. dielectric constant tensor:
#      x y z
#    x 1.874810 0.019730 0.001050 
#    y 0.019730 1.897410 0.008850 
#    z 0.001050 0.008850 1.883270 
# 
# From -- ./inp_files/349537.got.cif
#   From: 2010.06.25/outbox.cif.g09.slc.cpg/sg2_175_cif.got.tgz:349537.got - 2010.06.27 13:26:56.
