data_PCOD8027895
_publ_section_title
;
Structure prediction by ZEFSAII (Michael W. Deem and Ramdas Pophale) SiO2 
 PCOD8027895
Probable space group: P -1
;
_chemical_formula_sum "Si O2"
_cell_formula_units_Z 16
_cell_length_a 14.335112
_cell_length_b 14.884673
_cell_length_c 15.833550
_cell_angle_alpha 28.247805
_cell_angle_beta 28.624603
_cell_angle_gamma 28.502385
_cell_volume 677.947519
_symmetry_space_group_name_H-M "P -1"
_symmetry_group_IT_number 2
_symmetry_cell_setting 'triclinic'
loop_
_space_group_symop_operation_xyz
x,y,z
-x,-y,-z
loop_
_atom_site_type_symbol
_atom_site_label
_atom_site_fract_x
_atom_site_fract_y
_atom_site_fract_z
Si Si1 0.117103 0.715977 0.859254
Si Si2 0.982687 0.794928 0.713283
Si Si3 0.427947 0.272067 0.255081
Si Si4 0.213511 0.426353 0.717730
Si Si5 0.755464 0.308377 0.855049
Si Si6 0.494789 0.036559 0.071772
Si Si7 0.800631 0.004568 0.306680
Si Si8 0.613947 0.393781 0.713970
O O1 0.361337 0.559915 0.765707
O O2 0.970906 0.795939 0.823835
O O3 0.112178 0.912084 0.753698
O O4 0.005656 0.601964 0.099113
O O5 0.762641 0.811341 0.830052
O O6 0.183147 0.573100 0.703679
O O7 0.000000 0.000000 0.500000
O O8 0.262065 0.520893 0.200611
O O9 0.279618 0.156024 0.456545
O O10 0.596289 0.191285 0.267005
O O11 0.570456 0.234779 0.087105
O O12 0.244623 0.552556 0.509986
O O13 0.419968 0.190434 0.759576
O O14 0.703256 0.416477 0.715063
O O15 0.002784 0.114024 0.819107
O O16 0.642166 0.153111 0.881863
O O17 0.500000 0.000000 0.000000
#
# Coordination Sequence:
#
# PCOD8027895 Si02
#       8
#     2   2   2   2   2   2   2   2
#     4  12  25  48  69 106 145 185 242 296 347 428
#     4  12  26  45  73 102 147 195 241 293 354 412
#     4  10  24  48  73 104 138 181 231 295 359 427
#     4  12  27  48  72 103 147 194 239 299 350 415
#     4  11  24  46  73 103 143 182 230 292 359 428
#     4  12  24  46  73 100 144 193 243 293 349 415
#     4  11  24  45  76 105 138 181 235 291 361 426
#     4  12  27  47  72 109 144 188 242 292 355 424
#
# _framework density 23.600646999999999
#
# number of rings (size 3 to 8) (size 9 to 14) (size 15 to 20)
#    0.000    0.500    3.750    4.125    1.750    5.500 
#    2.250    0.000    0.000    0.000    0.000    0.000 
#    0.000    0.000    0.000    0.000    0.000    0.000 
#
# Total GULP energy -198434.857411 kJ/mol
# GULP energy per Si atom -12402.178588 kJ/mol
# Density = 2.354693 g / cm^3
# Si number density = 23.600647 Si / 1000 Ang^3
#
#
#
# Elastic Constant Matrix: (Units=GPa)
#
#
# Indices 1 2 3 4 5 6 
#
# 1 76.7938 18.3865 40.5007 3.5483 -11.4963 14.6801
# 2 18.3865 117.7834 37.6647 3.9700 -13.2055 17.5586
# 3 40.5007 37.6647 169.2142 2.7672 -11.4604 25.6252
# 4 3.5483 3.9700 2.7672 39.6448 2.6202 -2.6188
# 5 -11.4963 -13.2055 -11.4604 2.6202 34.7636 0.9762
# 6 14.6801 17.5586 25.6252 -2.6188 0.9762 26.0928
#
#
#
# Elastic Compliance Matrix: (Units=1/GPa)
#
#
# Indices 1 2 3 4 5 6 
#
# 1 0.016578 -0.000085 -0.002481 -0.002110 0.004994 -0.007232
# 2 -0.000085 0.010230 -0.001047 -0.001599 0.003804 -0.006110
# 3 -0.002481 -0.001047 0.007697 -0.000680 0.001527 -0.005583
# 4 -0.002110 -0.001599 -0.000680 0.026239 -0.003667 0.005701
# 5 0.004994 0.003804 0.001527 -0.003667 0.032880 -0.008468
# 6 -0.007232 -0.006110 -0.005583 0.005701 -0.008468 0.052877
#
#
# Mechanical properties :
#
#
# Convention : Reuss Voigt Hill
#
# Bulk Modulus (GPa) = 36.66106 61.87725 49.26915
# Shear Modulus (GPa) = 30.70841 37.91620 34.31231
#
# Velocity S-wave (km/s) = 3.61108 4.01256 3.81710
# Velocity P-wave (km/s) = 5.74058 6.90962 6.35205
#
# Compressibility (1/GPa) = 0.02727690
#
# Stress axis : x y z
#
# Youngs Moduli (GPa) = 60.31935 97.75434 129.92529
#
# Poissons Ratio (x) = 0.00835 0.32235
# Poissons Ratio (y) = 0.00515 0.13609
# Poissons Ratio (z) = 0.14966 0.10239
#
# Static dielectric constant tensor:
#      x y z
#    x 4.123270 -0.215190 -0.274520 
#    y -0.215190 4.616980 0.161950 
#    z -0.274520 0.161950 4.466700 
# 
# 
# High freq. dielectric constant tensor:
#      x y z
#    x 1.915470 -0.000750 -0.008370 
#    y -0.000750 1.953530 0.003930 
#    z -0.008370 0.003930 1.944880 
# 
# From -- ./inp_files/534051.got.cif
#   From: 2010.06.25/outbox.cif.g09.slc.cpg/sg2_268_cif.got.tgz:534051.got - 2010.06.27 13:26:56.
