data_PCOD8027402
_publ_section_title
;
Structure prediction by ZEFSAII (Michael W. Deem and Ramdas Pophale) SiO2 
 PCOD8027402
Probable space group: P -1
;
_chemical_formula_sum "Si O2"
_cell_formula_units_Z 14
_cell_length_a 13.166325
_cell_length_b 15.930489
_cell_length_c 9.061067
_cell_angle_alpha 62.063450
_cell_angle_beta 52.763702
_cell_angle_gamma 26.392344
_cell_volume 657.912018
_symmetry_space_group_name_H-M "P -1"
_symmetry_group_IT_number 2
_symmetry_cell_setting 'triclinic'
loop_
_space_group_symop_operation_xyz
x,y,z
-x,-y,-z
loop_
_atom_site_type_symbol
_atom_site_label
_atom_site_fract_x
_atom_site_fract_y
_atom_site_fract_z
Si Si1 0.925659 0.956291 0.513370
Si Si2 0.880511 0.702066 0.818859
Si Si3 0.514785 0.884495 0.258923
Si Si4 0.147361 0.819724 0.103849
Si Si5 0.032524 0.438566 0.682715
Si Si6 0.752587 0.390767 0.312427
Si Si7 0.738055 0.434800 0.951874
O O1 0.068449 0.866167 0.305439
O O2 0.002487 0.824671 0.667498
O O3 0.000000 0.000000 0.500000
O O4 0.619852 0.133152 0.618719
O O5 0.928065 0.582406 0.771970
O O6 0.165508 0.557524 0.740250
O O7 0.705259 0.891437 0.726591
O O8 0.722806 0.767189 0.044716
O O9 0.669585 0.781783 0.362119
O O10 0.093320 0.751133 0.136489
O O11 0.454091 0.636889 0.967563
O O12 0.000000 0.000000 0.000000
O O13 0.000000 0.500000 0.500000
O O14 0.869992 0.449463 0.825954
O O15 0.500000 0.500000 0.500000
O O16 0.723388 0.403950 0.153822
#
# Coordination Sequence:
#
# PCOD8027402 Si02
#       7
#     2   2   2   2   2   2   2
#     4  11  25  41  71 103 128 178 230 281 344 404
#     4  10  24  45  68  97 133 177 229 284 337 402
#     4  10  24  45  67  97 135 174 231 282 332 409
#     4  11  26  46  68  99 145 177 224 285 342 416
#     4  12  28  42  70  98 139 185 226 278 345 410
#     4  11  22  42  70  97 131 172 228 287 332 402
#     4  11  26  46  68 102 135 184 228 279 350 404
#
# _framework density 21.279442
#
# number of rings (size 3 to 8) (size 9 to 14) (size 15 to 20)
#    0.000    1.143    2.857    1.286   10.000    1.714 
#    0.000    0.000    0.000    0.000    0.000    0.000 
#    0.000    0.000    0.000    0.000    0.000    0.000 
#
# Total GULP energy -173482.662867 kJ/mol
# GULP energy per Si atom -12391.618776 kJ/mol
# Density = 2.123101 g / cm^3
# Si number density = 21.279442 Si / 1000 Ang^3
#
#
#
# Elastic Constant Matrix: (Units=GPa)
#
#
# Indices 1 2 3 4 5 6 
#
# 1 178.6116 57.1748 64.3526 3.6181 -16.6385 15.6516
# 2 57.1748 109.8015 33.8204 -9.4573 6.4624 -2.9125
# 3 64.3526 33.8204 106.1708 -4.3404 -8.1534 1.4358
# 4 3.6181 -9.4573 -4.3404 31.3448 -15.2347 2.6725
# 5 -16.6385 6.4624 -8.1534 -15.2347 47.6281 -0.5659
# 6 15.6516 -2.9125 1.4358 2.6725 -0.5659 39.9226
#
#
#
# Elastic Compliance Matrix: (Units=1/GPa)
#
#
# Indices 1 2 3 4 5 6 
#
# 1 0.008754 -0.003681 -0.003946 -0.001175 0.002465 -0.003445
# 2 -0.003681 0.011954 -0.001689 0.002452 -0.002387 0.002178
# 3 -0.003946 -0.001689 0.012579 0.002498 0.001813 0.000830
# 4 -0.001175 0.002452 0.002498 0.039220 0.012207 -0.001903
# 5 0.002465 -0.002387 0.001813 0.012207 0.026376 -0.001649
# 6 -0.003445 0.002178 0.000830 -0.001903 -0.001649 0.026632
#
#
# Mechanical properties :
#
#
# Convention : Reuss Voigt Hill
#
# Bulk Modulus (GPa) = 68.23691 78.36438 73.30065
# Shear Modulus (GPa) = 33.55019 39.72819 36.63919
#
# Velocity S-wave (km/s) = 3.97501 4.32554 4.15397
# Velocity P-wave (km/s) = 7.29413 7.86469 7.58477
#
# Compressibility (1/GPa) = 0.01465482
#
# Stress axis : x y z
#
# Youngs Moduli (GPa) = 114.23566 83.65638 79.50005
#
# Poissons Ratio (x) = 0.30791 0.31368
# Poissons Ratio (y) = 0.42046 0.13431
# Poissons Ratio (z) = 0.45073 0.14133
#
# Static dielectric constant tensor:
#      x y z
#    x 4.584690 -0.352860 -0.070530 
#    y -0.352860 4.090120 -0.161830 
#    z -0.070530 -0.161830 3.712370 
# 
# 
# High freq. dielectric constant tensor:
#      x y z
#    x 1.854630 -0.012320 -0.012640 
#    y -0.012320 1.839100 -0.014280 
#    z -0.012640 -0.014280 1.839650 
# 
# From -- ./inp_files/258674.got.cif
#   From: 2010.06.25/outbox.cif.g09.slc.cpg/sg2_130_cif.got.tgz:258674.got - 2010.06.27 13:26:56.
