data_PCOD8027998
_publ_section_title
;
Structure prediction by ZEFSAII (Michael W. Deem and Ramdas Pophale) SiO2 
 PCOD8027998
Probable space group: P -1
;
_chemical_formula_sum "Si O2"
_cell_formula_units_Z 14
_cell_length_a 10.986380
_cell_length_b 8.946013
_cell_length_c 11.498319
_cell_angle_alpha 59.415454
_cell_angle_beta 130.605541
_cell_angle_gamma 136.958645
_cell_volume 584.398732
_symmetry_space_group_name_H-M "P -1"
_symmetry_group_IT_number 2
_symmetry_cell_setting 'triclinic'
loop_
_space_group_symop_operation_xyz
x,y,z
-x,-y,-z
loop_
_atom_site_type_symbol
_atom_site_label
_atom_site_fract_x
_atom_site_fract_y
_atom_site_fract_z
Si Si1 0.704902 0.083571 0.947315
Si Si2 0.105728 0.186017 0.089317
Si Si3 0.857731 0.994939 0.602073
Si Si4 0.459267 0.930685 0.635313
Si Si5 0.168291 0.469292 0.588163
Si Si6 0.676985 0.639904 0.460970
Si Si7 0.565488 0.321139 0.899286
O O1 0.690504 0.255938 0.935861
O O2 0.653170 0.073371 0.782170
O O3 0.935628 0.174005 0.062907
O O4 0.552716 0.840315 0.002222
O O5 0.220153 0.135397 0.272299
O O6 0.272068 0.431383 0.047066
O O7 0.000000 0.000000 0.000000
O O8 0.863685 0.855041 0.559339
O O9 0.706939 0.039792 0.439014
O O10 0.081561 0.225463 0.673132
O O11 0.370263 0.674728 0.695125
O O12 0.500000 0.000000 0.500000
O O13 0.230791 0.479958 0.485868
O O14 0.000000 0.500000 0.500000
O O15 0.500000 0.500000 0.500000
O O16 0.594347 0.696080 0.279137
#
# Coordination Sequence:
#
# PCOD8027998 Si02
#       7
#     2   2   2   2   2   2   2
#     4  11  26  48  70 104 145 194 241 294 367 439
#     4  12  27  45  71 107 147 187 239 301 371 435
#     4  11  23  45  67 105 136 184 245 293 360 429
#     4  11  23  44  70 102 142 186 240 296 364 427
#     4  10  25  41  66 106 144 180 230 308 364 419
#     4  12  22  44  74 103 139 190 245 297 355 436
#     4  11  26  48  73 101 146 195 241 297 365 437
#
# _framework density 23.956246
#
# number of rings (size 3 to 8) (size 9 to 14) (size 15 to 20)
#    0.000    0.857    2.857    3.429    4.000    0.571 
#    5.143    0.000    0.000    0.000    0.000    0.000 
#    0.000    0.000    0.000    0.000    0.000    0.000 
#
# Total GULP energy -173497.951920 kJ/mol
# GULP energy per Si atom -12392.710851 kJ/mol
# Density = 2.390172 g / cm^3
# Si number density = 23.956246 Si / 1000 Ang^3
#
#
#
# Elastic Constant Matrix: (Units=GPa)
#
#
# Indices 1 2 3 4 5 6 
#
# 1 126.2229 20.3099 14.6570 -8.3868 -4.3217 -11.1315
# 2 20.3099 145.5850 31.3513 2.5681 -1.3344 -9.5782
# 3 14.6570 31.3513 91.0346 0.7995 -13.0882 -10.0623
# 4 -8.3868 2.5681 0.7995 26.2513 -1.9346 -9.2119
# 5 -4.3217 -1.3344 -13.0882 -1.9346 29.4124 0.5518
# 6 -11.1315 -9.5782 -10.0623 -9.2119 0.5518 37.9387
#
#
#
# Elastic Compliance Matrix: (Units=1/GPa)
#
#
# Indices 1 2 3 4 5 6 
#
# 1 0.008733 -0.000944 -0.000600 0.004090 0.001184 0.003141
# 2 -0.000944 0.007598 -0.002509 -0.000757 -0.000976 0.000806
# 3 -0.000600 -0.002509 0.013058 0.001064 0.005626 0.002830
# 4 0.004090 -0.000757 0.001064 0.043888 0.003704 0.011894
# 5 0.001184 -0.000976 0.005626 0.003704 0.036839 0.001957
# 6 0.003141 0.000806 0.002830 0.011894 0.001957 0.031094
#
#
# Mechanical properties :
#
#
# Convention : Reuss Voigt Hill
#
# Bulk Modulus (GPa) = 46.98383 55.05323 51.01853
# Shear Modulus (GPa) = 31.96709 38.48877 35.22793
#
# Velocity S-wave (km/s) = 3.65690 4.01262 3.83888
# Velocity P-wave (km/s) = 6.12254 6.67075 6.40251
#
# Compressibility (1/GPa) = 0.02128392
#
# Stress axis : x y z
#
# Youngs Moduli (GPa) = 114.50431 131.60765 76.58231
#
# Poissons Ratio (x) = 0.12422 0.04592
# Poissons Ratio (y) = 0.10808 0.19217
# Poissons Ratio (z) = 0.06866 0.33024
#
# Static dielectric constant tensor:
#      x y z
#    x 4.616440 -0.269290 0.091060 
#    y -0.269290 4.959640 -0.016940 
#    z 0.091060 -0.016940 4.019500 
# 
# 
# High freq. dielectric constant tensor:
#      x y z
#    x 1.964960 -0.008110 0.001590 
#    y -0.008110 1.970650 0.003300 
#    z 0.001590 0.003300 1.919610 
# 
# From -- ./inp_files/381447.got.cif
#   From: 2010.06.25/outbox.cif.g09.slc.cpg/sg2_191_cif.got.tgz:381447.got - 2010.06.27 13:26:56.
