data_PCOD8027414
_publ_section_title
;
Structure prediction by ZEFSAII (Michael W. Deem and Ramdas Pophale) SiO2 
 PCOD8027414
Probable space group: P -1
;
_chemical_formula_sum "Si O2"
_cell_formula_units_Z 16
_cell_length_a 9.170556
_cell_length_b 9.206559
_cell_length_c 10.910820
_cell_angle_alpha 53.633487
_cell_angle_beta 86.594844
_cell_angle_gamma 77.780685
_cell_volume 722.414212
_symmetry_space_group_name_H-M "P -1"
_symmetry_group_IT_number 2
_symmetry_cell_setting 'triclinic'
loop_
_space_group_symop_operation_xyz
x,y,z
-x,-y,-z
loop_
_atom_site_type_symbol
_atom_site_label
_atom_site_fract_x
_atom_site_fract_y
_atom_site_fract_z
Si Si1 0.215356 0.686959 0.105222
Si Si2 0.539761 0.175160 0.844443
Si Si3 0.287421 0.038191 0.274624
Si Si4 0.163049 0.867224 0.576401
Si Si5 0.247539 0.446262 0.759014
Si Si6 0.044403 0.935180 0.796978
Si Si7 0.354305 0.412691 0.044998
Si Si8 0.002623 0.339397 0.674848
O O1 0.370217 0.744755 0.094571
O O2 0.234885 0.517177 0.096197
O O3 0.156909 0.629472 0.266305
O O4 0.096698 0.857609 0.966615
O O5 0.398620 0.340793 0.735328
O O6 0.632200 0.121863 0.741973
O O7 0.500000 0.000000 0.000000
O O8 0.383067 0.197310 0.190569
O O9 0.284511 0.959158 0.453469
O O10 0.115288 0.112952 0.202343
O O11 0.189127 0.662082 0.618931
O O12 0.175634 0.851460 0.731879
O O13 0.000000 0.000000 0.500000
O O14 0.123657 0.336774 0.777512
O O15 0.274756 0.428721 0.910544
O O16 0.031623 0.153379 0.688130
O O17 0.500000 0.500000 0.000000
O O18 0.000000 0.500000 0.500000
#
# Coordination Sequence:
#
# PCOD8027414 Si02
#       8
#     2   2   2   2   2   2   2   2
#     4  12  25  42  73  99 141 186 236 288 354 417
#     4  12  24  45  71 103 143 185 237 293 343 423
#     4  11  24  44  71 101 141 188 231 290 356 412
#     4  10  24  45  68 102 140 177 231 294 349 414
#     4  12  25  46  73 101 146 188 232 291 353 411
#     4  11  23  43  71 103 137 182 236 290 350 419
#     4  12  25  45  70 105 140 184 240 291 342 423
#     4  12  27  44  69 107 142 179 237 294 349 418
#
# _framework density 22.147959
#
# number of rings (size 3 to 8) (size 9 to 14) (size 15 to 20)
#    0.000    0.500    5.000    3.375    5.250    1.500 
#    0.000    0.625    0.000    0.000    0.000    0.000 
#    0.000    0.000    0.000    0.000    0.000    0.000 
#
# Total GULP energy -198359.826610 kJ/mol
# GULP energy per Si atom -12397.489163 kJ/mol
# Density = 2.209755 g / cm^3
# Si number density = 22.147959 Si / 1000 Ang^3
#
#
#
# Elastic Constant Matrix: (Units=GPa)
#
#
# Indices 1 2 3 4 5 6 
#
# 1 91.5600 43.4547 30.2784 -5.0589 -7.1442 9.9395
# 2 43.4547 124.2520 32.9007 -2.1396 -14.1012 -13.7040
# 3 30.2784 32.9007 92.9639 -5.5745 -21.3209 -7.2350
# 4 -5.0589 -2.1396 -5.5745 40.9021 -4.3847 -0.4552
# 5 -7.1442 -14.1012 -21.3209 -4.3847 33.8894 -1.7539
# 6 9.9395 -13.7040 -7.2350 -0.4552 -1.7539 47.2143
#
#
#
# Elastic Compliance Matrix: (Units=1/GPa)
#
#
# Indices 1 2 3 4 5 6 
#
# 1 0.015057 -0.004982 -0.003835 0.000863 -0.001472 -0.005250
# 2 -0.004982 0.010910 -0.001232 0.000149 0.002948 0.004138
# 3 -0.003835 -0.001232 0.014758 0.002410 0.008433 0.003048
# 4 0.000863 0.000149 0.002410 0.025444 0.005087 0.000665
# 5 -0.001472 0.002948 0.008433 0.005087 0.036588 0.003866
# 6 -0.005250 0.004138 0.003048 0.000665 0.003866 0.024103
#
#
# Mechanical properties :
#
#
# Convention : Reuss Voigt Hill
#
# Bulk Modulus (GPa) = 48.47847 58.00484 53.24165
# Shear Modulus (GPa) = 32.50266 37.87729 35.18997
#
# Velocity S-wave (km/s) = 3.83498 4.13993 3.99037
# Velocity P-wave (km/s) = 6.44558 7.00704 6.73216
#
# Compressibility (1/GPa) = 0.02062771
#
# Stress axis : x y z
#
# Youngs Moduli (GPa) = 66.41360 91.65965 67.76067
#
# Poissons Ratio (x) = 0.45660 0.25989
# Poissons Ratio (y) = 0.33084 0.08345
# Poissons Ratio (z) = 0.25473 0.11289
#
# Static dielectric constant tensor:
#      x y z
#    x 3.945210 -0.048180 -0.120470 
#    y -0.048180 4.472790 0.110600 
#    z -0.120470 0.110600 4.087480 
# 
# 
# High freq. dielectric constant tensor:
#      x y z
#    x 1.858900 -0.005690 -0.011610 
#    y -0.005690 1.896400 0.002720 
#    z -0.011610 0.002720 1.867650 
# 
# From -- ./inp_files/187493.got.cif
#   From: 2010.06.25/outbox.cif.g09.slc.cpg/sg2_94_cif.got.tgz:187493.got - 2010.06.27 13:26:56.
