data_PCOD8027089
_publ_section_title
;
Structure prediction by ZEFSAII (Michael W. Deem and Ramdas Pophale) SiO2 
 PCOD8027089
Probable space group: P -1
;
_chemical_formula_sum "Si O2"
_cell_formula_units_Z 12
_cell_length_a 14.026408
_cell_length_b 5.119693
_cell_length_c 13.234527
_cell_angle_alpha 110.664976
_cell_angle_beta 30.516683
_cell_angle_gamma 108.153768
_cell_volume 451.487258
_symmetry_space_group_name_H-M "P -1"
_symmetry_group_IT_number 2
_symmetry_cell_setting 'triclinic'
loop_
_space_group_symop_operation_xyz
x,y,z
-x,-y,-z
loop_
_atom_site_type_symbol
_atom_site_label
_atom_site_fract_x
_atom_site_fract_y
_atom_site_fract_z
Si Si1 0.111989 0.717281 0.859839
Si Si2 0.357146 0.514876 0.933506
Si Si3 0.167797 0.246703 0.606527
Si Si4 0.261533 0.359621 0.314999
Si Si5 0.432229 0.892679 0.728301
Si Si6 0.943653 0.752453 0.701927
O O1 0.121028 0.568967 0.720652
O O2 0.321579 0.765727 0.716527
O O3 0.000000 0.500000 0.000000
O O4 0.000000 0.000000 0.000000
O O5 0.515757 0.575576 0.882620
O O6 0.353974 0.756781 0.885567
O O7 0.404236 0.222931 0.798252
O O8 0.154833 0.484223 0.169069
O O9 0.217023 0.202977 0.438613
O O10 0.347884 0.163366 0.497855
O O11 0.992386 0.034102 0.759931
O O12 0.200522 0.173504 0.248106
O O13 0.138522 0.640660 0.462959
#
# Coordination Sequence:
#
# PCOD8027089 Si02
#       6
#     2   2   2   2   2   2
#     4  12  28  45  74 108 139 185 245 295 363 433
#     4  11  24  45  72 106 147 192 236 295 354 425
#     4  11  25  46  71 102 148 193 236 302 359 425
#     4  10  24  44  67 107 144 191 244 289 359 423
#     4  11  25  47  71 106 145 188 241 292 361 432
#     4  11  23  43  72 103 145 194 238 296 352 428
#
# _framework density 26.578824999999998
#
# number of rings (size 3 to 8) (size 9 to 14) (size 15 to 20)
#    0.000    1.000    1.667    3.500    9.333    0.000 
#    0.000    6.667    0.000    0.000    0.000    0.000 
#    0.000    0.000    0.000    0.000    0.000    0.000 
#
# Total GULP energy -148819.559784 kJ/mol
# GULP energy per Si atom -12401.629982 kJ/mol
# Density = 2.651833 g / cm^3
# Si number density = 26.578825 Si / 1000 Ang^3
#
#
#
# Elastic Constant Matrix: (Units=GPa)
#
#
# Indices 1 2 3 4 5 6 
#
# 1 120.0041 48.4186 26.9376 -18.7313 -28.0328 36.9443
# 2 48.4186 116.3647 31.7174 -12.2203 -19.5167 27.3791
# 3 26.9376 31.7174 85.3216 -11.2899 -15.1347 23.7355
# 4 -18.7313 -12.2203 -11.2899 40.5762 5.3619 -6.8031
# 5 -28.0328 -19.5167 -15.1347 5.3619 38.9869 -11.8831
# 6 36.9443 27.3791 23.7355 -6.8031 -11.8831 49.9068
#
#
#
# Elastic Compliance Matrix: (Units=1/GPa)
#
#
# Indices 1 2 3 4 5 6 
#
# 1 0.013316 -0.002685 0.000115 0.003502 0.005787 -0.006584
# 2 -0.002685 0.011342 -0.002175 0.000871 0.001988 -0.002608
# 3 0.000115 -0.002175 0.014660 0.002280 0.002889 -0.004866
# 4 0.003502 0.000871 0.002280 0.027083 -0.000029 -0.000470
# 5 0.005787 0.001988 0.002889 -0.000029 0.032211 0.000917
# 6 -0.006584 -0.002608 -0.004866 -0.000470 0.000917 0.028811
#
#
# Mechanical properties :
#
#
# Convention : Reuss Voigt Hill
#
# Bulk Modulus (GPa) = 33.52377 59.53751 46.53064
# Shear Modulus (GPa) = 34.04718 40.20177 37.12448
#
# Velocity S-wave (km/s) = 3.58297 3.89337 3.74139
# Velocity P-wave (km/s) = 5.45502 6.53147 6.01736
#
# Compressibility (1/GPa) = 0.02982958
#
# Stress axis : x y z
#
# Youngs Moduli (GPa) = 75.09959 88.16554 68.21186
#
# Poissons Ratio (x) = 0.23668 -0.00787
# Poissons Ratio (y) = 0.20161 0.14837
# Poissons Ratio (z) = -0.00867 0.19178
#
# Static dielectric constant tensor:
#      x y z
#    x 5.004470 0.406830 -0.284380 
#    y 0.406830 4.904910 -0.159550 
#    z -0.284380 -0.159550 4.809580 
# 
# 
# High freq. dielectric constant tensor:
#      x y z
#    x 2.078570 0.012690 -0.024220 
#    y 0.012690 2.068910 -0.008960 
#    z -0.024220 -0.008960 2.058760 
# 
# From -- ./inp_files/103695.got.cif
#   From: 2010.06.25/outbox.cif.g09.slc.cpg/sg2_52_cif.got.tgz:103695.got - 2010.06.27 13:26:56.
