data_PCOD8027237
_publ_section_title
;
Structure prediction by ZEFSAII (Michael W. Deem and Ramdas Pophale) SiO2 
 PCOD8027237
Probable space group: P -1
;
_chemical_formula_sum "Si O2"
_cell_formula_units_Z 16
_cell_length_a 8.928686
_cell_length_b 8.894554
_cell_length_c 11.643583
_cell_angle_alpha 97.837086
_cell_angle_beta 81.957517
_cell_angle_gamma 130.072015
_cell_volume 699.341178
_symmetry_space_group_name_H-M "P -1"
_symmetry_group_IT_number 2
_symmetry_cell_setting 'triclinic'
loop_
_space_group_symop_operation_xyz
x,y,z
-x,-y,-z
loop_
_atom_site_type_symbol
_atom_site_label
_atom_site_fract_x
_atom_site_fract_y
_atom_site_fract_z
Si Si1 0.283290 0.813339 0.478301
Si Si2 0.190575 0.456039 0.840543
Si Si3 0.152772 0.604651 0.236937
Si Si4 0.632489 0.401070 0.403293
Si Si5 0.157780 0.093686 0.892732
Si Si6 0.790097 0.793805 0.536844
Si Si7 0.561005 0.364745 0.958428
Si Si8 0.020624 0.785179 0.679215
O O1 0.242304 0.773554 0.342174
O O2 0.245745 0.627006 0.525149
O O3 0.151743 0.859852 0.556445
O O4 0.500000 0.000000 0.500000
O O5 0.315537 0.592785 0.733421
O O6 0.186488 0.273545 0.846022
O O7 0.965558 0.370507 0.841780
O O8 0.305627 0.610908 0.949065
O O9 0.314742 0.595559 0.164712
O O10 0.997259 0.395368 0.291429
O O11 0.709561 0.621249 0.436032
O O12 0.398353 0.216374 0.426843
O O13 0.352060 0.151021 0.940380
O O14 0.111976 0.945228 0.784395
O O15 0.000000 0.000000 0.000000
O O16 0.818383 0.732109 0.652179
O O17 0.000000 0.000000 0.500000
O O18 0.500000 0.500000 0.000000
#
# Coordination Sequence:
#
# PCOD8027237 Si02
#       8
#     2   2   2   2   2   2   2   2
#     4  12  25  44  69 103 145 188 237 296 365 429
#     4  11  24  46  72 100 145 187 238 294 365 428
#     4  12  24  46  73 102 142 189 234 294 362 433
#     4  11  24  43  67 106 146 187 246 299 355 437
#     4  11  26  46  71 106 137 185 243 298 362 434
#     4  11  24  40  67 104 143 193 242 296 359 427
#     4  10  24  44  71 100 136 183 234 292 355 427
#     4  12  23  42  70  98 141 181 235 292 356 420
#
# _framework density 22.878674
#
# number of rings (size 3 to 8) (size 9 to 14) (size 15 to 20)
#    0.000    0.750    2.500    5.250    5.250    2.000 
#    0.000    1.250    0.000    0.000    0.000    0.000 
#    0.000    0.000    0.000    0.000    0.000    0.000 
#
# Total GULP energy -198257.531176 kJ/mol
# GULP energy per Si atom -12391.095698 kJ/mol
# Density = 2.282660 g / cm^3
# Si number density = 22.878674 Si / 1000 Ang^3
#
#
#
# Elastic Constant Matrix: (Units=GPa)
#
#
# Indices 1 2 3 4 5 6 
#
# 1 136.5652 35.3410 66.3242 13.9077 6.0099 22.5759
# 2 35.3410 74.1089 30.9187 10.1588 2.7010 24.1973
# 3 66.3242 30.9187 160.1490 26.2168 -3.0039 20.6573
# 4 13.9077 10.1588 26.2168 44.4165 5.3636 3.5635
# 5 6.0099 2.7010 -3.0039 5.3636 51.7678 -1.9148
# 6 22.5759 24.1973 20.6573 3.5635 -1.9148 37.2583
#
#
#
# Elastic Compliance Matrix: (Units=1/GPa)
#
#
# Indices 1 2 3 4 5 6 
#
# 1 0.010118 -0.002457 -0.003348 -0.000253 -0.001315 -0.002722
# 2 -0.002457 0.018621 -0.000988 -0.002002 -0.000903 -0.009912
# 3 -0.003348 -0.000988 0.008702 -0.003879 0.001284 -0.001717
# 4 -0.000253 -0.002002 -0.003879 0.025586 -0.002705 0.001018
# 5 -0.001315 -0.000903 0.001284 -0.002705 0.019944 0.001955
# 6 -0.002722 -0.009912 -0.001717 0.001018 0.001955 0.035882
#
#
# Mechanical properties :
#
#
# Convention : Reuss Voigt Hill
#
# Bulk Modulus (GPa) = 41.91967 70.66567 56.29267
# Shear Modulus (GPa) = 35.61489 42.57114 39.09301
#
# Velocity S-wave (km/s) = 3.94977 4.31830 4.13814
# Velocity P-wave (km/s) = 6.25805 7.47113 6.89134
#
# Compressibility (1/GPa) = 0.02385515
#
# Stress axis : x y z
#
# Youngs Moduli (GPa) = 98.83401 53.70222 114.91353
#
# Poissons Ratio (x) = 0.13193 0.38474
# Poissons Ratio (y) = 0.24281 0.11357
# Poissons Ratio (z) = 0.33091 0.05307
#
# Static dielectric constant tensor:
#      x y z
#    x 4.672760 0.072890 0.161690 
#    y 0.072890 3.974530 0.076170 
#    z 0.161690 0.076170 4.124740 
# 
# 
# High freq. dielectric constant tensor:
#      x y z
#    x 1.923370 0.010370 0.005060 
#    y 0.010370 1.891550 0.010710 
#    z 0.005060 0.010710 1.908180 
# 
# From -- ./inp_files/382616.got.cif
#   From: 2010.06.25/outbox.cif.g09.slc.cpg/sg2_192_cif.got.tgz:382616.got - 2010.06.27 13:26:56.
