data_PCOD8027106
_publ_section_title
;
Structure prediction by ZEFSAII (Michael W. Deem and Ramdas Pophale) SiO2 
 PCOD8027106
Probable space group: P -1
;
_chemical_formula_sum "Si O2"
_cell_formula_units_Z 16
_cell_length_a 6.582377
_cell_length_b 10.861401
_cell_length_c 24.266621
_cell_angle_alpha 31.260451
_cell_angle_beta 123.272611
_cell_angle_gamma 109.299723
_cell_volume 713.350103
_symmetry_space_group_name_H-M "P -1"
_symmetry_group_IT_number 2
_symmetry_cell_setting 'triclinic'
loop_
_space_group_symop_operation_xyz
x,y,z
-x,-y,-z
loop_
_atom_site_type_symbol
_atom_site_label
_atom_site_fract_x
_atom_site_fract_y
_atom_site_fract_z
Si Si1 0.842267 0.663901 0.364840
Si Si2 0.082014 0.239530 0.484307
Si Si3 0.787866 0.845070 0.588173
Si Si4 0.538812 0.503926 0.067434
Si Si5 0.524806 0.981565 0.282684
Si Si6 0.981258 0.372012 0.870116
Si Si7 0.954328 0.059892 0.159295
Si Si8 0.787084 0.011620 0.039489
O O1 0.572967 0.815047 0.296813
O O2 0.000000 0.500000 0.500000
O O3 0.856798 0.482923 0.383113
O O4 0.938363 0.891823 0.273494
O O5 0.165328 0.278262 0.419219
O O6 0.337746 0.189731 0.579292
O O7 0.974659 0.009187 0.559443
O O8 0.842841 0.643842 0.721702
O O9 0.500000 0.000000 0.500000
O O10 0.750900 0.636762 0.059520
O O11 0.629306 0.218475 0.211075
O O12 0.500000 0.500000 0.000000
O O13 0.267486 0.676524 0.984381
O O14 0.221135 0.105622 0.192786
O O15 0.032020 0.180868 0.901212
O O16 0.798886 0.289879 0.918349
O O17 0.929095 0.915399 0.155137
O O18 0.500000 0.000000 0.000000
#
# Coordination Sequence:
#
# PCOD8027106 Si02
#       8
#     2   2   2   2   2   2   2   2
#     4  10  24  44  67  97 139 184 231 286 343 415
#     4  10  24  45  69 102 140 186 237 286 350 415
#     4  11  25  44  71 103 137 189 235 291 347 415
#     4  12  23  43  69 101 140 182 230 284 348 418
#     4  11  24  44  71 102 146 178 234 290 350 417
#     4  11  25  46  71 100 140 184 229 293 349 413
#     4  12  25  42  71 103 137 187 232 288 351 413
#     4  11  25  45  70 102 137 182 234 285 351 415
#
# _framework density 22.429380999999999
#
# number of rings (size 3 to 8) (size 9 to 14) (size 15 to 20)
#    0.000    1.000    3.750    1.875    0.000   11.000 
#    0.000    0.000    0.000    0.000    0.000    0.000 
#    0.000    0.000    0.000    0.000    0.000    0.000 
#
# Total GULP energy -198220.633808 kJ/mol
# GULP energy per Si atom -12388.789613 kJ/mol
# Density = 2.237833 g / cm^3
# Si number density = 22.429381 Si / 1000 Ang^3
#
#
#
# Elastic Constant Matrix: (Units=GPa)
#
#
# Indices 1 2 3 4 5 6 
#
# 1 112.0029 40.2672 41.7844 7.8479 5.4456 3.1057
# 2 40.2672 102.0181 22.6827 8.2425 9.0251 -9.7764
# 3 41.7844 22.6827 100.2028 -4.2823 -1.1559 0.9373
# 4 7.8479 8.2425 -4.2823 37.0255 -0.6074 4.7544
# 5 5.4456 9.0251 -1.1559 -0.6074 34.1882 2.1692
# 6 3.1057 -9.7764 0.9373 4.7544 2.1692 42.7379
#
#
#
# Elastic Compliance Matrix: (Units=1/GPa)
#
#
# Indices 1 2 3 4 5 6 
#
# 1 0.012090 -0.003684 -0.004296 -0.002084 -0.001050 -0.001342
# 2 -0.003684 0.012404 -0.001454 -0.002658 -0.003012 0.003586
# 3 -0.004296 -0.001454 0.012243 0.002763 0.001574 -0.000676
# 4 -0.002084 -0.002658 0.002763 0.028884 0.001883 -0.003826
# 5 -0.001050 -0.003012 0.001574 0.001883 0.030451 -0.002402
# 6 -0.001342 0.003586 -0.000676 -0.003826 -0.002402 0.024879
#
#
# Mechanical properties :
#
#
# Convention : Reuss Voigt Hill
#
# Bulk Modulus (GPa) = 55.96132 58.18805 57.07468
# Shear Modulus (GPa) = 34.29953 36.75630 35.52791
#
# Velocity S-wave (km/s) = 3.91477 4.05255 3.98425
# Velocity P-wave (km/s) = 6.74078 6.92074 6.83135
#
# Compressibility (1/GPa) = 0.01786948
#
# Stress axis : x y z
#
# Youngs Moduli (GPa) = 82.71383 80.61711 81.68032
#
# Poissons Ratio (x) = 0.29700 0.35091
# Poissons Ratio (y) = 0.30472 0.11873
# Poissons Ratio (z) = 0.35535 0.11719
#
# Static dielectric constant tensor:
#      x y z
#    x 4.170530 -0.310250 -0.290160 
#    y -0.310250 4.153380 0.001810 
#    z -0.290160 0.001810 4.205410 
# 
# 
# High freq. dielectric constant tensor:
#      x y z
#    x 1.882140 -0.015080 -0.007410 
#    y -0.015080 1.889000 -0.003370 
#    z -0.007410 -0.003370 1.892570 
# 
# From -- ./inp_files/604424.got.cif
#   From: 2010.06.25/outbox.cif.g09.slc.cpg/sg2_303_cif.got.tgz:604424.got - 2010.06.27 13:26:56.
