data_PCOD8027970
_publ_section_title
;
Structure prediction by ZEFSAII (Michael W. Deem and Ramdas Pophale) SiO2 
 PCOD8027970
Probable space group: P -1
;
_chemical_formula_sum "Si O2"
_cell_formula_units_Z 14
_cell_length_a 11.742951
_cell_length_b 14.721433
_cell_length_c 12.970665
_cell_angle_alpha 44.873333
_cell_angle_beta 124.440989
_cell_angle_gamma 151.609041
_cell_volume 740.949551
_symmetry_space_group_name_H-M "P -1"
_symmetry_group_IT_number 2
_symmetry_cell_setting 'triclinic'
loop_
_space_group_symop_operation_xyz
x,y,z
-x,-y,-z
loop_
_atom_site_type_symbol
_atom_site_label
_atom_site_fract_x
_atom_site_fract_y
_atom_site_fract_z
Si Si1 0.365571 0.818616 0.165754
Si Si2 0.208956 0.169632 0.325072
Si Si3 0.783053 0.991024 0.348249
Si Si4 0.936381 0.382502 0.168052
Si Si5 0.882430 0.003485 0.799582
Si Si6 0.594631 0.940026 0.847821
Si Si7 0.360170 0.306026 0.896538
O O1 0.125558 0.564409 0.207225
O O2 0.545095 0.848706 0.277998
O O3 0.288787 0.859945 0.182226
O O4 0.500000 0.000000 0.000000
O O5 0.397515 0.426090 0.190038
O O6 0.947665 0.031360 0.325145
O O7 0.303253 0.157804 0.478248
O O8 0.184324 0.057573 0.304704
O O9 0.941441 0.233551 0.273200
O O10 0.670063 0.221582 0.198184
O O11 0.000000 0.500000 0.000000
O O12 0.174019 0.225118 0.784120
O O13 0.769523 0.050293 0.749622
O O14 0.768029 0.795535 0.973803
O O15 0.572438 0.789799 0.023341
#
# Coordination Sequence:
#
# PCOD8027970 Si02
#       7
#     2   2   2   2   2   2   2
#     4  11  22  35  60  82 116 150 191 251 279 333
#     4  11  22  39  60  82 128 156 182 244 290 353
#     4  10  25  38  55  94 115 155 199 224 305 352
#     4  11  20  37  59  84 113 152 192 242 287 334
#     4   9  21  36  59  90 116 151 200 237 283 345
#     4   9  20  35  56  93 110 142 203 235 288 340
#     4   9  20  35  59  90 115 148 198 237 287 342
#
# _framework density 18.894673999999998
#
# number of rings (size 3 to 8) (size 9 to 14) (size 15 to 20)
#    0.857    1.143    2.857    1.286    2.000    2.286 
#    0.000    5.714    0.000    5.143    0.000    0.000 
#    0.000    0.000    0.000    0.000    0.000    0.000 
#
# Total GULP energy -173567.541442 kJ/mol
# GULP energy per Si atom -12397.681532 kJ/mol
# Density = 1.885167 g / cm^3
# Si number density = 18.894674 Si / 1000 Ang^3
#
#
#
# Elastic Constant Matrix: (Units=GPa)
#
#
# Indices 1 2 3 4 5 6 
#
# 1 105.8048 41.4909 40.4766 18.9296 2.7567 -8.4889
# 2 41.4909 118.3768 23.1684 24.0773 -3.6210 -12.8492
# 3 40.4766 23.1684 52.5694 15.9586 -3.9984 -1.0922
# 4 18.9296 24.0773 15.9586 26.5116 0.2262 5.3529
# 5 2.7567 -3.6210 -3.9984 0.2262 24.8407 3.5181
# 6 -8.4889 -12.8492 -1.0922 5.3529 3.5181 22.9153
#
#
#
# Elastic Compliance Matrix: (Units=1/GPa)
#
#
# Indices 1 2 3 4 5 6 
#
# 1 0.015372 -0.002113 -0.009826 -0.004257 -0.004365 0.005706
# 2 -0.002113 0.012561 -0.000133 -0.011609 0.000900 0.008828
# 3 -0.009826 -0.000133 0.030486 -0.011145 0.006165 -0.000604
# 4 -0.004257 -0.011609 -0.011145 0.062702 -0.000296 -0.023219
# 5 -0.004365 0.000900 0.006165 -0.000296 0.042906 -0.007337
# 6 0.005706 0.008828 -0.000604 -0.023219 -0.007337 0.057224
#
#
# Mechanical properties :
#
#
# Convention : Reuss Voigt Hill
#
# Bulk Modulus (GPa) = 29.17497 54.11365 41.64431
# Shear Modulus (GPa) = 19.46883 26.29452 22.88167
#
# Velocity S-wave (km/s) = 3.21345 3.73451 3.48373
# Velocity P-wave (km/s) = 5.40765 6.87730 6.18627
#
# Compressibility (1/GPa) = 0.03427595
#
# Stress axis : x y z
#
# Youngs Moduli (GPa) = 65.05283 79.60973 32.80163
#
# Poissons Ratio (x) = 0.16823 0.32230
# Poissons Ratio (y) = 0.13747 0.00436
# Poissons Ratio (z) = 0.63920 0.01058
#
# Static dielectric constant tensor:
#      x y z
#    x 3.509640 0.017420 0.052880 
#    y 0.017420 3.475760 0.049230 
#    z 0.052880 0.049230 3.227750 
# 
# 
# High freq. dielectric constant tensor:
#      x y z
#    x 1.739800 0.004700 0.003890 
#    y 0.004700 1.733720 0.007880 
#    z 0.003890 0.007880 1.708730 
# 
# From -- ./inp_files/432611.got.cif
#   From: 2010.06.25/outbox.cif.g09.slc.cpg/sg2_217_cif.got.tgz:432611.got - 2010.06.27 13:26:56.
