data_PCOD8027199
_publ_section_title
;
Structure prediction by ZEFSAII (Michael W. Deem and Ramdas Pophale) SiO2 
 PCOD8027199
Probable space group: P -1
;
_chemical_formula_sum "Si O2"
_cell_formula_units_Z 16
_cell_length_a 8.940299
_cell_length_b 23.556726
_cell_length_c 9.383993
_cell_angle_alpha 38.589614
_cell_angle_beta 44.932577
_cell_angle_gamma 41.789687
_cell_volume 783.345194
_symmetry_space_group_name_H-M "P -1"
_symmetry_group_IT_number 2
_symmetry_cell_setting 'triclinic'
loop_
_space_group_symop_operation_xyz
x,y,z
-x,-y,-z
loop_
_atom_site_type_symbol
_atom_site_label
_atom_site_fract_x
_atom_site_fract_y
_atom_site_fract_z
Si Si1 0.896424 0.791336 0.457207
Si Si2 0.365131 0.103887 0.303797
Si Si3 0.009663 0.104631 0.313135
Si Si4 0.467414 0.744812 0.515335
Si Si5 0.582771 0.251024 0.785544
Si Si6 0.689951 0.890657 0.128811
Si Si7 0.811463 0.605457 0.773201
Si Si8 0.681033 0.548264 0.262917
O O1 0.831313 0.818284 0.611722
O O2 0.726286 0.883169 0.289308
O O3 0.858870 0.694027 0.636551
O O4 0.159760 0.773751 0.282594
O O5 0.235168 0.083365 0.299195
O O6 0.500000 0.000000 0.500000
O O7 0.535759 0.152727 0.038155
O O8 0.776008 0.192236 0.362077
O O9 0.058309 0.137876 0.059583
O O10 0.000000 0.000000 0.500000
O O11 0.427492 0.718537 0.433363
O O12 0.610535 0.809991 0.279626
O O13 0.623255 0.642716 0.698092
O O14 0.398593 0.345946 0.810450
O O15 0.500000 0.000000 0.000000
O O16 0.061046 0.522695 0.708040
O O17 0.704162 0.559586 0.055660
O O18 0.500000 0.500000 0.500000
#
# Coordination Sequence:
#
# PCOD8027199 Si02
#       8
#     2   2   2   2   2   2   2   2
#     4  11  24  41  68  97 132 175 223 270 334 393
#     4  12  27  42  64  99 138 179 224 274 325 389
#     4  12  25  40  63  92 133 180 224 272 326 388
#     4  11  25  42  63  96 136 174 220 272 331 395
#     4  12  25  44  68  99 137 175 220 280 332 398
#     4  11  23  40  63  93 130 177 226 270 323 389
#     4  10  24  44  70 101 130 170 220 279 331 406
#     4  11  23  44  75 101 130 169 222 273 344 397
#
# _framework density 20.425222999999999
#
# number of rings (size 3 to 8) (size 9 to 14) (size 15 to 20)
#    0.000    0.750    6.250    0.750    5.250    1.000 
#    0.000    0.625    0.000    0.000    0.000    0.000 
#    0.000    0.000    0.000    0.000    0.000    0.000 
#
# Total GULP energy -198426.260847 kJ/mol
# GULP energy per Si atom -12401.641303 kJ/mol
# Density = 2.037873 g / cm^3
# Si number density = 20.425223 Si / 1000 Ang^3
#
#
#
# Elastic Constant Matrix: (Units=GPa)
#
#
# Indices 1 2 3 4 5 6 
#
# 1 84.9048 22.7213 34.6419 -8.5895 1.3372 -8.7767
# 2 22.7213 92.7716 27.6309 6.2621 4.3109 -19.1503
# 3 34.6419 27.6309 121.8539 5.8139 -7.7140 -14.0322
# 4 -8.5895 6.2621 5.8139 37.8871 -2.0170 3.7152
# 5 1.3372 4.3109 -7.7140 -2.0170 33.4491 -1.8755
# 6 -8.7767 -19.1503 -14.0322 3.7152 -1.8755 35.5790
#
#
#
# Elastic Compliance Matrix: (Units=1/GPa)
#
#
# Indices 1 2 3 4 5 6 
#
# 1 0.014474 -0.002636 -0.003750 0.004230 -0.000838 0.000187
# 2 -0.002636 0.013483 -0.001548 -0.003299 -0.001838 0.006244
# 3 -0.003750 -0.001548 0.010209 -0.002276 0.002715 0.002649
# 4 0.004230 -0.003299 -0.002276 0.028760 0.001209 -0.004569
# 5 -0.000838 -0.001838 0.002715 0.001209 0.030943 0.001380
# 6 0.000187 0.006244 0.002649 -0.004569 0.001380 0.033108
#
#
# Mechanical properties :
#
#
# Convention : Reuss Voigt Hill
#
# Bulk Modulus (GPa) = 44.84811 52.16870 48.50840
# Shear Modulus (GPa) = 32.40908 35.68546 34.04727
#
# Velocity S-wave (km/s) = 3.98768 4.18440 4.08723
# Velocity P-wave (km/s) = 6.57321 6.99588 6.78784
#
# Compressibility (1/GPa) = 0.02229748
#
# Stress axis : x y z
#
# Youngs Moduli (GPa) = 69.08984 74.16915 97.94995
#
# Poissons Ratio (x) = 0.19550 0.36736
# Poissons Ratio (y) = 0.18211 0.15161
# Poissons Ratio (z) = 0.25912 0.11480
#
# Static dielectric constant tensor:
#      x y z
#    x 3.738560 -0.080200 0.079660 
#    y -0.080200 3.783650 0.104600 
#    z 0.079660 0.104600 3.930680 
# 
# 
# High freq. dielectric constant tensor:
#      x y z
#    x 1.798020 -0.004110 0.001530 
#    y -0.004110 1.800540 0.009610 
#    z 0.001530 0.009610 1.814690 
# 
# From -- ./inp_files/46756.got.cif
#   From: 2010.06.25/outbox.cif.g09.slc.cpg/sg2_24_cif.got.tgz:46756.got - 2010.06.27 13:26:56.
