data_PCOD8027842
_publ_section_title
;
Structure prediction by ZEFSAII (Michael W. Deem and Ramdas Pophale) SiO2 
 PCOD8027842
Probable space group: P -1
;
_chemical_formula_sum "Si O2"
_cell_formula_units_Z 16
_cell_length_a 7.225415
_cell_length_b 17.801912
_cell_length_c 5.112832
_cell_angle_alpha 70.474062
_cell_angle_beta 79.550194
_cell_angle_gamma 82.147127
_cell_volume 607.489881
_symmetry_space_group_name_H-M "P -1"
_symmetry_group_IT_number 2
_symmetry_cell_setting 'triclinic'
loop_
_space_group_symop_operation_xyz
x,y,z
-x,-y,-z
loop_
_atom_site_type_symbol
_atom_site_label
_atom_site_fract_x
_atom_site_fract_y
_atom_site_fract_z
Si Si1 0.345292 0.742651 0.826931
Si Si2 0.522185 0.588590 0.757209
Si Si3 0.951954 0.563496 0.714813
Si Si4 0.960870 0.740994 0.667794
Si Si5 0.509511 0.888422 0.463995
Si Si6 0.203442 0.028109 0.357569
Si Si7 0.701318 0.407926 0.696354
Si Si8 0.786163 0.819198 0.112326
O O1 0.501105 0.684759 0.694559
O O2 0.431846 0.826929 0.771623
O O3 0.159907 0.769592 0.675129
O O4 0.283906 0.689049 0.153648
O O5 0.739171 0.562221 0.671465
O O6 0.402777 0.565575 0.569551
O O7 0.422011 0.548639 0.083891
O O8 0.983939 0.645894 0.757248
O O9 0.089629 0.558840 0.424918
O O10 0.000000 0.500000 0.000000
O O11 0.918745 0.779596 0.351274
O O12 0.802346 0.766912 0.901291
O O13 0.571891 0.832424 0.263010
O O14 0.348244 0.953455 0.326968
O O15 0.694104 0.927524 0.483191
O O16 0.160383 0.090449 0.061616
O O17 0.000000 0.000000 0.500000
#
# Coordination Sequence:
#
# PCOD8027842 Si02
#       8
#     2   2   2   2   2   2   2   2
#     4  10  24  47  74 109 154 201 263 324 372 463
#     4  10  25  46  77 107 152 202 257 322 389 461
#     4  12  27  51  82 117 161 210 260 333 411 477
#     4  12  26  49  78 113 149 203 267 320 389 468
#     4  11  25  48  77 116 151 211 257 317 395 460
#     4  11  26  51  76 116 161 199 255 322 391 463
#     4  10  24  50  72 114 152 196 268 312 390 462
#     4  12  26  50  77 110 152 202 263 316 380 469
#
# _framework density 26.337889000000001
#
# number of rings (size 3 to 8) (size 9 to 14) (size 15 to 20)
#    0.750    0.250    2.500    2.625    0.000    7.500 
#    4.500    7.500    0.000    0.000    0.000    0.000 
#    0.000    0.000    0.000    0.000    0.000    0.000 
#
# Total GULP energy -198327.685644 kJ/mol
# GULP energy per Si atom -12395.480353 kJ/mol
# Density = 2.627794 g / cm^3
# Si number density = 26.337889 Si / 1000 Ang^3
#
#
#
# Elastic Constant Matrix: (Units=GPa)
#
#
# Indices 1 2 3 4 5 6 
#
# 1 136.0714 38.4501 54.8323 -3.8928 -13.3368 -7.3136
# 2 38.4501 122.5552 65.8542 -11.9210 -14.9606 -28.7039
# 3 54.8323 65.8542 183.7628 -12.9941 2.4636 -5.9854
# 4 -3.8928 -11.9210 -12.9941 53.9587 -1.6944 -10.4936
# 5 -13.3368 -14.9606 2.4636 -1.6944 52.0968 -5.6069
# 6 -7.3136 -28.7039 -5.9854 -10.4936 -5.6069 41.7077
#
#
#
# Elastic Compliance Matrix: (Units=1/GPa)
#
#
# Indices 1 2 3 4 5 6 
#
# 1 0.008815 -0.001129 -0.002225 0.000063 0.002120 0.000750
# 2 -0.001129 0.014447 -0.004245 0.004389 0.005383 0.010963
# 3 -0.002225 -0.004245 0.007589 0.000166 -0.002412 -0.002505
# 4 0.000063 0.004389 0.000166 0.021354 0.002912 0.008820
# 5 0.002120 0.005383 -0.002412 0.002912 0.022295 0.007460
# 6 0.000750 0.010963 -0.002505 0.008820 0.007460 0.034515
#
#
# Mechanical properties :
#
#
# Convention : Reuss Voigt Hill
#
# Bulk Modulus (GPa) = 63.88817 84.51806 74.20312
# Shear Modulus (GPa) = 38.63065 48.43617 43.53341
#
# Velocity S-wave (km/s) = 3.83395 4.29304 4.06998
# Velocity P-wave (km/s) = 6.62636 7.53215 7.09373
#
# Compressibility (1/GPa) = 0.01565235
#
# Stress axis : x y z
#
# Youngs Moduli (GPa) = 113.44634 69.22065 131.76144
#
# Poissons Ratio (x) = 0.07817 0.29318
# Poissons Ratio (y) = 0.12811 0.55932
# Poissons Ratio (z) = 0.25242 0.29384
#
# Static dielectric constant tensor:
#      x y z
#    x 5.075640 -0.556920 -0.406800 
#    y -0.556920 5.379410 -0.046920 
#    z -0.406800 -0.046920 5.020510 
# 
# 
# High freq. dielectric constant tensor:
#      x y z
#    x 2.054560 -0.017880 -0.007010 
#    y -0.017880 2.085960 -0.017660 
#    z -0.007010 -0.017660 2.061460 
# 
# From -- ./inp_files/54606.got.cif
#   From: 2010.06.25/outbox.cif.g09.slc.cpg/sg2_28_cif.got.tgz:54606.got - 2010.06.27 13:26:56.
