data_PCOD8027149
_publ_section_title
;
Structure prediction by ZEFSAII (Michael W. Deem and Ramdas Pophale) SiO2 
 PCOD8027149
Probable space group: P -1
;
_chemical_formula_sum "Si O2"
_cell_formula_units_Z 16
_cell_length_a 9.202798
_cell_length_b 9.352887
_cell_length_c 14.559698
_cell_angle_alpha 70.990159
_cell_angle_beta 77.392964
_cell_angle_gamma 131.504079
_cell_volume 701.003675
_symmetry_space_group_name_H-M "P -1"
_symmetry_group_IT_number 2
_symmetry_cell_setting 'triclinic'
loop_
_space_group_symop_operation_xyz
x,y,z
-x,-y,-z
loop_
_atom_site_type_symbol
_atom_site_label
_atom_site_fract_x
_atom_site_fract_y
_atom_site_fract_z
Si Si1 0.713600 0.683195 0.006034
Si Si2 0.538659 0.006533 0.814330
Si Si3 0.448987 0.650033 0.579170
Si Si4 0.956869 0.308080 0.996659
Si Si5 0.093107 0.157826 0.544047
Si Si6 0.564508 0.746061 0.747535
Si Si7 0.749081 0.382363 0.558872
Si Si8 0.961855 0.199385 0.825768
O O1 0.576826 0.526610 0.154403
O O2 0.500000 0.500000 0.000000
O O3 0.935346 0.742823 0.945540
O O4 0.825633 0.941080 0.938050
O O5 0.569454 0.152800 0.699628
O O6 0.782488 0.168174 0.803815
O O7 0.339788 0.928781 0.922578
O O8 0.445997 0.774180 0.827630
O O9 0.662563 0.731828 0.478069
O O10 0.547838 0.787306 0.635426
O O11 0.370739 0.719104 0.505590
O O12 0.196867 0.350054 0.696917
O O13 0.062118 0.373825 0.864434
O O14 0.000000 0.500000 0.000000
O O15 0.193255 0.404281 0.456927
O O16 0.000000 0.000000 0.500000
O O17 0.858202 0.969949 0.685523
O O18 0.000000 0.500000 0.500000
#
# Coordination Sequence:
#
# PCOD8027149 Si02
#       8
#     2   2   2   2   2   2   2   2
#     4  12  25  42  72  99 135 187 223 279 349 397
#     4  12  25  44  69  99 143 177 228 289 335 410
#     4  11  24  43  73  99 136 179 229 279 344 406
#     4  12  25  45  68 104 139 181 232 280 344 410
#     4  10  24  44  68  98 134 177 228 281 335 408
#     4  11  22  46  67  99 144 172 228 289 336 403
#     4  12  24  43  70  99 133 182 226 277 350 394
#     4  12  24  45  72 101 142 181 228 285 342 410
#
# _framework density 22.824417
#
# number of rings (size 3 to 8) (size 9 to 14) (size 15 to 20)
#    0.000    0.500    6.250    1.125    1.750    2.500 
#    0.000    0.000    0.000    0.000    0.000    0.000 
#    0.000    0.000    0.000    0.000    0.000    0.000 
#
# Total GULP energy -198244.857872 kJ/mol
# GULP energy per Si atom -12390.303617 kJ/mol
# Density = 2.277247 g / cm^3
# Si number density = 22.824417 Si / 1000 Ang^3
#
#
#
# Elastic Constant Matrix: (Units=GPa)
#
#
# Indices 1 2 3 4 5 6 
#
# 1 174.9158 31.0975 58.6052 7.4682 -15.0290 23.8525
# 2 31.0975 75.8623 6.7273 2.8507 12.3413 9.6931
# 3 58.6052 6.7273 118.5001 -12.1483 2.3579 0.1347
# 4 7.4682 2.8507 -12.1483 30.4072 7.1985 3.4548
# 5 -15.0290 12.3413 2.3579 7.1985 48.3126 -0.4212
# 6 23.8525 9.6931 0.1347 3.4548 -0.4212 36.9762
#
#
#
# Elastic Compliance Matrix: (Units=1/GPa)
#
#
# Indices 1 2 3 4 5 6 
#
# 1 0.009137 -0.003306 -0.004871 -0.004440 0.004546 -0.004543
# 2 -0.003306 0.015527 0.000986 0.001232 -0.005245 -0.002116
# 3 -0.004871 0.000986 0.011490 0.006207 -0.003234 0.002225
# 4 -0.004440 0.001232 0.006207 0.038299 -0.007716 -0.001147
# 5 0.004546 -0.005245 -0.003234 -0.007716 0.024755 -0.000543
# 6 -0.004543 -0.002116 0.002225 -0.001147 -0.000543 0.030623
#
#
# Mechanical properties :
#
#
# Convention : Reuss Voigt Hill
#
# Bulk Modulus (GPa) = 45.92994 62.45979 54.19486
# Shear Modulus (GPa) = 33.01009 41.32906 37.16958
#
# Velocity S-wave (km/s) = 3.80710 4.25989 4.03985
# Velocity P-wave (km/s) = 6.28428 7.18473 6.74954
#
# Compressibility (1/GPa) = 0.02177229
#
# Stress axis : x y z
#
# Youngs Moduli (GPa) = 109.44979 64.40535 87.03083
#
# Poissons Ratio (x) = 0.21290 0.42397
# Poissons Ratio (y) = 0.36180 -0.08585
# Poissons Ratio (z) = 0.53318 -0.06353
#
# Static dielectric constant tensor:
#      x y z
#    x 4.717730 0.354620 -0.598840 
#    y 0.354620 4.063700 -0.063940 
#    z -0.598840 -0.063940 4.282700 
# 
# 
# High freq. dielectric constant tensor:
#      x y z
#    x 1.917480 0.027780 -0.019470 
#    y 0.027780 1.900490 -0.007120 
#    z -0.019470 -0.007120 1.900010 
# 
# From -- ./inp_files/494659.got.cif
#   From: 2010.06.25/outbox.cif.g09.slc.cpg/sg2_248_cif.got.tgz:494659.got - 2010.06.27 13:26:56.
