data_PCOD8027680
_publ_section_title
;
Structure prediction by ZEFSAII (Michael W. Deem and Ramdas Pophale) SiO2 
 PCOD8027680
Probable space group: P -1
;
_chemical_formula_sum "Si O2"
_cell_formula_units_Z 16
_cell_length_a 8.798455
_cell_length_b 11.591047
_cell_length_c 17.478276
_cell_angle_alpha 55.826644
_cell_angle_beta 30.660148
_cell_angle_gamma 53.922434
_cell_volume 728.045880
_symmetry_space_group_name_H-M "P -1"
_symmetry_group_IT_number 2
_symmetry_cell_setting 'triclinic'
loop_
_space_group_symop_operation_xyz
x,y,z
-x,-y,-z
loop_
_atom_site_type_symbol
_atom_site_label
_atom_site_fract_x
_atom_site_fract_y
_atom_site_fract_z
Si Si1 0.120141 0.189199 0.044500
Si Si2 0.283357 0.943546 0.953965
Si Si3 0.847277 0.874305 0.636668
Si Si4 0.031211 0.529420 0.066235
Si Si5 0.668034 0.392040 0.401151
Si Si6 0.415751 0.701531 0.091850
Si Si7 0.480273 0.888487 0.645752
Si Si8 0.765001 0.793934 0.402035
O O1 0.336009 0.225231 0.003208
O O2 0.064225 0.297219 0.954519
O O3 0.262866 0.032375 0.007902
O O4 0.791895 0.189375 0.224611
O O5 0.603840 0.949936 0.776841
O O6 0.293153 0.780812 0.036039
O O7 0.000000 0.000000 0.000000
O O8 0.668495 0.822046 0.663798
O O9 0.077302 0.733587 0.622943
O O10 0.000000 0.000000 0.500000
O O11 0.815693 0.471106 0.241010
O O12 0.394711 0.460618 0.952363
O O13 0.000000 0.500000 0.000000
O O14 0.500000 0.500000 0.500000
O O15 0.420200 0.322852 0.493857
O O16 0.123913 0.710474 0.269370
O O17 0.719043 0.852341 0.486470
O O18 0.343378 0.060802 0.656122
#
# Coordination Sequence:
#
# PCOD8027680 Si02
#       8
#     2   2   2   2   2   2   2   2
#     4  11  24  42  70 101 136 182 238 288 356 417
#     4  12  24  42  67 101 142 175 240 289 345 424
#     4  12  26  44  70 104 144 187 234 296 367 419
#     4  10  24  46  70  98 140 190 237 288 349 431
#     4  12  28  49  72 105 148 192 239 297 364 430
#     4  11  23  43  70 103 133 186 233 293 352 423
#     4  11  24  43  70 107 140 182 233 301 353 431
#     4  11  24  43  71 104 142 181 241 292 357 426
#
# _framework density 21.976638000000001
#
# number of rings (size 3 to 8) (size 9 to 14) (size 15 to 20)
#    0.000    0.750    5.000    1.875    3.500    2.000 
#    0.000    5.625    0.000    0.000    0.000    0.000 
#    0.000    0.000    0.000    0.000    0.000    0.000 
#
# Total GULP energy -198332.975056 kJ/mol
# GULP energy per Si atom -12395.810941 kJ/mol
# Density = 2.192662 g / cm^3
# Si number density = 21.976638 Si / 1000 Ang^3
#
#
#
# Elastic Constant Matrix: (Units=GPa)
#
#
# Indices 1 2 3 4 5 6 
#
# 1 72.6861 15.6694 24.9011 7.4999 1.6718 -15.5948
# 2 15.6694 90.7018 44.2059 2.4694 3.6667 -25.8844
# 3 24.9011 44.2059 161.5380 11.9692 1.1670 -14.6840
# 4 7.4999 2.4694 11.9692 39.2516 -4.8354 2.4924
# 5 1.6718 3.6667 1.1670 -4.8354 37.4181 -2.0289
# 6 -15.5948 -25.8844 -14.6840 2.4924 -2.0289 38.3642
#
#
#
# Elastic Compliance Matrix: (Units=1/GPa)
#
#
# Indices 1 2 3 4 5 6 
#
# 1 0.015949 -0.000155 -0.001652 -0.002997 -0.000713 0.005903
# 2 -0.000155 0.015270 -0.003286 -0.000619 -0.000981 0.008970
# 3 -0.001652 -0.003286 0.007484 -0.001773 -0.000062 0.000087
# 4 -0.002997 -0.000619 -0.001773 0.027316 0.003568 -0.003900
# 5 -0.000713 -0.000981 -0.000062 0.003568 0.027329 0.000238
# 6 0.005903 0.008970 0.000087 -0.003900 0.000238 0.034817
#
#
# Mechanical properties :
#
#
# Convention : Reuss Voigt Hill
#
# Bulk Modulus (GPa) = 35.06783 54.94207 45.00495
# Shear Modulus (GPa) = 33.81594 39.01676 36.41635
#
# Velocity S-wave (km/s) = 3.92691 4.21809 4.07510
# Velocity P-wave (km/s) = 6.04585 6.98409 6.53184
#
# Compressibility (1/GPa) = 0.02851616
#
# Stress axis : x y z
#
# Youngs Moduli (GPa) = 62.69818 65.48754 133.61228
#
# Poissons Ratio (x) = 0.01015 0.22078
# Poissons Ratio (y) = 0.00972 0.43912
# Poissons Ratio (z) = 0.10360 0.21522
#
# Static dielectric constant tensor:
#      x y z
#    x 3.845690 -0.287010 0.073780 
#    y -0.287010 5.139130 -0.006570 
#    z 0.073780 -0.006570 4.153780 
# 
# 
# High freq. dielectric constant tensor:
#      x y z
#    x 1.858180 -0.014970 0.005880 
#    y -0.014970 1.872120 0.007180 
#    z 0.005880 0.007180 1.878390 
# 
# From -- ./inp_files/175004.got.cif
#   From: 2010.06.25/outbox.cif.g09.slc.cpg/sg2_88_cif.got.tgz:175004.got - 2010.06.27 13:26:56.
