data_PCOD8027917
_publ_section_title
;
Structure prediction by ZEFSAII (Michael W. Deem and Ramdas Pophale) SiO2 
 PCOD8027917
Probable space group: P -1
;
_chemical_formula_sum "Si O2"
_cell_formula_units_Z 12
_cell_length_a 5.235158
_cell_length_b 7.329571
_cell_length_c 16.644622
_cell_angle_alpha 59.661114
_cell_angle_beta 101.977266
_cell_angle_gamma 70.953980
_cell_volume 463.599413
_symmetry_space_group_name_H-M "P -1"
_symmetry_group_IT_number 2
_symmetry_cell_setting 'triclinic'
loop_
_space_group_symop_operation_xyz
x,y,z
-x,-y,-z
loop_
_atom_site_type_symbol
_atom_site_label
_atom_site_fract_x
_atom_site_fract_y
_atom_site_fract_z
Si Si1 0.869575 0.222605 0.501307
Si Si2 0.634207 0.382006 0.120208
Si Si3 0.346698 0.880085 0.070271
Si Si4 0.789236 0.933547 0.686177
Si Si5 0.807104 0.586959 0.621320
Si Si6 0.387292 0.092910 0.760657
O O1 0.507125 0.397704 0.424352
O O2 0.053553 0.360067 0.461990
O O3 0.920877 0.103220 0.620932
O O4 0.000000 0.000000 0.500000
O O5 0.493578 0.590813 0.131445
O O6 0.996685 0.248139 0.188707
O O7 0.545954 0.180811 0.173489
O O8 0.500000 0.500000 0.000000
O O9 0.374474 0.909780 0.159751
O O10 0.500000 0.000000 0.000000
O O11 0.000000 0.000000 0.000000
O O12 0.747820 0.780143 0.646033
O O13 0.472616 0.123563 0.667580
O O14 0.052930 0.304707 0.721858
#
# Coordination Sequence:
#
# PCOD8027917 Si02
#       6
#     2   2   2   2   2   2
#     4  10  24  48  78 112 155 207 255 324 386 455
#     4  12  27  49  77 112 157 199 260 321 385 463
#     4  12  28  52  78 109 157 206 260 323 385 457
#     4  11  26  46  77 111 155 205 261 319 388 461
#     4  11  26  49  78 113 159 202 260 320 390 460
#     4  12  29  46  81 116 155 210 260 320 395 462
#
# _framework density 25.884414
#
# number of rings (size 3 to 8) (size 9 to 14) (size 15 to 20)
#    0.000    0.667    3.333    3.000   11.667    2.667 
#    0.000    0.000    0.000    0.000    0.000    0.000 
#    0.000    0.000    0.000    0.000    0.000    0.000 
#
# Total GULP energy -148709.816274 kJ/mol
# GULP energy per Si atom -12392.484690 kJ/mol
# Density = 2.582550 g / cm^3
# Si number density = 25.884414 Si / 1000 Ang^3
#
#
#
# Elastic Constant Matrix: (Units=GPa)
#
#
# Indices 1 2 3 4 5 6 
#
# 1 102.0385 38.6148 24.4226 -2.3403 1.8744 -20.6232
# 2 38.6148 156.4616 30.9559 5.4305 -6.2529 -5.6223
# 3 24.4226 30.9559 128.6192 6.2668 8.4347 -11.9564
# 4 -2.3403 5.4305 6.2668 43.4677 -4.5533 -2.7917
# 5 1.8744 -6.2529 8.4347 -4.5533 49.5783 -5.2291
# 6 -20.6232 -5.6223 -11.9564 -2.7917 -5.2291 42.3827
#
#
#
# Elastic Compliance Matrix: (Units=1/GPa)
#
#
# Indices 1 2 3 4 5 6 
#
# 1 0.012209 -0.002617 -0.001274 0.001525 0.000130 0.005351
# 2 -0.002617 0.007358 -0.001365 -0.000784 0.001124 -0.000595
# 3 -0.001274 -0.001365 0.008634 -0.001219 -0.001561 0.001362
# 4 0.001525 -0.000784 -0.001219 0.023758 0.002461 0.002163
# 5 0.000130 0.001124 -0.001561 0.002461 0.021066 0.002533
# 6 0.005351 -0.000595 0.001362 0.002163 0.002533 0.026959
#
#
# Mechanical properties :
#
#
# Convention : Reuss Voigt Hill
#
# Bulk Modulus (GPa) = 56.52940 63.90064 60.21502
# Shear Modulus (GPa) = 42.95857 46.62749 44.79303
#
# Velocity S-wave (km/s) = 4.07828 4.24886 4.16444
# Velocity P-wave (km/s) = 6.63800 6.98648 6.81447
#
# Compressibility (1/GPa) = 0.01768991
#
# Stress axis : x y z
#
# Youngs Moduli (GPa) = 81.90346 135.90738 115.82598
#
# Poissons Ratio (x) = 0.35563 0.14756
# Poissons Ratio (y) = 0.21432 0.15809
# Poissons Ratio (z) = 0.10434 0.18550
#
# Static dielectric constant tensor:
#      x y z
#    x 7.499400 -1.043310 -1.433580 
#    y -1.043310 5.452730 0.617930 
#    z -1.433580 0.617930 5.444030 
# 
# 
# High freq. dielectric constant tensor:
#      x y z
#    x 2.032020 0.000880 0.010510 
#    y 0.000880 2.060110 -0.004140 
#    z 0.010510 -0.004140 2.044690 
# 
# From -- ./inp_files/546148.got.cif
#   From: 2010.06.25/outbox.cif.g09.slc.cpg/sg2_274_cif.got.tgz:546148.got - 2010.06.27 13:26:56.
