data_PCOD8027146
_publ_section_title
;
Structure prediction by ZEFSAII (Michael W. Deem and Ramdas Pophale) SiO2 
 PCOD8027146
Probable space group: P -1
;
_chemical_formula_sum "Si O2"
_cell_formula_units_Z 16
_cell_length_a 12.147511
_cell_length_b 17.636245
_cell_length_c 6.301703
_cell_angle_alpha 53.655829
_cell_angle_beta 50.718258
_cell_angle_gamma 48.147524
_cell_volume 743.695958
_symmetry_space_group_name_H-M "P -1"
_symmetry_group_IT_number 2
_symmetry_cell_setting 'triclinic'
loop_
_space_group_symop_operation_xyz
x,y,z
-x,-y,-z
loop_
_atom_site_type_symbol
_atom_site_label
_atom_site_fract_x
_atom_site_fract_y
_atom_site_fract_z
Si Si1 0.626900 0.144489 0.364956
Si Si2 0.300209 0.203722 0.835903
Si Si3 0.121944 0.949616 0.123277
Si Si4 0.488674 0.631404 0.983369
Si Si5 0.269414 0.530685 0.363343
Si Si6 0.145623 0.055231 0.313258
Si Si7 0.310680 0.351838 0.923298
Si Si8 0.060557 0.383240 0.528798
O O1 0.455471 0.141956 0.594256
O O2 0.588449 0.266990 0.250700
O O3 0.751831 0.062698 0.515282
O O4 0.700799 0.121728 0.072976
O O5 0.359873 0.248994 0.884531
O O6 0.153208 0.297665 0.738088
O O7 0.235712 0.124635 0.135378
O O8 0.038836 0.890606 0.460644
O O9 0.136091 0.039417 0.099527
O O10 0.000000 0.000000 0.000000
O O11 0.644016 0.540259 0.830026
O O12 0.363299 0.588214 0.257329
O O13 0.537766 0.664258 0.091249
O O14 0.246672 0.459118 0.687996
O O15 0.097838 0.624192 0.340361
O O16 0.167482 0.362260 0.227449
O O17 0.000000 0.500000 0.500000
#
# Coordination Sequence:
#
# PCOD8027146 Si02
#       8
#     2   2   2   2   2   2   2   2
#     4  11  22  44  65  97 134 169 218 276 328 384
#     4  12  26  41  68 101 134 172 224 271 332 395
#     4   9  22  44  68  90 134 171 218 272 327 386
#     4  11  24  43  66  98 134 171 222 275 326 390
#     4  11  24  42  66  96 131 176 222 269 331 396
#     4  10  24  44  68  98 131 175 220 268 329 404
#     4  12  22  43  67  92 137 171 221 271 331 393
#     4  12  23  43  64  93 137 171 217 278 326 384
#
# _framework density 21.514168999999999
#
# number of rings (size 3 to 8) (size 9 to 14) (size 15 to 20)
#    0.000    1.000    5.000    1.125    1.750    6.500 
#    0.000    0.000    0.000    0.000    0.000    0.000 
#    0.000    0.000    0.000    0.000    0.000    0.000 
#
# Total GULP energy -198336.122706 kJ/mol
# GULP energy per Si atom -12396.007669 kJ/mol
# Density = 2.146520 g / cm^3
# Si number density = 21.514169 Si / 1000 Ang^3
#
#
#
# Elastic Constant Matrix: (Units=GPa)
#
#
# Indices 1 2 3 4 5 6 
#
# 1 143.9991 61.7046 54.4605 3.5652 2.0499 10.4778
# 2 61.7046 73.4623 44.1478 4.4891 -12.0631 -1.8076
# 3 54.4605 44.1478 106.0215 15.6812 -17.1178 14.0506
# 4 3.5652 4.4891 15.6812 37.9519 -4.7244 -3.1648
# 5 2.0499 -12.0631 -17.1178 -4.7244 32.1880 -4.9263
# 6 10.4778 -1.8076 14.0506 -3.1648 -4.9263 33.9568
#
#
#
# Elastic Compliance Matrix: (Units=1/GPa)
#
#
# Indices 1 2 3 4 5 6 
#
# 1 0.012856 -0.010330 -0.002830 -0.000033 -0.006865 -0.004345
# 2 -0.010330 0.027615 -0.006156 0.002148 0.009390 0.008767
# 3 -0.002830 -0.006156 0.015762 -0.005435 0.004567 -0.005820
# 4 -0.000033 0.002148 -0.005435 0.029185 0.003047 0.005536
# 5 -0.006865 0.009390 0.004567 0.003047 0.038919 0.006659
# 6 -0.004345 0.008767 -0.005820 0.005536 0.006659 0.035147
#
#
# Mechanical properties :
#
#
# Convention : Reuss Voigt Hill
#
# Bulk Modulus (GPa) = 56.81620 71.56764 64.19192
# Shear Modulus (GPa) = 24.51191 31.69732 28.10462
#
# Velocity S-wave (km/s) = 3.37907 3.84255 3.61824
# Velocity P-wave (km/s) = 6.45680 7.28179 6.88167
#
# Compressibility (1/GPa) = 0.01760062
#
# Stress axis : x y z
#
# Youngs Moduli (GPa) = 77.78577 36.21226 63.44401
#
# Poissons Ratio (x) = 0.37406 0.17955
# Poissons Ratio (y) = 0.80350 0.39058
# Poissons Ratio (z) = 0.22014 0.22294
#
# Static dielectric constant tensor:
#      x y z
#    x 4.042570 -0.147600 -0.160090 
#    y -0.147600 3.928270 0.300810 
#    z -0.160090 0.300810 4.319370 
# 
# 
# High freq. dielectric constant tensor:
#      x y z
#    x 1.849180 -0.009420 -0.006880 
#    y -0.009420 1.827700 0.011250 
#    z -0.006880 0.011250 1.857690 
# 
# From -- ./inp_files/81194.got.cif
#   From: 2010.06.25/outbox.cif.g09.slc.cpg/sg2_41_cif.got.tgz:81194.got - 2010.06.27 13:26:56.
