data_PCOD8027231
_publ_section_title
;
Structure prediction by ZEFSAII (Michael W. Deem and Ramdas Pophale) SiO2 
 PCOD8027231
Probable space group: P -1
;
_chemical_formula_sum "Si O2"
_cell_formula_units_Z 14
_cell_length_a 7.588035
_cell_length_b 11.010442
_cell_length_c 15.882832
_cell_angle_alpha 35.897327
_cell_angle_beta 127.602407
_cell_angle_gamma 115.016877
_cell_volume 609.095844
_symmetry_space_group_name_H-M "P -1"
_symmetry_group_IT_number 2
_symmetry_cell_setting 'triclinic'
loop_
_space_group_symop_operation_xyz
x,y,z
-x,-y,-z
loop_
_atom_site_type_symbol
_atom_site_label
_atom_site_fract_x
_atom_site_fract_y
_atom_site_fract_z
Si Si1 0.951444 0.713288 0.477730
Si Si2 0.226105 0.586585 0.040024
Si Si3 0.961459 0.256557 0.704926
Si Si4 0.697942 0.113553 0.957869
Si Si5 0.601550 0.180725 0.378689
Si Si6 0.550258 0.136655 0.721792
Si Si7 0.424496 0.744323 0.857285
O O1 0.008768 0.464798 0.648626
O O2 0.717431 0.800603 0.406944
O O3 0.930530 0.759543 0.346731
O O4 0.154228 0.817662 0.513241
O O5 0.222029 0.713318 0.054720
O O6 0.433889 0.399139 0.214440
O O7 0.242617 0.749574 0.876379
O O8 0.000000 0.500000 0.000000
O O9 0.692625 0.246646 0.632575
O O10 0.086849 0.059186 0.903547
O O11 0.616866 0.218507 0.786512
O O12 0.500000 0.000000 0.000000
O O13 0.652122 0.136312 0.319252
O O14 0.500000 0.000000 0.500000
O O15 0.607942 0.881766 0.870943
O O16 0.500000 0.500000 0.000000
#
# Coordination Sequence:
#
# PCOD8027231 Si02
#       7
#     2   2   2   2   2   2   2
#     4  11  25  45  69 100 152 180 227 302 357 421
#     4  11  26  46  74 104 141 190 243 291 359 429
#     4  11  25  43  70 103 142 182 234 294 356 422
#     4  12  23  45  75  99 139 185 238 291 352 417
#     4  11  26  46  72 102 144 192 237 291 368 426
#     4  12  25  45  73 106 137 188 242 289 358 430
#     4  10  24  44  70  97 145 180 241 293 348 419
#
# _framework density 22.98489
#
# number of rings (size 3 to 8) (size 9 to 14) (size 15 to 20)
#    0.000    0.857    2.857    2.571   12.000    1.714 
#    5.143    0.000    0.000    0.000    0.000    0.000 
#    0.000    0.000    0.000    0.000    0.000    0.000 
#
# Total GULP energy -173497.111546 kJ/mol
# GULP energy per Si atom -12392.650825 kJ/mol
# Density = 2.293258 g / cm^3
# Si number density = 22.984890 Si / 1000 Ang^3
#
#
#
# Elastic Constant Matrix: (Units=GPa)
#
#
# Indices 1 2 3 4 5 6 
#
# 1 90.7797 36.6340 30.8249 -12.9695 4.8344 17.3995
# 2 36.6340 165.7754 30.6493 -4.5612 0.4670 4.6265
# 3 30.8249 30.6493 84.6533 -0.7857 1.9704 0.4947
# 4 -12.9695 -4.5612 -0.7857 23.5581 11.9986 3.2917
# 5 4.8344 0.4670 1.9704 11.9986 41.0425 2.5519
# 6 17.3995 4.6265 0.4947 3.2917 2.5519 45.3445
#
#
#
# Elastic Compliance Matrix: (Units=1/GPa)
#
#
# Indices 1 2 3 4 5 6 
#
# 1 0.016965 -0.002269 -0.005090 0.012160 -0.004858 -0.006832
# 2 -0.002269 0.006829 -0.001656 -0.000164 0.000305 0.000187
# 3 -0.005090 -0.001656 0.014204 -0.003350 0.000781 0.002166
# 4 0.012160 -0.000164 -0.003350 0.059334 -0.018125 -0.007900
# 5 -0.004858 0.000305 0.000781 -0.018125 0.030105 0.001446
# 6 -0.006832 0.000187 0.002166 -0.007900 0.001446 0.025124
#
#
# Mechanical properties :
#
#
# Convention : Reuss Voigt Hill
#
# Bulk Modulus (GPa) = 50.08022 59.71386 54.89704
# Shear Modulus (GPa) = 28.20888 38.19569 33.20229
#
# Velocity S-wave (km/s) = 3.50706 4.08091 3.80482
# Velocity P-wave (km/s) = 6.18344 6.94558 6.57556
#
# Compressibility (1/GPa) = 0.01996796
#
# Stress axis : x y z
#
# Youngs Moduli (GPa) = 58.94402 146.42798 70.40248
#
# Poissons Ratio (x) = 0.33225 0.35836
# Poissons Ratio (y) = 0.13375 0.11659
# Poissons Ratio (z) = 0.30004 0.24250
#
# Static dielectric constant tensor:
#      x y z
#    x 4.464650 -0.121830 -0.174490 
#    y -0.121830 4.350200 -0.104380 
#    z -0.174490 -0.104380 4.090720 
# 
# 
# High freq. dielectric constant tensor:
#      x y z
#    x 1.918360 0.000010 -0.007290 
#    y 0.000010 1.922820 -0.011880 
#    z -0.007290 -0.011880 1.894320 
# 
# From -- ./inp_files/559612.got.cif
#   From: 2010.06.25/outbox.cif.g09.slc.cpg/sg2_280_cif.got.tgz:559612.got - 2010.06.27 13:26:56.
