data_PCOD8027456
_publ_section_title
;
Structure prediction by ZEFSAII (Michael W. Deem and Ramdas Pophale) SiO2 
 PCOD8027456
Probable space group: P -1
;
_chemical_formula_sum "Si O2"
_cell_formula_units_Z 14
_cell_length_a 9.177901
_cell_length_b 18.924137
_cell_length_c 5.175778
_cell_angle_alpha 111.532078
_cell_angle_beta 57.755759
_cell_angle_gamma 131.608868
_cell_volume 568.368262
_symmetry_space_group_name_H-M "P -1"
_symmetry_group_IT_number 2
_symmetry_cell_setting 'triclinic'
loop_
_space_group_symop_operation_xyz
x,y,z
-x,-y,-z
loop_
_atom_site_type_symbol
_atom_site_label
_atom_site_fract_x
_atom_site_fract_y
_atom_site_fract_z
Si Si1 0.287989 0.308852 0.253119
Si Si2 0.193511 0.003654 0.213694
Si Si3 0.550143 0.926685 0.422302
Si Si4 0.902983 0.580134 0.407337
Si Si5 0.041656 0.210313 0.835583
Si Si6 0.295343 0.621248 0.786956
Si Si7 0.769891 0.267477 0.324254
O O1 0.244292 0.385306 0.472585
O O2 0.164163 0.225705 0.473378
O O3 0.539971 0.353716 0.101288
O O4 0.210663 0.268230 0.985420
O O5 0.115801 0.898765 0.087392
O O6 0.374721 0.054581 0.328136
O O7 0.000000 0.000000 0.500000
O O8 0.282781 0.060378 0.933696
O O9 0.350593 0.815426 0.455516
O O10 0.500000 0.000000 0.500000
O O11 0.742510 0.466894 0.453760
O O12 0.040822 0.632930 0.599323
O O13 0.067621 0.597879 0.052546
O O14 0.886231 0.241351 0.978553
O O15 0.389551 0.713589 0.637673
#
# Coordination Sequence:
#
# PCOD8027456 Si02
#       7
#     2   2   2   2   2   2   2
#     4  11  25  45  74 104 145 188 237 293 363 427
#     4  12  28  48  71 107 150 185 242 305 359 428
#     4  12  27  46  76 104 141 193 245 290 364 435
#     4  10  24  45  69 105 143 188 238 298 360 427
#     4  11  25  47  71 102 146 191 232 298 361 431
#     4  11  24  44  72 104 141 189 241 297 359 430
#     4  11  25  44  73 100 145 186 246 294 361 425
#
# _framework density 24.631914999999999
#
# number of rings (size 3 to 8) (size 9 to 14) (size 15 to 20)
#    0.000    0.857    2.857    2.571    8.000    0.000 
#    0.000    2.143    0.000    0.000    0.000    0.000 
#    0.000    0.000    0.000    0.000    0.000    0.000 
#
# Total GULP energy -173554.070806 kJ/mol
# GULP energy per Si atom -12396.719343 kJ/mol
# Density = 2.457585 g / cm^3
# Si number density = 24.631915 Si / 1000 Ang^3
#
#
#
# Elastic Constant Matrix: (Units=GPa)
#
#
# Indices 1 2 3 4 5 6 
#
# 1 136.7944 44.7830 13.4946 6.0579 -3.6407 -5.1077
# 2 44.7830 85.0177 18.4518 0.8961 10.6334 0.3738
# 3 13.4946 18.4518 73.2881 1.4993 5.0399 -4.3504
# 4 6.0579 0.8961 1.4993 30.6117 2.6242 6.4021
# 5 -3.6407 10.6334 5.0399 2.6242 25.1397 -4.6010
# 6 -5.1077 0.3738 -4.3504 6.4021 -4.6010 27.5392
#
#
#
# Elastic Compliance Matrix: (Units=1/GPa)
#
#
# Indices 1 2 3 4 5 6 
#
# 1 0.009515 -0.005483 -0.000446 -0.002767 0.004659 0.003190
# 2 -0.005483 0.016245 -0.002785 0.002164 -0.007976 -0.003513
# 3 -0.000446 -0.002785 0.014672 -0.000909 -0.001319 0.002264
# 4 -0.002767 0.002164 -0.000909 0.035898 -0.006740 -0.010158
# 5 0.004659 -0.007976 -0.001319 -0.006740 0.046647 0.010124
# 6 0.003190 -0.003513 0.002264 -0.010158 0.010124 0.041362
#
#
# Mechanical properties :
#
#
# Convention : Reuss Voigt Hill
#
# Bulk Modulus (GPa) = 43.46997 49.83989 46.65493
# Shear Modulus (GPa) = 26.39452 31.21618 28.80535
#
# Velocity S-wave (km/s) = 3.27702 3.56379 3.42341
# Velocity P-wave (km/s) = 5.65726 6.10016 5.88288
#
# Compressibility (1/GPa) = 0.02300439
#
# Stress axis : x y z
#
# Youngs Moduli (GPa) = 105.09927 61.55799 68.15848
#
# Poissons Ratio (x) = 0.33751 0.03040
# Poissons Ratio (y) = 0.57623 0.18981
# Poissons Ratio (z) = 0.04687 0.17142
#
# Static dielectric constant tensor:
#      x y z
#    x 4.498990 -0.290000 -0.129450 
#    y -0.290000 4.725780 0.035950 
#    z -0.129450 0.035950 4.294500 
# 
# 
# High freq. dielectric constant tensor:
#      x y z
#    x 1.980310 -0.008950 -0.006150 
#    y -0.008950 1.987790 0.007300 
#    z -0.006150 0.007300 1.975790 
# 
# From -- ./inp_files/48539.got.cif
#   From: 2010.06.25/outbox.cif.g09.slc.cpg/sg2_25_cif.got.tgz:48539.got - 2010.06.27 13:26:56.
