data_PCOD8027405
_publ_section_title
;
Structure prediction by ZEFSAII (Michael W. Deem and Ramdas Pophale) SiO2 
 PCOD8027405
Probable space group: P -1
;
_chemical_formula_sum "Si O2"
_cell_formula_units_Z 12
_cell_length_a 11.554218
_cell_length_b 22.829579
_cell_length_c 11.475693
_cell_angle_alpha 148.340610
_cell_angle_beta 39.212620
_cell_angle_gamma 159.087403
_cell_volume 563.768538
_symmetry_space_group_name_H-M "P -1"
_symmetry_group_IT_number 2
_symmetry_cell_setting 'triclinic'
loop_
_space_group_symop_operation_xyz
x,y,z
-x,-y,-z
loop_
_atom_site_type_symbol
_atom_site_label
_atom_site_fract_x
_atom_site_fract_y
_atom_site_fract_z
Si Si1 0.142820 0.916040 0.036043
Si Si2 0.725427 0.266377 0.325584
Si Si3 0.826525 0.125962 0.519333
Si Si4 0.605687 0.818154 0.331774
Si Si5 0.188503 0.510830 0.953027
Si Si6 0.114143 0.175634 0.164125
O O1 0.850466 0.837923 0.193111
O O2 0.491260 0.144867 0.189250
O O3 0.103231 0.767391 0.854369
O O4 0.123802 0.908308 0.897926
O O5 0.483361 0.166868 0.453939
O O6 0.000000 0.500000 0.500000
O O7 0.963964 0.289619 0.775894
O O8 0.083884 0.243224 0.411452
O O9 0.500000 0.000000 0.500000
O O10 0.784256 0.992011 0.398062
O O11 0.268316 0.605877 0.176583
O O12 0.518682 0.639636 0.851909
O O13 0.000000 0.500000 0.000000
O O14 0.000000 0.000000 0.000000
#
# Coordination Sequence:
#
# PCOD8027405 Si02
#       6
#     2   2   2   2   2   2
#     4  10  24  45  67  98 132 171 224 273 333 395
#     4  11  26  45  70  96 127 177 230 280 327 389
#     4  12  22  40  64  96 139 178 213 271 332 399
#     4  11  24  45  66  96 135 175 222 274 336 394
#     4  11  23  38  61  98 133 176 218 262 329 400
#     4  11  21  42  67  99 136 171 215 271 336 403
#
# _framework density 21.285332
#
# number of rings (size 3 to 8) (size 9 to 14) (size 15 to 20)
#    0.000    1.000    5.000    2.000    0.000    8.667 
#    0.000    0.000    0.000    0.000    0.000    0.000 
#    0.000    0.000    0.000    0.000    0.000    0.000 
#
# Total GULP energy -148811.031569 kJ/mol
# GULP energy per Si atom -12400.919297 kJ/mol
# Density = 2.123689 g / cm^3
# Si number density = 21.285332 Si / 1000 Ang^3
#
#
#
# Elastic Constant Matrix: (Units=GPa)
#
#
# Indices 1 2 3 4 5 6 
#
# 1 127.9607 41.2161 53.4407 8.7846 -1.3618 21.5338
# 2 41.2161 73.8163 37.1762 6.1973 -3.0867 3.9680
# 3 53.4407 37.1762 130.2100 24.1895 -5.2201 8.9667
# 4 8.7846 6.1973 24.1895 52.3547 3.3574 5.5347
# 5 -1.3618 -3.0867 -5.2201 3.3574 35.7280 -7.0316
# 6 21.5338 3.9680 8.9667 5.5347 -7.0316 29.9371
#
#
#
# Elastic Compliance Matrix: (Units=1/GPa)
#
#
# Indices 1 2 3 4 5 6 
#
# 1 0.011905 -0.004760 -0.003272 0.001013 -0.002030 -0.007616
# 2 -0.004760 0.017757 -0.003194 -0.000167 0.001370 0.002380
# 3 -0.003272 -0.003194 0.010737 -0.004222 0.001711 0.000744
# 4 0.001013 -0.000167 -0.004222 0.021571 -0.003454 -0.004241
# 5 -0.002030 0.001370 0.001711 -0.003454 0.030281 0.008517
# 6 -0.007616 0.002380 0.000744 -0.004241 0.008517 0.041128
#
#
# Mechanical properties :
#
#
# Convention : Reuss Voigt Hill
#
# Bulk Modulus (GPa) = 55.72233 66.18366 60.95300
# Shear Modulus (GPa) = 30.89977 36.94756 33.92367
#
# Velocity S-wave (km/s) = 3.81424 4.17084 3.99652
# Velocity P-wave (km/s) = 6.75526 7.37263 7.07068
#
# Compressibility (1/GPa) = 0.01794613
#
# Stress axis : x y z
#
# Youngs Moduli (GPa) = 83.99664 56.31597 93.14006
#
# Poissons Ratio (x) = 0.26806 0.30477
# Poissons Ratio (y) = 0.39982 0.29750
# Poissons Ratio (z) = 0.27485 0.17988
#
# Static dielectric constant tensor:
#      x y z
#    x 3.315210 0.542030 0.038640 
#    y 0.542030 3.728750 -0.092180 
#    z 0.038640 -0.092180 4.414450 
# 
# 
# High freq. dielectric constant tensor:
#      x y z
#    x 1.835740 0.015330 0.001320 
#    y 0.015330 1.826290 -0.003340 
#    z 0.001320 -0.003340 1.856510 
# 
# From -- ./inp_files/185604.got.cif
#   From: 2010.06.25/outbox.cif.g09.slc.cpg/sg2_93_cif.got.tgz:185604.got - 2010.06.27 13:26:56.
