data_PCOD8027021
_publ_section_title
;
Structure prediction by ZEFSAII (Michael W. Deem and Ramdas Pophale) SiO2 
 PCOD8027021
Probable space group: P -1
;
_chemical_formula_sum "Si O2"
_cell_formula_units_Z 12
_cell_length_a 14.902149
_cell_length_b 18.125287
_cell_length_c 8.473648
_cell_angle_alpha 43.272408
_cell_angle_beta 127.806580
_cell_angle_gamma 157.101395
_cell_volume 595.986094
_symmetry_space_group_name_H-M "P -1"
_symmetry_group_IT_number 2
_symmetry_cell_setting 'triclinic'
loop_
_space_group_symop_operation_xyz
x,y,z
-x,-y,-z
loop_
_atom_site_type_symbol
_atom_site_label
_atom_site_fract_x
_atom_site_fract_y
_atom_site_fract_z
Si Si1 0.963695 0.351045 0.632922
Si Si2 0.021752 0.820834 0.656654
Si Si3 0.085275 0.464651 0.235848
Si Si4 0.286656 0.442642 0.967590
Si Si5 0.827865 0.859864 0.882636
Si Si6 0.582552 0.960976 0.063104
O O1 0.941711 0.332980 0.448864
O O2 0.000000 0.500000 0.500000
O O3 0.192247 0.476112 0.744105
O O4 0.722465 0.103317 0.831260
O O5 0.950859 0.673313 0.683592
O O6 0.814544 0.664327 0.802399
O O7 0.055561 0.964217 0.391555
O O8 0.261802 0.981728 0.744046
O O9 0.362968 0.703874 0.188353
O O10 0.000000 0.500000 0.000000
O O11 0.198505 0.279493 0.004019
O O12 0.566951 0.684727 0.917474
O O13 0.000000 0.000000 0.000000
O O14 0.500000 0.000000 0.000000
#
# Coordination Sequence:
#
# PCOD8027021 Si02
#       6
#     2   2   2   2   2   2
#     4  11  22  40  68  92 129 171 208 262 325 379
#     4  11  24  41  65  92 130 167 213 264 319 381
#     4  12  23  38  60  95 129 168 215 256 315 383
#     4  10  24  44  64  95 128 167 214 266 320 375
#     4  11  24  43  68  93 126 167 220 264 315 379
#     4  11  22  42  62  92 131 169 208 261 318 379
#
# _framework density 20.134696999999999
#
# number of rings (size 3 to 8) (size 9 to 14) (size 15 to 20)
#    0.000    1.000    3.333    3.500    0.000    6.667 
#    0.000    0.000    0.000    0.000    0.000    0.000 
#    0.000    0.000    0.000    0.000    0.000    0.000 
#
# Total GULP energy -148850.932993 kJ/mol
# GULP energy per Si atom -12404.244416 kJ/mol
# Density = 2.008887 g / cm^3
# Si number density = 20.134697 Si / 1000 Ang^3
#
#
#
# Elastic Constant Matrix: (Units=GPa)
#
#
# Indices 1 2 3 4 5 6 
#
# 1 112.7601 57.0298 43.0151 3.5699 -13.7479 4.7101
# 2 57.0298 126.6042 53.2479 -1.6194 -10.8847 -7.0916
# 3 43.0151 53.2479 127.3331 16.6502 -13.1242 4.1482
# 4 3.5699 -1.6194 16.6502 31.8490 -4.5677 4.8091
# 5 -13.7479 -10.8847 -13.1242 -4.5677 46.1018 1.6973
# 6 4.7101 -7.0916 4.1482 4.8091 1.6973 32.5328
#
#
#
# Elastic Compliance Matrix: (Units=1/GPa)
#
#
# Indices 1 2 3 4 5 6 
#
# 1 0.012358 -0.004736 -0.001897 0.000080 0.002135 -0.002703
# 2 -0.004736 0.011882 -0.003780 0.002673 0.000459 0.003339
# 3 -0.001897 -0.003780 0.010934 -0.005345 0.001170 -0.001215
# 4 0.000080 0.002673 -0.005345 0.035341 0.002786 -0.004117
# 5 0.002135 0.000459 0.001170 0.002786 0.023118 -0.001976
# 6 -0.002703 0.003339 -0.001215 -0.004117 -0.001976 0.032724
#
#
# Mechanical properties :
#
#
# Convention : Reuss Voigt Hill
#
# Bulk Modulus (GPa) = 69.69135 74.80921 72.25028
# Shear Modulus (GPa) = 32.90250 36.32371 34.61310
#
# Velocity S-wave (km/s) = 4.04681 4.25200 4.15067
# Velocity P-wave (km/s) = 7.51820 7.83205 7.67673
#
# Compressibility (1/GPa) = 0.01434898
#
# Stress axis : x y z
#
# Youngs Moduli (GPa) = 80.92130 84.15790 91.45894
#
# Poissons Ratio (x) = 0.39855 0.17346
# Poissons Ratio (y) = 0.38323 0.34573
# Poissons Ratio (z) = 0.15348 0.31813
#
# Static dielectric constant tensor:
#      x y z
#    x 4.767670 -1.334770 -0.781390 
#    y -1.334770 5.559750 0.964040 
#    z -0.781390 0.964040 4.352610 
# 
# 
# High freq. dielectric constant tensor:
#      x y z
#    x 1.799010 0.003460 -0.002530 
#    y 0.003460 1.790260 0.000450 
#    z -0.002530 0.000450 1.804510 
# 
# From -- ./inp_files/77619.got.cif
#   From: 2010.06.25/outbox.cif.g09.slc.cpg/sg2_39_cif.got.tgz:77619.got - 2010.06.27 13:26:56.
