data_PCOD8027668
_publ_section_title
;
Structure prediction by ZEFSAII (Michael W. Deem and Ramdas Pophale) SiO2 
 PCOD8027668
Probable space group: P -1
;
_chemical_formula_sum "Si O2"
_cell_formula_units_Z 16
_cell_length_a 20.782739
_cell_length_b 11.252334
_cell_length_c 8.207453
_cell_angle_alpha 91.131458
_cell_angle_beta 110.466217
_cell_angle_gamma 29.326954
_cell_volume 690.131494
_symmetry_space_group_name_H-M "P -1"
_symmetry_group_IT_number 2
_symmetry_cell_setting 'triclinic'
loop_
_space_group_symop_operation_xyz
x,y,z
-x,-y,-z
loop_
_atom_site_type_symbol
_atom_site_label
_atom_site_fract_x
_atom_site_fract_y
_atom_site_fract_z
Si Si1 0.495845 0.653269 0.617769
Si Si2 0.034136 0.083901 0.527101
Si Si3 0.738826 0.184723 0.546481
Si Si4 0.630648 0.883465 0.533260
Si Si5 0.034241 0.611756 0.967060
Si Si6 0.848104 0.726041 0.236684
Si Si7 0.682777 0.765375 0.216874
Si Si8 0.197738 0.965641 0.937700
O O1 0.571548 0.514352 0.497029
O O2 0.312357 0.874857 0.499699
O O3 0.462779 0.845816 0.603363
O O4 0.638495 0.376021 0.866363
O O5 0.860495 0.418252 0.292662
O O6 0.220644 0.819128 0.591466
O O7 0.059611 0.096646 0.731008
O O8 0.000000 0.000000 0.500000
O O9 0.931246 0.889139 0.800774
O O10 0.773886 0.668117 0.796283
O O11 0.705690 0.709415 0.428601
O O12 0.500000 0.000000 0.500000
O O13 0.056866 0.471680 0.850620
O O14 0.899846 0.799849 0.002516
O O15 0.693699 0.884062 0.169306
O O16 0.000000 0.500000 0.500000
O O17 0.746384 0.015301 0.132515
O O18 0.500000 0.000000 0.000000
#
# Coordination Sequence:
#
# PCOD8027668 Si02
#       8
#     2   2   2   2   2   2   2   2
#     4  10  27  45  69 108 143 187 240 309 368 436
#     4  12  27  46  73 103 150 199 244 305 379 450
#     4  10  24  46  70 103 146 186 241 303 374 437
#     4  12  28  46  73 104 145 195 248 302 370 445
#     4  11  23  43  75 103 144 187 243 303 364 442
#     4  12  23  44  78 109 141 191 245 309 365 441
#     4  12  28  49  69 108 149 192 253 308 373 439
#     4  11  25  45  72 110 140 193 248 300 374 440
#
# _framework density 23.183987999999999
#
# number of rings (size 3 to 8) (size 9 to 14) (size 15 to 20)
#    0.000    0.750    3.750    1.125   14.000    1.500 
#    0.000    2.500    0.000    0.000    0.000    0.000 
#    0.000    0.000    0.000    0.000    0.000    0.000 
#
# Total GULP energy -198226.638521 kJ/mol
# GULP energy per Si atom -12389.164908 kJ/mol
# Density = 2.313122 g / cm^3
# Si number density = 23.183988 Si / 1000 Ang^3
#
#
#
# Elastic Constant Matrix: (Units=GPa)
#
#
# Indices 1 2 3 4 5 6 
#
# 1 178.7571 51.5899 51.0751 -4.8256 8.9591 -5.1008
# 2 51.5899 78.8315 42.7697 4.1406 6.2713 -18.2914
# 3 51.0751 42.7697 146.3086 -2.8240 13.1566 0.3051
# 4 -4.8256 4.1406 -2.8240 42.7560 2.1560 0.0443
# 5 8.9591 6.2713 13.1566 2.1560 27.5036 1.3697
# 6 -5.1008 -18.2914 0.3051 0.0443 1.3697 27.8983
#
#
#
# Elastic Compliance Matrix: (Units=1/GPa)
#
#
# Indices 1 2 3 4 5 6 
#
# 1 0.007239 -0.004499 -0.001111 0.001222 -0.000818 -0.001576
# 2 -0.004499 0.021564 -0.004666 -0.002834 -0.001667 0.013453
# 3 -0.001111 -0.004666 0.008860 0.001053 -0.002734 -0.003227
# 4 0.001222 -0.002834 0.001053 0.023976 -0.002056 -0.001583
# 5 -0.000818 -0.001667 -0.002734 -0.002056 0.038629 -0.003106
# 6 -0.001576 0.013453 -0.003227 -0.001583 -0.003106 0.044567
#
#
# Mechanical properties :
#
#
# Convention : Reuss Voigt Hill
#
# Bulk Modulus (GPa) = 58.44605 77.19632 67.82118
# Shear Modulus (GPa) = 29.22391 36.86243 33.04317
#
# Velocity S-wave (km/s) = 3.55423 3.99180 3.77935
# Velocity P-wave (km/s) = 6.48905 7.39023 6.95426
#
# Compressibility (1/GPa) = 0.01710980
#
# Stress axis : x y z
#
# Youngs Moduli (GPa) = 138.13437 46.37252 112.87009
#
# Poissons Ratio (x) = 0.20865 0.12545
# Poissons Ratio (y) = 0.62153 0.52665
# Poissons Ratio (z) = 0.15353 0.21637
#
# Static dielectric constant tensor:
#      x y z
#    x 4.142080 -0.117260 -0.220080 
#    y -0.117260 4.262600 0.131500 
#    z -0.220080 0.131500 3.941450 
# 
# 
# High freq. dielectric constant tensor:
#      x y z
#    x 1.909610 -0.011170 -0.010010 
#    y -0.011170 1.920810 0.003430 
#    z -0.010010 0.003430 1.923240 
# 
# From -- ./inp_files/344656.got.cif
#   From: 2010.06.25/outbox.cif.g09.slc.cpg/sg2_173_cif.got.tgz:344656.got - 2010.06.27 13:26:56.
