data_PCOD8027602
_publ_section_title
;
Structure prediction by ZEFSAII (Michael W. Deem and Ramdas Pophale) SiO2 
 PCOD8027602
Probable space group: P -1
;
_chemical_formula_sum "Si O2"
_cell_formula_units_Z 16
_cell_length_a 6.881359
_cell_length_b 10.963281
_cell_length_c 10.904845
_cell_angle_alpha 75.379453
_cell_angle_beta 79.928193
_cell_angle_gamma 96.688428
_cell_volume 772.560751
_symmetry_space_group_name_H-M "P -1"
_symmetry_group_IT_number 2
_symmetry_cell_setting 'triclinic'
loop_
_space_group_symop_operation_xyz
x,y,z
-x,-y,-z
loop_
_atom_site_type_symbol
_atom_site_label
_atom_site_fract_x
_atom_site_fract_y
_atom_site_fract_z
Si Si1 0.904136 0.921518 0.645354
Si Si2 0.605247 0.928937 0.109012
Si Si3 0.516017 0.729412 0.673306
Si Si4 0.084663 0.247369 0.904335
Si Si5 0.367629 0.460694 0.693499
Si Si6 0.658956 0.337055 0.533536
Si Si7 0.805739 0.161920 0.727458
Si Si8 0.188269 0.834675 0.826082
O O1 0.734620 0.807178 0.650206
O O2 0.064116 0.852832 0.714056
O O3 0.819581 0.020192 0.718061
O O4 0.000000 0.000000 0.500000
O O5 0.759768 0.846423 0.054378
O O6 0.426805 0.835545 0.218119
O O7 0.728716 0.026781 0.164467
O O8 0.500000 0.000000 0.000000
O O9 0.511369 0.575240 0.721679
O O10 0.448157 0.761608 0.534226
O O11 0.369188 0.764428 0.785833
O O12 0.202247 0.387899 0.823152
O O13 0.952804 0.194097 0.815951
O O14 0.945116 0.253810 0.036049
O O15 0.495679 0.361768 0.646610
O O16 0.255988 0.528082 0.578883
O O17 0.839081 0.273421 0.590691
#
# Coordination Sequence:
#
# PCOD8027602 Si02
#       8
#     2   2   2   2   2   2   2   2
#     4  12  27  40  68 102 136 175 216 278 338 405
#     4  12  23  42  66  97 135 173 217 277 339 383
#     4  10  24  46  63  95 139 180 210 275 339 388
#     4  12  25  42  70 102 129 177 234 267 327 403
#     4   9  22  45  69  93 133 176 229 278 319 395
#     4   9  21  44  69  93 128 175 223 279 328 383
#     4  12  23  39  70 101 127 177 218 278 341 386
#     4  12  25  42  64 101 142 169 222 276 330 406
#
# _framework density 20.710345
#
# number of rings (size 3 to 8) (size 9 to 14) (size 15 to 20)
#    0.750    0.250    5.000    1.875    3.500    2.000 
#    2.250    0.625    0.000    0.000    0.000    0.000 
#    0.000    0.000    0.000    0.000    0.000    0.000 
#
# Total GULP energy -198318.194335 kJ/mol
# GULP energy per Si atom -12394.887146 kJ/mol
# Density = 2.066321 g / cm^3
# Si number density = 20.710345 Si / 1000 Ang^3
#
#
#
# Elastic Constant Matrix: (Units=GPa)
#
#
# Indices 1 2 3 4 5 6 
#
# 1 88.8427 27.8212 45.8550 -9.6614 -0.5345 18.8445
# 2 27.8212 85.5230 42.1231 -8.2034 -13.6410 21.7961
# 3 45.8550 42.1231 101.0329 -12.7922 2.6266 19.6893
# 4 -9.6614 -8.2034 -12.7922 33.9655 -3.1599 -1.8447
# 5 -0.5345 -13.6410 2.6266 -3.1599 37.1772 -2.5022
# 6 18.8445 21.7961 19.6893 -1.8447 -2.5022 30.0338
#
#
#
# Elastic Compliance Matrix: (Units=1/GPa)
#
#
# Indices 1 2 3 4 5 6 
#
# 1 0.015724 -0.000795 -0.005479 0.001925 0.000110 -0.005570
# 2 -0.000795 0.018011 -0.005411 0.002248 0.006609 -0.008336
# 3 -0.005479 -0.005411 0.015629 0.002566 -0.003151 -0.002986
# 4 0.001925 0.002248 0.002566 0.031671 0.003208 -0.002309
# 5 0.000110 0.006609 -0.003151 0.003208 0.029812 -0.000119
# 6 -0.005570 -0.008336 -0.002986 -0.002309 -0.000119 0.044646
#
#
# Mechanical properties :
#
#
# Convention : Reuss Voigt Hill
#
# Bulk Modulus (GPa) = 38.46964 56.33301 47.40133
# Shear Modulus (GPa) = 26.66266 30.87526 28.76896
#
# Velocity S-wave (km/s) = 3.59194 3.86529 3.73112
# Velocity P-wave (km/s) = 5.98482 6.86878 6.44198
#
# Compressibility (1/GPa) = 0.02599453
#
# Stress axis : x y z
#
# Youngs Moduli (GPa) = 63.59704 55.52226 63.98297
#
# Poissons Ratio (x) = 0.04413 0.35055
# Poissons Ratio (y) = 0.05055 0.34621
# Poissons Ratio (z) = 0.34844 0.30043
#
# Static dielectric constant tensor:
#      x y z
#    x 4.066800 0.278600 -0.552080 
#    y 0.278600 3.916500 -0.386480 
#    z -0.552080 -0.386480 4.513010 
# 
# 
# High freq. dielectric constant tensor:
#      x y z
#    x 1.802680 -0.004200 -0.000360 
#    y -0.004200 1.805470 -0.003840 
#    z -0.000360 -0.003840 1.817690 
# 
# From -- ./inp_files/362912.got.cif
#   From: 2010.06.25/outbox.cif.g09.slc.cpg/sg2_182_cif.got.tgz:362912.got - 2010.06.27 13:26:56.
