data_PCOD8027982
_publ_section_title
;
Structure prediction by ZEFSAII (Michael W. Deem and Ramdas Pophale) SiO2 
 PCOD8027982
Probable space group: P -1
;
_chemical_formula_sum "Si O2"
_cell_formula_units_Z 14
_cell_length_a 14.205329
_cell_length_b 9.178564
_cell_length_c 10.848727
_cell_angle_alpha 56.832054
_cell_angle_beta 32.877213
_cell_angle_gamma 51.460263
_cell_volume 599.648342
_symmetry_space_group_name_H-M "P -1"
_symmetry_group_IT_number 2
_symmetry_cell_setting 'triclinic'
loop_
_space_group_symop_operation_xyz
x,y,z
-x,-y,-z
loop_
_atom_site_type_symbol
_atom_site_label
_atom_site_fract_x
_atom_site_fract_y
_atom_site_fract_z
Si Si1 0.189497 0.283922 0.744718
Si Si2 0.495977 0.301304 0.564669
Si Si3 0.137025 0.026377 0.736776
Si Si4 0.110733 0.021821 0.154621
Si Si5 0.635332 0.336948 0.844534
Si Si6 0.592435 0.787806 0.033426
Si Si7 0.998104 0.333076 0.325359
O O1 0.378859 0.309254 0.565722
O O2 0.030232 0.489032 0.814763
O O3 0.213490 0.184685 0.628839
O O4 0.140233 0.157362 0.957220
O O5 0.500000 0.500000 0.500000
O O6 0.702111 0.169933 0.368637
O O7 0.411354 0.225846 0.807797
O O8 0.026079 0.078467 0.704477
O O9 0.000000 0.000000 0.000000
O O10 0.011258 0.147514 0.321915
O O11 0.302613 0.860165 0.059207
O O12 0.519386 0.328442 0.853812
O O13 0.819505 0.380853 0.588284
O O14 0.500000 0.500000 0.000000
O O15 0.809920 0.707102 0.791905
O O16 0.500000 0.000000 0.000000
#
# Coordination Sequence:
#
# PCOD8027982 Si02
#       7
#     2   2   2   2   2   2   2
#     4  11  24  44  73 108 141 179 237 296 358 413
#     4  12  25  44  75 103 141 187 242 290 352 430
#     4  10  25  40  70 103 145 180 228 293 363 408
#     4  11  23  48  73 101 142 188 237 291 353 428
#     4  12  29  49  71 106 147 188 240 296 360 428
#     4  12  27  47  74 105 141 191 243 291 357 428
#     4  12  26  47  77 103 146 188 242 296 356 427
#
# _framework density 23.347017999999998
#
# number of rings (size 3 to 8) (size 9 to 14) (size 15 to 20)
#    0.000    0.571    2.857    3.857    8.000    6.286 
#    0.000    0.000    0.000    0.000    0.000    0.000 
#    0.000    0.000    0.000    0.000    0.000    0.000 
#
# Total GULP energy -173609.329407 kJ/mol
# GULP energy per Si atom -12400.666386 kJ/mol
# Density = 2.329388 g / cm^3
# Si number density = 23.347018 Si / 1000 Ang^3
#
#
#
# Elastic Constant Matrix: (Units=GPa)
#
#
# Indices 1 2 3 4 5 6 
#
# 1 147.7947 63.1842 35.1090 14.1827 -39.3519 11.3692
# 2 63.1842 148.9654 53.9069 19.2631 3.1432 -1.6106
# 3 35.1090 53.9069 130.6616 22.0739 -18.5860 -5.0129
# 4 14.1827 19.2631 22.0739 46.2326 -1.8423 1.9521
# 5 -39.3519 3.1432 -18.5860 -1.8423 36.5827 -1.5017
# 6 11.3692 -1.6106 -5.0129 1.9521 -1.5017 48.2315
#
#
#
# Elastic Compliance Matrix: (Units=1/GPa)
#
#
# Indices 1 2 3 4 5 6 
#
# 1 0.013844 -0.006559 0.001393 -0.001425 0.015978 -0.002783
# 2 -0.006559 0.011369 -0.004117 -0.001215 -0.010135 0.001231
# 3 0.001393 -0.004117 0.010627 -0.003545 0.007114 0.001004
# 4 -0.001425 -0.001215 -0.003545 0.024231 -0.002055 -0.001118
# 5 0.015978 -0.010135 0.007114 -0.002055 0.048832 -0.001762
# 6 -0.002783 0.001231 0.001004 -0.001118 -0.001762 0.021525
#
#
# Mechanical properties :
#
#
# Convention : Reuss Voigt Hill
#
# Bulk Modulus (GPa) = 57.89249 81.31354 69.60302
# Shear Modulus (GPa) = 32.30951 44.55746 38.43349
#
# Velocity S-wave (km/s) = 3.72409 4.37336 4.06172
# Velocity P-wave (km/s) = 6.58348 7.77210 7.20235
#
# Compressibility (1/GPa) = 0.01727340
#
# Stress axis : x y z
#
# Youngs Moduli (GPa) = 72.23141 87.95650 94.09994
#
# Poissons Ratio (x) = 0.57692 -0.13106
# Poissons Ratio (y) = 0.47377 0.38744
# Poissons Ratio (z) = -0.10060 0.36214
#
# Static dielectric constant tensor:
#      x y z
#    x 4.843210 0.377360 -1.020070 
#    y 0.377360 4.329330 0.261480 
#    z -1.020070 0.261480 2.574860 
# 
# 
# High freq. dielectric constant tensor:
#      x y z
#    x 1.943940 0.001600 -0.016360 
#    y 0.001600 1.932470 0.004960 
#    z -0.016360 0.004960 1.909190 
# 
# From -- ./inp_files/223145.got.cif
#   From: 2010.06.25/outbox.cif.g09.slc.cpg/sg2_112_cif.got.tgz:223145.got - 2010.06.27 13:26:56.
