data_PCOD8027283
_publ_section_title
;
Structure prediction by ZEFSAII (Michael W. Deem and Ramdas Pophale) SiO2 
 PCOD8027283
Probable space group: P -1
;
_chemical_formula_sum "Si O2"
_cell_formula_units_Z 16
_cell_length_a 8.489544
_cell_length_b 12.548911
_cell_length_c 18.039375
_cell_angle_alpha 151.351023
_cell_angle_beta 128.352136
_cell_angle_gamma 64.548783
_cell_volume 688.076014
_symmetry_space_group_name_H-M "P -1"
_symmetry_group_IT_number 2
_symmetry_cell_setting 'triclinic'
loop_
_space_group_symop_operation_xyz
x,y,z
-x,-y,-z
loop_
_atom_site_type_symbol
_atom_site_label
_atom_site_fract_x
_atom_site_fract_y
_atom_site_fract_z
Si Si1 0.750066 0.243504 0.079049
Si Si2 0.206785 0.479116 0.587000
Si Si3 0.604173 0.835047 0.883935
Si Si4 0.026497 0.348552 0.083577
Si Si5 0.371993 0.340113 0.957662
Si Si6 0.349847 0.165829 0.682221
Si Si7 0.078774 0.810363 0.290656
Si Si8 0.712916 0.007601 0.679285
O O1 0.777737 0.414811 0.261604
O O2 0.947274 0.351296 0.147553
O O3 0.522189 0.201426 0.948371
O O4 0.728958 0.978929 0.937582
O O5 0.405497 0.608334 0.670738
O O6 0.000000 0.500000 0.500000
O O7 0.205825 0.215234 0.432939
O O8 0.773985 0.747521 0.925207
O O9 0.500000 0.000000 0.000000
O O10 0.087334 0.601504 0.219143
O O11 0.827607 0.180459 0.882393
O O12 0.305433 0.276558 0.813264
O O13 0.131090 0.248855 0.860547
O O14 0.486116 0.611393 0.174763
O O15 0.464995 0.962888 0.598651
O O16 0.131516 0.048733 0.502216
O O17 0.259097 0.867009 0.315900
#
# Coordination Sequence:
#
# PCOD8027283 Si02
#       8
#     2   2   2   2   2   2   2   2
#     4  11  24  47  73  98 144 188 235 294 359 420
#     4  11  26  47  71 105 138 182 239 300 353 426
#     4  10  24  44  72 101 133 184 237 292 358 419
#     4  12  24  47  71 104 143 187 240 292 355 424
#     4  11  23  43  68 103 145 184 240 283 361 411
#     4  11  23  44  63 103 145 188 234 293 346 425
#     4  12  26  40  73 105 144 193 236 287 355 421
#     4  12  24  43  69 103 145 183 237 296 352 416
#
# _framework density 23.253245
#
# number of rings (size 3 to 8) (size 9 to 14) (size 15 to 20)
#    0.000    0.750    2.500    5.250    5.250    1.000 
#    0.000    1.250    0.000    0.000    0.000    0.000 
#    0.000    0.000    0.000    0.000    0.000    0.000 
#
# Total GULP energy -198248.582807 kJ/mol
# GULP energy per Si atom -12390.536425 kJ/mol
# Density = 2.320032 g / cm^3
# Si number density = 23.253245 Si / 1000 Ang^3
#
#
#
# Elastic Constant Matrix: (Units=GPa)
#
#
# Indices 1 2 3 4 5 6 
#
# 1 57.2380 30.2236 9.4701 18.8917 -1.5755 0.5561
# 2 30.2236 108.9379 34.1435 13.2433 9.4867 -6.4249
# 3 9.4701 34.1435 124.5440 3.1641 9.2279 10.2026
# 4 18.8917 13.2433 3.1641 36.4947 -1.9099 7.5204
# 5 -1.5755 9.4867 9.2279 -1.9099 33.9683 -3.0440
# 6 0.5561 -6.4249 10.2026 7.5204 -3.0440 36.9961
#
#
#
# Elastic Compliance Matrix: (Units=1/GPa)
#
#
# Indices 1 2 3 4 5 6 
#
# 1 0.023876 -0.005371 -0.000331 -0.010496 0.002207 0.001115
# 2 -0.005371 0.012303 -0.002975 -0.002242 -0.002710 0.003271
# 3 -0.000331 -0.002975 0.009270 0.001055 -0.001952 -0.003443
# 4 -0.010496 -0.002242 0.001055 0.035179 0.001152 -0.007579
# 5 0.002207 -0.002710 -0.001952 0.001152 0.031105 0.002360
# 6 0.001115 0.003271 -0.003443 -0.007579 0.002360 0.030265
#
#
# Mechanical properties :
#
#
# Convention : Reuss Voigt Hill
#
# Bulk Modulus (GPa) = 35.59272 48.71050 42.15161
# Shear Modulus (GPa) = 29.63539 35.95066 32.79303
#
# Velocity S-wave (km/s) = 3.57383 3.93625 3.75941
# Velocity P-wave (km/s) = 5.68942 6.45384 6.08365
#
# Compressibility (1/GPa) = 0.02809564
#
# Stress axis : x y z
#
# Youngs Moduli (GPa) = 41.88327 81.27810 107.87598
#
# Poissons Ratio (x) = 0.43652 0.03574
# Poissons Ratio (y) = 0.22494 0.32090
# Poissons Ratio (z) = 0.01388 0.24178
#
# Static dielectric constant tensor:
#      x y z
#    x 4.342650 0.135990 0.281030 
#    y 0.135990 4.372850 0.132350 
#    z 0.281030 0.132350 4.455120 
# 
# 
# High freq. dielectric constant tensor:
#      x y z
#    x 1.927520 -0.008530 0.010360 
#    y -0.008530 1.917240 0.001020 
#    z 0.010360 0.001020 1.922850 
# 
# From -- ./inp_files/560212.got.cif
#   From: 2010.06.25/outbox.cif.g09.slc.cpg/sg2_281_cif.got.tgz:560212.got - 2010.06.27 13:26:56.
