data_PCOD8027396
_publ_section_title
;
Structure prediction by ZEFSAII (Michael W. Deem and Ramdas Pophale) SiO2 
 PCOD8027396
Probable space group: P -1
;
_chemical_formula_sum "Si O2"
_cell_formula_units_Z 16
_cell_length_a 19.925098
_cell_length_b 15.733481
_cell_length_c 12.612516
_cell_angle_alpha 134.951572
_cell_angle_beta 27.562589
_cell_angle_gamma 153.879834
_cell_volume 723.642409
_symmetry_space_group_name_H-M "P -1"
_symmetry_group_IT_number 2
_symmetry_cell_setting 'triclinic'
loop_
_space_group_symop_operation_xyz
x,y,z
-x,-y,-z
loop_
_atom_site_type_symbol
_atom_site_label
_atom_site_fract_x
_atom_site_fract_y
_atom_site_fract_z
Si Si1 0.581259 0.458126 0.763909
Si Si2 0.582833 0.711413 0.605006
Si Si3 0.992881 0.720370 0.005725
Si Si4 0.958273 0.024244 0.963197
Si Si5 0.595480 0.905504 0.081103
Si Si6 0.717907 0.749824 0.674022
Si Si7 0.131296 0.572241 0.585093
Si Si8 0.441343 0.855941 0.034169
O O1 0.701501 0.609528 0.628792
O O2 0.796911 0.508026 0.537799
O O3 0.500000 0.500000 0.000000
O O4 0.323922 0.208896 0.881205
O O5 0.317587 0.487082 0.721293
O O6 0.821393 0.874998 0.334327
O O7 0.623778 0.658395 0.605910
O O8 0.572257 0.836380 0.774520
O O9 0.042568 0.830755 0.923732
O O10 0.089675 0.649393 0.798563
O O11 0.134243 0.882346 0.049789
O O12 0.000000 0.000000 0.000000
O O13 0.356151 0.777341 0.376619
O O14 0.581576 0.975906 0.056000
O O15 0.551783 0.735401 0.959647
O O16 0.000000 0.000000 0.500000
O O17 0.864503 0.373555 0.719120
O O18 0.500000 0.000000 0.000000
#
# Coordination Sequence:
#
# PCOD8027396 Si02
#       8
#     2   2   2   2   2   2   2   2
#     4  12  24  42  69 104 134 173 236 286 329 399
#     4  10  24  45  67  95 139 180 225 274 342 408
#     4  11  23  46  67 100 142 182 223 268 350 408
#     4  12  26  44  71 102 136 179 224 283 335 406
#     4  11  22  42  71  95 132 186 220 279 339 401
#     4  11  23  41  70  99 131 181 227 282 342 395
#     4  11  24  44  67 100 140 177 226 281 339 402
#     4  10  25  43  67 100 132 176 228 283 335 399
#
# _framework density 22.110368999999999
#
# number of rings (size 3 to 8) (size 9 to 14) (size 15 to 20)
#    0.000    1.000    2.500    3.375    5.250    2.000 
#    0.000    1.250    0.000    0.000    0.000    0.000 
#    0.000    0.000    0.000    0.000    0.000    0.000 
#
# Total GULP energy -198324.126733 kJ/mol
# GULP energy per Si atom -12395.257921 kJ/mol
# Density = 2.206005 g / cm^3
# Si number density = 22.110369 Si / 1000 Ang^3
#
#
#
# Elastic Constant Matrix: (Units=GPa)
#
#
# Indices 1 2 3 4 5 6 
#
# 1 161.0124 41.0448 49.1883 13.8643 -2.6258 -13.7815
# 2 41.0448 66.4737 39.2176 -4.1357 0.8795 -5.1111
# 3 49.1883 39.2176 114.4476 -4.0578 -9.4367 0.7264
# 4 13.8643 -4.1357 -4.0578 34.2956 -7.5846 -3.3531
# 5 -2.6258 0.8795 -9.4367 -7.5846 29.3447 1.1303
# 6 -13.7815 -5.1111 0.7264 -3.3531 1.1303 47.1473
#
#
#
# Elastic Compliance Matrix: (Units=1/GPa)
#
#
# Indices 1 2 3 4 5 6 
#
# 1 0.008482 -0.003817 -0.002594 -0.004268 -0.001134 0.001829
# 2 -0.003817 0.021070 -0.005648 0.003113 -0.002043 0.001526
# 3 -0.002594 -0.005648 0.012275 0.002702 0.004640 -0.001479
# 4 -0.004268 0.003113 0.002702 0.033702 0.009057 0.001228
# 5 -0.001134 -0.002043 0.004640 0.009057 0.037905 -0.000889
# 6 0.001829 0.001526 -0.001479 0.001228 -0.000889 0.022042
#
#
# Mechanical properties :
#
#
# Convention : Reuss Voigt Hill
#
# Bulk Modulus (GPa) = 56.46210 66.75944 61.61077
# Shear Modulus (GPa) = 30.21246 36.32308 33.26777
#
# Velocity S-wave (km/s) = 3.70055 4.05755 3.88315
# Velocity P-wave (km/s) = 6.62198 7.22571 6.93042
#
# Compressibility (1/GPa) = 0.01771100
#
# Stress axis : x y z
#
# Youngs Moduli (GPa) = 117.90221 47.46086 81.46344
#
# Poissons Ratio (x) = 0.18114 0.21131
# Poissons Ratio (y) = 0.44998 0.46007
# Poissons Ratio (z) = 0.30583 0.26804
#
# Static dielectric constant tensor:
#      x y z
#    x 4.068000 -0.102600 -0.031920 
#    y -0.102600 4.237790 0.088980 
#    z -0.031920 0.088980 4.236650 
# 
# 
# High freq. dielectric constant tensor:
#      x y z
#    x 1.870950 -0.000950 -0.011330 
#    y -0.000950 1.875650 -0.004750 
#    z -0.011330 -0.004750 1.883750 
# 
# From -- ./inp_files/185967.got.cif
#   From: 2010.06.25/outbox.cif.g09.slc.cpg/sg2_93_cif.got.tgz:185967.got - 2010.06.27 13:26:56.
