data_PCOD8027763
_publ_section_title
;
Structure prediction by ZEFSAII (Michael W. Deem and Ramdas Pophale) SiO2 
 PCOD8027763
Probable space group: P -1
;
_chemical_formula_sum "Si O2"
_cell_formula_units_Z 14
_cell_length_a 11.552438
_cell_length_b 8.761567
_cell_length_c 17.221395
_cell_angle_alpha 129.644557
_cell_angle_beta 148.736282
_cell_angle_gamma 37.976093
_cell_volume 553.145823
_symmetry_space_group_name_H-M "P -1"
_symmetry_group_IT_number 2
_symmetry_cell_setting 'triclinic'
loop_
_space_group_symop_operation_xyz
x,y,z
-x,-y,-z
loop_
_atom_site_type_symbol
_atom_site_label
_atom_site_fract_x
_atom_site_fract_y
_atom_site_fract_z
Si Si1 0.215141 0.427034 0.800200
Si Si2 0.216044 0.647872 0.479636
Si Si3 0.674112 0.118899 0.846594
Si Si4 0.982796 0.899679 0.726332
Si Si5 0.363901 0.603426 0.225548
Si Si6 0.418761 0.863289 0.564111
Si Si7 0.565425 0.735806 0.960626
O O1 0.523808 0.281756 0.891573
O O2 0.090958 0.279211 0.655545
O O3 0.004534 0.715302 0.744047
O O4 0.243274 0.418763 0.906116
O O5 0.378099 0.581298 0.631054
O O6 0.202228 0.870874 0.502480
O O7 0.358219 0.417838 0.427275
O O8 0.533689 0.301438 0.751705
O O9 0.606811 0.923774 0.735713
O O10 0.000000 0.000000 0.000000
O O11 0.274477 0.775158 0.810708
O O12 0.894600 0.156610 0.798687
O O13 0.754350 0.955225 0.549231
O O14 0.273592 0.443829 0.080511
O O15 0.500000 0.000000 0.000000
#
# Coordination Sequence:
#
# PCOD8027763 Si02
#       7
#     2   2   2   2   2   2   2
#     4  12  26  45  76 107 150 190 248 307 366 443
#     4  10  24  47  74 111 142 199 245 301 371 434
#     4  12  27  45  72 108 147 199 247 305 371 437
#     4  11  24  48  74 109 143 193 251 302 370 437
#     4  11  26  46  74 103 148 194 246 300 368 436
#     4  10  24  46  75 107 151 188 249 308 362 441
#     4  12  28  46  68 109 151 193 245 308 365 443
#
# _framework density 25.309782999999999
#
# number of rings (size 3 to 8) (size 9 to 14) (size 15 to 20)
#    0.000    0.857    1.429    3.857    8.000    4.571 
#    0.000    0.000    0.000    0.000    0.000    0.000 
#    0.000    0.000    0.000    0.000    0.000    0.000 
#
# Total GULP energy -173628.635163 kJ/mol
# GULP energy per Si atom -12402.045369 kJ/mol
# Density = 2.525218 g / cm^3
# Si number density = 25.309783 Si / 1000 Ang^3
#
#
#
# Elastic Constant Matrix: (Units=GPa)
#
#
# Indices 1 2 3 4 5 6 
#
# 1 91.4422 37.3385 51.4292 -6.5305 -11.3708 10.0286
# 2 37.3385 120.1820 76.8136 13.0193 -7.5710 11.5388
# 3 51.4292 76.8136 150.3983 -1.1209 -12.3345 7.5004
# 4 -6.5305 13.0193 -1.1209 39.8412 -0.3897 4.1261
# 5 -11.3708 -7.5710 -12.3345 -0.3897 46.8651 10.1495
# 6 10.0286 11.5388 7.5004 4.1261 10.1495 24.4656
#
#
#
# Elastic Compliance Matrix: (Units=1/GPa)
#
#
# Indices 1 2 3 4 5 6 
#
# 1 0.015182 -0.002035 -0.003487 0.003759 0.003861 -0.006430
# 2 -0.002035 0.013739 -0.006126 -0.004645 0.000793 -0.003313
# 3 -0.003487 -0.006126 0.011059 0.001731 0.001045 0.000203
# 4 0.003759 -0.004645 0.001731 0.027863 0.002022 -0.005419
# 5 0.003861 0.000793 0.001045 0.002022 0.025558 -0.013221
# 6 -0.006430 -0.003313 0.000203 -0.005419 -0.013221 0.051408
#
#
# Mechanical properties :
#
#
# Convention : Reuss Voigt Hill
#
# Bulk Modulus (GPa) = 59.93493 77.02059 68.47776
# Shear Modulus (GPa) = 28.79107 35.33046 32.06077
#
# Velocity S-wave (km/s) = 3.37641 3.74026 3.56298
# Velocity P-wave (km/s) = 6.23957 7.01070 6.63634
#
# Compressibility (1/GPa) = 0.01668476
#
# Stress axis : x y z
#
# Youngs Moduli (GPa) = 65.86959 72.78399 90.42802
#
# Poissons Ratio (x) = 0.14809 0.31531
# Poissons Ratio (y) = 0.13402 0.55394
# Poissons Ratio (z) = 0.22968 0.44586
#
# Static dielectric constant tensor:
#      x y z
#    x 4.830010 0.107240 -0.003440 
#    y 0.107240 4.697780 0.163760 
#    z -0.003440 0.163760 4.460890 
# 
# 
# High freq. dielectric constant tensor:
#      x y z
#    x 2.010980 -0.001680 -0.011540 
#    y -0.001680 2.020170 0.008280 
#    z -0.011540 0.008280 2.009320 
# 
# From -- ./inp_files/566974.got.cif
#   From: 2010.06.25/outbox.cif.g09.slc.cpg/sg2_284_cif.got.tgz:566974.got - 2010.06.27 13:26:56.
