data_PCOD8027014
_publ_section_title
;
Structure prediction by ZEFSAII (Michael W. Deem and Ramdas Pophale) SiO2 
 PCOD8027014
Probable space group: P -1
;
_chemical_formula_sum "Si O2"
_cell_formula_units_Z 16
_cell_length_a 14.257999
_cell_length_b 9.120467
_cell_length_c 21.197479
_cell_angle_alpha 59.457079
_cell_angle_beta 161.348750
_cell_angle_gamma 121.763568
_cell_volume 749.070147
_symmetry_space_group_name_H-M "P -1"
_symmetry_group_IT_number 2
_symmetry_cell_setting 'triclinic'
loop_
_space_group_symop_operation_xyz
x,y,z
-x,-y,-z
loop_
_atom_site_type_symbol
_atom_site_label
_atom_site_fract_x
_atom_site_fract_y
_atom_site_fract_z
Si Si1 0.829201 0.720615 0.172164
Si Si2 0.353373 0.263824 0.516903
Si Si3 0.697139 0.184027 0.250291
Si Si4 0.281436 0.624623 0.026852
Si Si5 0.603930 0.792698 0.309198
Si Si6 0.228533 0.504185 0.700516
Si Si7 0.142907 0.610357 0.274674
Si Si8 0.166525 0.954215 0.824049
O O1 0.887330 0.563599 0.288849
O O2 0.972053 0.705690 0.197393
O O3 0.965642 0.895495 0.256880
O O4 0.478542 0.737940 0.935936
O O5 0.530292 0.235982 0.700105
O O6 0.246700 0.448656 0.410516
O O7 0.575808 0.256160 0.601160
O O8 0.069360 0.108772 0.368034
O O9 0.628068 0.293831 0.244272
O O10 0.051278 0.224856 0.459880
O O11 0.570808 0.981017 0.219989
O O12 0.424064 0.639025 0.184860
O O13 0.546774 0.624528 0.146034
O O14 0.136410 0.794339 0.887904
O O15 0.047420 0.454226 0.896394
O O16 0.000000 0.500000 0.500000
O O17 0.500000 0.000000 0.000000
#
# Coordination Sequence:
#
# PCOD8027014 Si02
#       8
#     2   2   2   2   2   2   2   2
#     4  12  23  39  67  92 130 170 212 261 320 381
#     4  10  24  44  64  89 130 171 221 259 315 375
#     4  11  23  37  60  97 132 160 207 264 330 377
#     4  11  22  39  62  91 129 160 212 259 323 378
#     4  11  23  38  64  93 130 168 206 270 322 372
#     4  12  24  36  60  98 130 161 206 269 321 377
#     4  10  24  44  64  90 124 179 219 257 307 387
#     4  11  22  39  66  96 123 164 207 266 327 381
#
# _framework density 21.359815999999999
#
# number of rings (size 3 to 8) (size 9 to 14) (size 15 to 20)
#    0.000    1.000    5.000    1.875    5.250    1.000 
#    0.000    0.625    0.000    0.000    0.000    0.000 
#    0.000    0.000    0.000    0.000    0.000    0.000 
#
# Total GULP energy -198217.040943 kJ/mol
# GULP energy per Si atom -12388.565059 kJ/mol
# Density = 2.131120 g / cm^3
# Si number density = 21.359816 Si / 1000 Ang^3
#
#
#
# Elastic Constant Matrix: (Units=GPa)
#
#
# Indices 1 2 3 4 5 6 
#
# 1 102.9659 42.4782 43.5992 8.8240 -9.7587 -11.6476
# 2 42.4782 88.2921 29.2873 8.3721 -2.6690 -20.4783
# 3 43.5992 29.2873 94.7502 3.8776 -19.6177 1.2324
# 4 8.8240 8.3721 3.8776 35.6787 -6.0907 -0.6227
# 5 -9.7587 -2.6690 -19.6177 -6.0907 34.6714 3.9292
# 6 -11.6476 -20.4783 1.2324 -0.6227 3.9292 29.2925
#
#
#
# Elastic Compliance Matrix: (Units=1/GPa)
#
#
# Indices 1 2 3 4 5 6 
#
# 1 0.014127 -0.004271 -0.005118 -0.001869 0.000107 0.002793
# 2 -0.004271 0.017613 -0.004355 -0.003113 -0.004136 0.011287
# 3 -0.005118 -0.004355 0.016003 0.001860 0.008381 -0.006838
# 4 -0.001869 -0.003113 0.001860 0.029972 0.005909 -0.003153
# 5 0.000107 -0.004136 0.008381 0.005909 0.035218 -0.007800
# 6 0.002793 0.011287 -0.006838 -0.003153 -0.007800 0.044407
#
#
# Mechanical properties :
#
#
# Convention : Reuss Voigt Hill
#
# Bulk Modulus (GPa) = 49.36803 57.41530 53.39166
# Shear Modulus (GPa) = 26.09865 31.30476 28.70171
#
# Velocity S-wave (km/s) = 3.49930 3.83246 3.66966
# Velocity P-wave (km/s) = 6.28407 6.82071 6.55788
#
# Compressibility (1/GPa) = 0.02025602
#
# Stress axis : x y z
#
# Youngs Moduli (GPa) = 70.78478 56.77512 62.48674
#
# Poissons Ratio (x) = 0.24247 0.31983
# Poissons Ratio (y) = 0.30231 0.27212
# Poissons Ratio (z) = 0.36230 0.24725
#
# Static dielectric constant tensor:
#      x y z
#    x 3.760040 -0.462150 0.071360 
#    y -0.462150 4.107010 -0.097780 
#    z 0.071360 -0.097780 4.380740 
# 
# 
# High freq. dielectric constant tensor:
#      x y z
#    x 1.815170 -0.030410 -0.020800 
#    y -0.030410 1.833960 0.000790 
#    z -0.020800 0.000790 1.839970 
# 
# From -- ./inp_files/237742.got.cif
#   From: 2010.06.25/outbox.cif.g09.slc.cpg/sg2_119_cif.got.tgz:237742.got - 2010.06.27 13:26:56.
