data_PCOD8027075
_publ_section_title
;
Structure prediction by ZEFSAII (Michael W. Deem and Ramdas Pophale) SiO2 
 PCOD8027075
Probable space group: P -1
;
_chemical_formula_sum "Si O2"
_cell_formula_units_Z 14
_cell_length_a 8.959717
_cell_length_b 19.624171
_cell_length_c 11.093125
_cell_angle_alpha 146.937957
_cell_angle_beta 118.379866
_cell_angle_gamma 41.386785
_cell_volume 636.642355
_symmetry_space_group_name_H-M "P -1"
_symmetry_group_IT_number 2
_symmetry_cell_setting 'triclinic'
loop_
_space_group_symop_operation_xyz
x,y,z
-x,-y,-z
loop_
_atom_site_type_symbol
_atom_site_label
_atom_site_fract_x
_atom_site_fract_y
_atom_site_fract_z
Si Si1 0.515068 0.821034 0.009608
Si Si2 0.383720 0.374323 0.785638
Si Si3 0.017496 0.454859 0.580755
Si Si4 0.385132 0.987882 0.548913
Si Si5 0.742160 0.928110 0.929058
Si Si6 0.164662 0.737096 0.332157
Si Si7 0.978543 0.999031 0.846432
O O1 0.750172 0.604122 0.764115
O O2 0.316534 0.871971 0.107091
O O3 0.612854 0.909659 0.193964
O O4 0.357836 0.913423 0.964815
O O5 0.210452 0.441382 0.702430
O O6 0.433191 0.223956 0.659858
O O7 0.643568 0.285610 0.705308
O O8 0.245447 0.548126 0.078234
O O9 0.096047 0.270013 0.357643
O O10 0.000000 0.500000 0.500000
O O11 0.500000 0.000000 0.500000
O O12 0.104120 0.094399 0.581080
O O13 0.931579 0.918201 0.061629
O O14 0.500000 0.000000 0.000000
O O15 0.144022 0.797165 0.551922
O O16 0.000000 0.000000 0.000000
#
# Coordination Sequence:
#
# PCOD8027075 Si02
#       7
#     2   2   2   2   2   2   2
#     4  11  23  43  65  99 138 177 229 285 347 415
#     4  11  26  45  72 104 140 183 239 296 345 418
#     4  12  24  41  72 105 136 181 234 284 347 421
#     4  12  24  46  70  99 140 183 236 288 356 420
#     4  11  22  43  70  94 136 185 224 288 341 405
#     4  11  24  47  70 103 139 184 237 294 351 418
#     4  10  24  44  67 100 140 180 229 287 351 413
#
# _framework density 21.990368
#
# number of rings (size 3 to 8) (size 9 to 14) (size 15 to 20)
#    0.000    0.857    5.714    1.286    2.000    1.143 
#   10.286    0.000    0.000    0.000    0.000    0.000 
#    0.000    0.000    0.000    0.000    0.000    0.000 
#
# Total GULP energy -173435.745567 kJ/mol
# GULP energy per Si atom -12388.267541 kJ/mol
# Density = 2.194032 g / cm^3
# Si number density = 21.990368 Si / 1000 Ang^3
#
#
#
# Elastic Constant Matrix: (Units=GPa)
#
#
# Indices 1 2 3 4 5 6 
#
# 1 136.2253 53.5113 66.6799 9.4763 2.8175 -29.3603
# 2 53.5113 89.0358 54.2262 5.6182 0.8618 -12.9690
# 3 66.6799 54.2262 205.2286 4.6025 0.8028 -14.6294
# 4 9.4763 5.6182 4.6025 41.2892 -5.2296 -0.9129
# 5 2.8175 0.8618 0.8028 -5.2296 34.7375 -1.3993
# 6 -29.3603 -12.9690 -14.6294 -0.9129 -1.3993 35.8938
#
#
#
# Elastic Compliance Matrix: (Units=1/GPa)
#
#
# Indices 1 2 3 4 5 6 
#
# 1 0.011876 -0.004729 -0.002060 -0.001795 -0.000783 0.007090
# 2 -0.004729 0.015797 -0.002565 -0.000765 -0.000033 0.000773
# 3 -0.002060 -0.002565 0.006211 0.000141 0.000106 -0.000073
# 4 -0.001795 -0.000765 0.000141 0.025196 0.003919 -0.000893
# 5 -0.000783 -0.000033 0.000106 0.003919 0.029465 0.000639
# 6 0.007090 0.000773 -0.000073 -0.000893 0.000639 0.033911
#
#
# Mechanical properties :
#
#
# Convention : Reuss Voigt Hill
#
# Bulk Modulus (GPa) = 65.89783 86.59161 76.24472
# Shear Modulus (GPa) = 34.19411 39.45558 36.82484
#
# Velocity S-wave (km/s) = 3.94757 4.24042 4.09661
# Velocity P-wave (km/s) = 7.12808 7.96476 7.55801
#
# Compressibility (1/GPa) = 0.01517501
#
# Stress axis : x y z
#
# Youngs Moduli (GPa) = 84.20281 63.30233 161.00521
#
# Poissons Ratio (x) = 0.29938 0.33172
# Poissons Ratio (y) = 0.39822 0.41298
# Poissons Ratio (z) = 0.17348 0.16237
#
# Static dielectric constant tensor:
#      x y z
#    x 3.901860 -0.729580 0.177450 
#    y -0.729580 4.273770 -0.307290 
#    z 0.177450 -0.307290 4.468370 
# 
# 
# High freq. dielectric constant tensor:
#      x y z
#    x 1.873020 -0.036760 -0.001040 
#    y -0.036760 1.854650 -0.008690 
#    z -0.001040 -0.008690 1.878950 
# 
# From -- ./inp_files/260851.got.cif
#   From: 2010.06.25/outbox.cif.g09.slc.cpg/sg2_131_cif.got.tgz:260851.got - 2010.06.27 13:26:56.
