data_PCOD8027547
_publ_section_title
;
Structure prediction by ZEFSAII (Michael W. Deem and Ramdas Pophale) SiO2 
 PCOD8027547
Probable space group: P -1
;
_chemical_formula_sum "Si O2"
_cell_formula_units_Z 14
_cell_length_a 23.557697
_cell_length_b 8.788642
_cell_length_c 17.265611
_cell_angle_alpha 142.619737
_cell_angle_beta 19.761913
_cell_angle_gamma 149.706953
_cell_volume 606.269119
_symmetry_space_group_name_H-M "P -1"
_symmetry_group_IT_number 2
_symmetry_cell_setting 'triclinic'
loop_
_space_group_symop_operation_xyz
x,y,z
-x,-y,-z
loop_
_atom_site_type_symbol
_atom_site_label
_atom_site_fract_x
_atom_site_fract_y
_atom_site_fract_z
Si Si1 0.497342 0.226178 0.426910
Si Si2 0.123667 0.486787 0.403773
Si Si3 0.121045 0.210962 0.557757
Si Si4 0.208190 0.713997 0.050209
Si Si5 0.445694 0.309135 0.070676
Si Si6 0.844449 0.602093 0.238483
Si Si7 0.907493 0.135838 0.271167
O O1 0.500000 0.500000 0.500000
O O2 0.615524 0.313194 0.393063
O O3 0.258015 0.958387 0.624047
O O4 0.620346 0.151400 0.180305
O O5 0.149077 0.703010 0.527779
O O6 0.000000 0.500000 0.500000
O O7 0.342315 0.610198 0.134921
O O8 0.015446 0.143394 0.433021
O O9 0.335009 0.389955 0.309184
O O10 0.168772 0.265112 0.609659
O O11 0.996478 0.347083 0.747760
O O12 0.132630 0.380394 0.045980
O O13 0.294767 0.950325 0.104816
O O14 0.500000 0.500000 0.000000
O O15 0.911405 0.859565 0.190642
O O16 0.000000 0.500000 0.000000
#
# Coordination Sequence:
#
# PCOD8027547 Si02
#       7
#     2   2   2   2   2   2   2
#     4  10  24  45  71  97 139 189 245 283 348 421
#     4  12  24  44  70 109 148 175 227 307 362 421
#     4  12  25  44  73 111 144 185 236 295 371 414
#     4  12  23  43  75 105 139 187 244 292 352 425
#     4  12  25  43  73 106 145 188 235 289 358 434
#     4  11  24  49  72 100 147 187 236 301 350 422
#     4  11  24  45  75 103 137 187 243 290 353 426
#
# _framework density 23.092054999999998
#
# number of rings (size 3 to 8) (size 9 to 14) (size 15 to 20)
#    0.000    0.571    7.143    1.286    0.000    2.857 
#    5.143    2.143    0.000    0.000    0.000    0.000 
#    0.000    0.000    0.000    0.000    0.000    0.000 
#
# Total GULP energy -173546.159731 kJ/mol
# GULP energy per Si atom -12396.154266 kJ/mol
# Density = 2.303950 g / cm^3
# Si number density = 23.092055 Si / 1000 Ang^3
#
#
#
# Elastic Constant Matrix: (Units=GPa)
#
#
# Indices 1 2 3 4 5 6 
#
# 1 98.1215 34.4106 41.9923 -11.5931 -25.7314 12.7374
# 2 34.4106 99.7398 26.8754 -10.6431 -8.9333 -0.9958
# 3 41.9923 26.8754 105.9107 -5.7096 -11.5248 -1.9722
# 4 -11.5931 -10.6431 -5.7096 39.7713 0.2123 1.3280
# 5 -25.7314 -8.9333 -11.5248 0.2123 41.7502 -1.5088
# 6 12.7374 -0.9958 -1.9722 1.3280 -1.5088 37.0836
#
#
#
# Elastic Compliance Matrix: (Units=1/GPa)
#
#
# Indices 1 2 3 4 5 6 
#
# 1 0.016731 -0.003452 -0.004811 0.003416 0.008015 -0.005892
# 2 -0.003452 0.011842 -0.001505 0.001901 0.000030 0.001357
# 3 -0.004811 -0.001505 0.011768 -0.000191 0.000043 0.002247
# 4 0.003416 0.001901 -0.000191 0.026676 0.002252 -0.001996
# 5 0.008015 0.000030 0.000043 0.002252 0.028839 -0.001657
# 6 -0.005892 0.001357 0.002247 -0.001996 -0.001657 0.029150
#
#
# Mechanical properties :
#
#
# Convention : Reuss Voigt Hill
#
# Bulk Modulus (GPa) = 48.06849 56.70319 52.38584
# Shear Modulus (GPa) = 33.00837 37.08727 35.04782
#
# Velocity S-wave (km/s) = 3.78488 4.01192 3.90005
# Velocity P-wave (km/s) = 6.32152 6.78743 6.55861
#
# Compressibility (1/GPa) = 0.02080365
#
# Stress axis : x y z
#
# Youngs Moduli (GPa) = 59.76765 84.44647 84.97884
#
# Poissons Ratio (x) = 0.29155 0.40884
# Poissons Ratio (y) = 0.20634 0.12790
# Poissons Ratio (z) = 0.28755 0.12710
#
# Static dielectric constant tensor:
#      x y z
#    x 4.250790 0.734690 -0.596420 
#    y 0.734690 4.480760 -0.183910 
#    z -0.596420 -0.183910 4.393740 
# 
# 
# High freq. dielectric constant tensor:
#      x y z
#    x 1.900790 0.012980 -0.011440 
#    y 0.012980 1.925630 0.002780 
#    z -0.011440 0.002780 1.917430 
# 
# From -- ./inp_files/107207.got.cif
#   From: 2010.06.25/outbox.cif.g09.slc.cpg/sg2_54_cif.got.tgz:107207.got - 2010.06.27 13:26:56.
