data_PCOD8027197
_publ_section_title
;
Structure prediction by ZEFSAII (Michael W. Deem and Ramdas Pophale) SiO2 
 PCOD8027197
Probable space group: P -1
;
_chemical_formula_sum "Si O2"
_cell_formula_units_Z 14
_cell_length_a 8.837945
_cell_length_b 8.811009
_cell_length_c 11.148185
_cell_angle_alpha 107.237640
_cell_angle_beta 114.807683
_cell_angle_gamma 112.531843
_cell_volume 610.169821
_symmetry_space_group_name_H-M "P -1"
_symmetry_group_IT_number 2
_symmetry_cell_setting 'triclinic'
loop_
_space_group_symop_operation_xyz
x,y,z
-x,-y,-z
loop_
_atom_site_type_symbol
_atom_site_label
_atom_site_fract_x
_atom_site_fract_y
_atom_site_fract_z
Si Si1 0.673007 0.865964 0.362166
Si Si2 0.665060 0.836992 0.807740
Si Si3 0.999069 0.549033 0.647214
Si Si4 0.057629 0.246617 0.681697
Si Si5 0.928537 0.805854 0.056077
Si Si6 0.691361 0.502153 0.715230
Si Si7 0.379302 0.934703 0.822203
O O1 0.792131 0.767720 0.358007
O O2 0.478854 0.715985 0.345255
O O3 0.600077 0.900919 0.218939
O O4 0.820805 0.070664 0.530450
O O5 0.602174 0.628834 0.683453
O O6 0.459453 0.825270 0.749158
O O7 0.827923 0.021912 0.822424
O O8 0.789481 0.879380 0.985104
O O9 0.783958 0.478577 0.619325
O O10 0.000000 0.500000 0.500000
O O11 0.094510 0.453790 0.727351
O O12 0.145051 0.784487 0.752263
O O13 0.129949 0.256566 0.842252
O O14 0.868032 0.623052 0.905920
O O15 0.500000 0.000000 0.000000
#
# Coordination Sequence:
#
# PCOD8027197 Si02
#       7
#     2   2   2   2   2   2   2
#     4  11  26  44  67 107 135 181 229 277 349 394
#     4   9  21  43  70 100 136 173 232 271 338 395
#     4  12  27  47  67  99 139 180 228 281 349 406
#     4  11  25  45  69  94 148 177 223 281 340 409
#     4   9  21  42  73  99 134 180 223 276 340 397
#     4  10  24  44  70 100 133 175 235 280 334 406
#     4  12  25  42  72 101 139 181 231 280 331 407
#
# _framework density 22.944431999999999
#
# number of rings (size 3 to 8) (size 9 to 14) (size 15 to 20)
#    0.857    0.571    1.429    2.571    6.000    2.857 
#    0.000    2.143    0.000    0.000    0.000    0.000 
#    0.000    0.000    0.000    0.000    0.000    0.000 
#
# Total GULP energy -173507.410736 kJ/mol
# GULP energy per Si atom -12393.386481 kJ/mol
# Density = 2.289221 g / cm^3
# Si number density = 22.944432 Si / 1000 Ang^3
#
#
#
# Elastic Constant Matrix: (Units=GPa)
#
#
# Indices 1 2 3 4 5 6 
#
# 1 115.0314 62.5158 13.7581 0.7155 -0.8164 9.9320
# 2 62.5158 110.9096 12.7085 17.4694 6.5006 23.0645
# 3 13.7581 12.7085 63.1523 1.3105 -7.6575 18.1597
# 4 0.7155 17.4694 1.3105 32.0789 4.9996 3.4225
# 5 -0.8164 6.5006 -7.6575 4.9996 29.4632 2.0165
# 6 9.9320 23.0645 18.1597 3.4225 2.0165 44.9860
#
#
#
# Elastic Compliance Matrix: (Units=1/GPa)
#
#
# Indices 1 2 3 4 5 6 
#
# 1 0.013241 -0.008300 -0.001653 0.003962 0.000983 0.001654
# 2 -0.008300 0.016235 0.000138 -0.007714 -0.002066 -0.005868
# 3 -0.001653 0.000138 0.019034 -0.000871 0.005537 -0.007571
# 4 0.003962 -0.007714 -0.000871 0.035938 -0.004575 0.000903
# 5 0.000983 -0.002066 0.005537 -0.004575 0.036823 -0.002695
# 6 0.001654 -0.005868 -0.007571 0.000903 -0.002695 0.027981
#
#
# Mechanical properties :
#
#
# Convention : Reuss Voigt Hill
#
# Bulk Modulus (GPa) = 34.62589 51.89534 43.26061
# Shear Modulus (GPa) = 28.00988 34.64634 31.32811
#
# Velocity S-wave (km/s) = 3.49774 3.89010 3.69913
# Velocity P-wave (km/s) = 5.60680 6.54554 6.09427
#
# Compressibility (1/GPa) = 0.02888013
#
# Stress axis : x y z
#
# Youngs Moduli (GPa) = 75.52168 61.59463 52.53870
#
# Poissons Ratio (x) = 0.51123 0.08685
# Poissons Ratio (y) = 0.62682 -0.00725
# Poissons Ratio (z) = 0.12484 -0.00850
#
# Static dielectric constant tensor:
#      x y z
#    x 4.067110 -0.158180 -0.024510 
#    y -0.158180 4.282880 -0.104890 
#    z -0.024510 -0.104890 3.805210 
# 
# 
# High freq. dielectric constant tensor:
#      x y z
#    x 1.899060 0.005670 -0.002710 
#    y 0.005670 1.911370 0.000420 
#    z -0.002710 0.000420 1.896420 
# 
# From -- ./inp_files/382998.got.cif
#   From: 2010.06.25/outbox.cif.g09.slc.cpg/sg2_192_cif.got.tgz:382998.got - 2010.06.27 13:26:56.
