data_PCOD8027301
_publ_section_title
;
Structure prediction by ZEFSAII (Michael W. Deem and Ramdas Pophale) SiO2 
 PCOD8027301
Probable space group: P -1
;
_chemical_formula_sum "Si O2"
_cell_formula_units_Z 14
_cell_length_a 15.799404
_cell_length_b 8.899245
_cell_length_c 14.057267
_cell_angle_alpha 30.772172
_cell_angle_beta 140.908613
_cell_angle_gamma 137.621937
_cell_volume 621.622643
_symmetry_space_group_name_H-M "P -1"
_symmetry_group_IT_number 2
_symmetry_cell_setting 'triclinic'
loop_
_space_group_symop_operation_xyz
x,y,z
-x,-y,-z
loop_
_atom_site_type_symbol
_atom_site_label
_atom_site_fract_x
_atom_site_fract_y
_atom_site_fract_z
Si Si1 0.365637 0.821332 0.926460
Si Si2 0.422775 0.239750 0.344333
Si Si3 0.160502 0.703755 0.208873
Si Si4 0.100872 0.152040 0.775919
Si Si5 0.931800 0.179382 0.264230
Si Si6 0.391357 0.382844 0.547331
Si Si7 0.826338 0.235210 0.586485
O O1 0.230816 0.849038 0.853475
O O2 0.359000 0.016158 0.718868
O O3 0.367570 0.469886 0.098369
O O4 0.500000 0.000000 0.000000
O O5 0.536124 0.471236 0.373908
O O6 0.500000 0.000000 0.500000
O O7 0.293290 0.050199 0.395591
O O8 0.250077 0.489018 0.356406
O O9 0.188425 0.761516 0.313402
O O10 0.002490 0.532143 0.146586
O O11 0.192324 0.009472 0.007882
O O12 0.196501 0.456916 0.649307
O O13 0.976123 0.207967 0.700786
O O14 0.040050 0.934771 0.753881
O O15 0.000000 0.000000 0.500000
O O16 0.500000 0.500000 0.500000
#
# Coordination Sequence:
#
# PCOD8027301 Si02
#       7
#     2   2   2   2   2   2   2
#     4  10  24  44  72  96 138 189 227 285 361 410
#     4  11  24  45  70  96 140 189 232 284 361 417
#     4  12  24  45  70 101 142 184 240 294 350 419
#     4  11  26  41  72 100 137 186 233 296 353 419
#     4  12  23  44  74 103 140 184 242 290 350 421
#     4  11  25  43  67 104 140 179 242 292 343 428
#     4  11  24  47  64 101 145 183 234 295 355 420
#
# _framework density 22.521699999999999
#
# number of rings (size 3 to 8) (size 9 to 14) (size 15 to 20)
#    0.000    0.857    4.286    1.714    8.000    0.000 
#    2.571    1.429    0.000    0.000    0.000    0.000 
#    0.000    0.000    0.000    0.000    0.000    0.000 
#
# Total GULP energy -173459.060064 kJ/mol
# GULP energy per Si atom -12389.932862 kJ/mol
# Density = 2.247044 g / cm^3
# Si number density = 22.521700 Si / 1000 Ang^3
#
#
#
# Elastic Constant Matrix: (Units=GPa)
#
#
# Indices 1 2 3 4 5 6 
#
# 1 114.4798 11.5327 68.4575 -3.5545 -3.9837 6.9760
# 2 11.5327 72.0984 36.1320 -11.7513 -0.6269 26.4461
# 3 68.4575 36.1320 208.4367 -31.1595 -12.6325 10.5273
# 4 -3.5545 -11.7513 -31.1595 39.8707 6.8952 0.9694
# 5 -3.9837 -0.6269 -12.6325 6.8952 41.1780 -0.4713
# 6 6.9760 26.4461 10.5273 0.9694 -0.4713 35.6374
#
#
#
# Elastic Compliance Matrix: (Units=1/GPa)
#
#
# Indices 1 2 3 4 5 6 
#
# 1 0.011060 0.000300 -0.003910 -0.001987 0.000194 -0.001176
# 2 0.000300 0.021510 -0.002362 0.005140 -0.001406 -0.015482
# 3 -0.003910 -0.002362 0.007197 0.004389 0.001062 0.000287
# 4 -0.001987 0.005140 0.004389 0.030672 -0.003967 -0.005609
# 5 0.000194 -0.001406 0.001062 -0.003967 0.025285 0.001134
# 6 -0.001176 -0.015482 0.000287 -0.005609 0.001134 0.039862
#
#
# Mechanical properties :
#
#
# Convention : Reuss Voigt Hill
#
# Bulk Modulus (GPa) = 35.94266 69.69548 52.81907
# Shear Modulus (GPa) = 31.88653 41.93006 36.90829
#
# Velocity S-wave (km/s) = 3.76681 4.31950 4.05259
# Velocity P-wave (km/s) = 5.90866 7.47599 6.73805
#
# Compressibility (1/GPa) = 0.02782209
#
# Stress axis : x y z
#
# Youngs Moduli (GPa) = 90.41621 46.48991 138.93940
#
# Poissons Ratio (x) = -0.01393 0.54328
# Poissons Ratio (y) = -0.02709 0.32818
# Poissons Ratio (z) = 0.35355 0.10981
#
# Static dielectric constant tensor:
#      x y z
#    x 4.176450 0.275060 -0.402190 
#    y 0.275060 4.050630 -0.207290 
#    z -0.402190 -0.207290 5.344850 
# 
# 
# High freq. dielectric constant tensor:
#      x y z
#    x 1.877850 0.023050 0.001900 
#    y 0.023050 1.883160 -0.014630 
#    z 0.001900 -0.014630 1.910040 
# 
# From -- ./inp_files/529243.got.cif
#   From: 2010.06.25/outbox.cif.g09.slc.cpg/sg2_265_cif.got.tgz:529243.got - 2010.06.27 13:26:56.
