data_PCOD8027296
_publ_section_title
;
Structure prediction by ZEFSAII (Michael W. Deem and Ramdas Pophale) SiO2 
 PCOD8027296
Probable space group: P -1
;
_chemical_formula_sum "Si O2"
_cell_formula_units_Z 10
_cell_length_a 8.428611
_cell_length_b 15.447583
_cell_length_c 9.318870
_cell_angle_alpha 152.051974
_cell_angle_beta 125.684653
_cell_angle_gamma 52.028216
_cell_volume 445.667394
_symmetry_space_group_name_H-M "P -1"
_symmetry_group_IT_number 2
_symmetry_cell_setting 'triclinic'
loop_
_space_group_symop_operation_xyz
x,y,z
-x,-y,-z
loop_
_atom_site_type_symbol
_atom_site_label
_atom_site_fract_x
_atom_site_fract_y
_atom_site_fract_z
Si Si1 0.786291 0.959018 0.848091
Si Si2 0.810152 0.887750 0.084877
Si Si3 0.247449 0.752896 0.229548
Si Si4 0.574730 0.682279 0.847695
Si Si5 0.323790 0.368073 0.857479
O O1 0.787571 0.772860 0.484024
O O2 0.742588 0.921622 0.935287
O O3 0.614740 0.137541 0.961376
O O4 0.000000 0.000000 0.000000
O O5 0.052784 0.829611 0.138735
O O6 0.714259 0.080328 0.405350
O O7 0.719550 0.720026 0.852933
O O8 0.437290 0.682748 0.122759
O O9 0.216537 0.582203 0.063080
O O10 0.500000 0.500000 0.500000
O O11 0.706914 0.642674 0.004350
#
# Coordination Sequence:
#
# PCOD8027296 Si02
#       5
#     2   2   2   2   2
#     4  12  27  44  69  99 136 174 223 271 332 392
#     4  11  25  45  68  98 134 176 220 275 327 392
#     4  10  24  44  72  92 136 176 224 268 332 386
#     4  12  27  44  69  99 136 174 223 271 332 392
#     4  11  25  45  68  98 134 176 220 275 327 392
#
# _framework density 22.438258000000001
#
# number of rings (size 3 to 8) (size 9 to 14) (size 15 to 20)
#    0.000    0.800    2.000    3.600   14.000    1.600 
#    0.000    0.000    0.000    0.000    0.000    0.000 
#    0.000    0.000    0.000    0.000    0.000    0.000 
#
# Total GULP energy -124104.503609 kJ/mol
# GULP energy per Si atom -12410.450361 kJ/mol
# Density = 2.238719 g / cm^3
# Si number density = 22.438258 Si / 1000 Ang^3
#
#
#
# Elastic Constant Matrix: (Units=GPa)
#
#
# Indices 1 2 3 4 5 6 
#
# 1 59.2371 -6.8573 11.1557 1.8292 16.1590 20.3027
# 2 -6.8573 88.3436 33.8472 1.4923 -1.3411 22.7589
# 3 11.1557 33.8472 146.2277 1.9136 22.0285 23.0492
# 4 1.8292 1.4923 1.9136 39.2264 5.1330 -2.8181
# 5 16.1590 -1.3411 22.0285 5.1330 35.5194 0.5995
# 6 20.3027 22.7589 23.0492 -2.8181 0.5995 42.4162
#
#
#
# Elastic Compliance Matrix: (Units=1/GPa)
#
#
# Indices 1 2 3 4 5 6 
#
# 1 0.026058 0.005567 0.001035 -0.001069 -0.011863 -0.015926
# 2 0.005567 0.015159 -0.002385 -0.001394 -0.000117 -0.009593
# 3 0.001035 -0.002385 0.008831 0.000113 -0.005988 -0.003922
# 4 -0.001069 -0.001394 0.000113 0.026261 -0.003482 0.002992
# 5 -0.011863 -0.000117 -0.005988 -0.003482 0.037624 0.008232
# 6 -0.015926 -0.009593 -0.003922 0.002992 0.008232 0.038559
#
#
# Mechanical properties :
#
#
# Convention : Reuss Voigt Hill
#
# Bulk Modulus (GPa) = 17.09994 41.12218 29.11106
# Shear Modulus (GPa) = 30.57130 40.47658 35.52394
#
# Velocity S-wave (km/s) = 3.69516 4.25185 3.98324
# Velocity P-wave (km/s) = 5.08361 6.51697 5.84440
#
# Compressibility (1/GPa) = 0.05847972
#
# Stress axis : x y z
#
# Youngs Moduli (GPa) = 38.37571 65.96954 113.24333
#
# Poissons Ratio (x) = -0.36724 -0.11719
# Poissons Ratio (y) = -0.21363 0.27013
# Poissons Ratio (z) = -0.03971 0.15737
#
# Static dielectric constant tensor:
#      x y z
#    x 2.822400 -0.140970 -0.011540 
#    y -0.140970 4.170080 0.097160 
#    z -0.011540 0.097160 4.057650 
# 
# 
# High freq. dielectric constant tensor:
#      x y z
#    x 1.887710 0.003130 0.010660 
#    y 0.003130 1.899960 0.001940 
#    z 0.010660 0.001940 1.891240 
# 
# From -- ./inp_files/143911.got.cif
#   From: 2010.06.25/outbox.cif.g09.slc.cpg/sg2_72_cif.got.tgz:143911.got - 2010.06.27 13:26:56.
