data_PCOD8027417
_publ_section_title
;
Structure prediction by ZEFSAII (Michael W. Deem and Ramdas Pophale) SiO2 
 PCOD8027417
Probable space group: P -1
;
_chemical_formula_sum "Si O2"
_cell_formula_units_Z 16
_cell_length_a 15.823142
_cell_length_b 8.723650
_cell_length_c 18.603591
_cell_angle_alpha 130.317144
_cell_angle_beta 23.615223
_cell_angle_gamma 133.246963
_cell_volume 747.683316
_symmetry_space_group_name_H-M "P -1"
_symmetry_group_IT_number 2
_symmetry_cell_setting 'triclinic'
loop_
_space_group_symop_operation_xyz
x,y,z
-x,-y,-z
loop_
_atom_site_type_symbol
_atom_site_label
_atom_site_fract_x
_atom_site_fract_y
_atom_site_fract_z
Si Si1 0.698793 0.216408 0.421078
Si Si2 0.392921 0.686170 0.320685
Si Si3 0.448596 0.950323 0.911807
Si Si4 0.100333 0.214817 0.026763
Si Si5 0.782078 0.023260 0.552146
Si Si6 0.711770 0.785646 0.774439
Si Si7 0.576311 0.543162 0.534225
Si Si8 0.175436 0.536942 0.938053
O O1 0.674256 0.329818 0.548505
O O2 0.707259 0.378200 0.398523
O O3 0.945522 0.196702 0.212911
O O4 0.500000 0.000000 0.500000
O O5 0.265403 0.840092 0.434600
O O6 0.309660 0.460038 0.278568
O O7 0.656433 0.772247 0.130727
O O8 0.552626 0.822381 0.847740
O O9 0.241071 0.782361 0.984285
O O10 0.636312 0.062803 0.743225
O O11 0.364110 0.133175 0.067551
O O12 0.098355 0.399294 0.027902
O O13 0.000000 0.000000 0.000000
O O14 0.034387 0.090514 0.401529
O O15 0.725487 0.782628 0.498542
O O16 0.500000 0.500000 0.500000
O O17 0.382867 0.484180 0.725904
O O18 0.000000 0.500000 0.000000
#
# Coordination Sequence:
#
# PCOD8027417 Si02
#       8
#     2   2   2   2   2   2   2   2
#     4  12  24  44  69  98 138 180 226 276 349 410
#     4  12  25  46  64 103 138 178 233 278 342 417
#     4  10  24  45  68 103 132 175 235 283 335 410
#     4  12  25  42  69  97 140 183 215 280 344 408
#     4  11  26  42  70  97 136 181 230 282 342 403
#     4  11  24  46  71  93 141 179 234 283 336 408
#     4  11  23  41  66 103 138 175 232 282 334 417
#     4  11  23  42  67 103 140 170 225 283 343 404
#
# _framework density 21.399432999999998
#
# number of rings (size 3 to 8) (size 9 to 14) (size 15 to 20)
#    0.000    0.750    3.750    3.000    7.000    2.500 
#    0.000    0.000    0.000    0.000    0.000    0.000 
#    0.000    0.000    0.000    0.000    0.000    0.000 
#
# Total GULP energy -198406.196297 kJ/mol
# GULP energy per Si atom -12400.387269 kJ/mol
# Density = 2.135073 g / cm^3
# Si number density = 21.399433 Si / 1000 Ang^3
#
#
#
# Elastic Constant Matrix: (Units=GPa)
#
#
# Indices 1 2 3 4 5 6 
#
# 1 80.2352 36.8494 29.9485 3.4689 4.3440 13.9205
# 2 36.8494 141.6183 57.6633 4.7910 3.1252 19.0258
# 3 29.9485 57.6633 122.0239 -10.1957 14.6233 20.9094
# 4 3.4689 4.7910 -10.1957 36.1085 1.7355 -4.1396
# 5 4.3440 3.1252 14.6233 1.7355 39.9707 1.5985
# 6 13.9205 19.0258 20.9094 -4.1396 1.5985 41.2734
#
#
#
# Elastic Compliance Matrix: (Units=1/GPa)
#
#
# Indices 1 2 3 4 5 6 
#
# 1 0.015062 -0.002594 -0.002064 -0.002009 -0.000471 -0.003022
# 2 -0.002594 0.009648 -0.003943 -0.002413 0.001149 -0.001862
# 3 -0.002064 -0.003943 0.011861 0.003918 -0.003859 -0.002953
# 4 -0.002009 -0.002413 0.003918 0.029761 -0.002434 0.002885
# 5 -0.000471 0.001149 -0.003859 -0.002434 0.026484 0.000314
# 6 -0.003022 -0.001862 -0.002953 0.002885 0.000314 0.027879
#
#
# Mechanical properties :
#
#
# Convention : Reuss Voigt Hill
#
# Bulk Modulus (GPa) = 51.63292 65.86663 58.74977
# Shear Modulus (GPa) = 34.63695 38.09827 36.36761
#
# Velocity S-wave (km/s) = 4.02754 4.22399 4.12693
# Velocity P-wave (km/s) = 6.76821 7.39161 7.08676
#
# Compressibility (1/GPa) = 0.01936749
#
# Stress axis : x y z
#
# Youngs Moduli (GPa) = 66.39227 103.64771 84.31184
#
# Poissons Ratio (x) = 0.26889 0.17406
# Poissons Ratio (y) = 0.17224 0.33243
# Poissons Ratio (z) = 0.13707 0.40867
#
# Static dielectric constant tensor:
#      x y z
#    x 3.713930 0.307940 -0.117190 
#    y 0.307940 3.044100 0.928500 
#    z -0.117190 0.928500 3.178860 
# 
# 
# High freq. dielectric constant tensor:
#      x y z
#    x 1.837110 0.005880 0.004550 
#    y 0.005880 1.847170 0.000900 
#    z 0.004550 0.000900 1.856090 
# 
# From -- ./inp_files/272656.got.cif
#   From: 2010.06.25/outbox.cif.g09.slc.cpg/sg2_137_cif.got.tgz:272656.got - 2010.06.27 13:26:56.
