data_PCOD8027922
_publ_section_title
;
Structure prediction by ZEFSAII (Michael W. Deem and Ramdas Pophale) SiO2 
 PCOD8027922
Probable space group: P -1
;
_chemical_formula_sum "Si O2"
_cell_formula_units_Z 14
_cell_length_a 18.335327
_cell_length_b 13.657113
_cell_length_c 9.365351
_cell_angle_alpha 28.290190
_cell_angle_beta 44.676683
_cell_angle_gamma 34.553340
_cell_volume 629.515713
_symmetry_space_group_name_H-M "P -1"
_symmetry_group_IT_number 2
_symmetry_cell_setting 'triclinic'
loop_
_space_group_symop_operation_xyz
x,y,z
-x,-y,-z
loop_
_atom_site_type_symbol
_atom_site_label
_atom_site_fract_x
_atom_site_fract_y
_atom_site_fract_z
Si Si1 0.450227 0.916655 0.301992
Si Si2 0.727057 0.248605 0.230873
Si Si3 0.034034 0.394702 0.925209
Si Si4 0.623683 0.453824 0.819453
Si Si5 0.231904 0.475497 0.948130
Si Si6 0.194414 0.846677 0.286917
Si Si7 0.007347 0.861554 0.310155
O O1 0.392397 0.757399 0.546900
O O2 0.573959 0.734178 0.467754
O O3 0.500000 0.000000 0.000000
O O4 0.330031 0.170313 0.214558
O O5 0.729042 0.449602 0.062671
O O6 0.862591 0.971710 0.419864
O O7 0.724732 0.343117 0.950316
O O8 0.077206 0.557599 0.578764
O O9 0.000000 0.500000 0.000000
O O10 0.912724 0.438650 0.957168
O O11 0.152443 0.092835 0.126780
O O12 0.690118 0.240948 0.872961
O O13 0.500000 0.500000 0.000000
O O14 0.249784 0.600080 0.625811
O O15 0.071800 0.909939 0.287953
O O16 0.000000 0.000000 0.000000
#
# Coordination Sequence:
#
# PCOD8027922 Si02
#       7
#     2   2   2   2   2   2   2
#     4  11  24  46  73  98 137 190 243 286 348 418
#     4  11  24  45  70 101 145 179 233 300 348 419
#     4  12  25  43  72 107 144 186 231 292 359 423
#     4  10  24  49  68  98 143 185 233 294 341 419
#     4  12  24  42  73 107 137 186 240 292 355 417
#     4  12  24  44  74 106 142 182 237 288 363 423
#     4  12  24  43  69 107 145 177 229 296 357 427
#
# _framework density 22.239318000000001
#
# number of rings (size 3 to 8) (size 9 to 14) (size 15 to 20)
#    0.000    0.571    7.143    1.286    0.000    1.714 
#    5.143    0.000    0.000    0.000    0.000    0.000 
#    0.000    0.000    0.000    0.000    0.000    0.000 
#
# Total GULP energy -173465.985330 kJ/mol
# GULP energy per Si atom -12390.427524 kJ/mol
# Density = 2.218870 g / cm^3
# Si number density = 22.239318 Si / 1000 Ang^3
#
#
#
# Elastic Constant Matrix: (Units=GPa)
#
#
# Indices 1 2 3 4 5 6 
#
# 1 83.3365 42.7883 37.6172 -15.2390 5.0035 14.7901
# 2 42.7883 126.2018 44.2849 -9.7466 4.7094 3.9082
# 3 37.6172 44.2849 135.8977 -6.4138 7.6516 11.9453
# 4 -15.2390 -9.7466 -6.4138 38.1562 -1.8359 3.5833
# 5 5.0035 4.7094 7.6516 -1.8359 38.2059 -1.3794
# 6 14.7901 3.9082 11.9453 3.5833 -1.3794 40.2755
#
#
#
# Elastic Compliance Matrix: (Units=1/GPa)
#
#
# Indices 1 2 3 4 5 6 
#
# 1 0.017617 -0.004379 -0.002587 0.005975 -0.001173 -0.005849
# 2 -0.004379 0.010171 -0.002183 0.000358 -0.000181 0.001231
# 3 -0.002587 -0.002183 0.008993 0.000006 -0.001249 -0.001548
# 4 0.005975 0.000358 0.000006 0.029158 0.000400 -0.004811
# 5 -0.001173 -0.000181 -0.001249 0.000400 0.026681 0.001697
# 6 -0.005849 0.001231 -0.001548 -0.004811 0.001697 0.027803
#
#
# Mechanical properties :
#
#
# Convention : Reuss Voigt Hill
#
# Bulk Modulus (GPa) = 54.10759 66.09077 60.09918
# Shear Modulus (GPa) = 34.51104 38.04389 36.27746
#
# Velocity S-wave (km/s) = 3.94357 4.14050 4.04323
# Velocity P-wave (km/s) = 6.71700 7.25540 6.99139
#
# Compressibility (1/GPa) = 0.01848170
#
# Stress axis : x y z
#
# Youngs Moduli (GPa) = 56.76422 98.32032 111.19914
#
# Poissons Ratio (x) = 0.43050 0.28772
# Poissons Ratio (y) = 0.24855 0.24279
# Poissons Ratio (z) = 0.14687 0.21467
#
# Static dielectric constant tensor:
#      x y z
#    x 4.988320 -0.179340 1.059190 
#    y -0.179340 4.238140 -0.274220 
#    z 1.059190 -0.274220 5.062960 
# 
# 
# High freq. dielectric constant tensor:
#      x y z
#    x 1.872460 -0.012460 0.019180 
#    y -0.012460 1.876310 -0.004120 
#    z 0.019180 -0.004120 1.884800 
# 
# From -- ./inp_files/72507.got.cif
#   From: 2010.06.25/outbox.cif.g09.slc.cpg/sg2_37_cif.got.tgz:72507.got - 2010.06.27 13:26:56.
