data_PCOD8027049
_publ_section_title
;
Structure prediction by ZEFSAII (Michael W. Deem and Ramdas Pophale) SiO2 
 PCOD8027049
Probable space group: P -1
;
_chemical_formula_sum "Si O2"
_cell_formula_units_Z 16
_cell_length_a 12.019265
_cell_length_b 9.545962
_cell_length_c 9.163798
_cell_angle_alpha 77.991076
_cell_angle_beta 53.060845
_cell_angle_gamma 62.979636
_cell_volume 745.514642
_symmetry_space_group_name_H-M "P -1"
_symmetry_group_IT_number 2
_symmetry_cell_setting 'triclinic'
loop_
_space_group_symop_operation_xyz
x,y,z
-x,-y,-z
loop_
_atom_site_type_symbol
_atom_site_label
_atom_site_fract_x
_atom_site_fract_y
_atom_site_fract_z
Si Si1 0.288538 0.467869 0.648028
Si Si2 0.151931 0.970468 0.975700
Si Si3 0.362220 0.746443 0.629373
Si Si4 0.374661 0.959677 0.318194
Si Si5 0.844781 0.107762 0.683030
Si Si6 0.800664 0.706122 0.699579
Si Si7 0.148595 0.581409 0.438710
Si Si8 0.265358 0.221379 0.930247
O O1 0.281025 0.631156 0.683087
O O2 0.456459 0.355477 0.479579
O O3 0.170798 0.507174 0.598714
O O4 0.233361 0.380699 0.832747
O O5 0.299108 0.834304 0.812474
O O6 0.178642 0.129380 0.936909
O O7 0.126177 0.910720 0.165010
O O8 0.000000 0.000000 0.000000
O O9 0.320910 0.882866 0.510259
O O10 0.293690 0.938753 0.238474
O O11 0.555187 0.887244 0.175495
O O12 0.315337 0.148026 0.338078
O O13 0.780075 0.291847 0.652239
O O14 0.000000 0.000000 0.500000
O O15 0.766528 0.555995 0.717319
O O16 0.970383 0.672275 0.518577
O O17 0.796401 0.731728 0.869408
#
# Coordination Sequence:
#
# PCOD8027049 Si02
#       8
#     2   2   2   2   2   2   2   2
#     4  10  24  44  67  93 143 173 214 280 333 400
#     4  12  28  42  70 101 132 176 231 277 331 407
#     4  10  24  44  66 101 130 179 222 268 340 394
#     4  11  22  44  74  91 137 177 226 276 330 400
#     4  12  23  45  70  97 134 181 224 278 332 395
#     4  11  25  42  66 100 133 170 229 280 333 395
#     4  11  25  41  68  97 131 181 219 271 342 395
#     4  11  26  44  66 102 133 180 220 284 338 386
#
# _framework density 21.461684000000002
#
# number of rings (size 3 to 8) (size 9 to 14) (size 15 to 20)
#    0.000    1.000    3.750    1.125    7.000    2.500 
#    0.000    1.250    0.000    0.000    0.000    0.000 
#    0.000    0.000    0.000    0.000    0.000    0.000 
#
# Total GULP energy -198452.427673 kJ/mol
# GULP energy per Si atom -12403.276730 kJ/mol
# Density = 2.141284 g / cm^3
# Si number density = 21.461684 Si / 1000 Ang^3
#
#
#
# Elastic Constant Matrix: (Units=GPa)
#
#
# Indices 1 2 3 4 5 6 
#
# 1 98.7270 43.2696 27.9879 -5.1376 6.7532 4.9230
# 2 43.2696 149.1514 62.6759 0.8996 9.1608 18.0785
# 3 27.9879 62.6759 114.2480 1.7175 19.4191 10.5012
# 4 -5.1376 0.8996 1.7175 29.0514 2.8491 7.6508
# 5 6.7532 9.1608 19.4191 2.8491 30.9105 -2.8328
# 6 4.9230 18.0785 10.5012 7.6508 -2.8328 39.6074
#
#
#
# Elastic Compliance Matrix: (Units=1/GPa)
#
#
# Indices 1 2 3 4 5 6 
#
# 1 0.011951 -0.002874 -0.001121 0.002520 -0.001329 -0.000458
# 2 -0.002874 0.009731 -0.004405 0.000203 0.000223 -0.002940
# 3 -0.001121 -0.004405 0.012729 0.000299 -0.006635 -0.001757
# 4 0.002520 0.000203 0.000299 0.037460 -0.004992 -0.008078
# 5 -0.001329 0.000223 -0.006635 -0.004992 0.037707 0.005484
# 6 -0.000458 -0.002940 -0.001757 -0.008078 0.005484 0.029065
#
#
# Mechanical properties :
#
#
# Convention : Reuss Voigt Hill
#
# Bulk Modulus (GPa) = 56.78278 69.99924 63.39101
# Shear Modulus (GPa) = 30.99561 35.12674 33.06118
#
# Velocity S-wave (km/s) = 3.80443 4.05003 3.92915
# Velocity P-wave (km/s) = 6.76856 7.38627 7.08415
#
# Compressibility (1/GPa) = 0.01761097
#
# Stress axis : x y z
#
# Youngs Moduli (GPa) = 83.67317 102.76614 78.56201
#
# Poissons Ratio (x) = 0.29536 0.08805
# Poissons Ratio (y) = 0.24049 0.34607
# Poissons Ratio (z) = 0.09378 0.45268
#
# Static dielectric constant tensor:
#      x y z
#    x 3.899180 0.086740 0.131740 
#    y 0.086740 4.259630 -0.014030 
#    z 0.131740 -0.014030 3.863050 
# 
# 
# High freq. dielectric constant tensor:
#      x y z
#    x 1.846100 0.002560 0.004770 
#    y 0.002560 1.862610 -0.001530 
#    z 0.004770 -0.001530 1.833630 
# 
# From -- ./inp_files/223227.got.cif
#   From: 2010.06.25/outbox.cif.g09.slc.cpg/sg2_112_cif.got.tgz:223227.got - 2010.06.27 13:26:56.
