data_PCOD8027926
_publ_section_title
;
Structure prediction by ZEFSAII (Michael W. Deem and Ramdas Pophale) SiO2 
 PCOD8027926
Probable space group: P -1
;
_chemical_formula_sum "Si O2"
_cell_formula_units_Z 12
_cell_length_a 5.112548
_cell_length_b 14.141592
_cell_length_c 11.405600
_cell_angle_alpha 49.378268
_cell_angle_beta 131.603013
_cell_angle_gamma 117.571261
_cell_volume 467.350650
_symmetry_space_group_name_H-M "P -1"
_symmetry_group_IT_number 2
_symmetry_cell_setting 'triclinic'
loop_
_space_group_symop_operation_xyz
x,y,z
-x,-y,-z
loop_
_atom_site_type_symbol
_atom_site_label
_atom_site_fract_x
_atom_site_fract_y
_atom_site_fract_z
Si Si1 0.348230 0.049860 0.130038
Si Si2 0.261255 0.378741 0.508847
Si Si3 0.262960 0.446905 0.869023
Si Si4 0.405123 0.707520 0.106472
Si Si5 0.461927 0.135450 0.333556
Si Si6 0.250142 0.188276 0.473710
O O1 0.237720 0.125159 0.154133
O O2 0.593447 0.939421 0.330649
O O3 0.589100 0.145870 0.045158
O O4 0.000000 0.000000 0.000000
O O5 0.500000 0.500000 0.500000
O O6 0.285538 0.295953 0.700314
O O7 0.416097 0.303421 0.505527
O O8 0.878804 0.429131 0.333246
O O9 0.504783 0.378357 0.906120
O O10 0.967887 0.344842 0.911455
O O11 0.500000 0.500000 0.000000
O O12 0.293076 0.212529 0.327043
O O13 0.842453 0.195492 0.371730
O O14 0.500000 0.000000 0.500000
#
# Coordination Sequence:
#
# PCOD8027926 Si02
#       6
#     2   2   2   2   2   2
#     4  11  27  48  77 114 156 193 251 313 376 449
#     4  10  26  50  77 107 152 196 252 304 373 449
#     4  11  26  52  77 110 146 198 255 313 371 440
#     4  11  27  48  76 110 154 193 250 311 376 450
#     4  10  24  49  70 105 148 196 247 296 369 444
#     4  11  26  49  76 105 150 203 241 307 375 439
#
# _framework density 25.676653000000002
#
# number of rings (size 3 to 8) (size 9 to 14) (size 15 to 20)
#    0.000    1.333    0.000    3.000   11.667    7.333 
#    0.000    0.000    0.000    0.000    0.000    0.000 
#    0.000    0.000    0.000    0.000    0.000    0.000 
#
# Total GULP energy -148721.613910 kJ/mol
# GULP energy per Si atom -12393.467826 kJ/mol
# Density = 2.561821 g / cm^3
# Si number density = 25.676653 Si / 1000 Ang^3
#
#
#
# Elastic Constant Matrix: (Units=GPa)
#
#
# Indices 1 2 3 4 5 6 
#
# 1 134.7453 55.8738 8.1701 11.9498 -16.8246 -9.7762
# 2 55.8738 153.7850 57.4735 23.1971 -17.4294 -23.7020
# 3 8.1701 57.4735 104.0196 16.8040 -12.5194 4.7189
# 4 11.9498 23.1971 16.8040 50.1446 -4.9416 -2.3380
# 5 -16.8246 -17.4294 -12.5194 -4.9416 36.7461 2.8279
# 6 -9.7762 -23.7020 4.7189 -2.3380 2.8279 45.0160
#
#
#
# Elastic Compliance Matrix: (Units=1/GPa)
#
#
# Indices 1 2 3 4 5 6 
#
# 1 0.009237 -0.003596 0.001778 -0.000849 0.003039 -0.000309
# 2 -0.003596 0.011230 -0.005718 -0.002062 0.001027 0.005560
# 3 0.001778 -0.005718 0.013522 -0.002242 0.002741 -0.004331
# 4 -0.000849 -0.002062 -0.002242 0.021932 0.000815 0.000053
# 5 0.003039 0.001027 0.002741 0.000815 0.030208 -0.000942
# 6 -0.000309 0.005560 -0.004331 0.000053 -0.000942 0.025591
#
#
# Mechanical properties :
#
#
# Convention : Reuss Voigt Hill
#
# Bulk Modulus (GPa) = 52.86109 70.62054 61.74082
# Shear Modulus (GPa) = 37.56645 44.45019 41.00832
#
# Velocity S-wave (km/s) = 3.82914 4.16523 4.00072
# Velocity P-wave (km/s) = 6.33890 7.12009 6.74082
#
# Compressibility (1/GPa) = 0.01891751
#
# Stress axis : x y z
#
# Youngs Moduli (GPa) = 108.26143 89.04485 73.95476
#
# Poissons Ratio (x) = 0.32017 -0.13149
# Poissons Ratio (y) = 0.38926 0.42289
# Poissons Ratio (z) = -0.19249 0.50917
#
# Static dielectric constant tensor:
#      x y z
#    x 4.793080 -0.225840 -0.632470 
#    y -0.225840 5.041890 0.759620 
#    z -0.632470 0.759620 10.366960 
# 
# 
# High freq. dielectric constant tensor:
#      x y z
#    x 2.019130 -0.010770 -0.007770 
#    y -0.010770 2.044640 0.004120 
#    z -0.007770 0.004120 2.046020 
# 
# From -- ./inp_files/365624.got.cif
#   From: 2010.06.25/outbox.cif.g09.slc.cpg/sg2_183_cif.got.tgz:365624.got - 2010.06.27 13:26:56.
