data_PCOD8027269
_publ_section_title
;
Structure prediction by ZEFSAII (Michael W. Deem and Ramdas Pophale) SiO2 
 PCOD8027269
Probable space group: P -1
;
_chemical_formula_sum "Si O2"
_cell_formula_units_Z 12
_cell_length_a 21.199701
_cell_length_b 14.752333
_cell_length_c 6.591161
_cell_angle_alpha 66.032542
_cell_angle_beta 56.146467
_cell_angle_gamma 19.884895
_cell_volume 529.364500
_symmetry_space_group_name_H-M "P -1"
_symmetry_group_IT_number 2
_symmetry_cell_setting 'triclinic'
loop_
_space_group_symop_operation_xyz
x,y,z
-x,-y,-z
loop_
_atom_site_type_symbol
_atom_site_label
_atom_site_fract_x
_atom_site_fract_y
_atom_site_fract_z
Si Si1 0.134056 0.640710 0.858007
Si Si2 0.815655 0.010440 0.427759
Si Si3 0.184400 0.164948 0.109470
Si Si4 0.816923 0.140250 0.686642
Si Si5 0.470809 0.703864 0.683710
Si Si6 0.725177 0.736493 0.216497
O O1 0.326345 0.482046 0.607262
O O2 0.226574 0.416835 0.869411
O O3 0.904803 0.943369 0.855454
O O4 0.059285 0.734135 0.141740
O O5 0.784121 0.140150 0.518173
O O6 0.636780 0.224539 0.373576
O O7 0.791749 0.935009 0.650993
O O8 0.921598 0.504767 0.239474
O O9 0.290664 0.141842 0.995692
O O10 0.301950 0.980426 0.860206
O O11 0.577709 0.490055 0.843306
O O12 0.000000 0.000000 0.500000
O O13 0.500000 0.000000 0.500000
#
# Coordination Sequence:
#
# PCOD8027269 Si02
#       6
#     2   2   2   2   2   2
#     4  11  24  45  68 102 137 180 228 273 335 398
#     4  12  24  43  67 106 138 168 230 282 333 402
#     4  11  25  43  70 101 134 176 227 276 339 396
#     4  10  24  44  71  96 140 182 222 273 340 400
#     4  11  24  43  70 102 134 180 225 276 337 399
#     4  11  22  46  74  91 135 185 222 274 336 401
#
# _framework density 22.668692
#
# number of rings (size 3 to 8) (size 9 to 14) (size 15 to 20)
#    0.000    1.000    5.000    0.500    0.000   11.333 
#    0.000    1.667    0.000    0.000    0.000    0.000 
#    0.000    0.000    0.000    0.000    0.000    0.000 
#
# Total GULP energy -148707.490785 kJ/mol
# GULP energy per Si atom -12392.290899 kJ/mol
# Density = 2.261710 g / cm^3
# Si number density = 22.668692 Si / 1000 Ang^3
#
#
#
# Elastic Constant Matrix: (Units=GPa)
#
#
# Indices 1 2 3 4 5 6 
#
# 1 127.3484 45.5142 34.7570 -6.7556 -5.6747 16.3537
# 2 45.5142 109.2315 48.5638 14.0675 -2.9361 14.0833
# 3 34.7570 48.5638 125.7850 2.2120 -11.5799 6.9517
# 4 -6.7556 14.0675 2.2120 30.6518 6.5337 -0.4609
# 5 -5.6747 -2.9361 -11.5799 6.5337 37.1711 -1.5284
# 6 16.3537 14.0833 6.9517 -0.4609 -1.5284 38.1115
#
#
#
# Elastic Compliance Matrix: (Units=1/GPa)
#
#
# Indices 1 2 3 4 5 6 
#
# 1 0.010119 -0.003846 -0.001232 0.004036 0.000039 -0.002646
# 2 -0.003846 0.013786 -0.003946 -0.007015 0.000391 -0.002793
# 3 -0.001232 -0.003946 0.010033 0.000267 0.002590 0.000264
# 4 0.004036 -0.007015 0.000267 0.038118 -0.006513 0.001011
# 5 0.000039 0.000391 0.002590 -0.006513 0.028909 0.000447
# 6 -0.002646 -0.002793 0.000264 0.001011 0.000447 0.028388
#
#
# Mechanical properties :
#
#
# Convention : Reuss Voigt Hill
#
# Bulk Modulus (GPa) = 62.93615 68.89278 65.91446
# Shear Modulus (GPa) = 32.74404 36.75552 34.74978
#
# Velocity S-wave (km/s) = 3.80473 4.03106 3.91953
# Velocity P-wave (km/s) = 6.86477 7.21963 7.04443
#
# Compressibility (1/GPa) = 0.01588912
#
# Stress axis : x y z
#
# Youngs Moduli (GPa) = 98.82386 72.53744 99.66859
#
# Poissons Ratio (x) = 0.27899 0.12283
# Poissons Ratio (y) = 0.38009 0.39330
# Poissons Ratio (z) = 0.12179 0.28624
#
# Static dielectric constant tensor:
#      x y z
#    x 4.447090 0.619660 0.133840 
#    y 0.619660 5.042520 0.763050 
#    z 0.133840 0.763050 5.263960 
# 
# 
# High freq. dielectric constant tensor:
#      x y z
#    x 1.902370 0.015310 -0.030730 
#    y 0.015310 1.900210 0.013680 
#    z -0.030730 0.013680 1.902280 
# 
# From -- ./inp_files/41496.got.cif
#   From: 2010.06.25/outbox.cif.g09.slc.cpg/sg2_21_cif.got.tgz:41496.got - 2010.06.27 13:26:56.
