data_PCOD8027233
_publ_section_title
;
Structure prediction by ZEFSAII (Michael W. Deem and Ramdas Pophale) SiO2 
 PCOD8027233
Probable space group: P -1
;
_chemical_formula_sum "Si O2"
_cell_formula_units_Z 16
_cell_length_a 11.361370
_cell_length_b 12.305571
_cell_length_c 12.334066
_cell_angle_alpha 144.568204
_cell_angle_beta 106.414205
_cell_angle_gamma 99.065351
_cell_volume 687.296020
_symmetry_space_group_name_H-M "P -1"
_symmetry_group_IT_number 2
_symmetry_cell_setting 'triclinic'
loop_
_space_group_symop_operation_xyz
x,y,z
-x,-y,-z
loop_
_atom_site_type_symbol
_atom_site_label
_atom_site_fract_x
_atom_site_fract_y
_atom_site_fract_z
Si Si1 0.656626 0.250456 0.810562
Si Si2 0.305755 0.464517 0.751775
Si Si3 0.087887 0.961625 0.763108
Si Si4 0.896415 0.160919 0.094998
Si Si5 0.111036 0.378642 0.019563
Si Si6 0.195468 0.685715 0.493601
Si Si7 0.770908 0.992215 0.699049
Si Si8 0.438355 0.942973 0.056960
O O1 0.500000 0.000000 0.500000
O O2 0.698606 0.124659 0.802744
O O3 0.625599 0.394778 0.997777
O O4 0.804880 0.472425 0.949322
O O5 0.365590 0.312150 0.620896
O O6 0.100396 0.258766 0.517506
O O7 0.392914 0.682884 0.862284
O O8 0.086829 0.954927 0.890156
O O9 0.201506 0.914107 0.704894
O O10 0.178487 0.252094 0.984076
O O11 0.071663 0.468684 0.379989
O O12 0.723480 0.096626 0.005303
O O13 0.868119 0.023179 0.859903
O O14 0.121755 0.562054 0.256152
O O15 0.906885 0.141521 0.756028
O O16 0.388021 0.805125 0.632015
O O17 0.500000 0.000000 0.000000
#
# Coordination Sequence:
#
# PCOD8027233 Si02
#       8
#     2   2   2   2   2   2   2   2
#     4  12  25  46  68  91 140 174 226 292 333 393
#     4  11  24  43  69 101 133 177 228 275 341 401
#     4  11  22  42  68  99 138 175 218 279 332 404
#     4  11  22  45  67 100 145 177 218 275 337 404
#     4  10  25  41  68  99 126 177 233 273 338 401
#     4  11  22  40  66  94 139 179 221 276 331 397
#     4  10  24  44  70  98 132 177 225 281 335 399
#     4  12  22  38  67 100 135 184 221 266 337 403
#
# _framework density 23.279634000000001
#
# number of rings (size 3 to 8) (size 9 to 14) (size 15 to 20)
#    0.000    1.000    3.750    3.000    0.000   10.000 
#    0.000    1.250    0.000    0.000    0.000    0.000 
#    0.000    0.000    0.000    0.000    0.000    0.000 
#
# Total GULP energy -198216.068460 kJ/mol
# GULP energy per Si atom -12388.504279 kJ/mol
# Density = 2.322665 g / cm^3
# Si number density = 23.279634 Si / 1000 Ang^3
#
#
#
# Elastic Constant Matrix: (Units=GPa)
#
#
# Indices 1 2 3 4 5 6 
#
# 1 50.5762 16.9290 26.4747 16.2278 -4.3010 -4.8301
# 2 16.9290 109.2031 31.9713 1.6182 -19.7923 -0.9871
# 3 26.4747 31.9713 110.9202 2.6058 -9.5995 -1.9252
# 4 16.2278 1.6182 2.6058 28.8211 7.1633 2.9019
# 5 -4.3010 -19.7923 -9.5995 7.1633 48.6186 -0.0164
# 6 -4.8301 -0.9871 -1.9252 2.9019 -0.0164 30.1730
#
#
#
# Elastic Compliance Matrix: (Units=1/GPa)
#
#
# Indices 1 2 3 4 5 6 
#
# 1 0.030014 -0.002051 -0.005767 -0.017692 0.003290 0.006073
# 2 -0.002051 0.010841 -0.002303 -0.000181 0.003804 -0.000101
# 3 -0.005767 -0.002303 0.011025 0.002336 0.000385 -0.000520
# 4 -0.017692 -0.000181 0.002336 0.047208 -0.008135 -0.007234
# 5 0.003290 0.003804 0.000385 -0.008135 0.023683 0.001471
# 6 0.006073 -0.000101 -0.000520 -0.007234 0.001471 0.034774
#
#
# Mechanical properties :
#
#
# Convention : Reuss Voigt Hill
#
# Bulk Modulus (GPa) = 31.60845 46.82771 39.21808
# Shear Modulus (GPa) = 26.54869 34.54415 30.54642
#
# Velocity S-wave (km/s) = 3.38068 3.85629 3.62629
# Velocity P-wave (km/s) = 5.37084 6.32353 5.86655
#
# Compressibility (1/GPa) = 0.03163711
#
# Stress axis : x y z
#
# Youngs Moduli (GPa) = 33.31794 92.24466 90.70089
#
# Poissons Ratio (x) = 0.18920 0.52305
# Poissons Ratio (y) = 0.06834 0.20893
# Poissons Ratio (z) = 0.19214 0.21248
#
# Static dielectric constant tensor:
#      x y z
#    x 3.702180 -0.384900 0.021200 
#    y -0.384900 4.184490 0.173750 
#    z 0.021200 0.173750 4.042590 
# 
# 
# High freq. dielectric constant tensor:
#      x y z
#    x 1.914880 0.007480 -0.006860 
#    y 0.007480 1.922640 0.004240 
#    z -0.006860 0.004240 1.921860 
# 
# From -- ./inp_files/429104.got.cif
#   From: 2010.06.25/outbox.cif.g09.slc.cpg/sg2_215_cif.got.tgz:429104.got - 2010.06.27 13:26:56.
