data_PCOD8027007
_publ_section_title
;
Structure prediction by ZEFSAII (Michael W. Deem and Ramdas Pophale) SiO2 
 PCOD8027007
Probable space group: P -1
;
_chemical_formula_sum "Si O2"
_cell_formula_units_Z 16
_cell_length_a 16.134259
_cell_length_b 12.303512
_cell_length_c 15.221537
_cell_angle_alpha 139.691202
_cell_angle_beta 152.544074
_cell_angle_gamma 59.297096
_cell_volume 748.581295
_symmetry_space_group_name_H-M "P -1"
_symmetry_group_IT_number 2
_symmetry_cell_setting 'triclinic'
loop_
_space_group_symop_operation_xyz
x,y,z
-x,-y,-z
loop_
_atom_site_type_symbol
_atom_site_label
_atom_site_fract_x
_atom_site_fract_y
_atom_site_fract_z
Si Si1 0.858722 0.065624 0.358923
Si Si2 0.301345 0.637196 0.294536
Si Si3 0.118252 0.377763 0.642803
Si Si4 0.386508 0.075637 0.379873
Si Si5 0.178602 0.656414 0.381536
Si Si6 0.458706 0.462816 0.767844
Si Si7 0.538337 0.627615 0.758770
Si Si8 0.001638 0.307621 0.299215
O O1 0.757734 0.139447 0.381971
O O2 0.982352 0.242844 0.514106
O O3 0.000000 0.000000 0.500000
O O4 0.673619 0.866126 0.009845
O O5 0.472630 0.830470 0.518193
O O6 0.258115 0.714731 0.391592
O O7 0.391270 0.495090 0.309998
O O8 0.077624 0.504132 0.948830
O O9 0.117390 0.578038 0.756502
O O10 0.017308 0.252130 0.380758
O O11 0.368111 0.451682 0.937184
O O12 0.372190 0.234875 0.521528
O O13 0.500000 0.000000 0.500000
O O14 0.140759 0.901456 0.016027
O O15 0.288392 0.546555 0.457852
O O16 0.578453 0.605303 0.884592
O O17 0.247824 0.459906 0.592164
#
# Coordination Sequence:
#
# PCOD8027007 Si02
#       8
#     2   2   2   2   2   2   2   2
#     4  12  22  43  66  97 134 168 212 267 330 387
#     4  10  24  44  63  94 135 164 216 274 324 382
#     4  11  24  45  66  92 139 167 215 277 318 383
#     4  11  23  43  66  92 131 167 214 273 319 380
#     4  11  23  42  66  95 128 175 213 262 329 395
#     4  11  22  43  67  94 127 173 219 263 327 389
#     4  11  23  40  69  93 131 170 214 270 328 393
#     4  11  25  43  67  96 125 178 219 267 323 380
#
# _framework density 21.373761999999999
#
# number of rings (size 3 to 8) (size 9 to 14) (size 15 to 20)
#    0.000    1.000    3.750    3.000    3.500    0.000 
#    4.500    0.000    0.000    0.000    0.000    0.000 
#    0.000    0.000    0.000    0.000    0.000    0.000 
#
# Total GULP energy -198414.354170 kJ/mol
# GULP energy per Si atom -12400.897136 kJ/mol
# Density = 2.132511 g / cm^3
# Si number density = 21.373762 Si / 1000 Ang^3
#
#
#
# Elastic Constant Matrix: (Units=GPa)
#
#
# Indices 1 2 3 4 5 6 
#
# 1 80.3563 19.9227 16.9965 4.1212 0.9647 -0.2702
# 2 19.9227 88.2973 43.1420 -18.0783 -1.5841 1.5188
# 3 16.9965 43.1420 104.2885 -8.6411 0.8751 1.3609
# 4 4.1212 -18.0783 -8.6411 39.0421 -4.3610 2.6535
# 5 0.9647 -1.5841 0.8751 -4.3610 31.2292 -5.2438
# 6 -0.2702 1.5188 1.3609 2.6535 -5.2438 35.5338
#
#
#
# Elastic Compliance Matrix: (Units=1/GPa)
#
#
# Indices 1 2 3 4 5 6 
#
# 1 0.013673 -0.003218 -0.001170 -0.003325 -0.000951 0.000394
# 2 -0.003218 0.016264 -0.005640 0.006887 0.001921 -0.000735
# 3 -0.001170 -0.005640 0.012135 0.000151 -0.000625 -0.000336
# 4 -0.003325 0.006887 0.000151 0.029796 0.004287 -0.001918
# 5 -0.000951 0.001921 -0.000625 0.004287 0.033530 0.004563
# 6 0.000394 -0.000735 -0.000336 -0.001918 0.004563 0.029006
#
#
# Mechanical properties :
#
#
# Convention : Reuss Voigt Hill
#
# Bulk Modulus (GPa) = 45.42001 48.11828 46.76914
# Shear Modulus (GPa) = 30.90267 34.01975 32.46121
#
# Velocity S-wave (km/s) = 3.80652 3.99389 3.90133
# Velocity P-wave (km/s) = 6.37307 6.62041 6.49792
#
# Compressibility (1/GPa) = 0.02201673
#
# Stress axis : x y z
#
# Youngs Moduli (GPa) = 73.13585 61.48485 82.40957
#
# Poissons Ratio (x) = 0.19787 0.09640
# Poissons Ratio (y) = 0.23537 0.46475
# Poissons Ratio (z) = 0.08555 0.34675
#
# Static dielectric constant tensor:
#      x y z
#    x 3.988310 -0.195650 -0.152450 
#    y -0.195650 4.018600 -0.111250 
#    z -0.152450 -0.111250 4.009100 
# 
# 
# High freq. dielectric constant tensor:
#      x y z
#    x 1.835500 -0.001860 -0.002670 
#    y -0.001860 1.842870 -0.015990 
#    z -0.002670 -0.015990 1.844730 
# 
# From -- ./inp_files/400076.got.cif
#   From: 2010.06.25/outbox.cif.g09.slc.cpg/sg2_201_cif.got.tgz:400076.got - 2010.06.27 13:26:56.
