data_PCOD8027885
_publ_section_title
;
Structure prediction by ZEFSAII (Michael W. Deem and Ramdas Pophale) SiO2 
 PCOD8027885
Probable space group: P -1
;
_chemical_formula_sum "Si O2"
_cell_formula_units_Z 16
_cell_length_a 18.344144
_cell_length_b 16.101493
_cell_length_c 8.551730
_cell_angle_alpha 116.501772
_cell_angle_beta 127.745041
_cell_angle_gamma 23.120120
_cell_volume 726.713736
_symmetry_space_group_name_H-M "P -1"
_symmetry_group_IT_number 2
_symmetry_cell_setting 'triclinic'
loop_
_space_group_symop_operation_xyz
x,y,z
-x,-y,-z
loop_
_atom_site_type_symbol
_atom_site_label
_atom_site_fract_x
_atom_site_fract_y
_atom_site_fract_z
Si Si1 0.789619 0.211892 0.011855
Si Si2 0.525438 0.977388 0.264066
Si Si3 0.308398 0.892958 0.618357
Si Si4 0.677604 0.701128 0.969460
Si Si5 0.620130 0.178414 0.718482
Si Si6 0.160326 0.688924 0.564978
Si Si7 0.203809 0.179236 0.244718
Si Si8 0.382912 0.629108 0.614485
O O1 0.721361 0.171351 0.944137
O O2 0.571670 0.457662 0.851684
O O3 0.849887 0.225027 0.239691
O O4 0.000000 0.000000 0.000000
O O5 0.719249 0.828222 0.515409
O O6 0.407558 0.177484 0.204794
O O7 0.327870 0.098783 0.183977
O O8 0.654444 0.799443 0.154467
O O9 0.521106 0.756046 0.845112
O O10 0.321045 0.866235 0.426110
O O11 0.279163 0.825693 0.623217
O O12 0.071321 0.157824 0.587292
O O13 0.936207 0.430447 0.074422
O O14 0.349140 0.434142 0.603358
O O15 0.724937 0.991030 0.772628
O O16 0.197905 0.717941 0.482913
O O17 0.500000 0.500000 0.500000
#
# Coordination Sequence:
#
# PCOD8027885 Si02
#       8
#     2   2   2   2   2   2   2   2
#     4  11  22  40  65  92 133 181 228 277 332 398
#     4  10  24  48  71 105 134 180 222 273 361 409
#     4  12  24  41  65 100 136 176 228 285 336 395
#     4  11  25  45  72 106 138 173 227 284 341 412
#     4  11  23  42  65  99 134 179 227 280 340 395
#     4  11  24  44  66  93 141 183 228 281 333 403
#     4  11  24  46  75 101 139 176 225 282 344 412
#     4  11  21  40  64  93 131 181 227 273 338 393
#
# _framework density 22.016923999999999
#
# number of rings (size 3 to 8) (size 9 to 14) (size 15 to 20)
#    0.000    1.000    5.000    2.625    1.750    4.000 
#    9.000    0.000    0.000    0.000    0.000    0.000 
#    0.000    0.000    0.000    0.000    0.000    0.000 
#
# Total GULP energy -198311.255747 kJ/mol
# GULP energy per Si atom -12394.453484 kJ/mol
# Density = 2.196681 g / cm^3
# Si number density = 22.016924 Si / 1000 Ang^3
#
#
#
# Elastic Constant Matrix: (Units=GPa)
#
#
# Indices 1 2 3 4 5 6 
#
# 1 96.9856 48.2035 23.9758 -18.7077 0.3010 -4.5798
# 2 48.2035 126.7546 10.9196 -25.8086 5.3904 -9.7875
# 3 23.9758 10.9196 48.5397 -15.2501 9.0122 -7.7707
# 4 -18.7077 -25.8086 -15.2501 36.1742 -13.3884 3.5560
# 5 0.3010 5.3904 9.0122 -13.3884 26.6269 -4.4766
# 6 -4.5798 -9.7875 -7.7707 3.5560 -4.4766 45.3711
#
#
#
# Elastic Compliance Matrix: (Units=1/GPa)
#
#
# Indices 1 2 3 4 5 6 
#
# 1 0.014728 -0.004588 -0.006038 0.003501 0.004505 -0.000367
# 2 -0.004588 0.010849 0.001958 0.006254 0.000638 0.001785
# 3 -0.006038 0.001958 0.026963 0.007399 -0.005172 0.003341
# 4 0.003501 0.006254 0.007399 0.043711 0.018397 0.001359
# 5 0.004505 0.000638 -0.005172 0.018397 0.048896 0.003089
# 6 -0.000367 0.001785 0.003341 0.001359 0.003089 0.023159
#
#
# Mechanical properties :
#
#
# Convention : Reuss Voigt Hill
#
# Bulk Modulus (GPa) = 28.40530 48.71973 38.56251
# Shear Modulus (GPa) = 25.33232 34.24651 29.78942
#
# Velocity S-wave (km/s) = 3.39571 3.94821 3.68234
# Velocity P-wave (km/s) = 5.32015 6.55445 5.96929
#
# Compressibility (1/GPa) = 0.03520470
#
# Stress axis : x y z
#
# Youngs Moduli (GPa) = 67.89992 92.17180 37.08773
#
# Poissons Ratio (x) = 0.42285 0.22392
# Poissons Ratio (y) = 0.31150 -0.07260
# Poissons Ratio (z) = 0.40995 -0.18043
#
# Static dielectric constant tensor:
#      x y z
#    x 3.487180 -0.388840 0.379920 
#    y -0.388840 4.065130 0.053630 
#    z 0.379920 0.053630 3.748150 
# 
# 
# High freq. dielectric constant tensor:
#      x y z
#    x 1.869930 -0.010650 0.001300 
#    y -0.010650 1.881790 -0.004200 
#    z 0.001300 -0.004200 1.858700 
# 
# From -- ./inp_files/348533.got.cif
#   From: 2010.06.25/outbox.cif.g09.slc.cpg/sg2_175_cif.got.tgz:348533.got - 2010.06.27 13:26:56.
