data_PCOD8027556
_publ_section_title
;
Structure prediction by ZEFSAII (Michael W. Deem and Ramdas Pophale) SiO2 
 PCOD8027556
Probable space group: P -1
;
_chemical_formula_sum "Si O2"
_cell_formula_units_Z 12
_cell_length_a 9.196447
_cell_length_b 11.839197
_cell_length_c 12.662000
_cell_angle_alpha 42.257837
_cell_angle_beta 121.825294
_cell_angle_gamma 144.128563
_cell_volume 533.985528
_symmetry_space_group_name_H-M "P -1"
_symmetry_group_IT_number 2
_symmetry_cell_setting 'triclinic'
loop_
_space_group_symop_operation_xyz
x,y,z
-x,-y,-z
loop_
_atom_site_type_symbol
_atom_site_label
_atom_site_fract_x
_atom_site_fract_y
_atom_site_fract_z
Si Si1 0.207295 0.017587 0.043048
Si Si2 0.985384 0.686831 0.372949
Si Si3 0.974779 0.269553 0.256006
Si Si4 0.468554 0.462335 0.254975
Si Si5 0.692160 0.995783 0.541745
Si Si6 0.205217 0.796974 0.000258
O O1 0.203502 0.893149 0.228574
O O2 0.107071 0.854216 0.011800
O O3 0.472365 0.311783 0.932100
O O4 0.000000 0.000000 0.000000
O O5 0.000000 0.500000 0.500000
O O6 0.711377 0.574500 0.335269
O O7 0.053771 0.797509 0.438752
O O8 0.213033 0.313837 0.325762
O O9 0.064414 0.519174 0.151378
O O10 0.757122 0.053765 0.402322
O O11 0.848232 0.170824 0.159607
O O12 0.416765 0.268984 0.289912
O O13 0.500000 0.000000 0.500000
O O14 0.500000 0.000000 0.000000
#
# Coordination Sequence:
#
# PCOD8027556 Si02
#       6
#     2   2   2   2   2   2
#     4  10  24  45  72 104 138 183 238 289 350 418
#     4  11  24  46  72 105 140 186 234 288 359 412
#     4  11  27  45  69 107 139 187 242 284 358 424
#     4  11  25  47  67 107 138 189 237 290 356 410
#     4  12  27  44  69 101 146 187 235 296 350 423
#     4  11  24  46  72 100 143 184 232 294 355 414
#
# _framework density 22.472519999999999
#
# number of rings (size 3 to 8) (size 9 to 14) (size 15 to 20)
#    0.000    1.000    3.333    1.500    9.333    2.667 
#    0.000    0.000    0.000    0.000    0.000    0.000 
#    0.000    0.000    0.000    0.000    0.000    0.000 
#
# Total GULP energy -148687.922539 kJ/mol
# GULP energy per Si atom -12390.660212 kJ/mol
# Density = 2.242137 g / cm^3
# Si number density = 22.472520 Si / 1000 Ang^3
#
#
#
# Elastic Constant Matrix: (Units=GPa)
#
#
# Indices 1 2 3 4 5 6 
#
# 1 152.1251 53.0579 48.4077 2.2582 2.0842 -7.2849
# 2 53.0579 130.1727 41.6742 5.7017 8.7614 -9.9635
# 3 48.4077 41.6742 121.2631 -4.5773 2.8886 -10.8058
# 4 2.2582 5.7017 -4.5773 38.1730 -7.5164 7.0219
# 5 2.0842 8.7614 2.8886 -7.5164 36.8096 -3.6432
# 6 -7.2849 -9.9635 -10.8058 7.0219 -3.6432 53.1274
#
#
#
# Elastic Compliance Matrix: (Units=1/GPa)
#
#
# Indices 1 2 3 4 5 6 
#
# 1 0.008252 -0.002577 -0.002409 -0.000379 0.000280 0.000227
# 2 -0.002577 0.009805 -0.002267 -0.002262 -0.002357 0.001162
# 3 -0.002409 -0.002267 0.010138 0.001551 0.000308 0.001123
# 4 -0.000379 -0.002262 0.001551 0.028558 0.005920 -0.003529
# 5 0.000280 -0.002357 0.000308 0.005920 0.028982 0.000864
# 6 0.000227 0.001162 0.001123 -0.003529 0.000864 0.019826
#
#
# Mechanical properties :
#
#
# Convention : Reuss Voigt Hill
#
# Bulk Modulus (GPa) = 73.04849 76.64894 74.84871
# Shear Modulus (GPa) = 40.11924 42.98342 41.55133
#
# Velocity S-wave (km/s) = 4.22981 4.37820 4.30465
# Velocity P-wave (km/s) = 7.51208 7.72917 7.62140
#
# Compressibility (1/GPa) = 0.01368954
#
# Stress axis : x y z
#
# Youngs Moduli (GPa) = 121.18885 101.99217 98.63463
#
# Poissons Ratio (x) = 0.26283 0.23762
# Poissons Ratio (y) = 0.31229 0.22356
# Poissons Ratio (z) = 0.29196 0.23117
#
# Static dielectric constant tensor:
#      x y z
#    x 4.014770 -0.153880 0.574350 
#    y -0.153880 3.742180 0.236300 
#    z 0.574350 0.236300 3.062490 
# 
# 
# High freq. dielectric constant tensor:
#      x y z
#    x 1.901770 -0.004750 0.014180 
#    y -0.004750 1.891860 -0.016550 
#    z 0.014180 -0.016550 1.882850 
# 
# From -- ./inp_files/391877.got.cif
#   From: 2010.06.25/outbox.cif.g09.slc.cpg/sg2_196_cif.got.tgz:391877.got - 2010.06.27 13:26:56.
