data_PCOD8027491
_publ_section_title
;
Structure prediction by ZEFSAII (Michael W. Deem and Ramdas Pophale) SiO2 
 PCOD8027491
Probable space group: P -1
;
_chemical_formula_sum "Si O2"
_cell_formula_units_Z 10
_cell_length_a 10.693513
_cell_length_b 8.637278
_cell_length_c 9.876135
_cell_angle_alpha 54.590731
_cell_angle_beta 40.129119
_cell_angle_gamma 78.790848
_cell_volume 422.102900
_symmetry_space_group_name_H-M "P -1"
_symmetry_group_IT_number 2
_symmetry_cell_setting 'triclinic'
loop_
_space_group_symop_operation_xyz
x,y,z
-x,-y,-z
loop_
_atom_site_type_symbol
_atom_site_label
_atom_site_fract_x
_atom_site_fract_y
_atom_site_fract_z
Si Si1 0.383096 0.791617 0.791253
Si Si2 0.031044 0.204257 0.955606
Si Si3 0.103433 0.062604 0.234541
Si Si4 0.342183 0.825902 0.110492
Si Si5 0.446006 0.515129 0.314801
O O1 0.471030 0.624513 0.769348
O O2 0.122478 0.694671 0.022043
O O3 0.500000 0.000000 0.500000
O O4 0.446508 0.868338 0.853653
O O5 0.966915 0.122542 0.206790
O O6 0.288929 0.383863 0.637339
O O7 0.000000 0.000000 0.000000
O O8 0.120801 0.851656 0.276124
O O9 0.000000 0.000000 0.500000
O O10 0.343168 0.268101 0.925786
O O11 0.295274 0.585719 0.311611
O O12 0.500000 0.000000 0.000000
#
# Coordination Sequence:
#
# PCOD8027491 Si02
#       5
#     2   2   2   2   2
#     4  12  25  44  74 105 140 187 236 288 349 416
#     4  12  25  46  73 103 145 184 235 291 347 415
#     4  11  26  48  73 104 141 189 235 287 354 416
#     4  10  24  45  70 100 145 181 232 292 346 411
#     4  11  26  46  73 105 143 184 237 286 353 416
#
# _framework density 23.690905999999998
#
# number of rings (size 3 to 8) (size 9 to 14) (size 15 to 20)
#    0.000    0.800    4.000    1.200    8.400    4.800 
#    0.000    0.000    0.000    0.000    0.000    0.000 
#    0.000    0.000    0.000    0.000    0.000    0.000 
#
# Total GULP energy -123907.736182 kJ/mol
# GULP energy per Si atom -12390.773618 kJ/mol
# Density = 2.363698 g / cm^3
# Si number density = 23.690906 Si / 1000 Ang^3
#
#
#
# Elastic Constant Matrix: (Units=GPa)
#
#
# Indices 1 2 3 4 5 6 
#
# 1 114.4649 58.9101 54.5802 7.6209 33.0348 -6.6429
# 2 58.9101 146.1847 40.8570 13.0000 21.9123 -38.4304
# 3 54.5802 40.8570 140.0895 13.0022 20.7556 0.6466
# 4 7.6209 13.0000 13.0022 37.7006 7.5514 6.5950
# 5 33.0348 21.9123 20.7556 7.5514 51.3607 4.6253
# 6 -6.6429 -38.4304 0.6466 6.5950 4.6253 42.1115
#
#
#
# Elastic Compliance Matrix: (Units=1/GPa)
#
#
# Indices 1 2 3 4 5 6 
#
# 1 0.014163 -0.004230 -0.003506 0.001192 -0.005964 -0.001104
# 2 -0.004230 0.012954 -0.001352 -0.004749 -0.002662 0.012212
# 3 -0.003506 -0.001352 0.009124 -0.001593 -0.000475 -0.001625
# 4 0.001192 -0.004749 -0.001593 0.030345 -0.001777 -0.008678
# 5 -0.005964 -0.002662 -0.000475 -0.001777 0.025424 -0.005877
# 6 -0.001104 0.012212 -0.001625 -0.008678 -0.005877 0.036746
#
#
# Mechanical properties :
#
#
# Convention : Reuss Voigt Hill
#
# Bulk Modulus (GPa) = 55.35097 78.82596 67.08846
# Shear Modulus (GPa) = 32.68968 42.66069 37.67518
#
# Velocity S-wave (km/s) = 3.71865 4.24809 3.99216
# Velocity P-wave (km/s) = 6.46934 7.57672 7.04482
#
# Compressibility (1/GPa) = 0.01806653
#
# Stress axis : x y z
#
# Youngs Moduli (GPa) = 70.60755 77.19326 109.59815
#
# Poissons Ratio (x) = 0.32650 0.38429
# Poissons Ratio (y) = 0.29864 0.14812
# Poissons Ratio (z) = 0.24758 0.10433
#
# Static dielectric constant tensor:
#      x y z
#    x 5.048770 -0.174420 0.384740 
#    y -0.174420 3.469850 -0.270040 
#    z 0.384740 -0.270040 4.383540 
# 
# 
# High freq. dielectric constant tensor:
#      x y z
#    x 1.950650 -0.019210 0.017420 
#    y -0.019210 1.940970 0.003650 
#    z 0.017420 0.003650 1.936930 
# 
# From -- ./inp_files/145128.got.cif
#   From: 2010.06.25/outbox.cif.g09.slc.cpg/sg2_73_cif.got.tgz:145128.got - 2010.06.27 13:26:56.
