data_PCOD8027912
_publ_section_title
;
Structure prediction by ZEFSAII (Michael W. Deem and Ramdas Pophale) SiO2 
 PCOD8027912
Probable space group: P -1
;
_chemical_formula_sum "Si O2"
_cell_formula_units_Z 14
_cell_length_a 19.389746
_cell_length_b 5.247660
_cell_length_c 9.283704
_cell_angle_alpha 110.200830
_cell_angle_beta 138.060164
_cell_angle_gamma 94.721094
_cell_volume 498.413832
_symmetry_space_group_name_H-M "P -1"
_symmetry_group_IT_number 2
_symmetry_cell_setting 'triclinic'
loop_
_space_group_symop_operation_xyz
x,y,z
-x,-y,-z
loop_
_atom_site_type_symbol
_atom_site_label
_atom_site_fract_x
_atom_site_fract_y
_atom_site_fract_z
Si Si1 0.572435 0.387731 0.182761
Si Si2 0.539558 0.542828 0.730683
Si Si3 0.735565 0.198372 0.305242
Si Si4 0.742030 0.465045 0.951657
Si Si5 0.190543 0.024559 0.076567
Si Si6 0.931230 0.701341 0.527302
Si Si7 0.111243 0.870538 0.247643
O O1 0.583911 0.577473 0.388192
O O2 0.704632 0.477627 0.345900
O O3 0.500000 0.500000 0.000000
O O4 0.500000 0.000000 0.000000
O O5 0.500000 0.500000 0.500000
O O6 0.622179 0.386997 0.845089
O O7 0.624086 0.907255 0.989017
O O8 0.848568 0.347847 0.401017
O O9 0.767862 0.090149 0.482303
O O10 0.722878 0.118450 0.827256
O O11 0.746198 0.627589 0.836313
O O12 0.868096 0.708594 0.281571
O O13 0.151731 0.025064 0.181139
O O14 0.068637 0.778482 0.742420
O O15 0.941771 0.960322 0.708437
O O16 0.000000 0.500000 0.000000
#
# Coordination Sequence:
#
# PCOD8027912 Si02
#       7
#     2   2   2   2   2   2   2
#     4  10  24  48  77 110 143 196 259 318 379 441
#     4  11  26  52  76 109 147 198 261 318 373 443
#     4  11  25  48  81 110 152 202 249 319 388 440
#     4  12  27  49  73 112 155 206 247 315 384 448
#     4  12  28  45  77 116 155 201 250 306 378 472
#     4  12  25  48  79 110 158 197 253 306 385 462
#     4  12  26  47  76 114 158 198 255 304 376 464
#
# _framework density 28.089109000000001
#
# number of rings (size 3 to 8) (size 9 to 14) (size 15 to 20)
#    0.000    0.571    2.857    3.857    6.000    1.143 
#    0.000    8.571    0.000    0.000    0.000    0.000 
#    0.000    0.000    0.000    0.000    0.000    0.000 
#
# Total GULP energy -173521.061144 kJ/mol
# GULP energy per Si atom -12394.361510 kJ/mol
# Density = 2.802518 g / cm^3
# Si number density = 28.089109 Si / 1000 Ang^3
#
#
#
# Elastic Constant Matrix: (Units=GPa)
#
#
# Indices 1 2 3 4 5 6 
#
# 1 131.5117 40.1745 25.8609 -22.5928 -13.7744 -21.5275
# 2 40.1745 136.9260 27.4845 -34.8089 -18.8487 -15.3545
# 3 25.8609 27.4845 120.0274 -27.0025 -34.5383 -15.8194
# 4 -22.5928 -34.8089 -27.0025 47.7711 -2.7596 2.4195
# 5 -13.7744 -18.8487 -34.5383 -2.7596 51.3985 -14.3063
# 6 -21.5275 -15.3545 -15.8194 2.4195 -14.3063 51.1455
#
#
#
# Elastic Compliance Matrix: (Units=1/GPa)
#
#
# Indices 1 2 3 4 5 6 
#
# 1 0.009828 -0.000528 0.001380 0.005059 0.005204 0.005621
# 2 -0.000528 0.011040 0.002722 0.009498 0.007825 0.005674
# 3 0.001380 0.002722 0.015905 0.012011 0.015508 0.010087
# 4 0.005059 0.009498 0.012011 0.037482 0.018272 0.012034
# 5 0.005204 0.007825 0.015508 0.018272 0.040645 0.019841
# 6 0.005621 0.005674 0.010087 0.012034 0.019841 0.031722
#
#
# Mechanical properties :
#
#
# Convention : Reuss Voigt Hill
#
# Bulk Modulus (GPa) = 22.76812 63.94499 43.35655
# Shear Modulus (GPa) = 32.44364 49.72604 41.08484
#
# Velocity S-wave (km/s) = 3.40225 4.21205 3.82862
# Velocity P-wave (km/s) = 4.85356 6.81687 5.91721
#
# Compressibility (1/GPa) = 0.04392107
#
# Stress axis : x y z
#
# Youngs Moduli (GPa) = 101.74853 90.58307 62.87338
#
# Poissons Ratio (x) = 0.04780 -0.08675
# Poissons Ratio (y) = 0.05369 -0.17114
# Poissons Ratio (z) = -0.14039 -0.24657
#
# Static dielectric constant tensor:
#      x y z
#    x 7.704790 -0.337810 0.515700 
#    y -0.337810 4.942040 -0.207470 
#    z 0.515700 -0.207470 5.550220 
# 
# 
# High freq. dielectric constant tensor:
#      x y z
#    x 2.156590 -0.015370 0.000360 
#    y -0.015370 2.130070 -0.001310 
#    z 0.000360 -0.001310 2.161420 
# 
# From -- ./inp_files/340582.got.cif
#   From: 2010.06.25/outbox.cif.g09.slc.cpg/sg2_171_cif.got.tgz:340582.got - 2010.06.27 13:26:56.
