data_PCOD8027584
_publ_section_title
;
Structure prediction by ZEFSAII (Michael W. Deem and Ramdas Pophale) SiO2 
 PCOD8027584
Probable space group: P -1
;
_chemical_formula_sum "Si O2"
_cell_formula_units_Z 16
_cell_length_a 5.513800
_cell_length_b 17.337984
_cell_length_c 17.871448
_cell_angle_alpha 148.450084
_cell_angle_beta 127.489236
_cell_angle_gamma 49.475551
_cell_volume 673.012748
_symmetry_space_group_name_H-M "P -1"
_symmetry_group_IT_number 2
_symmetry_cell_setting 'triclinic'
loop_
_space_group_symop_operation_xyz
x,y,z
-x,-y,-z
loop_
_atom_site_type_symbol
_atom_site_label
_atom_site_fract_x
_atom_site_fract_y
_atom_site_fract_z
Si Si1 0.721189 0.137360 0.847786
Si Si2 0.819763 0.586144 0.967447
Si Si3 0.093168 0.352061 0.120644
Si Si4 0.687822 0.349999 0.311845
Si Si5 0.562812 0.634472 0.307662
Si Si6 0.416678 0.301069 0.376746
Si Si7 0.734901 0.098509 0.642950
Si Si8 0.569100 0.110785 0.385561
O O1 0.748058 0.137844 0.764193
O O2 0.711586 0.970277 0.736687
O O3 0.378606 0.250193 0.901368
O O4 0.984124 0.199748 0.992241
O O5 0.023560 0.619378 0.964433
O O6 0.635008 0.480802 0.805792
O O7 0.000000 0.500000 0.000000
O O8 0.473045 0.310343 0.172599
O O9 0.921827 0.515301 0.265014
O O10 0.586778 0.273874 0.305002
O O11 0.596458 0.533139 0.456993
O O12 0.057468 0.282697 0.298076
O O13 0.400107 0.739907 0.293232
O O14 0.581636 0.736253 0.466599
O O15 0.635613 0.165370 0.360165
O O16 0.500000 0.000000 0.500000
O O17 0.099007 0.996937 0.603314
#
# Coordination Sequence:
#
# PCOD8027584 Si02
#       8
#     2   2   2   2   2   2   2   2
#     4  11  25  43  66  97 146 185 229 286 361 423
#     4  11  23  41  67  96 140 182 237 285 348 419
#     4  11  25  44  72 102 142 187 237 293 356 426
#     4  10  24  45  74 107 141 183 245 304 364 424
#     4  11  25  39  68 103 133 186 234 285 352 424
#     4  10  25  44  75 107 141 184 241 310 364 421
#     4  12  26  42  67 102 144 185 234 288 355 434
#     4  12  26  43  69 102 144 182 235 297 363 424
#
# _framework density 23.773693999999999
#
# number of rings (size 3 to 8) (size 9 to 14) (size 15 to 20)
#    0.000    1.000    1.250    4.125   15.750    2.000 
#    0.000    1.250    0.000    0.000    0.000    0.000 
#    0.000    0.000    0.000    0.000    0.000    0.000 
#
# Total GULP energy -198271.062282 kJ/mol
# GULP energy per Si atom -12391.941393 kJ/mol
# Density = 2.371958 g / cm^3
# Si number density = 23.773694 Si / 1000 Ang^3
#
#
#
# Elastic Constant Matrix: (Units=GPa)
#
#
# Indices 1 2 3 4 5 6 
#
# 1 101.5891 24.6836 23.2800 -9.2865 -3.5710 1.1326
# 2 24.6836 80.8268 29.3368 -11.5001 19.6784 15.4780
# 3 23.2800 29.3368 82.2739 -7.3243 -35.3411 -17.4578
# 4 -9.2865 -11.5001 -7.3243 25.0089 -10.5523 -0.2667
# 5 -3.5710 19.6784 -35.3411 -10.5523 0.1947 -13.8773
# 6 1.1326 15.4780 -17.4578 -0.2667 -13.8773 41.2472
#
#
#
# Elastic Compliance Matrix: (Units=1/GPa)
#
#
# Indices 1 2 3 4 5 6 
#
# 1 0.011104 -0.001891 -0.002571 0.002349 -0.000340 -0.000783
# 2 -0.001891 0.010389 0.002726 0.009601 0.011177 0.001130
# 3 -0.002571 0.002726 0.004547 -0.004447 -0.014307 -0.003870
# 4 0.002349 0.009601 -0.004447 0.041428 -0.005842 -0.007247
# 5 -0.000340 0.011177 -0.014307 -0.005842 -0.015405 -0.015461
# 6 -0.000783 0.001130 -0.003870 -0.007247 -0.015461 0.016955
#
#
# Mechanical properties :
#
#
# Convention : Reuss Voigt Hill
#
# Bulk Modulus (GPa) = 44.30954 46.58785 45.44870
# Shear Modulus (GPa) = 62.49217 25.78278 44.13748
#
# Velocity S-wave (km/s) = 5.13258 3.29676 4.31347
# Velocity P-wave (km/s) = 7.33505 5.84213 6.63074
#
# Compressibility (1/GPa) = 0.02256850
#
# Stress axis : x y z
#
# Youngs Moduli (GPa) = 90.06085 96.26023 219.93593
#
# Poissons Ratio (x) = 0.18202 0.56539
# Poissons Ratio (y) = 0.17030 -0.59965
# Poissons Ratio (z) = 0.23152 -0.26245
#
# Static dielectric constant tensor:
#      x y z
#    x 3.896920 1.245630 -0.773540 
#    y 1.245630 1.848580 2.110200 
#    z -0.773540 2.110200 2.645890 
# 
# 
# High freq. dielectric constant tensor:
#      x y z
#    x 1.950380 0.010330 0.012910 
#    y 0.010330 1.927350 0.003710 
#    z 0.012910 0.003710 1.952510 
# 
# From -- ./inp_files/142670.got.cif
#   From: 2010.06.25/outbox.cif.g09.slc.cpg/sg2_72_cif.got.tgz:142670.got - 2010.06.27 13:26:56.
