data_PCOD8027029
_publ_section_title
;
Structure prediction by ZEFSAII (Michael W. Deem and Ramdas Pophale) SiO2 
 PCOD8027029
Probable space group: P -1
;
_chemical_formula_sum "Si O2"
_cell_formula_units_Z 14
_cell_length_a 14.440859
_cell_length_b 14.705386
_cell_length_c 8.768334
_cell_angle_alpha 125.037710
_cell_angle_beta 75.728373
_cell_angle_gamma 150.278560
_cell_volume 592.477531
_symmetry_space_group_name_H-M "P -1"
_symmetry_group_IT_number 2
_symmetry_cell_setting 'triclinic'
loop_
_space_group_symop_operation_xyz
x,y,z
-x,-y,-z
loop_
_atom_site_type_symbol
_atom_site_label
_atom_site_fract_x
_atom_site_fract_y
_atom_site_fract_z
Si Si1 0.251174 0.762429 0.069608
Si Si2 0.374063 0.399622 0.227537
Si Si3 0.402927 0.691613 0.467333
Si Si4 0.503887 0.848620 0.237947
Si Si5 0.014507 0.026425 0.265154
Si Si6 0.764175 0.638205 0.241347
Si Si7 0.041095 0.446078 0.549371
O O1 0.435517 0.890047 0.222971
O O2 0.368267 0.009635 0.252926
O O3 0.218911 0.677446 0.832874
O O4 0.000000 0.500000 0.000000
O O5 0.426825 0.585376 0.361157
O O6 0.617804 0.595311 0.290511
O O7 0.259673 0.253830 0.299245
O O8 0.187649 0.152478 0.942615
O O9 0.383957 0.712888 0.321058
O O10 0.161615 0.470332 0.438822
O O11 0.403608 0.646212 0.972932
O O12 0.787047 0.137490 0.421914
O O13 0.063085 0.183908 0.509343
O O14 0.921264 0.820558 0.200754
O O15 0.000000 0.500000 0.500000
#
# Coordination Sequence:
#
# PCOD8027029 Si02
#       7
#     2   2   2   2   2   2   2
#     4  12  26  48  75 105 143 181 233 294 355 419
#     4  11  25  44  70 100 142 181 236 287 343 408
#     4  12  26  47  71 106 141 188 237 290 352 416
#     4  12  27  46  71 106 144 187 235 288 351 423
#     4  10  24  44  65 100 137 183 236 282 343 411
#     4  11  25  44  71 100 142 186 231 285 348 411
#     4  12  27  48  74 102 145 186 234 292 351 421
#
# _framework density 23.629587999999998
#
# number of rings (size 3 to 8) (size 9 to 14) (size 15 to 20)
#    0.000    0.571    4.286    2.571    6.000    2.286 
#    2.571    0.000    0.000    0.000    0.000    0.000 
#    0.000    0.000    0.000    0.000    0.000    0.000 
#
# Total GULP energy -173648.464317 kJ/mol
# GULP energy per Si atom -12403.461737 kJ/mol
# Density = 2.357581 g / cm^3
# Si number density = 23.629588 Si / 1000 Ang^3
#
#
#
# Elastic Constant Matrix: (Units=GPa)
#
#
# Indices 1 2 3 4 5 6 
#
# 1 74.3258 30.3758 27.0034 0.1200 -12.0094 4.6360
# 2 30.3758 128.8885 39.8100 -4.8317 7.4806 -0.0042
# 3 27.0034 39.8100 144.2432 8.1513 -10.9943 -2.8003
# 4 0.1200 -4.8317 8.1513 45.2586 -2.3248 5.8194
# 5 -12.0094 7.4806 -10.9943 -2.3248 29.8226 0.8299
# 6 4.6360 -0.0042 -2.8003 5.8194 0.8299 30.0114
#
#
#
# Elastic Compliance Matrix: (Units=1/GPa)
#
#
# Indices 1 2 3 4 5 6 
#
# 1 0.017033 -0.003912 -0.001642 0.000611 0.007369 -0.003107
# 2 -0.003912 0.009741 -0.002385 0.001196 -0.004813 0.000284
# 3 -0.001642 -0.002385 0.008236 -0.001755 0.002801 0.001285
# 4 0.000611 0.001196 -0.001755 0.023218 0.001242 -0.004794
# 5 0.007369 -0.004813 0.002801 0.001242 0.038897 -0.002194
# 6 -0.003107 0.000284 0.001285 -0.004794 -0.002194 0.034911
#
#
# Mechanical properties :
#
#
# Convention : Reuss Voigt Hill
#
# Bulk Modulus (GPa) = 52.26835 60.20398 56.23617
# Shear Modulus (GPa) = 32.40608 37.70307 35.05457
#
# Velocity S-wave (km/s) = 3.70729 3.99881 3.85581
# Velocity P-wave (km/s) = 6.36343 6.84501 6.60861
#
# Compressibility (1/GPa) = 0.01913204
#
# Stress axis : x y z
#
# Youngs Moduli (GPa) = 58.70896 102.65393 121.41751
#
# Poissons Ratio (x) = 0.40158 0.19940
# Poissons Ratio (y) = 0.22967 0.28960
# Poissons Ratio (z) = 0.09641 0.24484
#
# Static dielectric constant tensor:
#      x y z
#    x 3.877590 0.039130 0.122720 
#    y 0.039130 4.521420 -0.046910 
#    z 0.122720 -0.046910 4.664470 
# 
# 
# High freq. dielectric constant tensor:
#      x y z
#    x 1.904950 0.000140 0.006020 
#    y 0.000140 1.954920 -0.000790 
#    z 0.006020 -0.000790 1.964020 
# 
# From -- ./inp_files/315851.got.cif
#   From: 2010.06.25/outbox.cif.g09.slc.cpg/sg2_158_cif.got.tgz:315851.got - 2010.06.27 13:26:56.
