data_PCOD8027346
_publ_section_title
;
Structure prediction by ZEFSAII (Michael W. Deem and Ramdas Pophale) SiO2 
 PCOD8027346
Probable space group: P -1
;
_chemical_formula_sum "Si O2"
_cell_formula_units_Z 14
_cell_length_a 9.019785
_cell_length_b 9.342124
_cell_length_c 7.524360
_cell_angle_alpha 109.691043
_cell_angle_beta 66.822225
_cell_angle_gamma 116.169333
_cell_volume 512.754871
_symmetry_space_group_name_H-M "P -1"
_symmetry_group_IT_number 2
_symmetry_cell_setting 'triclinic'
loop_
_space_group_symop_operation_xyz
x,y,z
-x,-y,-z
loop_
_atom_site_type_symbol
_atom_site_label
_atom_site_fract_x
_atom_site_fract_y
_atom_site_fract_z
Si Si1 0.053377 0.771175 0.405038
Si Si2 0.181015 0.571416 0.043868
Si Si3 0.217570 0.500798 0.381781
Si Si4 0.530074 0.684938 0.751992
Si Si5 0.098133 0.068173 0.715050
Si Si6 0.260699 0.056945 0.975920
Si Si7 0.399699 0.844272 0.599217
O O1 0.964247 0.599972 0.478622
O O2 0.896493 0.807038 0.392660
O O3 0.189528 0.747872 0.190019
O O4 0.151661 0.919048 0.553486
O O5 0.198448 0.467136 0.164641
O O6 0.328306 0.579833 0.836744
O O7 0.000000 0.500000 0.000000
O O8 0.362407 0.433818 0.359230
O O9 0.271636 0.694685 0.479120
O O10 0.540798 0.780238 0.600153
O O11 0.581763 0.809971 0.944813
O O12 0.221967 0.146284 0.854349
O O13 0.899597 0.991259 0.836913
O O14 0.298770 0.897007 0.828701
O O15 0.500000 0.000000 0.500000
#
# Coordination Sequence:
#
# PCOD8027346 Si02
#       7
#     2   2   2   2   2   2   2
#     4  11  24  46  77 111 159 204 267 315 395 459
#     4  12  28  48  79 114 159 202 261 325 400 463
#     4  12  27  52  80 116 158 208 267 324 392 473
#     4  12  27  52  80 116 158 208 267 324 392 473
#     4  10  24  44  76 112 156 210 256 326 388 464
#     4  11  24  46  77 111 159 204 267 315 395 459
#     4  12  28  48  79 114 159 202 261 325 400 463
#
# _framework density 27.303495000000002
#
# number of rings (size 3 to 8) (size 9 to 14) (size 15 to 20)
#    0.000    0.571    1.429    5.143    4.000    2.286 
#    2.571    0.000    0.000    0.000    0.000    0.000 
#    0.000    0.000    0.000    0.000    0.000    0.000 
#
# Total GULP energy -173654.953182 kJ/mol
# GULP energy per Si atom -12403.925227 kJ/mol
# Density = 2.724135 g / cm^3
# Si number density = 27.303495 Si / 1000 Ang^3
#
#
#
# Elastic Constant Matrix: (Units=GPa)
#
#
# Indices 1 2 3 4 5 6 
#
# 1 81.4038 21.3437 14.9096 -2.2930 10.5836 7.9053
# 2 21.3437 135.7614 40.9825 -6.6738 12.9380 -14.1104
# 3 14.9096 40.9825 105.6955 9.5518 7.0670 0.5566
# 4 -2.2930 -6.6738 9.5518 41.3187 -14.7021 7.9439
# 5 10.5836 12.9380 7.0670 -14.7021 60.4031 7.7352
# 6 7.9053 -14.1104 0.5566 7.9439 7.7352 40.1240
#
#
#
# Elastic Compliance Matrix: (Units=1/GPa)
#
#
# Indices 1 2 3 4 5 6 
#
# 1 0.013505 -0.001968 -0.001128 0.000909 -0.001170 -0.003292
# 2 -0.001968 0.009259 -0.003310 0.000876 -0.001526 0.003811
# 3 -0.001128 -0.003310 0.011320 -0.003648 -0.001289 -0.000128
# 4 0.000909 0.000876 -0.003648 0.029550 0.008201 -0.007252
# 5 -0.001170 -0.001526 -0.001289 0.008201 0.019972 -0.005762
# 6 -0.003292 0.003811 -0.000128 -0.007252 -0.005762 0.029460
#
#
# Mechanical properties :
#
#
# Convention : Reuss Voigt Hill
#
# Bulk Modulus (GPa) = 47.01248 53.03689 50.02468
# Shear Modulus (GPa) = 37.60291 44.74416 41.17354
#
# Velocity S-wave (km/s) = 3.71512 4.05256 3.88750
# Velocity P-wave (km/s) = 5.97149 6.43155 6.20578
#
# Compressibility (1/GPa) = 0.02127095
#
# Stress axis : x y z
#
# Youngs Moduli (GPa) = 74.04890 108.00381 88.33799
#
# Poissons Ratio (x) = 0.21260 0.09967
# Poissons Ratio (y) = 0.14576 0.29236
# Poissons Ratio (z) = 0.08355 0.35745
#
# Static dielectric constant tensor:
#      x y z
#    x 5.185070 -0.486250 0.068090 
#    y -0.486250 4.737150 -0.080250 
#    z 0.068090 -0.080250 5.199710 
# 
# 
# High freq. dielectric constant tensor:
#      x y z
#    x 2.129520 -0.030310 0.008050 
#    y -0.030310 2.087730 -0.005880 
#    z 0.008050 -0.005880 2.112520 
# 
# From -- ./inp_files/159793.got.cif
#   From: 2010.06.25/outbox.cif.g09.slc.cpg/sg2_80_cif.got.tgz:159793.got - 2010.06.27 13:26:56.
