data_PCOD8027667
_publ_section_title
;
Structure prediction by ZEFSAII (Michael W. Deem and Ramdas Pophale) SiO2 
 PCOD8027667
Probable space group: P -1
;
_chemical_formula_sum "Si O2"
_cell_formula_units_Z 16
_cell_length_a 16.348345
_cell_length_b 12.052124
_cell_length_c 8.298029
_cell_angle_alpha 42.482968
_cell_angle_beta 135.171817
_cell_angle_gamma 134.958174
_cell_volume 718.281763
_symmetry_space_group_name_H-M "P -1"
_symmetry_group_IT_number 2
_symmetry_cell_setting 'triclinic'
loop_
_space_group_symop_operation_xyz
x,y,z
-x,-y,-z
loop_
_atom_site_type_symbol
_atom_site_label
_atom_site_fract_x
_atom_site_fract_y
_atom_site_fract_z
Si Si1 0.461990 0.145563 0.368394
Si Si2 0.235645 0.615516 0.901032
Si Si3 0.964638 0.430210 0.847419
Si Si4 0.753389 0.779134 0.153764
Si Si5 0.280896 0.568529 0.654007
Si Si6 0.622101 0.984063 0.259470
Si Si7 0.260763 0.278747 0.429321
Si Si8 0.011225 0.920791 0.769581
O O1 0.589229 0.320866 0.374528
O O2 0.500000 0.000000 0.500000
O O3 0.396959 0.087886 0.510103
O O4 0.360221 0.156116 0.088033
O O5 0.084588 0.527016 0.796155
O O6 0.276755 0.648144 0.737565
O O7 0.276085 0.811504 0.828602
O O8 0.302479 0.486283 0.207787
O O9 0.841498 0.458012 0.592845
O O10 0.000000 0.500000 0.000000
O O11 0.925121 0.220129 0.015239
O O12 0.723821 0.630680 0.132757
O O13 0.756425 0.712694 0.411991
O O14 0.891281 0.927908 0.142829
O O15 0.652343 0.832210 0.366321
O O16 0.500000 0.000000 0.000000
O O17 0.130812 0.171535 0.263970
O O18 0.000000 0.000000 0.500000
#
# Coordination Sequence:
#
# PCOD8027667 Si02
#       8
#     2   2   2   2   2   2   2   2
#     4  12  25  47  66 100 138 183 236 278 354 419
#     4  11  26  47  69 108 140 182 235 285 358 407
#     4  11  24  42  73 101 137 180 231 294 341 416
#     4  11  24  43  72 100 137 188 227 291 348 417
#     4  12  25  45  68 100 142 182 230 289 348 419
#     4  12  28  45  74 101 141 187 231 293 343 422
#     4  10  24  46  70 103 140 178 238 292 344 414
#     4   9  20  40  64 101 131 173 226 278 346 401
#
# _framework density 22.275379999999998
#
# number of rings (size 3 to 8) (size 9 to 14) (size 15 to 20)
#    0.000    1.000    1.250    5.250    8.750    0.500 
#    0.000    1.875    0.000    0.000    0.000    0.000 
#    0.000    0.000    0.000    0.000    0.000    0.000 
#
# Total GULP energy -198282.277188 kJ/mol
# GULP energy per Si atom -12392.642324 kJ/mol
# Density = 2.222468 g / cm^3
# Si number density = 22.275380 Si / 1000 Ang^3
#
#
#
# Elastic Constant Matrix: (Units=GPa)
#
#
# Indices 1 2 3 4 5 6 
#
# 1 60.9395 9.5079 12.6541 -1.4931 3.2606 6.9189
# 2 9.5079 110.9351 24.3583 -8.2104 4.3369 16.2271
# 3 12.6541 24.3583 100.3633 4.5635 12.3914 16.1804
# 4 -1.4931 -8.2104 4.5635 39.7943 2.6911 4.3870
# 5 3.2606 4.3369 12.3914 2.6911 38.3086 1.5273
# 6 6.9189 16.2271 16.1804 4.3870 1.5273 36.0593
#
#
#
# Elastic Compliance Matrix: (Units=1/GPa)
#
#
# Indices 1 2 3 4 5 6 
#
# 1 0.017179 -0.000674 -0.001559 0.001004 -0.000857 -0.002379
# 2 -0.000674 0.010285 -0.001825 0.002784 -0.000553 -0.003995
# 3 -0.001559 -0.001825 0.011670 -0.001133 -0.003203 -0.003842
# 4 0.001004 0.002784 -0.001133 0.026438 -0.001729 -0.004080
# 5 -0.000857 -0.000553 -0.003203 -0.001729 0.027361 0.000902
# 6 -0.002379 -0.003995 -0.003842 -0.004080 0.000902 0.032169
#
#
# Mechanical properties :
#
#
# Convention : Reuss Voigt Hill
#
# Bulk Modulus (GPa) = 32.23992 40.58650 36.41321
# Shear Modulus (GPa) = 34.82937 37.88028 36.35482
#
# Velocity S-wave (km/s) = 3.95850 4.12824 4.04426
# Velocity P-wave (km/s) = 5.94960 6.40180 6.17984
#
# Compressibility (1/GPa) = 0.03101745
#
# Stress axis : x y z
#
# Youngs Moduli (GPa) = 58.20990 97.22981 85.69170
#
# Poissons Ratio (x) = 0.06556 0.13356
# Poissons Ratio (y) = 0.03925 0.15642
# Poissons Ratio (z) = 0.09072 0.17748
#
# Static dielectric constant tensor:
#      x y z
#    x 3.969170 0.272710 0.145670 
#    y 0.272710 5.191560 -0.011330 
#    z 0.145670 -0.011330 4.241150 
# 
# 
# High freq. dielectric constant tensor:
#      x y z
#    x 1.866090 0.003240 0.013320 
#    y 0.003240 1.892150 -0.009140 
#    z 0.013320 -0.009140 1.889030 
# 
# From -- ./inp_files/332788.got.cif
#   From: 2010.06.25/outbox.cif.g09.slc.cpg/sg2_167_cif.got.tgz:332788.got - 2010.06.27 13:26:56.
