data_PCOD8027137
_publ_section_title
;
Structure prediction by ZEFSAII (Michael W. Deem and Ramdas Pophale) SiO2 
 PCOD8027137
Probable space group: P -1
;
_chemical_formula_sum "Si O2"
_cell_formula_units_Z 16
_cell_length_a 13.639817
_cell_length_b 8.395997
_cell_length_c 15.582614
_cell_angle_alpha 72.284550
_cell_angle_beta 50.672078
_cell_angle_gamma 114.575665
_cell_volume 740.914714
_symmetry_space_group_name_H-M "P -1"
_symmetry_group_IT_number 2
_symmetry_cell_setting 'triclinic'
loop_
_space_group_symop_operation_xyz
x,y,z
-x,-y,-z
loop_
_atom_site_type_symbol
_atom_site_label
_atom_site_fract_x
_atom_site_fract_y
_atom_site_fract_z
Si Si1 0.191538 0.518201 0.037395
Si Si2 0.009389 0.264663 0.629002
Si Si3 0.102883 0.296011 0.387348
Si Si4 0.574141 0.356525 0.423914
Si Si5 0.110306 0.681016 0.618830
Si Si6 0.829392 0.852591 0.330633
Si Si7 0.496536 0.691737 0.978727
Si Si8 0.401516 0.858429 0.693817
O O1 0.060199 0.500195 0.176681
O O2 0.402794 0.670359 0.946538
O O3 0.275960 0.718489 0.877166
O O4 0.028223 0.198512 0.141706
O O5 0.127108 0.410213 0.447386
O O6 0.109079 0.502523 0.601654
O O7 0.067463 0.141617 0.648941
O O8 0.747606 0.025661 0.803235
O O9 0.928989 0.209002 0.441012
O O10 0.346753 0.573448 0.163633
O O11 0.000000 0.000000 0.500000
O O12 0.771933 0.671327 0.311768
O O13 0.398707 0.299136 0.489667
O O14 0.709877 0.384228 0.277112
O O15 0.425273 0.077389 0.616737
O O16 0.359530 0.974561 0.466148
O O17 0.500000 0.500000 0.000000
#
# Coordination Sequence:
#
# PCOD8027137 Si02
#       8
#     2   2   2   2   2   2   2   2
#     4  11  24  41  70  95 130 170 214 266 324 387
#     4  12  23  41  67  92 134 173 210 264 319 383
#     4  11  23  38  66  94 128 173 210 254 320 384
#     4  10  24  44  68  95 128 166 225 273 321 386
#     4  11  24  43  63  97 134 168 216 265 319 386
#     4  11  22  44  66  97 130 166 217 276 318 380
#     4  11  22  39  63  98 132 165 214 256 313 396
#     4  11  23  44  71  92 128 176 214 269 334 378
#
# _framework density 21.594927999999999
#
# number of rings (size 3 to 8) (size 9 to 14) (size 15 to 20)
#    0.000    1.000    5.000    1.875    0.000    4.000 
#    0.000    1.250    0.000    0.000    0.000    0.000 
#    0.000    0.000    0.000    0.000    0.000    0.000 
#
# Total GULP energy -198368.672768 kJ/mol
# GULP energy per Si atom -12398.042048 kJ/mol
# Density = 2.154578 g / cm^3
# Si number density = 21.594928 Si / 1000 Ang^3
#
#
#
# Elastic Constant Matrix: (Units=GPa)
#
#
# Indices 1 2 3 4 5 6 
#
# 1 102.4748 19.0178 41.2199 8.4688 -1.1433 -1.5983
# 2 19.0178 122.0834 33.5105 14.4091 9.3036 2.8293
# 3 41.2199 33.5105 87.4520 21.7973 17.5008 12.0582
# 4 8.4688 14.4091 21.7973 31.8968 10.4806 -0.2736
# 5 -1.1433 9.3036 17.5008 10.4806 37.2539 -2.5133
# 6 -1.5983 2.8293 12.0582 -0.2736 -2.5133 30.7881
#
#
#
# Elastic Compliance Matrix: (Units=1/GPa)
#
#
# Indices 1 2 3 4 5 6 
#
# 1 0.012880 -0.000442 -0.007396 0.000521 0.004099 0.003945
# 2 -0.000442 0.009293 -0.002778 -0.002034 -0.000446 0.000157
# 3 -0.007396 -0.002778 0.020890 -0.008665 -0.007516 -0.009001
# 4 0.000521 -0.002034 -0.008665 0.040214 -0.006487 0.003435
# 5 0.004099 -0.000446 -0.007516 -0.006487 0.032829 0.005820
# 6 0.003945 0.000157 -0.009001 0.003435 0.005820 0.036701
#
#
# Mechanical properties :
#
#
# Convention : Reuss Voigt Hill
#
# Bulk Modulus (GPa) = 45.80382 55.50073 50.65228
# Shear Modulus (GPa) = 27.57645 34.53857 31.05751
#
# Velocity S-wave (km/s) = 3.57737 4.00357 3.79646
# Velocity P-wave (km/s) = 6.19031 6.86499 6.53636
#
# Compressibility (1/GPa) = 0.02183224
#
# Stress axis : x y z
#
# Youngs Moduli (GPa) = 77.64275 107.60862 47.86966
#
# Poissons Ratio (x) = 0.04752 0.35402
# Poissons Ratio (y) = 0.03429 0.13298
# Poissons Ratio (z) = 0.57421 0.29893
#
# Static dielectric constant tensor:
#      x y z
#    x 3.249950 -1.006330 1.553940 
#    y -1.006330 2.614140 1.975830 
#    z 1.553940 1.975830 0.876990 
# 
# 
# High freq. dielectric constant tensor:
#      x y z
#    x 1.868570 0.001120 -0.005220 
#    y 0.001120 1.859420 0.003590 
#    z -0.005220 0.003590 1.823270 
# 
# From -- ./inp_files/515188.got.cif
#   From: 2010.06.25/outbox.cif.g09.slc.cpg/sg2_258_cif.got.tgz:515188.got - 2010.06.27 13:26:56.
