data_PCOD8027203
_publ_section_title
;
Structure prediction by ZEFSAII (Michael W. Deem and Ramdas Pophale) SiO2 
 PCOD8027203
Probable space group: P -1
;
_chemical_formula_sum "Si O2"
_cell_formula_units_Z 16
_cell_length_a 17.644138
_cell_length_b 13.020892
_cell_length_c 8.758360
_cell_angle_alpha 50.137957
_cell_angle_beta 100.975283
_cell_angle_gamma 141.242010
_cell_volume 739.796183
_symmetry_space_group_name_H-M "P -1"
_symmetry_group_IT_number 2
_symmetry_cell_setting 'triclinic'
loop_
_space_group_symop_operation_xyz
x,y,z
-x,-y,-z
loop_
_atom_site_type_symbol
_atom_site_label
_atom_site_fract_x
_atom_site_fract_y
_atom_site_fract_z
Si Si1 0.598505 0.026891 0.954918
Si Si2 0.532123 0.165216 0.236967
Si Si3 0.870617 0.287169 0.286521
Si Si4 0.065938 0.075573 0.786336
Si Si5 0.928873 0.621519 0.629273
Si Si6 0.865498 0.573617 0.984084
Si Si7 0.472028 0.327240 0.253603
Si Si8 0.421884 0.515106 0.522833
O O1 0.773631 0.309845 0.813573
O O2 0.591115 0.012844 0.781008
O O3 0.500000 0.000000 0.000000
O O4 0.529948 0.791939 0.228932
O O5 0.536176 0.309468 0.187595
O O6 0.500000 0.000000 0.500000
O O7 0.707585 0.401773 0.017477
O O8 0.936237 0.286502 0.445999
O O9 0.706230 0.970727 0.472697
O O10 0.834300 0.383987 0.241123
O O11 0.000000 0.500000 0.000000
O O12 0.059123 0.215561 0.591006
O O13 0.238138 0.267740 0.649535
O O14 0.948250 0.801221 0.912523
O O15 0.000000 0.000000 0.000000
O O16 0.962281 0.690987 0.756476
O O17 0.577669 0.492018 0.287985
O O18 0.500000 0.500000 0.000000
O O19 0.500000 0.500000 0.500000
#
# Coordination Sequence:
#
# PCOD8027203 Si02
#       8
#     2   2   2   2   2   2   2   2
#     4  12  23  46  73 102 133 186 239 283 348 427
#     4  12  24  43  73 102 139 181 230 295 353 416
#     4  10  24  44  70 101 135 186 227 283 348 427
#     4  12  28  44  67 105 145 182 225 294 354 410
#     4  11  25  44  73  99 137 181 234 283 341 431
#     4  11  23  45  70  99 137 184 230 279 354 423
#     4  12  27  46  72 105 144 180 236 300 358 408
#     4  12  27  47  73 102 141 186 241 290 348 428
#
# _framework density 21.627579000000001
#
# number of rings (size 3 to 8) (size 9 to 14) (size 15 to 20)
#    0.000    0.500    3.750    4.125   10.500    0.000 
#    0.000    1.250    0.000    0.000    0.000    0.000 
#    0.000    0.000    0.000    0.000    0.000    0.000 
#
# Total GULP energy -198249.133252 kJ/mol
# GULP energy per Si atom -12390.570828 kJ/mol
# Density = 2.157835 g / cm^3
# Si number density = 21.627579 Si / 1000 Ang^3
#
#
#
# Elastic Constant Matrix: (Units=GPa)
#
#
# Indices 1 2 3 4 5 6 
#
# 1 152.3964 36.7230 42.7970 -0.0225 26.6287 5.0112
# 2 36.7230 125.6196 40.5257 3.8329 7.6178 -6.1241
# 3 42.7970 40.5257 117.3869 0.2036 38.1009 -3.0703
# 4 -0.0225 3.8329 0.2036 43.0068 4.2041 -2.6671
# 5 26.6287 7.6178 38.1009 4.2041 33.3848 -0.2998
# 6 5.0112 -6.1241 -3.0703 -2.6671 -0.2998 40.3688
#
#
#
# Elastic Compliance Matrix: (Units=1/GPa)
#
#
# Indices 1 2 3 4 5 6 
#
# 1 0.008207 -0.001974 -0.000538 0.000644 -0.005576 -0.001358
# 2 -0.001974 0.009641 -0.003842 -0.001140 0.003914 0.001369
# 3 -0.000538 -0.003842 0.015420 0.001926 -0.016530 0.000661
# 4 0.000644 -0.001140 0.001926 0.023967 -0.005456 0.001437
# 5 -0.005576 0.003914 -0.016530 -0.005456 0.053060 0.000062
# 6 -0.001358 0.001369 0.000661 0.001437 0.000062 0.025294
#
#
# Mechanical properties :
#
#
# Convention : Reuss Voigt Hill
#
# Bulk Modulus (GPa) = 48.63195 70.61046 59.62121
# Shear Modulus (GPa) = 32.22693 41.70924 36.96808
#
# Velocity S-wave (km/s) = 3.86435 4.39626 4.13886
# Velocity P-wave (km/s) = 6.51505 7.64779 7.10403
#
# Compressibility (1/GPa) = 0.02056261
#
# Stress axis : x y z
#
# Youngs Moduli (GPa) = 121.84083 103.72448 64.84995
#
# Poissons Ratio (x) = 0.20470 0.03488
# Poissons Ratio (y) = 0.24045 0.24912
# Poissons Ratio (z) = 0.06554 0.39846
#
# Static dielectric constant tensor:
#      x y z
#    x 3.864870 -0.073120 -0.112520 
#    y -0.073120 3.820400 -0.242260 
#    z -0.112520 -0.242260 3.979550 
# 
# 
# High freq. dielectric constant tensor:
#      x y z
#    x 1.878690 0.009400 0.014720 
#    y 0.009400 1.849560 -0.004740 
#    z 0.014720 -0.004740 1.853790 
# 
# From -- ./inp_files/332916.got.cif
#   From: 2010.06.25/outbox.cif.g09.slc.cpg/sg2_167_cif.got.tgz:332916.got - 2010.06.27 13:26:56.
