data_PCOD8027566
_publ_section_title
;
Structure prediction by ZEFSAII (Michael W. Deem and Ramdas Pophale) SiO2 
 PCOD8027566
Probable space group: P -1
;
_chemical_formula_sum "Si O2"
_cell_formula_units_Z 16
_cell_length_a 11.782213
_cell_length_b 9.516334
_cell_length_c 9.071386
_cell_angle_alpha 42.703723
_cell_angle_beta 76.947841
_cell_angle_gamma 80.188777
_cell_volume 671.978516
_symmetry_space_group_name_H-M "P -1"
_symmetry_group_IT_number 2
_symmetry_cell_setting 'triclinic'
loop_
_space_group_symop_operation_xyz
x,y,z
-x,-y,-z
loop_
_atom_site_type_symbol
_atom_site_label
_atom_site_fract_x
_atom_site_fract_y
_atom_site_fract_z
Si Si1 0.557698 0.061421 0.286239
Si Si2 0.852138 0.957434 0.060641
Si Si3 0.965067 0.340836 0.831380
Si Si4 0.597551 0.864267 0.152539
Si Si5 0.163821 0.010414 0.382693
Si Si6 0.768563 0.290520 0.162051
Si Si7 0.637082 0.690624 0.992577
Si Si8 0.041068 0.185648 0.558820
O O1 0.690677 0.131008 0.215025
O O2 0.485990 0.252410 0.089646
O O3 0.500000 0.000000 0.500000
O O4 0.557804 0.850719 0.346048
O O5 0.719236 0.986196 0.034059
O O6 0.875766 0.913971 0.263478
O O7 0.908090 0.766483 0.094732
O O8 0.912388 0.184450 0.839951
O O9 0.979325 0.571647 0.587162
O O10 0.885817 0.344536 0.997884
O O11 0.615585 0.661032 0.200708
O O12 0.500000 0.000000 0.000000
O O13 0.197057 0.798631 0.620872
O O14 0.079234 0.944910 0.322736
O O15 0.278137 0.112693 0.201910
O O16 0.104608 0.168396 0.394351
O O17 0.689304 0.491042 0.055886
#
# Coordination Sequence:
#
# PCOD8027566 Si02
#       8
#     2   2   2   2   2   2   2   2
#     4  11  22  45  74  99 134 185 238 290 345 410
#     4  11  24  44  67  98 140 184 229 282 351 408
#     4  11  24  40  69  99 137 186 227 280 339 423
#     4  10  24  45  73 101 136 180 231 288 347 402
#     4  11  24  38  64  97 138 175 230 284 342 403
#     4  12  23  43  69 102 135 187 236 281 349 420
#     4  11  25  43  69  99 141 184 229 293 348 405
#     4  11  24  41  61 101 137 183 226 282 341 416
#
# _framework density 23.810286000000001
#
# number of rings (size 3 to 8) (size 9 to 14) (size 15 to 20)
#    0.000    1.000    5.000    0.750    5.250    0.500 
#    0.000    0.625    2.750    0.000    0.000    0.000 
#    0.000    0.000    0.000    0.000    0.000    0.000 
#
# Total GULP energy -198238.302655 kJ/mol
# GULP energy per Si atom -12389.893916 kJ/mol
# Density = 2.375609 g / cm^3
# Si number density = 23.810286 Si / 1000 Ang^3
#
#
#
# Elastic Constant Matrix: (Units=GPa)
#
#
# Indices 1 2 3 4 5 6 
#
# 1 142.3809 25.8732 27.8345 -0.8964 14.6770 -0.4717
# 2 25.8732 139.9753 27.5657 9.3471 11.4689 -3.2224
# 3 27.8345 27.5657 52.1720 -10.0516 7.3710 13.5370
# 4 -0.8964 9.3471 -10.0516 42.9855 -2.4081 2.9324
# 5 14.6770 11.4689 7.3710 -2.4081 25.3605 3.4881
# 6 -0.4717 -3.2224 13.5370 2.9324 3.4881 32.8841
#
#
#
# Elastic Compliance Matrix: (Units=1/GPa)
#
#
# Indices 1 2 3 4 5 6 
#
# 1 0.008383 -0.000145 -0.004774 -0.001305 -0.003880 0.002599
# 2 -0.000145 0.008952 -0.005981 -0.003797 -0.003138 0.004009
# 3 -0.004774 -0.005981 0.030336 0.009212 -0.000563 -0.013905
# 4 -0.001305 -0.003797 0.009212 0.026874 0.003300 -0.006929
# 5 -0.003880 -0.003138 -0.000563 0.003300 0.044277 -0.005122
# 6 0.002599 0.004009 -0.013905 -0.006929 -0.005122 0.037725
#
#
# Mechanical properties :
#
#
# Convention : Reuss Voigt Hill
#
# Bulk Modulus (GPa) = 38.65072 55.23056 46.94064
# Shear Modulus (GPa) = 26.74215 37.12968 31.93591
#
# Velocity S-wave (km/s) = 3.35496 3.95320 3.66630
# Velocity P-wave (km/s) = 5.59246 6.63954 6.13837
#
# Compressibility (1/GPa) = 0.02587274
#
# Stress axis : x y z
#
# Youngs Moduli (GPa) = 119.28470 111.71090 32.96364
#
# Poissons Ratio (x) = 0.01615 0.15736
# Poissons Ratio (y) = 0.01725 0.19715
# Poissons Ratio (z) = 0.56944 0.66814
#
# Static dielectric constant tensor:
#      x y z
#    x 5.829730 0.454690 -0.420560 
#    y 0.454690 5.090350 0.144910 
#    z -0.420560 0.144910 4.185000 
# 
# 
# High freq. dielectric constant tensor:
#      x y z
#    x 1.955260 -0.013760 0.005890 
#    y -0.013760 1.970570 0.030310 
#    z 0.005890 0.030310 1.915020 
# 
# From -- ./inp_files/241998.got.cif
#   From: 2010.06.25/outbox.cif.g09.slc.cpg/sg2_121_cif.got.tgz:241998.got - 2010.06.27 13:26:56.
