data_PCOD8027499
_publ_section_title
;
Structure prediction by ZEFSAII (Michael W. Deem and Ramdas Pophale) SiO2 
 PCOD8027499
Probable space group: P -1
;
_chemical_formula_sum "Si O2"
_cell_formula_units_Z 12
_cell_length_a 15.046579
_cell_length_b 8.864204
_cell_length_c 8.405434
_cell_angle_alpha 74.522138
_cell_angle_beta 102.487618
_cell_angle_gamma 40.487079
_cell_volume 520.807534
_symmetry_space_group_name_H-M "P -1"
_symmetry_group_IT_number 2
_symmetry_cell_setting 'triclinic'
loop_
_space_group_symop_operation_xyz
x,y,z
-x,-y,-z
loop_
_atom_site_type_symbol
_atom_site_label
_atom_site_fract_x
_atom_site_fract_y
_atom_site_fract_z
Si Si1 0.012475 0.268130 0.701844
Si Si2 0.649687 0.619761 0.494056
Si Si3 0.627808 0.781012 0.960221
Si Si4 0.372956 0.668229 0.556628
Si Si5 0.342843 0.562892 0.117038
Si Si6 0.012032 0.352107 0.319712
O O1 0.070084 0.214968 0.558229
O O2 0.023521 0.409545 0.770337
O O3 0.806120 0.513650 0.556962
O O4 0.147466 0.940364 0.923953
O O5 0.673562 0.446794 0.418391
O O6 0.656425 0.542058 0.694535
O O7 0.454923 0.997796 0.282867
O O8 0.628382 0.595088 0.976022
O O9 0.834623 0.526139 0.141272
O O10 0.500000 0.000000 0.000000
O O11 0.500000 0.500000 0.500000
O O12 0.491523 0.556762 0.783333
O O13 0.183484 0.048875 0.359007
#
# Coordination Sequence:
#
# PCOD8027499 Si02
#       6
#     2   2   2   2   2   2
#     4  11  24  43  72 104 139 184 230 281 354 402
#     4  11  23  46  69 102 141 179 234 279 347 411
#     4  12  25  43  70 104 138 182 231 283 349 406
#     4  10  24  45  70 102 139 184 227 281 347 406
#     4  11  25  44  69 101 141 185 228 286 339 416
#     4  11  25  44  69 104 143 179 231 289 336 418
#
# _framework density 23.041141
#
# number of rings (size 3 to 8) (size 9 to 14) (size 15 to 20)
#    0.000    1.000    1.667    4.000    4.667    4.667 
#    0.000    7.500    0.000    0.000    0.000    0.000 
#    0.000    0.000    0.000    0.000    0.000    0.000 
#
# Total GULP energy -148849.578925 kJ/mol
# GULP energy per Si atom -12404.131577 kJ/mol
# Density = 2.298870 g / cm^3
# Si number density = 23.041141 Si / 1000 Ang^3
#
#
#
# Elastic Constant Matrix: (Units=GPa)
#
#
# Indices 1 2 3 4 5 6 
#
# 1 101.3932 46.1466 26.8095 5.6051 34.9748 27.7661
# 2 46.1466 131.0781 44.4654 -20.2133 24.4093 18.4100
# 3 26.8095 44.4654 119.3751 -22.7735 17.3138 6.2697
# 4 5.6051 -20.2133 -22.7735 35.5703 0.7406 3.9795
# 5 34.9748 24.4093 17.3138 0.7406 49.4532 7.0297
# 6 27.7661 18.4100 6.2697 3.9795 7.0297 51.2865
#
#
#
# Elastic Compliance Matrix: (Units=1/GPa)
#
#
# Indices 1 2 3 4 5 6 
#
# 1 0.016909 -0.003666 -0.001839 -0.005070 -0.008570 -0.006046
# 2 -0.003666 0.011112 -0.001759 0.006030 -0.002086 -0.001971
# 3 -0.001839 -0.001759 0.010898 0.006299 -0.001747 0.000046
# 4 -0.005070 0.006030 0.006299 0.036721 -0.001747 -0.002799
# 5 -0.008570 -0.002086 -0.001747 -0.001747 0.027673 0.001945
# 6 -0.006046 -0.001971 0.000046 -0.002799 0.001945 0.023424
#
#
# Mechanical properties :
#
#
# Convention : Reuss Voigt Hill
#
# Bulk Modulus (GPa) = 40.99915 65.18769 53.09342
# Shear Modulus (GPa) = 33.46829 42.89033 38.17931
#
# Velocity S-wave (km/s) = 3.81536 4.31915 4.07505
# Velocity P-wave (km/s) = 6.10261 7.29567 6.72564
#
# Compressibility (1/GPa) = 0.02439075
#
# Stress axis : x y z
#
# Youngs Moduli (GPa) = 59.13861 89.99678 91.76134
#
# Poissons Ratio (x) = 0.32994 0.16872
# Poissons Ratio (y) = 0.21681 0.16143
# Poissons Ratio (z) = 0.10874 0.15832
#
# Static dielectric constant tensor:
#      x y z
#    x 4.530610 0.502960 0.230080 
#    y 0.502960 4.293130 0.003810 
#    z 0.230080 0.003810 4.259380 
# 
# 
# High freq. dielectric constant tensor:
#      x y z
#    x 1.919750 0.019690 0.012460 
#    y 0.019690 1.914970 -0.006280 
#    z 0.012460 -0.006280 1.916840 
# 
# From -- ./inp_files/147367.got.cif
#   From: 2010.06.25/outbox.cif.g09.slc.cpg/sg2_74_cif.got.tgz:147367.got - 2010.06.27 13:26:56.
