data_PCOD8027487
_publ_section_title
;
Structure prediction by ZEFSAII (Michael W. Deem and Ramdas Pophale) SiO2 
 PCOD8027487
Probable space group: P -1
;
_chemical_formula_sum "Si O2"
_cell_formula_units_Z 12
_cell_length_a 8.257445
_cell_length_b 6.856130
_cell_length_c 14.836129
_cell_angle_alpha 49.707870
_cell_angle_beta 94.271589
_cell_angle_gamma 72.452515
_cell_volume 567.379123
_symmetry_space_group_name_H-M "P -1"
_symmetry_group_IT_number 2
_symmetry_cell_setting 'triclinic'
loop_
_space_group_symop_operation_xyz
x,y,z
-x,-y,-z
loop_
_atom_site_type_symbol
_atom_site_label
_atom_site_fract_x
_atom_site_fract_y
_atom_site_fract_z
Si Si1 0.182793 0.306329 0.725163
Si Si2 0.890654 0.765348 0.695509
Si Si3 0.665774 0.417400 0.771919
Si Si4 0.622917 0.402306 0.445747
Si Si5 0.648768 0.268841 0.011428
Si Si6 0.011392 0.047046 0.177902
O O1 0.287978 0.381804 0.628394
O O2 0.069837 0.589195 0.695784
O O3 0.331564 0.049070 0.870840
O O4 0.045618 0.191347 0.711178
O O5 0.759812 0.617428 0.736505
O O6 0.783582 0.082992 0.556524
O O7 0.956922 0.771012 0.797679
O O8 0.495062 0.588509 0.648690
O O9 0.591487 0.351380 0.881298
O O10 0.804935 0.114501 0.824268
O O11 0.500000 0.500000 0.500000
O O12 0.846615 0.260311 0.042049
O O13 0.500000 0.500000 0.000000
#
# Coordination Sequence:
#
# PCOD8027487 Si02
#       6
#     2   2   2   2   2   2
#     4   9  25  45  65  98 132 176 224 274 331 392
#     4  11  23  45  69  99 134 183 215 274 334 396
#     4  11  24  45  68 101 138 171 225 273 335 396
#     4  12  25  44  68 100 137 180 222 273 329 396
#     4  10  24  45  70 100 134 172 224 282 332 394
#     4   9  22  45  67  99 132 175 219 274 335 393
#
# _framework density 21.149877
#
# number of rings (size 3 to 8) (size 9 to 14) (size 15 to 20)
#    1.000    0.667    1.667    1.500    4.667    2.000 
#    3.000    0.000    0.000    0.000    0.000    0.000 
#    0.000    0.000    0.000    0.000    0.000    0.000 
#
# Total GULP energy -148784.298475 kJ/mol
# GULP energy per Si atom -12398.691540 kJ/mol
# Density = 2.110174 g / cm^3
# Si number density = 21.149877 Si / 1000 Ang^3
#
#
#
# Elastic Constant Matrix: (Units=GPa)
#
#
# Indices 1 2 3 4 5 6 
#
# 1 67.4147 38.1878 35.3689 3.9517 -13.3991 -17.4482
# 2 38.1878 100.9759 44.4865 3.4839 -4.0500 -13.5764
# 3 35.3689 44.4865 128.7852 -1.1810 -3.3261 -19.0875
# 4 3.9517 3.4839 -1.1810 36.3428 3.2845 4.5497
# 5 -13.3991 -4.0500 -3.3261 3.2845 46.6540 3.0989
# 6 -17.4482 -13.5764 -19.0875 4.5497 3.0989 29.7352
#
#
#
# Elastic Compliance Matrix: (Units=1/GPa)
#
#
# Indices 1 2 3 4 5 6 
#
# 1 0.023475 -0.006014 -0.002902 -0.003728 0.005668 0.009146
# 2 -0.006014 0.013598 -0.002924 -0.000801 -0.000766 0.001005
# 3 -0.002902 -0.002924 0.010065 0.000554 -0.000635 0.003405
# 4 -0.003728 -0.000801 0.000554 0.029058 -0.002724 -0.006360
# 5 0.005668 -0.000766 -0.000635 -0.002724 0.023104 0.000578
# 6 0.009146 0.001005 0.003405 -0.006360 0.000578 0.042554
#
#
# Mechanical properties :
#
#
# Convention : Reuss Voigt Hill
#
# Bulk Modulus (GPa) = 42.62763 59.25135 50.93949
# Shear Modulus (GPa) = 28.84299 34.48856 31.66578
#
# Velocity S-wave (km/s) = 3.69690 4.04254 3.87358
# Velocity P-wave (km/s) = 6.19851 7.06154 6.64405
#
# Compressibility (1/GPa) = 0.02345896
#
# Stress axis : x y z
#
# Youngs Moduli (GPa) = 42.59895 73.54103 99.35369
#
# Poissons Ratio (x) = 0.44226 0.28832
# Poissons Ratio (y) = 0.25618 0.29048
# Poissons Ratio (z) = 0.12362 0.21501
#
# Static dielectric constant tensor:
#      x y z
#    x 3.839470 -0.074360 0.074290 
#    y -0.074360 3.824450 -0.053530 
#    z 0.074290 -0.053530 3.756070 
# 
# 
# High freq. dielectric constant tensor:
#      x y z
#    x 1.832640 -0.008770 0.003920 
#    y -0.008770 1.829270 -0.003630 
#    z 0.003920 -0.003630 1.824460 
# 
# From -- ./inp_files/372408.got.cif
#   From: 2010.06.25/outbox.cif.g09.slc.cpg/sg2_187_cif.got.tgz:372408.got - 2010.06.27 13:26:56.
