data_PCOD8027784
_publ_section_title
;
Structure prediction by ZEFSAII (Michael W. Deem and Ramdas Pophale) SiO2 
 PCOD8027784
Probable space group: P -1
;
_chemical_formula_sum "Si O2"
_cell_formula_units_Z 14
_cell_length_a 4.851409
_cell_length_b 18.822819
_cell_length_c 8.911444
_cell_angle_alpha 130.680099
_cell_angle_beta 58.930821
_cell_angle_gamma 112.299607
_cell_volume 527.436851
_symmetry_space_group_name_H-M "P -1"
_symmetry_group_IT_number 2
_symmetry_cell_setting 'triclinic'
loop_
_space_group_symop_operation_xyz
x,y,z
-x,-y,-z
loop_
_atom_site_type_symbol
_atom_site_label
_atom_site_fract_x
_atom_site_fract_y
_atom_site_fract_z
Si Si1 0.303250 0.730032 0.115450
Si Si2 0.272310 0.167823 0.632086
Si Si3 0.113213 0.910492 0.112288
Si Si4 0.488468 0.525987 0.866948
Si Si5 0.175514 0.244773 0.224916
Si Si6 0.759187 0.903793 0.775351
Si Si7 0.844149 0.544214 0.407941
O O1 0.427189 0.808818 0.310716
O O2 0.919742 0.738186 0.219501
O O3 0.402307 0.631428 0.011331
O O4 0.455961 0.750106 0.933874
O O5 0.392710 0.122792 0.382743
O O6 0.012058 0.094718 0.688686
O O7 0.987444 0.004475 0.193247
O O8 0.498981 0.929427 0.011142
O O9 0.028955 0.810104 0.921290
O O10 0.213427 0.461106 0.764846
O O11 0.860072 0.513815 0.692177
O O12 0.500000 0.500000 0.000000
O O13 0.097521 0.189660 0.326666
O O14 0.065396 0.349211 0.422421
O O15 0.500000 0.500000 0.500000
#
# Coordination Sequence:
#
# PCOD8027784 Si02
#       7
#     2   2   2   2   2   2   2
#     4  11  25  46  69 100 146 183 232 289 363 412
#     4  11  25  44  71 104 140 188 229 294 349 430
#     4  10  24  47  67 107 140 189 232 303 351 428
#     4  12  28  46  70 105 148 187 239 303 357 427
#     4  11  25  43  73  98 144 182 241 293 353 424
#     4  11  24  43  74 101 142 186 243 287 363 423
#     4  12  27  46  74 105 139 192 245 290 361 432
#
# _framework density 26.543462999999999
#
# number of rings (size 3 to 8) (size 9 to 14) (size 15 to 20)
#    0.000    0.857    2.857    2.571    8.000    0.000 
#    0.000    2.143    0.000    0.000    0.000    0.000 
#    0.000    0.000    0.000    0.000    0.000    0.000 
#
# Total GULP energy -173467.215117 kJ/mol
# GULP energy per Si atom -12390.515366 kJ/mol
# Density = 2.648305 g / cm^3
# Si number density = 26.543463 Si / 1000 Ang^3
#
#
#
# Elastic Constant Matrix: (Units=GPa)
#
#
# Indices 1 2 3 4 5 6 
#
# 1 62.7706 6.4013 -11.5531 15.4986 13.0886 -7.5786
# 2 6.4013 144.0621 35.4398 19.8589 4.4819 -19.8766
# 3 -11.5531 35.4398 76.2168 10.4712 18.7554 -3.6026
# 4 15.4986 19.8589 10.4712 50.3450 -0.2767 5.9547
# 5 13.0886 4.4819 18.7554 -0.2767 37.7285 -0.4623
# 6 -7.5786 -19.8766 -3.6026 5.9547 -0.4623 29.6276
#
#
#
# Elastic Compliance Matrix: (Units=1/GPa)
#
#
# Indices 1 2 3 4 5 6 
#
# 1 0.023654 -0.000148 0.008507 -0.010104 -0.012383 0.008823
# 2 -0.000148 0.009216 -0.003726 -0.003570 0.000861 0.006423
# 3 0.008507 -0.003726 0.020168 -0.005779 -0.012539 0.003095
# 4 -0.010104 -0.003570 -0.005779 0.026921 0.006865 -0.010986
# 5 -0.012383 0.000861 -0.012539 0.006865 0.036922 -0.004918
# 6 0.008823 0.006423 0.003095 -0.010986 -0.004918 0.042826
#
#
# Mechanical properties :
#
#
# Convention : Reuss Voigt Hill
#
# Bulk Modulus (GPa) = 16.05024 38.18060 27.11542
# Shear Modulus (GPa) = 29.20403 40.39097 34.79750
#
# Velocity S-wave (km/s) = 3.32058 3.90512 3.62465
# Velocity P-wave (km/s) = 4.55648 5.89480 5.26831
#
# Compressibility (1/GPa) = 0.06230435
#
# Stress axis : x y z
#
# Youngs Moduli (GPa) = 42.27592 108.50649 49.58289
#
# Poissons Ratio (x) = 0.01609 -0.42180
# Poissons Ratio (y) = 0.00627 0.18473
# Poissons Ratio (z) = -0.35964 0.40427
#
# Static dielectric constant tensor:
#      x y z
#    x 5.184910 -0.465760 -0.034860 
#    y -0.465760 5.504560 -0.007010 
#    z -0.034860 -0.007010 5.219990 
# 
# 
# High freq. dielectric constant tensor:
#      x y z
#    x 2.046320 -0.012560 0.004210 
#    y -0.012560 2.076170 -0.007810 
#    z 0.004210 -0.007810 2.074960 
# 
# From -- ./inp_files/55707.got.cif
#   From: 2010.06.25/outbox.cif.g09.slc.cpg/sg2_28_cif.got.tgz:55707.got - 2010.06.27 13:26:56.
