data_PCOD8027720
_publ_section_title
;
Structure prediction by ZEFSAII (Michael W. Deem and Ramdas Pophale) SiO2 
 PCOD8027720
Probable space group: P -1
;
_chemical_formula_sum "Si O2"
_cell_formula_units_Z 16
_cell_length_a 24.780488
_cell_length_b 8.414396
_cell_length_c 8.554267
_cell_angle_alpha 107.196041
_cell_angle_beta 42.518181
_cell_angle_gamma 137.206333
_cell_volume 692.347163
_symmetry_space_group_name_H-M "P -1"
_symmetry_group_IT_number 2
_symmetry_cell_setting 'triclinic'
loop_
_space_group_symop_operation_xyz
x,y,z
-x,-y,-z
loop_
_atom_site_type_symbol
_atom_site_label
_atom_site_fract_x
_atom_site_fract_y
_atom_site_fract_z
Si Si1 0.364546 0.373801 0.236514
Si Si2 0.098727 0.785062 0.681805
Si Si3 0.377387 0.387274 0.559657
Si Si4 0.110825 0.056035 0.024554
Si Si5 0.866517 0.521975 0.548977
Si Si6 0.590124 0.898049 0.452137
Si Si7 0.145654 0.493342 0.061075
Si Si8 0.601708 0.270825 0.960415
O O1 0.346854 0.413970 0.461450
O O2 0.366929 0.510008 0.134829
O O3 0.236038 0.050300 0.373762
O O4 0.500000 0.500000 0.000000
O O5 0.107781 0.602936 0.642933
O O6 0.972621 0.597739 0.785750
O O7 0.085925 0.878723 0.889520
O O8 0.522805 0.688262 0.389981
O O9 0.370230 0.173552 0.522104
O O10 0.246579 0.239381 0.886830
O O11 0.989246 0.848582 0.345205
O O12 0.122293 0.262911 0.995876
O O13 0.855006 0.473345 0.743721
O O14 0.733093 0.384015 0.733869
O O15 0.471391 0.816176 0.744824
O O16 0.714625 0.213097 0.224105
O O17 0.500000 0.000000 0.000000
#
# Coordination Sequence:
#
# PCOD8027720 Si02
#       8
#     2   2   2   2   2   2   2   2
#     4  11  23  46  72 104 141 183 239 291 354 421
#     4  11  26  45  76 104 141 192 240 297 358 425
#     4  10  24  46  72 104 139 189 232 298 350 435
#     4  11  25  46  73 100 147 186 243 295 360 418
#     4  12  27  47  71 109 146 189 241 298 357 429
#     4  11  26  45  71 104 146 187 238 288 368 416
#     4  12  27  46  75 106 147 191 239 297 358 433
#     4  12  28  42  71 105 145 186 237 292 353 426
#
# _framework density 23.109791000000001
#
# number of rings (size 3 to 8) (size 9 to 14) (size 15 to 20)
#    0.000    0.750    1.250    4.500   10.500    2.000 
#    0.000    0.000    0.000    0.000    0.000    0.000 
#    0.000    0.000    0.000    0.000    0.000    0.000 
#
# Total GULP energy -198331.015398 kJ/mol
# GULP energy per Si atom -12395.688462 kJ/mol
# Density = 2.305719 g / cm^3
# Si number density = 23.109791 Si / 1000 Ang^3
#
#
#
# Elastic Constant Matrix: (Units=GPa)
#
#
# Indices 1 2 3 4 5 6 
#
# 1 120.8954 45.0071 69.1175 -14.4980 -19.9631 -5.0190
# 2 45.0071 116.8207 63.6489 -16.9447 0.8099 -16.6549
# 3 69.1175 63.6489 156.9992 -33.9588 -18.4086 -10.1903
# 4 -14.4980 -16.9447 -33.9588 50.5161 0.7260 -3.7455
# 5 -19.9631 0.8099 -18.4086 0.7260 50.7588 0.3188
# 6 -5.0190 -16.6549 -10.1903 -3.7455 0.3188 38.5426
#
#
#
# Elastic Compliance Matrix: (Units=1/GPa)
#
#
# Indices 1 2 3 4 5 6 
#
# 1 0.011985 -0.002636 -0.003891 -0.000156 0.003351 -0.000650
# 2 -0.002636 0.012336 -0.003586 0.001318 -0.002579 0.004189
# 3 -0.003891 -0.003586 0.011025 0.005156 0.002443 0.001340
# 4 -0.000156 0.001318 0.005156 0.023952 0.001418 0.004228
# 5 0.003351 -0.002579 0.002443 0.001418 0.021926 -0.000076
# 6 -0.000650 0.004189 0.001340 0.004228 -0.000076 0.028436
#
#
# Mechanical properties :
#
#
# Convention : Reuss Voigt Hill
#
# Bulk Modulus (GPa) = 66.13787 83.36248 74.75018
# Shear Modulus (GPa) = 37.05748 42.42630 39.74189
#
# Velocity S-wave (km/s) = 4.00877 4.28934 4.15142
# Velocity P-wave (km/s) = 7.07870 7.78986 7.44278
#
# Compressibility (1/GPa) = 0.01511993
#
# Stress axis : x y z
#
# Youngs Moduli (GPa) = 83.43804 81.06511 90.70565
#
# Poissons Ratio (x) = 0.21370 0.35290
# Poissons Ratio (y) = 0.21996 0.32526
# Poissons Ratio (z) = 0.32463 0.29069
#
# Static dielectric constant tensor:
#      x y z
#    x 6.391590 -0.385470 0.455000 
#    y -0.385470 4.176810 -0.318060 
#    z 0.455000 -0.318060 5.041470 
# 
# 
# High freq. dielectric constant tensor:
#      x y z
#    x 1.913110 -0.002340 -0.014970 
#    y -0.002340 1.916820 -0.013980 
#    z -0.014970 -0.013980 1.935570 
# 
# From -- ./inp_files/356477.got.cif
#   From: 2010.06.25/outbox.cif.g09.slc.cpg/sg2_179_cif.got.tgz:356477.got - 2010.06.27 13:26:56.
