data_PCOD8027367
_publ_section_title
;
Structure prediction by ZEFSAII (Michael W. Deem and Ramdas Pophale) SiO2 
 PCOD8027367
Probable space group: P -1
;
_chemical_formula_sum "Si O2"
_cell_formula_units_Z 14
_cell_length_a 12.252752
_cell_length_b 14.385956
_cell_length_c 8.547376
_cell_angle_alpha 64.239728
_cell_angle_beta 125.472778
_cell_angle_gamma 150.008131
_cell_volume 604.722591
_symmetry_space_group_name_H-M "P -1"
_symmetry_group_IT_number 2
_symmetry_cell_setting 'triclinic'
loop_
_space_group_symop_operation_xyz
x,y,z
-x,-y,-z
loop_
_atom_site_type_symbol
_atom_site_label
_atom_site_fract_x
_atom_site_fract_y
_atom_site_fract_z
Si Si1 0.885908 0.287628 0.654163
Si Si2 0.474357 0.109082 0.239861
Si Si3 0.553887 0.381104 0.174611
Si Si4 0.488336 0.521605 0.230238
Si Si5 0.579382 0.933887 0.121426
Si Si6 0.133836 0.324052 0.347766
Si Si7 0.832868 0.420186 0.773456
O O1 0.715292 0.200827 0.425474
O O2 0.910921 0.405530 0.696635
O O3 0.150729 0.423385 0.716882
O O4 0.767019 0.116267 0.776621
O O5 0.457168 0.203222 0.257554
O O6 0.497139 0.160751 0.041665
O O7 0.440469 0.379050 0.216889
O O8 0.455452 0.357435 0.942959
O O9 0.248659 0.402935 0.212064
O O10 0.719888 0.663968 0.434375
O O11 0.444446 0.786349 0.256707
O O12 0.863298 0.105851 0.268536
O O13 0.500000 0.000000 0.000000
O O14 0.143968 0.444162 0.346785
O O15 0.000000 0.500000 0.000000
#
# Coordination Sequence:
#
# PCOD8027367 Si02
#       7
#     2   2   2   2   2   2   2
#     4  11  24  38  64  99 130 158 208 264 323 386
#     4  11  23  40  61  98 131 159 206 267 325 375
#     4  11  23  43  66  87 126 174 214 251 320 364
#     4  10  24  45  65  89 125 181 216 258 294 384
#     4  12  23  38  65  97 128 163 204 262 324 377
#     4  11  24  44  65  92 133 163 219 260 313 371
#     4  12  22  39  67  99 129 165 202 266 332 374
#
# _framework density 23.151111
#
# number of rings (size 3 to 8) (size 9 to 14) (size 15 to 20)
#    0.000    0.857    2.857    4.714    2.000    0.000 
#    0.000   15.714    0.000    0.000    0.000    0.000 
#    0.000    0.000    0.000    0.000    0.000    0.000 
#
# Total GULP energy -173678.842788 kJ/mol
# GULP energy per Si atom -12405.631628 kJ/mol
# Density = 2.309842 g / cm^3
# Si number density = 23.151111 Si / 1000 Ang^3
#
#
#
# Elastic Constant Matrix: (Units=GPa)
#
#
# Indices 1 2 3 4 5 6 
#
# 1 95.4464 24.1041 -4.5705 5.5611 6.5269 -6.3992
# 2 24.1041 69.6298 22.8561 18.4464 7.1463 -1.8785
# 3 -4.5705 22.8561 81.4991 13.2134 6.5077 3.6569
# 4 5.5611 18.4464 13.2134 30.2056 -0.8770 6.5406
# 5 6.5269 7.1463 6.5077 -0.8770 31.9613 -2.5279
# 6 -6.3992 -1.8785 3.6569 6.5406 -2.5279 29.7901
#
#
#
# Elastic Compliance Matrix: (Units=1/GPa)
#
#
# Indices 1 2 3 4 5 6 
#
# 1 0.011993 -0.004341 0.002096 -0.000982 -0.001765 0.002111
# 2 -0.004341 0.020402 -0.004154 -0.010563 -0.002887 0.002938
# 3 0.002096 -0.004154 0.014461 -0.004052 -0.002627 -0.000920
# 4 -0.000982 -0.010563 -0.004052 0.043711 0.003823 -0.009652
# 5 -0.001765 -0.002887 -0.002627 0.003823 0.033070 0.001728
# 6 0.002111 0.002938 -0.000920 -0.009652 0.001728 0.036586
#
#
# Mechanical properties :
#
#
# Convention : Reuss Voigt Hill
#
# Bulk Modulus (GPa) = 29.36318 36.81719 33.09019
# Shear Modulus (GPa) = 27.11866 32.00379 29.56122
#
# Velocity S-wave (km/s) = 3.42625 3.72208 3.57722
# Velocity P-wave (km/s) = 5.32570 5.86595 5.60234
#
# Compressibility (1/GPa) = 0.03405625
#
# Stress axis : x y z
#
# Youngs Moduli (GPa) = 83.38011 49.01490 69.15371
#
# Poissons Ratio (x) = 0.21279 -0.14491
# Poissons Ratio (y) = 0.36199 0.28726
# Poissons Ratio (z) = -0.17473 0.20360
#
# Static dielectric constant tensor:
#      x y z
#    x 4.764370 -0.321110 -0.061230 
#    y -0.321110 4.361590 -0.046810 
#    z -0.061230 -0.046810 4.357690 
# 
# 
# High freq. dielectric constant tensor:
#      x y z
#    x 1.918730 -0.004150 -0.006590 
#    y -0.004150 1.902290 0.002760 
#    z -0.006590 0.002760 1.927020 
# 
# From -- ./inp_files/191061.got.cif
#   From: 2010.06.25/outbox.cif.g09.slc.cpg/sg2_96_cif.got.tgz:191061.got - 2010.06.27 13:26:56.
