data_PCOD8027674
_publ_section_title
;
Structure prediction by ZEFSAII (Michael W. Deem and Ramdas Pophale) SiO2 
 PCOD8027674
Probable space group: P -1
;
_chemical_formula_sum "Si O2"
_cell_formula_units_Z 14
_cell_length_a 7.576826
_cell_length_b 19.180242
_cell_length_c 11.823552
_cell_angle_alpha 147.581072
_cell_angle_beta 69.705530
_cell_angle_gamma 131.914601
_cell_volume 575.127776
_symmetry_space_group_name_H-M "P -1"
_symmetry_group_IT_number 2
_symmetry_cell_setting 'triclinic'
loop_
_space_group_symop_operation_xyz
x,y,z
-x,-y,-z
loop_
_atom_site_type_symbol
_atom_site_label
_atom_site_fract_x
_atom_site_fract_y
_atom_site_fract_z
Si Si1 0.183225 0.898633 0.777853
Si Si2 0.103035 0.487094 0.574638
Si Si3 0.597630 0.736830 0.669473
Si Si4 0.803368 0.837097 0.224369
Si Si5 0.716237 0.050617 0.425515
Si Si6 0.168306 0.434617 0.162524
Si Si7 0.192914 0.478716 0.962741
O O1 0.355529 0.957324 0.702029
O O2 0.117888 0.733769 0.634711
O O3 0.885204 0.808826 0.688851
O O4 0.352819 0.082914 0.075134
O O5 0.417460 0.594067 0.625115
O O6 0.000000 0.500000 0.500000
O O7 0.105529 0.610456 0.830310
O O8 0.419519 0.620938 0.437835
O O9 0.489355 0.637278 0.054179
O O10 0.756391 0.916083 0.243134
O O11 0.930748 0.763916 0.054783
O O12 0.000000 0.000000 0.500000
O O13 0.500000 0.000000 0.500000
O O14 0.027184 0.265157 0.671855
O O15 0.277858 0.506834 0.111535
O O16 0.000000 0.500000 0.000000
#
# Coordination Sequence:
#
# PCOD8027674 Si02
#       7
#     2   2   2   2   2   2   2
#     4  11  25  46  77 108 151 193 257 312 377 471
#     4  10  24  46  70 108 143 194 244 308 384 446
#     4  10  25  47  74 109 145 196 254 312 389 443
#     4  12  27  46  72 110 155 202 257 314 387 456
#     4  12  27  47  75 115 150 208 254 312 390 459
#     4  11  25  45  72 105 151 191 247 322 377 449
#     4  12  25  47  73 107 152 199 260 312 375 457
#
# _framework density 24.342416
#
# number of rings (size 3 to 8) (size 9 to 14) (size 15 to 20)
#    0.000    0.857    2.857    2.571    4.000    9.143 
#    0.000    0.000    0.000    0.000    0.000    0.000 
#    0.000    0.000    0.000    0.000    0.000    0.000 
#
# Total GULP energy -173440.569417 kJ/mol
# GULP energy per Si atom -12388.612101 kJ/mol
# Density = 2.428701 g / cm^3
# Si number density = 24.342416 Si / 1000 Ang^3
#
#
#
# Elastic Constant Matrix: (Units=GPa)
#
#
# Indices 1 2 3 4 5 6 
#
# 1 79.3970 30.1744 50.0690 3.0183 -23.3848 -16.7666
# 2 30.1744 105.4267 55.9454 12.7119 -16.5073 -21.5789
# 3 50.0690 55.9454 174.7910 4.0088 -15.2175 -13.2513
# 4 3.0183 12.7119 4.0088 40.1406 -0.6753 -2.2010
# 5 -23.3848 -16.5073 -15.2175 -0.6753 47.9847 9.6859
# 6 -16.7666 -21.5789 -13.2513 -2.2010 9.6859 44.4823
#
#
#
# Elastic Compliance Matrix: (Units=1/GPa)
#
#
# Indices 1 2 3 4 5 6 
#
# 1 0.018284 -0.001345 -0.003964 -0.000245 0.006453 0.003642
# 2 -0.001345 0.013215 -0.003268 -0.003487 0.001930 0.004338
# 3 -0.003964 -0.003268 0.007804 0.000511 -0.000446 -0.000632
# 4 -0.000245 -0.003487 0.000511 0.025961 -0.000755 -0.000183
# 5 0.006453 0.001930 -0.000446 -0.000755 0.024947 -0.002234
# 6 0.003642 0.004338 -0.000632 -0.000183 -0.002234 0.026247
#
#
# Mechanical properties :
#
#
# Convention : Reuss Voigt Hill
#
# Bulk Modulus (GPa) = 45.14477 70.22134 57.68305
# Shear Modulus (GPa) = 35.46256 41.41658 38.43957
#
# Velocity S-wave (km/s) = 3.82097 4.12930 3.97812
# Velocity P-wave (km/s) = 6.16867 7.18643 6.69691
#
# Compressibility (1/GPa) = 0.02215096
#
# Stress axis : x y z
#
# Youngs Moduli (GPa) = 54.69161 75.67442 128.14089
#
# Poissons Ratio (x) = 0.10175 0.50792
# Poissons Ratio (y) = 0.07354 0.41871
# Poissons Ratio (z) = 0.21678 0.24727
#
# Static dielectric constant tensor:
#      x y z
#    x 5.033180 0.791490 -0.470440 
#    y 0.791490 5.389180 -0.184010 
#    z -0.470440 -0.184010 4.773650 
# 
# 
# High freq. dielectric constant tensor:
#      x y z
#    x 1.964310 0.005410 -0.009580 
#    y 0.005410 1.973200 0.003990 
#    z -0.009580 0.003990 1.981010 
# 
# From -- ./inp_files/405690.got.cif
#   From: 2010.06.25/outbox.cif.g09.slc.cpg/sg2_203_cif.got.tgz:405690.got - 2010.06.27 13:26:56.
