data_PCOD8027651
_publ_section_title
;
Structure prediction by ZEFSAII (Michael W. Deem and Ramdas Pophale) SiO2 
 PCOD8027651
Probable space group: P -1
;
_chemical_formula_sum "Si O2"
_cell_formula_units_Z 16
_cell_length_a 11.752634
_cell_length_b 8.991851
_cell_length_c 8.211082
_cell_angle_alpha 83.500320
_cell_angle_beta 128.068255
_cell_angle_gamma 86.973211
_cell_volume 670.364012
_symmetry_space_group_name_H-M "P -1"
_symmetry_group_IT_number 2
_symmetry_cell_setting 'triclinic'
loop_
_space_group_symop_operation_xyz
x,y,z
-x,-y,-z
loop_
_atom_site_type_symbol
_atom_site_label
_atom_site_fract_x
_atom_site_fract_y
_atom_site_fract_z
Si Si1 0.179142 0.239720 0.855066
Si Si2 0.372184 0.419463 0.827399
Si Si3 0.528375 0.223972 0.736400
Si Si4 0.055987 0.320467 0.068142
Si Si5 0.262712 0.092935 0.452364
Si Si6 0.245162 0.937613 0.801051
Si Si7 0.780082 0.198454 0.720043
Si Si8 0.133425 0.687770 0.552239
O O1 0.332975 0.274595 0.912073
O O2 0.033278 0.327094 0.628316
O O3 0.171247 0.059515 0.853706
O O4 0.174496 0.286566 0.032852
O O5 0.418721 0.370303 0.690217
O O6 0.217657 0.526942 0.701147
O O7 0.500000 0.500000 0.000000
O O8 0.428655 0.120834 0.565464
O O9 0.643701 0.270513 0.703024
O O10 0.604447 0.145673 0.976725
O O11 0.145354 0.250324 0.315624
O O12 0.000000 0.500000 0.000000
O O13 0.923718 0.226133 0.939412
O O14 0.264453 0.030221 0.643704
O O15 0.222027 0.979651 0.290587
O O16 0.141032 0.813200 0.684476
O O17 0.774531 0.276558 0.529938
#
# Coordination Sequence:
#
# PCOD8027651 Si02
#       8
#     2   2   2   2   2   2   2   2
#     4  11  25  44  72  96 136 178 231 281 331 404
#     4  12  26  43  67 102 143 180 223 281 344 403
#     4  12  25  43  71 103 137 182 225 279 341 406
#     4  11  27  47  69 101 138 181 225 281 340 403
#     4  11  24  45  72 100 137 179 230 281 337 401
#     4  11  23  44  73 103 135 175 231 282 336 398
#     4  10  25  45  70  99 139 175 231 278 336 404
#     4  10  24  46  69 102 134 181 228 280 339 402
#
# _framework density 23.867630999999999
#
# number of rings (size 3 to 8) (size 9 to 14) (size 15 to 20)
#    0.000    1.000    2.500    2.625    5.250    5.500 
#    0.000    0.000    0.000    0.000    0.000    0.000 
#    0.000    0.000    0.000    0.000    0.000    0.000 
#
# Total GULP energy -198341.243449 kJ/mol
# GULP energy per Si atom -12396.327716 kJ/mol
# Density = 2.381331 g / cm^3
# Si number density = 23.867631 Si / 1000 Ang^3
#
#
#
# Elastic Constant Matrix: (Units=GPa)
#
#
# Indices 1 2 3 4 5 6 
#
# 1 115.6700 39.2287 11.5903 26.6301 5.4066 -1.4466
# 2 39.2287 101.6801 30.0481 16.5833 -2.2461 -7.5613
# 3 11.5903 30.0481 104.5581 15.8034 13.3545 18.9135
# 4 26.6301 16.5833 15.8034 31.7970 -0.6449 2.6280
# 5 5.4066 -2.2461 13.3545 -0.6449 33.3088 10.6136
# 6 -1.4466 -7.5613 18.9135 2.6280 10.6136 33.6172
#
#
#
# Elastic Compliance Matrix: (Units=1/GPa)
#
#
# Indices 1 2 3 4 5 6 
#
# 1 0.011921 -0.003560 0.001326 -0.008901 -0.003081 0.000635
# 2 -0.003560 0.013181 -0.004129 -0.002208 0.001543 0.004820
# 3 0.001326 -0.004129 0.013027 -0.004957 -0.003695 -0.006647
# 4 -0.008901 -0.002208 -0.004957 0.042874 0.005085 -0.003048
# 5 -0.003081 0.001543 -0.003695 0.005085 0.035137 -0.009198
# 6 0.000635 0.004820 -0.006647 -0.003048 -0.009198 0.037740
#
#
# Mechanical properties :
#
#
# Convention : Reuss Voigt Hill
#
# Bulk Modulus (GPa) = 39.36541 53.73803 46.55172
# Shear Modulus (GPa) = 28.55942 35.81401 32.18671
#
# Velocity S-wave (km/s) = 3.46291 3.87787 3.67625
# Velocity P-wave (km/s) = 5.70246 6.52797 6.12913
#
# Compressibility (1/GPa) = 0.02540301
#
# Stress axis : x y z
#
# Youngs Moduli (GPa) = 83.88542 75.86731 76.76328
#
# Poissons Ratio (x) = 0.27009 -0.10176
# Poissons Ratio (y) = 0.29864 0.31692
# Poissons Ratio (z) = -0.11120 0.31322
#
# Static dielectric constant tensor:
#      x y z
#    x 4.108010 -0.109220 0.053070 
#    y -0.109220 4.513780 0.129220 
#    z 0.053070 0.129220 4.251900 
# 
# 
# High freq. dielectric constant tensor:
#      x y z
#    x 1.942220 -0.002670 0.006870 
#    y -0.002670 1.953200 0.011520 
#    z 0.006870 0.011520 1.944640 
# 
# From -- ./inp_files/216337.got.cif
#   From: 2010.06.25/outbox.cif.g09.slc.cpg/sg2_109_cif.got.tgz:216337.got - 2010.06.27 13:26:56.
