data_PCOD8027232
_publ_section_title
;
Structure prediction by ZEFSAII (Michael W. Deem and Ramdas Pophale) SiO2 
 PCOD8027232
Probable space group: P -1
;
_chemical_formula_sum "Si O2"
_cell_formula_units_Z 16
_cell_length_a 15.197168
_cell_length_b 15.090914
_cell_length_c 15.271384
_cell_angle_alpha 152.408996
_cell_angle_beta 152.723328
_cell_angle_gamma 45.533831
_cell_volume 677.711352
_symmetry_space_group_name_H-M "P -1"
_symmetry_group_IT_number 2
_symmetry_cell_setting 'triclinic'
loop_
_space_group_symop_operation_xyz
x,y,z
-x,-y,-z
loop_
_atom_site_type_symbol
_atom_site_label
_atom_site_fract_x
_atom_site_fract_y
_atom_site_fract_z
Si Si1 0.217828 0.127673 0.254400
Si Si2 0.412375 0.750412 0.208005
Si Si3 0.853733 0.476727 0.723160
Si Si4 0.672352 0.767573 0.155257
Si Si5 0.590258 0.640135 0.534147
Si Si6 0.042595 0.408972 0.660624
Si Si7 0.729299 0.207984 0.542894
Si Si8 0.294232 0.751534 0.922221
O O1 0.383850 0.286974 0.610715
O O2 0.226033 0.269230 0.300316
O O3 0.316260 0.976223 0.170594
O O4 0.000000 0.000000 0.000000
O O5 0.500000 0.000000 0.500000
O O6 0.225852 0.645392 0.022382
O O7 0.319066 0.637414 0.933893
O O8 0.703433 0.598697 0.683172
O O9 0.740703 0.283568 0.519257
O O10 0.875957 0.385221 0.568294
O O11 0.079929 0.628994 0.090449
O O12 0.851648 0.753934 0.366154
O O13 0.753295 0.988310 0.368743
O O14 0.599323 0.576205 0.854353
O O15 0.482846 0.769606 0.044847
O O16 0.487207 0.800917 0.612342
O O17 0.926119 0.361029 0.421672
#
# Coordination Sequence:
#
# PCOD8027232 Si02
#       8
#     2   2   2   2   2   2   2   2
#     4  11  25  44  73 107 142 194 242 288 363 428
#     4  10  24  44  70  97 148 189 234 297 354 426
#     4  11  26  46  77 103 143 186 244 300 362 436
#     4  12  26  44  76 100 151 187 237 302 360 436
#     4  12  24  49  73 106 146 188 238 303 358 429
#     4  12  25  47  70 111 145 189 245 300 359 433
#     4  11  26  50  71 108 141 193 237 299 373 424
#     4  11  26  44  69 106 141 194 239 294 359 425
#
# _framework density 23.608872000000002
#
# number of rings (size 3 to 8) (size 9 to 14) (size 15 to 20)
#    0.000    0.750    5.000    0.750    8.750    2.500 
#    0.000    0.000    0.000    0.000    0.000    0.000 
#    0.000    0.000    0.000    0.000    0.000    0.000 
#
# Total GULP energy -198267.131089 kJ/mol
# GULP energy per Si atom -12391.695693 kJ/mol
# Density = 2.355514 g / cm^3
# Si number density = 23.608872 Si / 1000 Ang^3
#
#
#
# Elastic Constant Matrix: (Units=GPa)
#
#
# Indices 1 2 3 4 5 6 
#
# 1 94.9282 51.7518 58.0312 -5.1795 11.6224 24.4945
# 2 51.7518 93.0024 49.4061 -10.1096 0.5639 14.7820
# 3 58.0312 49.4061 63.8601 -11.6175 6.9759 14.8650
# 4 -5.1795 -10.1096 -11.6175 51.7667 4.0392 -2.2439
# 5 11.6224 0.5639 6.9759 4.0392 33.9838 3.6833
# 6 24.4945 14.7820 14.8650 -2.2439 3.6833 47.6977
#
#
#
# Elastic Compliance Matrix: (Units=1/GPa)
#
#
# Indices 1 2 3 4 5 6 
#
# 1 0.026663 -0.003367 -0.020210 -0.002484 -0.003951 -0.006162
# 2 -0.003367 0.019019 -0.011760 0.000451 0.003276 -0.000732
# 3 -0.020210 -0.011760 0.044332 0.005876 -0.002767 0.000697
# 4 -0.002484 0.000451 0.005876 0.020722 -0.002882 0.000502
# 5 -0.003951 0.003276 -0.002767 -0.002882 0.031710 -0.000708
# 6 -0.006162 -0.000732 0.000697 0.000502 -0.000708 0.024218
#
#
# Mechanical properties :
#
#
# Convention : Reuss Voigt Hill
#
# Bulk Modulus (GPa) = 51.70802 63.35210 57.53006
# Shear Modulus (GPa) = 20.50994 32.86307 26.68650
#
# Velocity S-wave (km/s) = 2.95063 3.73497 3.36573
# Velocity P-wave (km/s) = 5.79291 6.74480 6.28690
#
# Compressibility (1/GPa) = 0.01933936
#
# Stress axis : x y z
#
# Youngs Moduli (GPa) = 37.50507 52.57986 22.55713
#
# Poissons Ratio (x) = 0.17704 0.45589
# Poissons Ratio (y) = 0.12628 0.26527
# Poissons Ratio (z) = 0.75799 0.61833
#
# Static dielectric constant tensor:
#      x y z
#    x 4.470750 0.397660 -0.402460 
#    y 0.397660 5.056040 -0.133010 
#    z -0.402460 -0.133010 4.690420 
# 
# 
# High freq. dielectric constant tensor:
#      x y z
#    x 1.928610 0.015950 0.004600 
#    y 0.015950 1.954310 -0.012550 
#    z 0.004600 -0.012550 1.925590 
# 
# From -- ./inp_files/534655.got.cif
#   From: 2010.06.25/outbox.cif.g09.slc.cpg/sg2_268_cif.got.tgz:534655.got - 2010.06.27 13:26:56.
