data_PCOD8027904
_publ_section_title
;
Structure prediction by ZEFSAII (Michael W. Deem and Ramdas Pophale) SiO2 
 PCOD8027904
Probable space group: P -1
;
_chemical_formula_sum "Si O2"
_cell_formula_units_Z 10
_cell_length_a 5.952216
_cell_length_b 13.842118
_cell_length_c 14.010430
_cell_angle_alpha 20.606173
_cell_angle_beta 78.742347
_cell_angle_gamma 79.047618
_cell_volume 398.355366
_symmetry_space_group_name_H-M "P -1"
_symmetry_group_IT_number 2
_symmetry_cell_setting 'triclinic'
loop_
_space_group_symop_operation_xyz
x,y,z
-x,-y,-z
loop_
_atom_site_type_symbol
_atom_site_label
_atom_site_fract_x
_atom_site_fract_y
_atom_site_fract_z
Si Si1 0.858831 0.612438 0.633385
Si Si2 0.456993 0.443485 0.945635
Si Si3 0.576510 0.849139 0.265085
Si Si4 0.855012 0.064917 0.545477
Si Si5 0.283596 0.328286 0.779135
O O1 0.698356 0.432767 0.881209
O O2 0.730391 0.785801 0.402059
O O3 0.976730 0.855383 0.457453
O O4 0.029023 0.375193 0.797757
O O5 0.315023 0.685940 0.686845
O O6 0.500000 0.500000 0.000000
O O7 0.307374 0.178606 0.185281
O O8 0.376722 0.630956 0.476281
O O9 0.732092 0.830749 0.173523
O O10 0.450542 0.150996 0.000860
O O11 0.000000 0.000000 0.500000
#
# Coordination Sequence:
#
# PCOD8027904 Si02
#       5
#     2   2   2   2   2
#     4  12  27  46  80 112 154 198 257 306 382 442
#     4  12  28  50  74 107 149 201 252 309 374 444
#     4  10  24  48  75 110 152 195 249 309 374 450
#     4  12  28  50  74 107 149 201 252 309 374 444
#     4  10  24  48  75 110 152 195 249 309 374 450
#
# _framework density 25.103216
#
# number of rings (size 3 to 8) (size 9 to 14) (size 15 to 20)
#    0.000    0.800    2.000    3.000    0.000   11.200 
#    0.000    6.000    0.000    3.600    0.000    0.000 
#    0.000    0.000    0.000    0.000    0.000    0.000 
#
# Total GULP energy -124043.924631 kJ/mol
# GULP energy per Si atom -12404.392463 kJ/mol
# Density = 2.504608 g / cm^3
# Si number density = 25.103216 Si / 1000 Ang^3
#
#
#
# Elastic Constant Matrix: (Units=GPa)
#
#
# Indices 1 2 3 4 5 6 
#
# 1 149.4563 89.1956 69.4889 23.7232 -9.5628 -18.2849
# 2 89.1956 151.7834 51.0542 29.4336 -0.5891 -21.9110
# 3 69.4889 51.0542 169.7328 1.8563 -7.4231 -11.1539
# 4 23.7232 29.4336 1.8563 35.3107 7.1026 9.3287
# 5 -9.5628 -0.5891 -7.4231 7.1026 55.4912 0.5846
# 6 -18.2849 -21.9110 -11.1539 9.3287 0.5846 68.7236
#
#
#
# Elastic Compliance Matrix: (Units=1/GPa)
#
#
# Indices 1 2 3 4 5 6 
#
# 1 0.012286 -0.004881 -0.003289 -0.004947 0.002239 0.001831
# 2 -0.004881 0.011764 -0.001246 -0.007322 0.000020 0.003244
# 3 -0.003289 -0.001246 0.007554 0.002959 0.000056 -0.000449
# 4 -0.004947 -0.007322 0.002959 0.041033 -0.005695 -0.008692
# 5 0.002239 0.000020 0.000056 -0.005695 0.019131 0.001222
# 6 0.001831 0.003244 -0.000449 -0.008692 0.001222 0.017169
#
#
# Mechanical properties :
#
#
# Convention : Reuss Voigt Hill
#
# Bulk Modulus (GPa) = 78.30461 98.93887 88.62174
# Shear Modulus (GPa) = 37.87131 49.32069 43.59600
#
# Velocity S-wave (km/s) = 3.88831 4.43732 4.17186
# Velocity P-wave (km/s) = 7.17073 8.10873 7.65411
#
# Compressibility (1/GPa) = 0.01277064
#
# Stress axis : x y z
#
# Youngs Moduli (GPa) = 81.39507 85.00468 132.38543
#
# Poissons Ratio (x) = 0.41491 0.43545
# Poissons Ratio (y) = 0.39729 0.16497
# Poissons Ratio (z) = 0.26773 0.10593
#
# Static dielectric constant tensor:
#      x y z
#    x 4.758340 -0.065140 -0.061770 
#    y -0.065140 4.942850 0.024100 
#    z -0.061770 0.024100 4.573060 
# 
# 
# High freq. dielectric constant tensor:
#      x y z
#    x 2.007010 -0.005410 0.002750 
#    y -0.005410 2.025740 0.005160 
#    z 0.002750 0.005160 2.012860 
# 
# From -- ./inp_files/4461.got.cif
#   From: 2010.06.25/outbox.cif.g09.slc.cpg/sg2_3_cif.got.tgz:4461.got - 2010.06.27 13:26:56.
