data_PCOD8027966
_publ_section_title
;
Structure prediction by ZEFSAII (Michael W. Deem and Ramdas Pophale) SiO2 
 PCOD8027966
Probable space group: P -1
;
_chemical_formula_sum "Si O2"
_cell_formula_units_Z 16
_cell_length_a 15.821183
_cell_length_b 16.537733
_cell_length_c 11.945983
_cell_angle_alpha 54.164702
_cell_angle_beta 153.022186
_cell_angle_gamma 144.277898
_cell_volume 706.507013
_symmetry_space_group_name_H-M "P -1"
_symmetry_group_IT_number 2
_symmetry_cell_setting 'triclinic'
loop_
_space_group_symop_operation_xyz
x,y,z
-x,-y,-z
loop_
_atom_site_type_symbol
_atom_site_label
_atom_site_fract_x
_atom_site_fract_y
_atom_site_fract_z
Si Si1 0.855274 0.208204 0.376373
Si Si2 0.382063 0.103928 0.349464
Si Si3 0.175666 0.477590 0.693593
Si Si4 0.263779 0.318749 0.336049
Si Si5 0.779073 0.136464 0.103596
Si Si6 0.598240 0.836892 0.422197
Si Si7 0.061431 0.765408 0.207030
Si Si8 0.830137 0.830656 0.125385
O O1 0.030161 0.382944 0.478394
O O2 0.943615 0.168960 0.612771
O O3 0.487386 0.059947 0.059811
O O4 0.960575 0.211717 0.375337
O O5 0.477577 0.181537 0.520982
O O6 0.667779 0.196616 0.533846
O O7 0.176919 0.918669 0.269408
O O8 0.212802 0.127729 0.074975
O O9 0.000000 0.500000 0.500000
O O10 0.151845 0.380403 0.836794
O O11 0.523640 0.657118 0.953737
O O12 0.500000 0.500000 0.500000
O O13 0.458391 0.298928 0.576660
O O14 0.998854 0.205009 0.206508
O O15 0.128925 0.288169 0.082448
O O16 0.627234 0.182614 0.889874
O O17 0.960134 0.006420 0.683850
#
# Coordination Sequence:
#
# PCOD8027966 Si02
#       8
#     2   2   2   2   2   2   2   2
#     4  10  25  45  71  96 146 188 227 292 352 419
#     4  11  22  43  76 105 139 184 234 300 349 424
#     4  12  26  41  67 110 145 176 228 295 360 413
#     4  12  28  44  72 101 140 190 239 291 345 422
#     4  10  24  51  68  99 141 191 238 286 346 419
#     4  11  24  45  75 103 136 187 244 286 354 420
#     4  11  24  44  71 106 146 180 233 299 357 408
#     4  11  23  42  69 106 133 186 228 285 359 414
#
# _framework density 22.646626000000001
#
# number of rings (size 3 to 8) (size 9 to 14) (size 15 to 20)
#    0.000    1.000    3.750    2.250    7.000    2.500 
#    0.000    1.875    0.000    0.000    0.000    0.000 
#    0.000    0.000    0.000    0.000    0.000    0.000 
#
# Total GULP energy -198222.779717 kJ/mol
# GULP energy per Si atom -12388.923732 kJ/mol
# Density = 2.259508 g / cm^3
# Si number density = 22.646626 Si / 1000 Ang^3
#
#
#
# Elastic Constant Matrix: (Units=GPa)
#
#
# Indices 1 2 3 4 5 6 
#
# 1 111.8122 46.4337 27.3127 2.7343 -1.5015 3.2871
# 2 46.4337 103.3605 11.4110 0.8266 2.2170 1.8463
# 3 27.3127 11.4110 53.8913 -10.9574 -0.6470 -4.1119
# 4 2.7343 0.8266 -10.9574 35.5658 5.2235 0.1856
# 5 -1.5015 2.2170 -0.6470 5.2235 21.6058 -2.2898
# 6 3.2871 1.8463 -4.1119 0.1856 -2.2898 46.3125
#
#
#
# Elastic Compliance Matrix: (Units=1/GPa)
#
#
# Indices 1 2 3 4 5 6 
#
# 1 0.012616 -0.005000 -0.006002 -0.002962 0.001807 -0.001128
# 2 -0.005000 0.011953 0.000042 0.000368 -0.001683 -0.000203
# 3 -0.006002 0.000042 0.023350 0.007842 -0.001364 0.002399
# 4 -0.002962 0.000368 0.007842 0.031877 -0.007675 0.000385
# 5 0.001807 -0.001683 -0.001364 -0.007675 0.048636 0.002253
# 6 -0.001128 -0.000203 0.002399 0.000385 0.002253 0.022003
#
#
# Mechanical properties :
#
#
# Convention : Reuss Voigt Hill
#
# Bulk Modulus (GPa) = 38.46193 48.81987 43.64090
# Shear Modulus (GPa) = 27.62113 32.95726 30.28919
#
# Velocity S-wave (km/s) = 3.49615 3.81896 3.66111
# Velocity P-wave (km/s) = 5.77216 6.40702 6.09786
#
# Compressibility (1/GPa) = 0.02599973
#
# Stress axis : x y z
#
# Youngs Moduli (GPa) = 79.26524 83.66002 42.82677
#
# Poissons Ratio (x) = 0.41829 0.25704
# Poissons Ratio (y) = 0.39632 -0.00180
# Poissons Ratio (z) = 0.47574 -0.00352
#
# Static dielectric constant tensor:
#      x y z
#    x 4.169280 -0.016880 0.006130 
#    y -0.016880 4.204500 -0.241420 
#    z 0.006130 -0.241420 3.904440 
# 
# 
# High freq. dielectric constant tensor:
#      x y z
#    x 1.894030 0.002680 -0.003980 
#    y 0.002680 1.902320 -0.005030 
#    z -0.003980 -0.005030 1.893430 
# 
# From -- ./inp_files/455675.got.cif
#   From: 2010.06.25/outbox.cif.g09.slc.cpg/sg2_228_cif.got.tgz:455675.got - 2010.06.27 13:26:56.
