data_PCOD8027157
_publ_section_title
;
Structure prediction by ZEFSAII (Michael W. Deem and Ramdas Pophale) SiO2 
 PCOD8027157
Probable space group: P -1
;
_chemical_formula_sum "Si O2"
_cell_formula_units_Z 16
_cell_length_a 25.866112
_cell_length_b 9.196803
_cell_length_c 12.765739
_cell_angle_alpha 29.513216
_cell_angle_beta 27.480112
_cell_angle_gamma 38.603824
_cell_volume 689.718841
_symmetry_space_group_name_H-M "P -1"
_symmetry_group_IT_number 2
_symmetry_cell_setting 'triclinic'
loop_
_space_group_symop_operation_xyz
x,y,z
-x,-y,-z
loop_
_atom_site_type_symbol
_atom_site_label
_atom_site_fract_x
_atom_site_fract_y
_atom_site_fract_z
Si Si1 0.054974 0.172783 0.601424
Si Si2 0.255386 0.736282 0.213852
Si Si3 0.417011 0.815694 0.696289
Si Si4 0.551085 0.239560 0.828445
Si Si5 0.975947 0.546552 0.136050
Si Si6 0.157856 0.305147 0.119698
Si Si7 0.387130 0.185302 0.321396
Si Si8 0.755933 0.082463 0.437532
O O1 0.102554 0.139184 0.419999
O O2 0.000000 0.500000 0.500000
O O3 0.148182 0.135115 0.548857
O O4 0.971478 0.902837 0.940847
O O5 0.136119 0.589188 0.533107
O O6 0.347773 0.502579 0.243828
O O7 0.254138 0.064775 0.059281
O O8 0.299307 0.759791 0.000532
O O9 0.491935 0.533941 0.705464
O O10 0.500000 0.000000 0.500000
O O11 0.377220 0.949835 0.575346
O O12 0.684092 0.211040 0.586786
O O13 0.515433 0.201101 0.038710
O O14 0.500000 0.000000 0.000000
O O15 0.074543 0.372662 0.130664
O O16 0.000000 0.500000 0.000000
O O17 0.202923 0.619343 0.879349
O O18 0.308771 0.104377 0.414370
#
# Coordination Sequence:
#
# PCOD8027157 Si02
#       8
#     2   2   2   2   2   2   2   2
#     4  11  27  44  69 102 137 180 229 287 340 403
#     4  11  25  42  69 100 136 183 225 276 351 401
#     4  11  25  44  68 103 137 176 229 284 344 411
#     4   9  21  44  66  97 134 173 227 279 339 406
#     4  11  25  45  67  98 137 180 234 282 333 415
#     4  11  25  42  67 100 135 183 226 281 339 400
#     4  10  25  43  69 100 138 180 227 283 339 412
#     4  10  24  44  69 100 136 180 231 278 345 409
#
# _framework density 23.197859000000001
#
# number of rings (size 3 to 8) (size 9 to 14) (size 15 to 20)
#    0.000    1.500    1.250    1.125    5.250   11.000 
#    0.000    0.000    0.000    0.000    0.000    0.000 
#    0.000    0.000    0.000    0.000    0.000    0.000 
#
# Total GULP energy -198224.885993 kJ/mol
# GULP energy per Si atom -12389.055375 kJ/mol
# Density = 2.314506 g / cm^3
# Si number density = 23.197859 Si / 1000 Ang^3
#
#
#
# Elastic Constant Matrix: (Units=GPa)
#
#
# Indices 1 2 3 4 5 6 
#
# 1 92.6627 29.2320 40.2863 -6.8849 14.5614 1.3468
# 2 29.2320 162.9507 39.1691 -22.7072 5.6016 -9.0819
# 3 40.2863 39.1691 128.2477 -6.5890 16.6255 -15.1364
# 4 -6.8849 -22.7072 -6.5890 44.4190 -6.8702 -1.6633
# 5 14.5614 5.6016 16.6255 -6.8702 24.0458 -7.0848
# 6 1.3468 -9.0819 -15.1364 -1.6633 -7.0848 15.0306
#
#
#
# Elastic Compliance Matrix: (Units=1/GPa)
#
#
# Indices 1 2 3 4 5 6 
#
# 1 0.014827 -0.002142 -0.004208 -0.001284 -0.009291 -0.011383
# 2 -0.002142 0.007570 -0.001188 0.004052 0.003132 0.005494
# 3 -0.004208 -0.001188 0.010889 0.000470 -0.001653 0.009898
# 4 -0.001284 0.004052 0.000470 0.026443 0.010243 0.010791
# 5 -0.009291 0.003132 -0.001653 0.010243 0.059457 0.030220
# 6 -0.011383 0.005494 0.009898 0.010791 0.030220 0.096276
#
#
# Mechanical properties :
#
#
# Convention : Reuss Voigt Hill
#
# Bulk Modulus (GPa) = 54.92129 66.80401 60.86265
# Shear Modulus (GPa) = 21.13176 35.04400 28.08788
#
# Velocity S-wave (km/s) = 3.02145 3.89093 3.48342
# Velocity P-wave (km/s) = 5.99155 7.00327 6.51708
#
# Compressibility (1/GPa) = 0.01820787
#
# Stress axis : x y z
#
# Youngs Moduli (GPa) = 67.44304 132.10177 91.83615
#
# Poissons Ratio (x) = 0.28300 0.38648
# Poissons Ratio (y) = 0.14448 0.10915
# Poissons Ratio (z) = 0.28383 0.15700
#
# Static dielectric constant tensor:
#      x y z
#    x 3.779030 -0.031430 0.043730 
#    y -0.031430 0.407760 -5.700920 
#    z 0.043730 -5.700920 -3.298420 
# 
# 
# High freq. dielectric constant tensor:
#      x y z
#    x 1.893000 0.002900 0.007680 
#    y 0.002900 1.938000 -0.007160 
#    z 0.007680 -0.007160 1.939140 
# 
# From -- ./inp_files/476350.got.cif
#   From: 2010.06.25/outbox.cif.g09.slc.cpg/sg2_239_cif.got.tgz:476350.got - 2010.06.27 13:26:56.
