data_PCOD8027950
_publ_section_title
;
Structure prediction by ZEFSAII (Michael W. Deem and Ramdas Pophale) SiO2 
 PCOD8027950
Probable space group: P -1
;
_chemical_formula_sum "Si O2"
_cell_formula_units_Z 14
_cell_length_a 7.473474
_cell_length_b 4.835252
_cell_length_c 21.535158
_cell_angle_alpha 114.481673
_cell_angle_beta 129.251976
_cell_angle_gamma 90.019325
_cell_volume 508.957695
_symmetry_space_group_name_H-M "P -1"
_symmetry_group_IT_number 2
_symmetry_cell_setting 'triclinic'
loop_
_space_group_symop_operation_xyz
x,y,z
-x,-y,-z
loop_
_atom_site_type_symbol
_atom_site_label
_atom_site_fract_x
_atom_site_fract_y
_atom_site_fract_z
Si Si1 0.531989 0.673146 0.198111
Si Si2 0.735997 0.728510 0.451084
Si Si3 0.439300 0.200975 0.412587
Si Si4 0.930098 0.344462 0.372968
Si Si5 0.989506 0.443759 0.718305
Si Si6 0.187930 0.392811 0.993058
Si Si7 0.023068 0.354685 0.130780
O O1 0.729843 0.501669 0.234439
O O2 0.304351 0.515120 0.181467
O O3 0.661900 0.059009 0.275757
O O4 0.453860 0.604939 0.101706
O O5 0.496568 0.381667 0.374584
O O6 0.640876 0.026005 0.450638
O O7 0.884343 0.673603 0.417979
O O8 0.913444 0.776247 0.554696
O O9 0.500000 0.500000 0.500000
O O10 0.162136 0.936876 0.334469
O O11 0.097631 0.435284 0.353768
O O12 0.973296 0.645318 0.793938
O O13 0.153503 0.463085 0.919262
O O14 0.116956 0.013939 0.955786
O O15 0.000000 0.500000 0.000000
#
# Coordination Sequence:
#
# PCOD8027950 Si02
#       7
#     2   2   2   2   2   2   2
#     4  11  26  48  79 115 163 200 264 332 384 481
#     4  11  29  53  81 107 165 213 265 327 406 470
#     4  12  29  53  77 114 156 211 264 332 398 475
#     4  11  29  50  79 122 154 211 272 328 400 472
#     4  12  31  47  81 120 156 204 273 322 398 471
#     4  10  24  49  81 112 154 209 256 314 403 474
#     4  11  27  51  79 114 156 209 255 320 404 469
#
# _framework density 27.507197999999999
#
# number of rings (size 3 to 8) (size 9 to 14) (size 15 to 20)
#    0.000    0.857    0.000    3.857   20.000    2.286 
#    0.000    0.000    0.000    0.000    0.000    0.000 
#    0.000    0.000    0.000    0.000    0.000    0.000 
#
# Total GULP energy -173517.087809 kJ/mol
# GULP energy per Si atom -12394.077701 kJ/mol
# Density = 2.744459 g / cm^3
# Si number density = 27.507198 Si / 1000 Ang^3
#
#
#
# Elastic Constant Matrix: (Units=GPa)
#
#
# Indices 1 2 3 4 5 6 
#
# 1 115.8320 32.0264 45.3472 -7.3993 -22.8401 12.0959
# 2 32.0264 113.9250 19.2534 -4.7659 -20.9960 -0.2815
# 3 45.3472 19.2534 145.2936 5.9347 -11.5939 12.7459
# 4 -7.3993 -4.7659 5.9347 35.8090 3.2103 -18.6626
# 5 -22.8401 -20.9960 -11.5939 3.2103 37.2221 -4.5148
# 6 12.0959 -0.2815 12.7459 -18.6626 -4.5148 47.6176
#
#
#
# Elastic Compliance Matrix: (Units=1/GPa)
#
#
# Indices 1 2 3 4 5 6 
#
# 1 0.011433 -0.001761 -0.002925 0.001643 0.004845 -0.001028
# 2 -0.001761 0.010305 -0.000670 0.001624 0.004597 0.001760
# 3 -0.002925 -0.000670 0.008312 -0.003595 0.000380 -0.002859
# 4 0.001643 0.001624 -0.003595 0.036933 -0.000565 0.014976
# 5 0.004845 0.004597 0.000380 -0.000565 0.032791 0.001583
# 6 -0.001028 0.001760 -0.002859 0.014976 0.001583 0.028057
#
#
# Mechanical properties :
#
#
# Convention : Reuss Voigt Hill
#
# Bulk Modulus (GPa) = 51.70897 63.14494 57.42696
# Shear Modulus (GPa) = 34.48528 42.69132 38.58830
#
# Velocity S-wave (km/s) = 3.54458 3.94382 3.74952
# Velocity P-wave (km/s) = 5.96584 6.61392 6.29822
#
# Compressibility (1/GPa) = 0.01933900
#
# Stress axis : x y z
#
# Youngs Moduli (GPa) = 87.46764 97.03633 120.30333
#
# Poissons Ratio (x) = 0.17084 0.35192
# Poissons Ratio (y) = 0.15399 0.08060
# Poissons Ratio (z) = 0.25586 0.06501
#
# Static dielectric constant tensor:
#      x y z
#    x 6.462440 0.932450 0.427910 
#    y 0.932450 6.355540 -0.441900 
#    z 0.427910 -0.441900 5.827120 
# 
# 
# High freq. dielectric constant tensor:
#      x y z
#    x 2.124220 -0.003370 0.005030 
#    y -0.003370 2.124480 0.002880 
#    z 0.005030 0.002880 2.117230 
# 
# From -- ./inp_files/585391.got.cif
#   From: 2010.06.25/outbox.cif.g09.slc.cpg/sg2_293_cif.got.tgz:585391.got - 2010.06.27 13:26:56.
