data_PCOD8027722
_publ_section_title
;
Structure prediction by ZEFSAII (Michael W. Deem and Ramdas Pophale) SiO2 
 PCOD8027722
Probable space group: P -1
;
_chemical_formula_sum "Si O2"
_cell_formula_units_Z 16
_cell_length_a 9.183016
_cell_length_b 14.784487
_cell_length_c 8.033797
_cell_angle_alpha 41.163497
_cell_angle_beta 105.714244
_cell_angle_gamma 114.422562
_cell_volume 652.193385
_symmetry_space_group_name_H-M "P -1"
_symmetry_group_IT_number 2
_symmetry_cell_setting 'triclinic'
loop_
_space_group_symop_operation_xyz
x,y,z
-x,-y,-z
loop_
_atom_site_type_symbol
_atom_site_label
_atom_site_fract_x
_atom_site_fract_y
_atom_site_fract_z
Si Si1 0.131656 0.135215 0.275028
Si Si2 0.331811 0.391557 0.425790
Si Si3 0.611561 0.292520 0.033010
Si Si4 0.909335 0.315632 0.909249
Si Si5 0.738911 0.173158 0.715790
Si Si6 0.999966 0.599393 0.705164
Si Si7 0.302646 0.127751 0.014159
Si Si8 0.532082 0.740711 0.620808
O O1 0.292881 0.163202 0.393077
O O2 0.160384 0.101355 0.139394
O O3 0.000000 0.000000 0.500000
O O4 0.063249 0.269439 0.065167
O O5 0.386727 0.559988 0.270572
O O6 0.339401 0.281698 0.723633
O O7 0.444323 0.385047 0.313578
O O8 0.144344 0.338436 0.391884
O O9 0.778392 0.263613 0.091420
O O10 0.469614 0.147608 0.134226
O O11 0.589144 0.326836 0.171836
O O12 0.819739 0.244654 0.812203
O O13 0.969290 0.492469 0.680449
O O14 0.840107 0.265035 0.464907
O O15 0.554556 0.168905 0.646125
O O16 0.739919 0.007832 0.936930
O O17 0.000000 0.500000 0.000000
#
# Coordination Sequence:
#
# PCOD8027722 Si02
#       8
#     2   2   2   2   2   2   2   2
#     4  11  28  46  72 102 146 191 240 297 356 435
#     4  11  23  44  72 104 143 186 240 292 362 428
#     4  10  24  46  72 104 146 188 239 298 355 433
#     4  11  25  46  74 104 144 189 240 290 363 424
#     4  12  27  45  73 108 147 186 242 299 365 427
#     4  11  25  46  74 105 143 193 239 298 355 431
#     4  11  27  44  71 105 147 188 237 299 368 421
#     4  11  26  44  74 106 141 191 242 298 357 426
#
# _framework density 24.532601
#
# number of rings (size 3 to 8) (size 9 to 14) (size 15 to 20)
#    0.000    1.000    0.000    4.875    8.750    7.000 
#    0.000    0.000    0.000    0.000    0.000    0.000 
#    0.000    0.000    0.000    0.000    0.000    0.000 
#
# Total GULP energy -198327.500814 kJ/mol
# GULP energy per Si atom -12395.468801 kJ/mol
# Density = 2.447676 g / cm^3
# Si number density = 24.532601 Si / 1000 Ang^3
#
#
#
# Elastic Constant Matrix: (Units=GPa)
#
#
# Indices 1 2 3 4 5 6 
#
# 1 157.9085 35.2152 26.2671 1.5688 6.6168 -1.1710
# 2 35.2152 104.9950 29.6238 -1.1119 1.4975 -5.7508
# 3 26.2671 29.6238 65.6482 1.5621 -1.3912 3.0843
# 4 1.5688 -1.1119 1.5621 33.4066 0.0431 0.2043
# 5 6.6168 1.4975 -1.3912 0.0431 43.2785 2.1191
# 6 -1.1710 -5.7508 3.0843 0.2043 2.1191 38.8037
#
#
#
# Elastic Compliance Matrix: (Units=1/GPa)
#
#
# Indices 1 2 3 4 5 6 
#
# 1 0.007125 -0.001783 -0.002071 -0.000297 -0.001103 0.000177
# 2 -0.001783 0.011550 -0.004618 0.000672 -0.000376 0.002042
# 3 -0.002071 -0.004618 0.018298 -0.000900 0.001176 -0.002261
# 4 -0.000297 0.000672 -0.000900 0.030013 -0.000037 0.000006
# 5 -0.001103 -0.000376 0.001176 -0.000037 0.023397 -0.001460
# 6 0.000177 0.002042 -0.002261 0.000006 -0.001460 0.026338
#
#
# Mechanical properties :
#
#
# Convention : Reuss Voigt Hill
#
# Bulk Modulus (GPa) = 49.92970 56.75156 53.34063
# Shear Modulus (GPa) = 35.62735 38.92746 37.27741
#
# Velocity S-wave (km/s) = 3.81497 3.98774 3.90231
# Velocity P-wave (km/s) = 6.30887 6.66229 6.48799
#
# Compressibility (1/GPa) = 0.02002816
#
# Stress axis : x y z
#
# Youngs Moduli (GPa) = 140.34255 86.58243 54.65128
#
# Poissons Ratio (x) = 0.15440 0.11318
# Poissons Ratio (y) = 0.25027 0.25239
# Poissons Ratio (z) = 0.29064 0.39985
#
# Static dielectric constant tensor:
#      x y z
#    x 5.043100 0.049180 0.049840 
#    y 0.049180 4.559740 0.080680 
#    z 0.049840 0.080680 4.155190 
# 
# 
# High freq. dielectric constant tensor:
#      x y z
#    x 1.998530 -0.002530 -0.002890 
#    y -0.002530 1.975540 0.004480 
#    z -0.002890 0.004480 1.959780 
# 
# From -- ./inp_files/205337.got.cif
#   From: 2010.06.25/outbox.cif.g09.slc.cpg/sg2_103_cif.got.tgz:205337.got - 2010.06.27 13:26:56.
