data_PCOD8027896
_publ_section_title
;
Structure prediction by ZEFSAII (Michael W. Deem and Ramdas Pophale) SiO2 
 PCOD8027896
Probable space group: P -1
;
_chemical_formula_sum "Si O2"
_cell_formula_units_Z 12
_cell_length_a 8.529504
_cell_length_b 4.981201
_cell_length_c 11.173363
_cell_angle_alpha 106.599928
_cell_angle_beta 85.513909
_cell_angle_gamma 90.584927
_cell_volume 453.509113
_symmetry_space_group_name_H-M "P -1"
_symmetry_group_IT_number 2
_symmetry_cell_setting 'triclinic'
loop_
_space_group_symop_operation_xyz
x,y,z
-x,-y,-z
loop_
_atom_site_type_symbol
_atom_site_label
_atom_site_fract_x
_atom_site_fract_y
_atom_site_fract_z
Si Si1 0.154286 0.363279 0.662020
Si Si2 0.638376 0.582554 0.916150
Si Si3 0.621748 0.696714 0.671185
Si Si4 0.882939 0.724627 0.090080
Si Si5 0.130003 0.883913 0.251602
Si Si6 0.679099 0.197434 0.445694
O O1 0.206392 0.401012 0.803006
O O2 0.192054 0.644395 0.623458
O O3 0.967114 0.286597 0.661023
O O4 0.257514 0.110427 0.564099
O O5 0.573611 0.725161 0.817303
O O6 0.735732 0.306825 0.839759
O O7 0.500000 0.500000 0.000000
O O8 0.751576 0.803347 0.008670
O O9 0.646090 0.370683 0.591467
O O10 0.484802 0.839808 0.619650
O O11 0.790050 0.845685 0.661648
O O12 0.998024 0.971362 0.166706
O O13 0.000000 0.500000 0.000000
#
# Coordination Sequence:
#
# PCOD8027896 Si02
#       6
#     2   2   2   2   2   2
#     4  10  24  48  73 104 141 193 230 288 366 406
#     4  11  23  43  71 101 143 182 240 291 361 418
#     4  11  27  43  69 106 135 192 238 295 348 421
#     4   8  19  43  65 101 142 178 225 292 343 417
#     4   9  24  41  70 105 140 179 240 287 357 421
#     4  11  27  47  74 100 149 188 236 294 344 429
#
# _framework density 26.460328000000001
#
# number of rings (size 3 to 8) (size 9 to 14) (size 15 to 20)
#    1.000    1.000    0.000    1.000    9.333    4.000 
#    6.000    0.000    0.000    0.000    0.000    0.000 
#    0.000    0.000    0.000    0.000    0.000    0.000 
#
# Total GULP energy -148665.800026 kJ/mol
# GULP energy per Si atom -12388.816669 kJ/mol
# Density = 2.640010 g / cm^3
# Si number density = 26.460328 Si / 1000 Ang^3
#
#
#
# Elastic Constant Matrix: (Units=GPa)
#
#
# Indices 1 2 3 4 5 6 
#
# 1 144.1990 25.7283 47.0000 8.8341 10.1255 40.4507
# 2 25.7283 37.9918 9.2471 13.8651 13.1470 20.8142
# 3 47.0000 9.2471 107.6229 -10.2464 13.6549 21.2916
# 4 8.8341 13.8651 -10.2464 18.9976 3.0063 -6.0976
# 5 10.1255 13.1470 13.6549 3.0063 52.6422 10.3520
# 6 40.4507 20.8142 21.2916 -6.0976 10.3520 48.1994
#
#
#
# Elastic Compliance Matrix: (Units=1/GPa)
#
#
# Indices 1 2 3 4 5 6 
#
# 1 0.012058 0.005841 -0.004963 -0.016806 0.000984 -0.012787
# 2 0.005841 0.078353 -0.007162 -0.076997 -0.005769 -0.044075
# 3 -0.004963 -0.007162 0.013130 0.016288 -0.002385 0.004030
# 4 -0.016806 -0.076997 0.016288 0.144551 -0.001578 0.058785
# 5 0.000984 -0.005769 -0.002385 -0.001578 0.021363 -0.002068
# 6 -0.012787 -0.044075 0.004030 0.058785 -0.002068 0.056612
#
#
# Mechanical properties :
#
#
# Convention : Reuss Voigt Hill
#
# Bulk Modulus (GPa) = 10.99227 50.41826 30.70527
# Shear Modulus (GPa) = 13.55160 37.82372 25.68766
#
# Velocity S-wave (km/s) = 2.26552 3.78491 3.11915
# Velocity P-wave (km/s) = 3.31764 6.18032 4.95999
#
# Compressibility (1/GPa) = 0.09097299
#
# Stress axis : x y z
#
# Youngs Moduli (GPa) = 82.93427 12.76277 76.15939
#
# Poissons Ratio (x) = -0.07454 0.37796
# Poissons Ratio (y) = -0.48438 0.54544
# Poissons Ratio (z) = 0.41158 0.09140
#
# Static dielectric constant tensor:
#      x y z
#    x 5.064410 0.323440 0.316500 
#    y 0.323440 4.222060 0.192450 
#    z 0.316500 0.192450 5.311140 
# 
# 
# High freq. dielectric constant tensor:
#      x y z
#    x 2.069550 0.019490 0.000530 
#    y 0.019490 2.017400 0.006920 
#    z 0.000530 0.006920 2.083850 
# 
# From -- ./inp_files/371887.got.cif
#   From: 2010.06.25/outbox.cif.g09.slc.cpg/sg2_186_cif.got.tgz:371887.got - 2010.06.27 13:26:56.
