data_PCOD8027539
_publ_section_title
;
Structure prediction by ZEFSAII (Michael W. Deem and Ramdas Pophale) SiO2 
 PCOD8027539
Probable space group: P -1
;
_chemical_formula_sum "Si O2"
_cell_formula_units_Z 16
_cell_length_a 15.538904
_cell_length_b 8.178747
_cell_length_c 13.859850
_cell_angle_alpha 127.171024
_cell_angle_beta 38.140943
_cell_angle_gamma 100.300926
_cell_volume 692.011398
_symmetry_space_group_name_H-M "P -1"
_symmetry_group_IT_number 2
_symmetry_cell_setting 'triclinic'
loop_
_space_group_symop_operation_xyz
x,y,z
-x,-y,-z
loop_
_atom_site_type_symbol
_atom_site_label
_atom_site_fract_x
_atom_site_fract_y
_atom_site_fract_z
Si Si1 0.838305 0.010769 0.680386
Si Si2 0.048927 0.762219 0.938925
Si Si3 0.916447 0.773105 0.723421
Si Si4 0.829244 0.095154 0.404451
Si Si5 0.572825 0.953198 0.207494
Si Si6 0.441199 0.458221 0.831380
Si Si7 0.390408 0.458048 0.651051
Si Si8 0.217307 0.211905 0.514293
O O1 0.839688 0.979279 0.781263
O O2 0.822638 0.804504 0.567468
O O3 0.661864 0.293093 0.921006
O O4 0.000000 0.000000 0.500000
O O5 0.196236 0.662996 0.855353
O O6 0.092557 0.516992 0.754667
O O7 0.000000 0.000000 0.000000
O O8 0.878779 0.891680 0.202216
O O9 0.000000 0.500000 0.500000
O O10 0.059420 0.792665 0.655356
O O11 0.756165 0.871186 0.973416
O O12 0.638514 0.342311 0.635783
O O13 0.838684 0.949461 0.440333
O O14 0.618313 0.703861 0.130551
O O15 0.480893 0.158034 0.448937
O O16 0.422682 0.075137 0.300403
O O17 0.396815 0.513519 0.776810
O O18 0.500000 0.500000 0.500000
#
# Coordination Sequence:
#
# PCOD8027539 Si02
#       8
#     2   2   2   2   2   2   2   2
#     4  12  25  47  71 102 143 192 239 291 354 432
#     4  11  24  43  71 107 143 180 234 302 356 417
#     4  12  27  45  69 105 145 187 240 296 352 421
#     4  11  24  46  71 104 141 185 238 294 355 421
#     4  10  24  45  71 105 142 187 237 298 358 422
#     4  11  25  45  75 102 141 191 235 292 359 429
#     4  11  22  44  70 104 143 184 237 293 359 422
#     4  10  25  45  73 103 141 189 238 290 356 430
#
# _framework density 23.121005
#
# number of rings (size 3 to 8) (size 9 to 14) (size 15 to 20)
#    0.000    1.000    1.250    4.500    3.500    2.500 
#    4.500    0.000    0.000    0.000    0.000    0.000 
#    0.000    0.000    0.000    0.000    0.000    0.000 
#
# Total GULP energy -198233.440460 kJ/mol
# GULP energy per Si atom -12389.590029 kJ/mol
# Density = 2.306838 g / cm^3
# Si number density = 23.121005 Si / 1000 Ang^3
#
#
#
# Elastic Constant Matrix: (Units=GPa)
#
#
# Indices 1 2 3 4 5 6 
#
# 1 123.7981 46.3685 57.4048 0.8530 7.8607 9.4864
# 2 46.3685 102.0423 60.2079 -1.5928 -7.6101 10.7105
# 3 57.4048 60.2079 180.5670 5.4719 1.0670 12.4314
# 4 0.8530 -1.5928 5.4719 48.3875 7.5902 1.1437
# 5 7.8607 -7.6101 1.0670 7.5902 29.2286 -1.7312
# 6 9.4864 10.7105 12.4314 1.1437 -1.7312 36.0980
#
#
#
# Elastic Compliance Matrix: (Units=1/GPa)
#
#
# Indices 1 2 3 4 5 6 
#
# 1 0.010831 -0.003873 -0.002063 0.000581 -0.004068 -0.001200
# 2 -0.003873 0.014093 -0.003379 0.000224 0.004670 -0.001783
# 3 -0.002063 -0.003379 0.007417 -0.000821 -0.000442 -0.001005
# 4 0.000581 0.000224 -0.000821 0.021680 -0.005751 -0.000899
# 5 -0.004068 0.004670 -0.000442 -0.005751 0.038142 0.001847
# 6 -0.001200 -0.001783 -0.001005 -0.000899 0.001847 0.029010
#
#
# Mechanical properties :
#
#
# Convention : Reuss Voigt Hill
#
# Bulk Modulus (GPa) = 72.93551 81.59664 77.26607
# Shear Modulus (GPa) = 34.63236 38.90457 36.76847
#
# Velocity S-wave (km/s) = 3.87444 4.10646 3.99214
# Velocity P-wave (km/s) = 7.18531 7.60604 7.39866
#
# Compressibility (1/GPa) = 0.01371074
#
# Stress axis : x y z
#
# Youngs Moduli (GPa) = 92.32684 70.95939 134.81757
#
# Poissons Ratio (x) = 0.27481 0.27812
# Poissons Ratio (y) = 0.35756 0.45560
# Poissons Ratio (z) = 0.19047 0.23980
#
# Static dielectric constant tensor:
#      x y z
#    x 4.275040 -0.639040 0.212860 
#    y -0.639040 6.324370 -0.795630 
#    z 0.212860 -0.795630 4.624010 
# 
# 
# High freq. dielectric constant tensor:
#      x y z
#    x 1.914580 -0.002690 0.005780 
#    y -0.002690 1.918760 0.009270 
#    z 0.005780 0.009270 1.939190 
# 
# From -- ./inp_files/530133.got.cif
#   From: 2010.06.25/outbox.cif.g09.slc.cpg/sg2_266_cif.got.tgz:530133.got - 2010.06.27 13:26:56.
