data_PCOD8027800
_publ_section_title
;
Structure prediction by ZEFSAII (Michael W. Deem and Ramdas Pophale) SiO2 
 PCOD8027800
Probable space group: P -1
;
_chemical_formula_sum "Si O2"
_cell_formula_units_Z 16
_cell_length_a 21.618066
_cell_length_b 12.415037
_cell_length_c 18.493177
_cell_angle_alpha 146.182936
_cell_angle_beta 161.278083
_cell_angle_gamma 25.784613
_cell_volume 684.354119
_symmetry_space_group_name_H-M "P -1"
_symmetry_group_IT_number 2
_symmetry_cell_setting 'triclinic'
loop_
_space_group_symop_operation_xyz
x,y,z
-x,-y,-z
loop_
_atom_site_type_symbol
_atom_site_label
_atom_site_fract_x
_atom_site_fract_y
_atom_site_fract_z
Si Si1 0.070092 0.321167 0.911206
Si Si2 0.925861 0.758466 0.917701
Si Si3 0.016747 0.245532 0.587972
Si Si4 0.489442 0.991487 0.291838
Si Si5 0.043540 0.104474 0.263476
Si Si6 0.241317 0.565006 0.734661
Si Si7 0.848609 0.405246 0.069129
Si Si8 0.286910 0.686773 0.581555
O O1 0.111918 0.454804 0.968469
O O2 0.855617 0.304081 0.642584
O O3 0.000000 0.500000 0.000000
O O4 0.320061 0.054273 0.067705
O O5 0.936318 0.786150 0.858544
O O6 0.655749 0.879805 0.721205
O O7 0.995801 0.911060 0.121815
O O8 0.155968 0.360560 0.794099
O O9 0.891140 0.253693 0.379362
O O10 0.803477 0.390609 0.494819
O O11 0.216594 0.954827 0.669452
O O12 0.656459 0.074413 0.509562
O O13 0.699691 0.692824 0.366228
O O14 0.937907 0.305976 0.322923
O O15 0.906528 0.255424 0.122698
O O16 0.500000 0.500000 0.000000
O O17 0.585258 0.491728 0.795393
#
# Coordination Sequence:
#
# PCOD8027800 Si02
#       8
#     2   2   2   2   2   2   2   2
#     4  10  24  47  69 103 139 184 234 288 351 416
#     4  11  26  47  68 103 142 190 234 283 359 412
#     4  11  25  46  71 106 143 186 233 291 360 413
#     4  11  25  46  71 101 144 178 237 295 345 421
#     4  12  27  45  72 108 137 192 233 290 355 418
#     4  12  23  47  73 105 142 182 237 294 357 412
#     4  12  26  46  71 107 142 184 245 284 350 431
#     4  11  25  47  72 103 144 186 233 295 354 415
#
# _framework density 23.379708000000001
#
# number of rings (size 3 to 8) (size 9 to 14) (size 15 to 20)
#    0.000    0.750    3.750    2.625    5.250    3.000 
#    0.000    0.000    0.000    0.000    0.000    0.000 
#    0.000    0.000    0.000    0.000    0.000    0.000 
#
# Total GULP energy -198332.150853 kJ/mol
# GULP energy per Si atom -12395.759428 kJ/mol
# Density = 2.332649 g / cm^3
# Si number density = 23.379708 Si / 1000 Ang^3
#
#
#
# Elastic Constant Matrix: (Units=GPa)
#
#
# Indices 1 2 3 4 5 6 
#
# 1 126.2426 11.9175 40.6288 -18.5947 0.5125 -16.8773
# 2 11.9175 63.3924 16.9885 3.3490 8.4231 0.8158
# 3 40.6288 16.9885 152.2397 -8.2951 6.7701 0.1479
# 4 -18.5947 3.3490 -8.2951 32.0449 1.2113 1.7790
# 5 0.5125 8.4231 6.7701 1.2113 41.0280 0.3988
# 6 -16.8773 0.8158 0.1479 1.7790 0.3988 36.4001
#
#
#
# Elastic Compliance Matrix: (Units=1/GPa)
#
#
# Indices 1 2 3 4 5 6 
#
# 1 0.010182 -0.001694 -0.002265 0.005234 0.000396 0.004508
# 2 -0.001694 0.017076 -0.001475 -0.002976 -0.003144 -0.000982
# 3 -0.002265 -0.001475 0.007426 0.000856 -0.000909 -0.001079
# 4 0.005234 -0.002976 0.000856 0.034756 -0.000629 0.000798
# 5 0.000396 -0.003144 -0.000909 -0.000629 0.025183 0.000013
# 6 0.004508 -0.000982 -0.001079 0.000798 0.000013 0.029550
#
#
# Mechanical properties :
#
#
# Convention : Reuss Voigt Hill
#
# Bulk Modulus (GPa) = 41.98911 53.43825 47.71368
# Shear Modulus (GPa) = 34.97016 40.05059 37.51037
#
# Velocity S-wave (km/s) = 3.87169 4.14339 4.00984
# Velocity P-wave (km/s) = 6.16322 6.76731 6.47232
#
# Compressibility (1/GPa) = 0.02381570
#
# Stress axis : x y z
#
# Youngs Moduli (GPa) = 98.21065 58.56131 134.66596
#
# Poissons Ratio (x) = 0.09922 0.30503
# Poissons Ratio (y) = 0.16640 0.19860
# Poissons Ratio (z) = 0.22246 0.08636
#
# Static dielectric constant tensor:
#      x y z
#    x 4.581970 0.424310 -0.319650 
#    y 0.424310 4.881380 0.011040 
#    z -0.319650 0.011040 4.584230 
# 
# 
# High freq. dielectric constant tensor:
#      x y z
#    x 1.928470 0.007590 -0.001920 
#    y 0.007590 1.928580 0.015910 
#    z -0.001920 0.015910 1.921430 
# 
# From -- ./inp_files/428967.got.cif
#   From: 2010.06.25/outbox.cif.g09.slc.cpg/sg2_215_cif.got.tgz:428967.got - 2010.06.27 13:26:56.
