data_PCOD8027656
_publ_section_title
;
Structure prediction by ZEFSAII (Michael W. Deem and Ramdas Pophale) SiO2 
 PCOD8027656
Probable space group: P -1
;
_chemical_formula_sum "Si O2"
_cell_formula_units_Z 14
_cell_length_a 5.589435
_cell_length_b 16.485070
_cell_length_c 8.345360
_cell_angle_alpha 129.562465
_cell_angle_beta 66.104464
_cell_angle_gamma 100.139992
_cell_volume 538.326896
_symmetry_space_group_name_H-M "P -1"
_symmetry_group_IT_number 2
_symmetry_cell_setting 'triclinic'
loop_
_space_group_symop_operation_xyz
x,y,z
-x,-y,-z
loop_
_atom_site_type_symbol
_atom_site_label
_atom_site_fract_x
_atom_site_fract_y
_atom_site_fract_z
Si Si1 0.427032 0.343449 0.378820
Si Si2 0.981852 0.616409 0.721987
Si Si3 0.248297 0.146899 0.314578
Si Si4 0.706762 0.126017 0.576601
Si Si5 0.577871 0.658092 0.128813
Si Si6 0.431476 0.041074 0.822933
Si Si7 0.716447 0.498030 0.141628
O O1 0.252965 0.317403 0.237537
O O2 0.367593 0.258476 0.424676
O O3 0.313695 0.464182 0.617723
O O4 0.744412 0.332986 0.273457
O O5 0.000000 0.500000 0.500000
O O6 0.878192 0.625524 0.945293
O O7 0.980550 0.169402 0.516653
O O8 0.429993 0.056084 0.238538
O O9 0.233328 0.111684 0.085423
O O10 0.484421 0.215113 0.675889
O O11 0.642965 0.109447 0.762629
O O12 0.726007 0.010791 0.341021
O O13 0.524761 0.590934 0.217070
O O14 0.386436 0.616191 0.990655
O O15 0.000000 0.500000 0.000000
#
# Coordination Sequence:
#
# PCOD8027656 Si02
#       7
#     2   2   2   2   2   2   2
#     4  12  27  45  75 104 145 190 242 291 370 426
#     4  12  26  48  70 106 148 193 239 301 351 438
#     4  11  24  45  73 100 144 186 239 303 360 438
#     4  11  23  45  71 105 140 185 239 304 362 435
#     4  11  25  42  69 103 142 185 240 293 362 429
#     4  10  24  46  69 106 135 188 242 299 371 425
#     4  11  24  42  67 101 141 191 232 295 355 438
#
# _framework density 26.006502999999999
#
# number of rings (size 3 to 8) (size 9 to 14) (size 15 to 20)
#    0.000    0.857    1.429    4.714    8.000    0.000 
#   15.429    0.000    0.000    0.000    0.000    0.000 
#    0.000    0.000    0.000    0.000    0.000    0.000 
#
# Total GULP energy -173481.394981 kJ/mol
# GULP energy per Si atom -12391.528213 kJ/mol
# Density = 2.594731 g / cm^3
# Si number density = 26.006503 Si / 1000 Ang^3
#
#
#
# Elastic Constant Matrix: (Units=GPa)
#
#
# Indices 1 2 3 4 5 6 
#
# 1 105.9349 25.8122 -3.6249 -14.2558 -5.3784 26.3175
# 2 25.8122 120.2412 4.4060 -11.4094 -2.5371 22.0464
# 3 -3.6249 4.4060 77.7467 -1.6356 -7.2684 16.5466
# 4 -14.2558 -11.4094 -1.6356 45.9803 3.9751 -6.7822
# 5 -5.3784 -2.5371 -7.2684 3.9751 36.9308 -14.1942
# 6 26.3175 22.0464 16.5466 -6.7822 -14.1942 47.3407
#
#
#
# Elastic Compliance Matrix: (Units=1/GPa)
#
#
# Indices 1 2 3 4 5 6 
#
# 1 0.011714 -0.001167 0.001984 0.002516 -0.000765 -0.006531
# 2 -0.001167 0.009397 0.000170 0.001498 -0.001159 -0.003920
# 3 0.001984 0.000170 0.014281 0.000225 0.000821 -0.005895
# 4 0.002516 0.001498 0.000225 0.023150 -0.001740 0.000620
# 5 -0.000765 -0.001159 0.000821 -0.001740 0.030969 0.009714
# 6 -0.006531 -0.003920 -0.005895 0.000620 0.009714 0.031641
#
#
# Mechanical properties :
#
#
# Convention : Reuss Voigt Hill
#
# Bulk Modulus (GPa) = 26.76214 39.67881 33.22047
# Shear Modulus (GPa) = 37.98377 44.53899 41.26138
#
# Velocity S-wave (km/s) = 3.82586 4.14286 3.98751
# Velocity P-wave (km/s) = 5.46161 6.17857 5.83112
#
# Compressibility (1/GPa) = 0.03736623
#
# Stress axis : x y z
#
# Youngs Moduli (GPa) = 85.36641 106.41302 70.02161
#
# Poissons Ratio (x) = 0.12423 -0.13890
# Poissons Ratio (y) = 0.09966 -0.01193
# Poissons Ratio (z) = -0.16934 -0.01814
#
# Static dielectric constant tensor:
#      x y z
#    x 4.635520 -0.254600 0.458690 
#    y -0.254600 5.075420 -0.361970 
#    z 0.458690 -0.361970 4.888420 
# 
# 
# High freq. dielectric constant tensor:
#      x y z
#    x 2.021500 -0.006070 0.003520 
#    y -0.006070 2.060370 -0.010460 
#    z 0.003520 -0.010460 2.049060 
# 
# From -- ./inp_files/99511.got.cif
#   From: 2010.06.25/outbox.cif.g09.slc.cpg/sg2_50_cif.got.tgz:99511.got - 2010.06.27 13:26:56.
