data_PCOD8027788
_publ_section_title
;
Structure prediction by ZEFSAII (Michael W. Deem and Ramdas Pophale) SiO2 
 PCOD8027788
Probable space group: P -1
;
_chemical_formula_sum "Si O2"
_cell_formula_units_Z 16
_cell_length_a 12.883273
_cell_length_b 8.999243
_cell_length_c 16.878132
_cell_angle_alpha 129.232397
_cell_angle_beta 32.312356
_cell_angle_gamma 108.976011
_cell_volume 699.014164
_symmetry_space_group_name_H-M "P -1"
_symmetry_group_IT_number 2
_symmetry_cell_setting 'triclinic'
loop_
_space_group_symop_operation_xyz
x,y,z
-x,-y,-z
loop_
_atom_site_type_symbol
_atom_site_label
_atom_site_fract_x
_atom_site_fract_y
_atom_site_fract_z
Si Si1 0.864841 0.802674 0.037841
Si Si2 0.663829 0.293078 0.268868
Si Si3 0.809489 0.828976 0.644602
Si Si4 0.477283 0.734912 0.104044
Si Si5 0.043282 0.402338 0.257820
Si Si6 0.023637 0.879259 0.676654
Si Si7 0.481598 0.734525 0.285175
Si Si8 0.437672 0.711501 0.844026
O O1 0.967588 0.635046 0.840601
O O2 0.090649 0.737317 0.919251
O O3 0.695318 0.754561 0.183443
O O4 0.717543 0.061631 0.196097
O O5 0.500000 0.500000 0.500000
O O6 0.531092 0.336643 0.286562
O O7 0.976771 0.783902 0.594212
O O8 0.601232 0.800188 0.797126
O O9 0.940974 0.661545 0.431027
O O10 0.731263 0.075332 0.745976
O O11 0.456334 0.792241 0.228787
O O12 0.500000 0.500000 0.000000
O O13 0.697163 0.732154 0.927196
O O14 0.910038 0.308808 0.362235
O O15 0.241182 0.910114 0.538441
O O16 0.818876 0.109053 0.913555
O O17 0.516088 0.494663 0.201111
#
# Coordination Sequence:
#
# PCOD8027788 Si02
#       8
#     2   2   2   2   2   2   2   2
#     4  10  24  47  68 101 135 168 218 289 329 391
#     4  11  24  45  78  97 125 177 226 265 345 408
#     4  12  24  39  70  96 134 186 230 260 330 399
#     4  11  24  41  59  94 137 179 228 279 320 382
#     4  11  22  41  68  92 134 175 225 272 329 398
#     4  12  24  40  66  99 137 180 221 272 325 395
#     4  11  26  41  64  99 139 169 220 280 332 384
#     4  12  24  42  68 100 132 176 222 277 332 398
#
# _framework density 22.889379000000002
#
# number of rings (size 3 to 8) (size 9 to 14) (size 15 to 20)
#    0.000    0.750    3.750    3.750    1.750    5.500 
#    0.000    1.250    0.000    0.000    0.000    0.000 
#    0.000    0.000    0.000    0.000    0.000    0.000 
#
# Total GULP energy -198392.198005 kJ/mol
# GULP energy per Si atom -12399.512375 kJ/mol
# Density = 2.283728 g / cm^3
# Si number density = 22.889379 Si / 1000 Ang^3
#
#
#
# Elastic Constant Matrix: (Units=GPa)
#
#
# Indices 1 2 3 4 5 6 
#
# 1 61.2957 12.4099 17.0155 -10.4882 -7.0197 4.7143
# 2 12.4099 101.7280 44.6847 -11.9159 -11.4548 0.8327
# 3 17.0155 44.6847 122.2292 -6.1963 4.3807 10.4100
# 4 -10.4882 -11.9159 -6.1963 44.7974 11.8546 -9.5742
# 5 -7.0197 -11.4548 4.3807 11.8546 37.8385 1.9822
# 6 4.7143 0.8327 10.4100 -9.5742 1.9822 26.1265
#
#
#
# Elastic Compliance Matrix: (Units=1/GPa)
#
#
# Indices 1 2 3 4 5 6 
#
# 1 0.017905 -0.000650 -0.002076 0.002704 0.002601 -0.001590
# 2 -0.000650 0.012597 -0.004712 0.002072 0.003480 0.002089
# 3 -0.002076 -0.004712 0.010582 -0.000318 -0.002749 -0.003599
# 4 0.002704 0.002072 -0.000318 0.027825 -0.008095 0.010383
# 5 0.002601 0.003480 -0.002749 -0.008095 0.031071 -0.004809
# 6 -0.001590 0.002089 -0.003599 0.010383 -0.004809 0.044100
#
#
# Mechanical properties :
#
#
# Convention : Reuss Voigt Hill
#
# Bulk Modulus (GPa) = 38.15612 48.16369 43.15990
# Shear Modulus (GPa) = 29.81691 35.82866 32.82279
#
# Velocity S-wave (km/s) = 3.61314 3.96067 3.79089
# Velocity P-wave (km/s) = 5.84058 6.48101 6.16911
#
# Compressibility (1/GPa) = 0.02620812
#
# Stress axis : x y z
#
# Youngs Moduli (GPa) = 55.85041 79.38556 94.50015
#
# Poissons Ratio (x) = 0.05158 0.19616
# Poissons Ratio (y) = 0.03629 0.44531
# Poissons Ratio (z) = 0.11593 0.37408
#
# Static dielectric constant tensor:
#      x y z
#    x 4.173490 0.183500 -0.234790 
#    y 0.183500 4.080080 -0.145350 
#    z -0.234790 -0.145350 4.536810 
# 
# 
# High freq. dielectric constant tensor:
#      x y z
#    x 1.890050 0.004720 -0.011650 
#    y 0.004720 1.896860 -0.002580 
#    z -0.011650 -0.002580 1.925390 
# 
# From -- ./inp_files/328372.got.cif
#   From: 2010.06.25/outbox.cif.g09.slc.cpg/sg2_165_cif.got.tgz:328372.got - 2010.06.27 13:26:56.
