data_PCOD8027397
_publ_section_title
;
Structure prediction by ZEFSAII (Michael W. Deem and Ramdas Pophale) SiO2 
 PCOD8027397
Probable space group: P -1
;
_chemical_formula_sum "Si O2"
_cell_formula_units_Z 16
_cell_length_a 11.811648
_cell_length_b 27.619308
_cell_length_c 8.393510
_cell_angle_alpha 41.536798
_cell_angle_beta 145.563838
_cell_angle_gamma 148.340399
_cell_volume 802.682787
_symmetry_space_group_name_H-M "P -1"
_symmetry_group_IT_number 2
_symmetry_cell_setting 'triclinic'
loop_
_space_group_symop_operation_xyz
x,y,z
-x,-y,-z
loop_
_atom_site_type_symbol
_atom_site_label
_atom_site_fract_x
_atom_site_fract_y
_atom_site_fract_z
Si Si1 0.641408 0.405051 0.699699
Si Si2 0.285064 0.053940 0.140655
Si Si3 0.416144 0.976801 0.211526
Si Si4 0.805622 0.431860 0.170760
Si Si5 0.606644 0.779239 0.325841
Si Si6 0.154543 0.693795 0.250106
Si Si7 0.640022 0.529211 0.922143
Si Si8 0.143604 0.856891 0.891272
O O1 0.463149 0.309429 0.631902
O O2 0.516555 0.456903 0.417781
O O3 0.923360 0.468215 0.795569
O O4 0.648878 0.384045 0.944476
O O5 0.457191 0.065898 0.458072
O O6 0.271544 0.990732 0.142029
O O7 0.410558 0.157194 0.971421
O O8 0.000000 0.000000 0.000000
O O9 0.630421 0.076150 0.135411
O O10 0.205161 0.904061 0.018841
O O11 0.847798 0.363207 0.466926
O O12 0.645542 0.447599 0.065077
O O13 0.421712 0.750633 0.329608
O O14 0.889940 0.837675 0.580399
O O15 0.107672 0.762390 0.101354
O O16 0.928070 0.624293 0.035719
O O17 0.500000 0.500000 0.000000
#
# Coordination Sequence:
#
# PCOD8027397 Si02
#       8
#     2   2   2   2   2   2   2   2
#     4  11  24  43  65  95 134 167 217 267 325 381
#     4  11  23  43  69  96 133 171 208 267 335 387
#     4  10  24  45  67  96 129 168 215 269 327 389
#     4  11  25  42  64  97 130 175 212 266 327 383
#     4  12  24  42  65  98 129 176 217 266 323 386
#     4  12  24  41  64  97 132 169 222 266 315 385
#     4  12  22  42  68  92 129 175 216 264 321 384
#     4  11  24  43  66  98 129 165 221 270 319 387
#
# _framework density 19.933154999999999
#
# number of rings (size 3 to 8) (size 9 to 14) (size 15 to 20)
#    0.000    0.750    6.250    1.500    1.750    1.500 
#    0.000    0.000    0.000    0.000    0.000    0.000 
#    0.000    0.000    0.000    0.000    0.000    0.000 
#
# Total GULP energy -198518.989308 kJ/mol
# GULP energy per Si atom -12407.436832 kJ/mol
# Density = 1.988779 g / cm^3
# Si number density = 19.933155 Si / 1000 Ang^3
#
#
#
# Elastic Constant Matrix: (Units=GPa)
#
#
# Indices 1 2 3 4 5 6 
#
# 1 86.3158 17.0278 33.8789 3.3434 -5.5878 2.6136
# 2 17.0278 68.7571 28.9387 -1.2790 -9.2449 -4.2529
# 3 33.8789 28.9387 121.9029 -2.9767 -10.3999 -11.8475
# 4 3.3434 -1.2790 -2.9767 41.7039 -1.7381 -0.2070
# 5 -5.5878 -9.2449 -10.3999 -1.7381 34.0332 -0.5451
# 6 2.6136 -4.2529 -11.8475 -0.2070 -0.5451 21.1018
#
#
#
# Elastic Compliance Matrix: (Units=1/GPa)
#
#
# Indices 1 2 3 4 5 6 
#
# 1 0.013657 -0.002049 -0.003717 -0.001427 0.000410 -0.004195
# 2 -0.002049 0.016885 -0.002927 0.000626 0.003422 0.002108
# 3 -0.003717 -0.002927 0.010707 0.001086 0.002017 0.005945
# 4 -0.001427 0.000626 0.001086 0.024259 0.001526 0.001190
# 5 0.000410 0.003422 0.002017 0.001526 0.031116 0.002590
# 6 -0.004195 0.002108 0.005945 0.001190 0.002590 0.051750
#
#
# Mechanical properties :
#
#
# Convention : Reuss Voigt Hill
#
# Bulk Modulus (GPa) = 41.90233 48.51851 45.21042
# Shear Modulus (GPa) = 28.78283 32.50982 30.64632
#
# Velocity S-wave (km/s) = 3.80408 4.04287 3.92529
# Velocity P-wave (km/s) = 6.35309 6.79607 6.57831
#
# Compressibility (1/GPa) = 0.02386502
#
# Stress axis : x y z
#
# Youngs Moduli (GPa) = 73.22169 59.22283 93.39328
#
# Poissons Ratio (x) = 0.12134 0.34712
# Poissons Ratio (y) = 0.15002 0.27336
# Poissons Ratio (z) = 0.27214 0.17334
#
# Static dielectric constant tensor:
#      x y z
#    x 3.636060 0.075170 -0.002240 
#    y 0.075170 3.626800 -0.079200 
#    z -0.002240 -0.079200 3.892650 
# 
# 
# High freq. dielectric constant tensor:
#      x y z
#    x 1.781980 0.001520 0.002760 
#    y 0.001520 1.774740 -0.004550 
#    z 0.002760 -0.004550 1.796300 
# 
# From -- ./inp_files/45829.got.cif
#   From: 2010.06.25/outbox.cif.g09.slc.cpg/sg2_23_cif.got.tgz:45829.got - 2010.06.27 13:26:56.
