data_PCOD8027376
_publ_section_title
;
Structure prediction by ZEFSAII (Michael W. Deem and Ramdas Pophale) SiO2 
 PCOD8027376
Probable space group: P -1
;
_chemical_formula_sum "Si O2"
_cell_formula_units_Z 14
_cell_length_a 14.032725
_cell_length_b 9.269211
_cell_length_c 13.023633
_cell_angle_alpha 149.464593
_cell_angle_beta 49.743649
_cell_angle_gamma 121.103414
_cell_volume 653.330971
_symmetry_space_group_name_H-M "P -1"
_symmetry_group_IT_number 2
_symmetry_cell_setting 'triclinic'
loop_
_space_group_symop_operation_xyz
x,y,z
-x,-y,-z
loop_
_atom_site_type_symbol
_atom_site_label
_atom_site_fract_x
_atom_site_fract_y
_atom_site_fract_z
Si Si1 0.205267 0.356565 0.521027
Si Si2 0.026557 0.258774 0.418743
Si Si3 0.782946 0.036437 0.534662
Si Si4 0.611866 0.653756 0.320397
Si Si5 0.280567 0.939864 0.050901
Si Si6 0.388868 0.424693 0.958030
Si Si7 0.631165 0.142320 0.270813
O O1 0.071892 0.398239 0.579262
O O2 0.254930 0.661772 0.688055
O O3 0.185041 0.208022 0.552708
O O4 0.306692 0.156584 0.258159
O O5 0.000000 0.500000 0.500000
O O6 0.905329 0.096787 0.424010
O O7 0.138281 0.022932 0.158552
O O8 0.723989 0.324945 0.807582
O O9 0.685670 0.932634 0.455296
O O10 0.496925 0.676678 0.494603
O O11 0.707841 0.380379 0.111509
O O12 0.560425 0.631677 0.227305
O O13 0.380089 0.967712 0.906388
O O14 0.500000 0.500000 0.000000
O O15 0.335304 0.133036 0.850844
#
# Coordination Sequence:
#
# PCOD8027376 Si02
#       7
#     2   2   2   2   2   2   2
#     4  10  25  44  70  99 139 184 228 283 338 409
#     4  10  24  46  71  98 141 182 230 289 340 400
#     4  12  24  48  71  99 145 179 235 281 340 413
#     4  12  26  42  72 104 133 189 225 282 348 414
#     4  10  24  45  66 104 133 184 229 278 345 402
#     4  12  27  44  67 106 140 183 222 284 352 403
#     4  12  25  43  71 103 142 172 238 282 345 406
#
# _framework density 21.428649
#
# number of rings (size 3 to 8) (size 9 to 14) (size 15 to 20)
#    0.857    0.000    4.286    2.143    4.000    1.143 
#    2.571    1.429    0.000    0.000    0.000    0.000 
#    0.000    0.000    0.000    0.000    0.000    0.000 
#
# Total GULP energy -173574.083741 kJ/mol
# GULP energy per Si atom -12398.148839 kJ/mol
# Density = 2.137988 g / cm^3
# Si number density = 21.428649 Si / 1000 Ang^3
#
#
#
# Elastic Constant Matrix: (Units=GPa)
#
#
# Indices 1 2 3 4 5 6 
#
# 1 105.2947 54.2612 30.4698 -7.6044 5.4069 -4.9496
# 2 54.2612 155.6125 48.7238 -3.0996 -1.3458 -6.4477
# 3 30.4698 48.7238 93.6917 -9.2206 9.1598 -8.7710
# 4 -7.6044 -3.0996 -9.2206 43.5505 -10.0823 0.7267
# 5 5.4069 -1.3458 9.1598 -10.0823 28.1201 -3.4392
# 6 -4.9496 -6.4477 -8.7710 0.7267 -3.4392 33.1505
#
#
#
# Elastic Compliance Matrix: (Units=1/GPa)
#
#
# Indices 1 2 3 4 5 6 
#
# 1 0.012047 -0.003629 -0.001733 0.001132 -0.001464 0.000458
# 2 -0.003629 0.008863 -0.003633 -0.000254 0.002271 0.000462
# 3 -0.001733 -0.003633 0.013834 0.001514 -0.003523 0.002296
# 4 0.001132 -0.000254 0.001514 0.025414 0.008492 0.000844
# 5 -0.001464 0.002271 -0.003523 0.008492 0.040549 0.003312
# 6 0.000458 0.000462 0.002296 0.000844 0.003312 0.031256
#
#
# Mechanical properties :
#
#
# Convention : Reuss Voigt Hill
#
# Bulk Modulus (GPa) = 59.68519 69.05651 64.37085
# Shear Modulus (GPa) = 32.14620 35.70715 33.92667
#
# Velocity S-wave (km/s) = 3.87738 4.08650 3.98331
# Velocity P-wave (km/s) = 6.92524 7.38662 7.15964
#
# Compressibility (1/GPa) = 0.01675458
#
# Stress axis : x y z
#
# Youngs Moduli (GPa) = 83.00530 112.83070 72.28324
#
# Poissons Ratio (x) = 0.40950 0.12528
# Poissons Ratio (y) = 0.30125 0.26257
# Poissons Ratio (z) = 0.14387 0.40986
#
# Static dielectric constant tensor:
#      x y z
#    x 3.713670 -0.179320 0.135670 
#    y -0.179320 3.865310 0.052930 
#    z 0.135670 0.052930 4.015460 
# 
# 
# High freq. dielectric constant tensor:
#      x y z
#    x 1.828020 -0.013630 0.007800 
#    y -0.013630 1.846350 0.004940 
#    z 0.007800 0.004940 1.848380 
# 
# From -- ./inp_files/445298.got.cif
#   From: 2010.06.25/outbox.cif.g09.slc.cpg/sg2_223_cif.got.tgz:445298.got - 2010.06.27 13:26:56.
