data_PCOD8027441
_publ_section_title
;
Structure prediction by ZEFSAII (Michael W. Deem and Ramdas Pophale) SiO2 
 PCOD8027441
Probable space group: P -1
;
_chemical_formula_sum "Si O2"
_cell_formula_units_Z 16
_cell_length_a 9.355280
_cell_length_b 7.494638
_cell_length_c 12.110812
_cell_angle_alpha 51.637728
_cell_angle_beta 99.280686
_cell_angle_gamma 98.500598
_cell_volume 655.848268
_symmetry_space_group_name_H-M "P -1"
_symmetry_group_IT_number 2
_symmetry_cell_setting 'triclinic'
loop_
_space_group_symop_operation_xyz
x,y,z
-x,-y,-z
loop_
_atom_site_type_symbol
_atom_site_label
_atom_site_fract_x
_atom_site_fract_y
_atom_site_fract_z
Si Si1 0.964087 0.839067 0.839650
Si Si2 0.470533 0.052671 0.803520
Si Si3 0.431536 0.296188 0.494092
Si Si4 0.308526 0.322480 0.011103
Si Si5 0.944919 0.628265 0.340559
Si Si6 0.374660 0.475901 0.722607
Si Si7 0.258571 0.701963 0.006137
Si Si8 0.154308 0.418378 0.286315
O O1 0.857820 0.768973 0.955667
O O2 0.888730 0.773791 0.737732
O O3 0.104587 0.694143 0.926730
O O4 0.003763 0.107223 0.748631
O O5 0.432689 0.074691 0.659361
O O6 0.495781 0.293993 0.777182
O O7 0.607072 0.904636 0.888299
O O8 0.337706 0.945448 0.901998
O O9 0.500000 0.500000 0.500000
O O10 0.543192 0.287627 0.404824
O O11 0.265314 0.318701 0.426712
O O12 0.334783 0.473260 0.846548
O O13 0.355637 0.504645 0.042758
O O14 0.771213 0.593850 0.336048
O O15 0.000000 0.500000 0.500000
O O16 0.009471 0.501084 0.292451
O O17 0.233377 0.643768 0.153520
#
# Coordination Sequence:
#
# PCOD8027441 Si02
#       8
#     2   2   2   2   2   2   2   2
#     4  11  26  46  72 106 141 179 235 289 344 413
#     4  11  23  41  69  98 139 181 229 288 342 410
#     4  10  24  45  68  98 144 180 229 291 343 409
#     4  11  24  41  69 100 136 182 232 287 343 416
#     4  12  26  44  74 105 142 183 232 284 350 421
#     4  11  23  43  67 103 137 182 230 287 349 408
#     4  11  23  47  67 101 142 175 232 291 342 411
#     4  11  25  47  75 102 142 185 227 291 349 406
#
# _framework density 24.395883999999999
#
# number of rings (size 3 to 8) (size 9 to 14) (size 15 to 20)
#    0.000    1.000    1.250    6.000    7.000    2.500 
#    2.250    3.125    0.000    0.000    0.000    0.000 
#    0.000    0.000    0.000    0.000    0.000    0.000 
#
# Total GULP energy -198310.704819 kJ/mol
# GULP energy per Si atom -12394.419051 kJ/mol
# Density = 2.434036 g / cm^3
# Si number density = 24.395884 Si / 1000 Ang^3
#
#
#
# Elastic Constant Matrix: (Units=GPa)
#
#
# Indices 1 2 3 4 5 6 
#
# 1 86.8322 12.7097 2.8456 -2.6627 -4.6632 -10.4380
# 2 12.7097 28.5190 -9.4110 4.8971 -4.4325 -7.2616
# 3 2.8456 -9.4110 95.0210 -6.0719 -15.6718 -12.5556
# 4 -2.6627 4.8971 -6.0719 28.4832 8.3094 -6.7423
# 5 -4.6632 -4.4325 -15.6718 8.3094 44.7920 8.1050
# 6 -10.4380 -7.2616 -12.5556 -6.7423 8.1050 32.3927
#
#
#
# Elastic Compliance Matrix: (Units=1/GPa)
#
#
# Indices 1 2 3 4 5 6 
#
# 1 0.012830 -0.005552 -0.000362 0.003071 -0.000548 0.003525
# 2 -0.005552 0.043426 0.005968 -0.006604 0.005682 0.007463
# 3 -0.000362 0.005968 0.012578 0.001898 0.003590 0.005594
# 4 0.003071 -0.006604 0.001898 0.042464 -0.009627 0.011492
# 5 -0.000548 0.005682 0.003590 -0.009627 0.027007 -0.006273
# 6 0.003525 0.007463 0.005594 0.011492 -0.006273 0.039810
#
#
# Mechanical properties :
#
#
# Convention : Reuss Voigt Hill
#
# Bulk Modulus (GPa) = 14.50505 24.74007 19.62256
# Shear Modulus (GPa) = 24.87714 34.74877 29.81296
#
# Velocity S-wave (km/s) = 3.19678 3.77818 3.49957
# Velocity P-wave (km/s) = 4.42544 5.40333 4.93864
#
# Compressibility (1/GPa) = 0.06894149
#
# Stress axis : x y z
#
# Youngs Moduli (GPa) = 77.94521 23.02788 79.50139
#
# Poissons Ratio (x) = 0.12785 0.02881
# Poissons Ratio (y) = 0.43276 -0.47450
# Poissons Ratio (z) = 0.02825 -0.13744
#
# Static dielectric constant tensor:
#      x y z
#    x 4.809260 -0.203620 -0.339030 
#    y -0.203620 3.657700 0.140060 
#    z -0.339030 0.140060 4.880150 
# 
# 
# High freq. dielectric constant tensor:
#      x y z
#    x 1.987880 0.000610 -0.011140 
#    y 0.000610 1.947920 0.001720 
#    z -0.011140 0.001720 1.986420 
# 
# From -- ./inp_files/381075.got.cif
#   From: 2010.06.25/outbox.cif.g09.slc.cpg/sg2_191_cif.got.tgz:381075.got - 2010.06.27 13:26:56.
