data_PCOD8027385
_publ_section_title
;
Structure prediction by ZEFSAII (Michael W. Deem and Ramdas Pophale) SiO2 
 PCOD8027385
Probable space group: P -1
;
_chemical_formula_sum "Si O2"
_cell_formula_units_Z 14
_cell_length_a 18.437340
_cell_length_b 11.831444
_cell_length_c 9.348492
_cell_angle_alpha 38.401796
_cell_angle_beta 138.272232
_cell_angle_gamma 150.623210
_cell_volume 607.799085
_symmetry_space_group_name_H-M "P -1"
_symmetry_group_IT_number 2
_symmetry_cell_setting 'triclinic'
loop_
_space_group_symop_operation_xyz
x,y,z
-x,-y,-z
loop_
_atom_site_type_symbol
_atom_site_label
_atom_site_fract_x
_atom_site_fract_y
_atom_site_fract_z
Si Si1 0.365339 0.669866 0.927213
Si Si2 0.661248 0.095046 0.764162
Si Si3 0.698460 0.049452 0.547498
Si Si4 0.844765 0.855188 0.990071
Si Si5 0.825071 0.013652 0.277795
Si Si6 0.437620 0.231843 0.650598
Si Si7 0.164018 0.333725 0.525620
O O1 0.244855 0.695883 0.698115
O O2 0.504079 0.871382 0.828005
O O3 0.289218 0.389324 0.058055
O O4 0.435153 0.753804 0.106167
O O5 0.625043 0.011724 0.628367
O O6 0.713537 0.364151 0.594372
O O7 0.789545 0.106580 0.001034
O O8 0.829534 0.055711 0.761402
O O9 0.572893 0.825464 0.475423
O O10 0.840110 0.774509 0.222289
O O11 0.000000 0.000000 0.000000
O O12 0.001133 0.235314 0.355098
O O13 0.725906 0.963762 0.317340
O O14 0.791353 0.763901 0.432082
O O15 0.500000 0.500000 0.500000
#
# Coordination Sequence:
#
# PCOD8027385 Si02
#       7
#     2   2   2   2   2   2   2
#     4  11  26  45  69 102 135 179 227 278 340 403
#     4  11  24  43  74 103 131 175 231 282 337 399
#     4  12  24  45  69 101 138 176 224 286 337 398
#     4  12  26  44  68 101 140 178 225 275 342 405
#     4  10  24  45  67 100 135 182 225 277 336 401
#     4  11  24  43  68  98 139 179 222 275 342 401
#     4  11  23  44  71  97 137 179 229 277 333 403
#
# _framework density 23.033928
#
# number of rings (size 3 to 8) (size 9 to 14) (size 15 to 20)
#    0.000    0.857    4.286    2.143    2.000    1.143 
#    2.571    0.000    0.000    0.000    0.000    0.000 
#    0.000    0.000    0.000    0.000    0.000    0.000 
#
# Total GULP energy -173530.743219 kJ/mol
# GULP energy per Si atom -12395.053087 kJ/mol
# Density = 2.298150 g / cm^3
# Si number density = 23.033928 Si / 1000 Ang^3
#
#
#
# Elastic Constant Matrix: (Units=GPa)
#
#
# Indices 1 2 3 4 5 6 
#
# 1 72.7141 45.8527 28.6563 -3.5959 6.9268 -18.7841
# 2 45.8527 102.4768 32.5299 3.9336 -8.3426 -9.7034
# 3 28.6563 32.5299 120.0078 17.6563 19.3826 2.3204
# 4 -3.5959 3.9336 17.6563 42.6678 -5.4872 -2.8038
# 5 6.9268 -8.3426 19.3826 -5.4872 38.6185 9.2154
# 6 -18.7841 -9.7034 2.3204 -2.8038 9.2154 37.3954
#
#
#
# Elastic Compliance Matrix: (Units=1/GPa)
#
#
# Indices 1 2 3 4 5 6 
#
# 1 0.025415 -0.010022 -0.002970 0.004137 -0.007638 0.012542
# 2 -0.010022 0.015499 -0.002864 -0.000340 0.007161 -0.002625
# 3 -0.002970 -0.002864 0.011731 -0.005778 -0.006358 -0.001829
# 4 0.004137 -0.000340 -0.005778 0.027079 0.005193 0.003099
# 5 -0.007638 0.007161 -0.006358 0.005193 0.035089 -0.009842
# 6 0.012542 -0.002625 -0.001829 0.003099 -0.009842 0.035131
#
#
# Mechanical properties :
#
#
# Convention : Reuss Voigt Hill
#
# Bulk Modulus (GPa) = 47.77049 56.58630 52.17840
# Shear Modulus (GPa) = 26.50643 36.28032 31.39337
#
# Velocity S-wave (km/s) = 3.39596 3.97304 3.69578
# Velocity P-wave (km/s) = 6.01340 6.75770 6.39638
#
# Compressibility (1/GPa) = 0.02093343
#
# Stress axis : x y z
#
# Youngs Moduli (GPa) = 39.34718 64.51910 85.24674
#
# Poissons Ratio (x) = 0.64662 0.25314
# Poissons Ratio (y) = 0.39434 0.24415
# Poissons Ratio (z) = 0.11684 0.18479
#
# Static dielectric constant tensor:
#      x y z
#    x 4.551600 -0.711050 0.078150 
#    y -0.711050 -0.378170 -0.797490 
#    z 0.078150 -0.797490 4.780440 
# 
# 
# High freq. dielectric constant tensor:
#      x y z
#    x 1.906490 -0.015620 0.013130 
#    y -0.015620 1.899580 0.018200 
#    z 0.013130 0.018200 1.940230 
# 
# From -- ./inp_files/332758.got.cif
#   From: 2010.06.25/outbox.cif.g09.slc.cpg/sg2_167_cif.got.tgz:332758.got - 2010.06.27 13:26:56.
