data_PCOD8027342
_publ_section_title
;
Structure prediction by ZEFSAII (Michael W. Deem and Ramdas Pophale) SiO2 
 PCOD8027342
Probable space group: P -1
;
_chemical_formula_sum "Si O2"
_cell_formula_units_Z 16
_cell_length_a 15.088508
_cell_length_b 10.603422
_cell_length_c 12.354030
_cell_angle_alpha 102.181070
_cell_angle_beta 150.490239
_cell_angle_gamma 59.747168
_cell_volume 710.735593
_symmetry_space_group_name_H-M "P -1"
_symmetry_group_IT_number 2
_symmetry_cell_setting 'triclinic'
loop_
_space_group_symop_operation_xyz
x,y,z
-x,-y,-z
loop_
_atom_site_type_symbol
_atom_site_label
_atom_site_fract_x
_atom_site_fract_y
_atom_site_fract_z
Si Si1 0.067175 0.874045 0.295641
Si Si2 0.604981 0.080397 0.440146
Si Si3 0.545078 0.117153 0.826257
Si Si4 0.003979 0.170246 0.029440
Si Si5 0.228980 0.463787 0.194794
Si Si6 0.573111 0.438565 0.225209
Si Si7 0.426471 0.700985 0.282100
Si Si8 0.735252 0.572577 0.259937
O O1 0.189148 0.953896 0.420249
O O2 0.235336 0.703248 0.512338
O O3 0.993877 0.838582 0.099065
O O4 0.823993 0.015045 0.129660
O O5 0.398294 0.285090 0.276508
O O6 0.493725 0.016986 0.243148
O O7 0.727333 0.967604 0.660722
O O8 0.478689 0.211700 0.655671
O O9 0.390891 0.247292 0.783517
O O10 0.865496 0.371555 0.948500
O O11 0.828719 0.147823 0.898692
O O12 0.381179 0.445186 0.454598
O O13 0.000000 0.500000 0.000000
O O14 0.390243 0.617854 0.129728
O O15 0.727591 0.447786 0.303847
O O16 0.416221 0.395914 0.001863
O O17 0.000000 0.500000 0.500000
#
# Coordination Sequence:
#
# PCOD8027342 Si02
#       8
#     2   2   2   2   2   2   2   2
#     4  12  23  45  68 102 144 182 232 283 343 415
#     4  12  26  42  66 104 148 195 228 277 343 409
#     4  11  26  43  69 100 138 182 233 294 348 411
#     4  12  23  43  69  98 152 196 231 274 335 421
#     4  12  24  39  63  98 144 194 236 276 331 410
#     4  10  24  44  76 101 131 180 238 293 353 413
#     4  11  21  43  66 100 139 189 235 279 340 415
#     4  10  25  50  75 100 131 176 235 302 365 418
#
# _framework density 22.511887999999999
#
# number of rings (size 3 to 8) (size 9 to 14) (size 15 to 20)
#    0.000    0.750    3.750    3.750    1.750    4.000 
#    2.250    1.250    0.000    0.000    0.000    0.000 
#    0.000    0.000    0.000    0.000    0.000    0.000 
#
# Total GULP energy -198385.980541 kJ/mol
# GULP energy per Si atom -12399.123784 kJ/mol
# Density = 2.246065 g / cm^3
# Si number density = 22.511888 Si / 1000 Ang^3
#
#
#
# Elastic Constant Matrix: (Units=GPa)
#
#
# Indices 1 2 3 4 5 6 
#
# 1 74.2894 29.9263 41.6055 10.8527 20.2573 -14.5180
# 2 29.9263 121.1303 36.2381 5.7043 7.1217 -1.6718
# 3 41.6055 36.2381 89.9311 -3.5824 23.9752 -5.9573
# 4 10.8527 5.7043 -3.5824 37.9947 6.7676 0.5173
# 5 20.2573 7.1217 23.9752 6.7676 44.0400 -5.7590
# 6 -14.5180 -1.6718 -5.9573 0.5173 -5.7590 36.3264
#
#
#
# Elastic Compliance Matrix: (Units=1/GPa)
#
#
# Indices 1 2 3 4 5 6 
#
# 1 0.022249 -0.002463 -0.008144 -0.006218 -0.003535 0.006971
# 2 -0.002463 0.009821 -0.003310 -0.001329 0.001443 -0.000828
# 3 -0.008144 -0.003310 0.018125 0.005742 -0.006674 -0.001575
# 4 -0.006218 -0.001329 0.005742 0.029764 -0.004994 -0.002820
# 5 -0.003535 0.001443 -0.006674 -0.004994 0.028787 0.002194
# 6 0.006971 -0.000828 -0.001575 -0.002820 0.002194 0.030406
#
#
# Mechanical properties :
#
#
# Convention : Reuss Voigt Hill
#
# Bulk Modulus (GPa) = 44.72400 55.65452 50.18926
# Shear Modulus (GPa) = 28.66311 35.51094 32.08702
#
# Velocity S-wave (km/s) = 3.57212 3.97600 3.77946
# Velocity P-wave (km/s) = 6.07646 6.77156 6.43341
#
# Compressibility (1/GPa) = 0.02235936
#
# Stress axis : x y z
#
# Youngs Moduli (GPa) = 44.94597 101.82504 55.17258
#
# Poissons Ratio (x) = 0.25084 0.44933
# Poissons Ratio (y) = 0.11072 0.18262
# Poissons Ratio (z) = 0.36604 0.33705
#
# Static dielectric constant tensor:
#      x y z
#    x 4.105730 0.153140 0.002090 
#    y 0.153140 4.436720 -0.234750 
#    z 0.002090 -0.234750 4.198440 
# 
# 
# High freq. dielectric constant tensor:
#      x y z
#    x 1.879570 0.009860 0.011750 
#    y 0.009860 1.899440 -0.012560 
#    z 0.011750 -0.012560 1.883520 
# 
# From -- ./inp_files/452514.got.cif
#   From: 2010.06.25/outbox.cif.g09.slc.cpg/sg2_227_cif.got.tgz:452514.got - 2010.06.27 13:26:56.
