data_PCOD8027658
_publ_section_title
;
Structure prediction by ZEFSAII (Michael W. Deem and Ramdas Pophale) SiO2 
 PCOD8027658
Probable space group: P -1
;
_chemical_formula_sum "Si O2"
_cell_formula_units_Z 16
_cell_length_a 14.026898
_cell_length_b 9.184020
_cell_length_c 14.092165
_cell_angle_alpha 93.664984
_cell_angle_beta 47.160514
_cell_angle_gamma 131.115391
_cell_volume 722.382106
_symmetry_space_group_name_H-M "P -1"
_symmetry_group_IT_number 2
_symmetry_cell_setting 'triclinic'
loop_
_space_group_symop_operation_xyz
x,y,z
-x,-y,-z
loop_
_atom_site_type_symbol
_atom_site_label
_atom_site_fract_x
_atom_site_fract_y
_atom_site_fract_z
Si Si1 0.318643 0.138807 0.981836
Si Si2 0.558319 0.692782 0.595082
Si Si3 0.773306 0.611114 0.363985
Si Si4 0.657268 0.290675 0.898325
Si Si5 0.060358 0.897791 0.419088
Si Si6 0.561669 0.426243 0.106534
Si Si7 0.828381 0.208333 0.489155
Si Si8 0.614930 0.310593 0.623804
O O1 0.540588 0.285424 0.897883
O O2 0.313363 0.308395 0.000227
O O3 0.383799 0.153695 0.829362
O O4 0.055999 0.835057 0.176903
O O5 0.736095 0.729040 0.449382
O O6 0.319854 0.462911 0.683538
O O7 0.474729 0.606604 0.757457
O O8 0.701985 0.978963 0.491237
O O9 0.606784 0.327959 0.515795
O O10 0.921056 0.487580 0.699865
O O11 0.707115 0.423226 0.969600
O O12 0.500000 0.000000 0.000000
O O13 0.123576 0.836952 0.451369
O O14 0.846378 0.634343 0.492253
O O15 0.310703 0.163061 0.206317
O O16 0.000000 0.000000 0.500000
O O17 0.653360 0.180513 0.624352
#
# Coordination Sequence:
#
# PCOD8027658 Si02
#       8
#     2   2   2   2   2   2   2   2
#     4  12  24  41  68 100 131 172 214 272 332 390
#     4  10  24  46  69  92 128 173 227 275 323 384
#     4  11  24  47  68  95 128 172 228 276 319 389
#     4  12  25  39  63 102 134 168 216 265 331 405
#     4  11  19  37  63  92 130 166 212 259 326 389
#     4  11  22  39  65  97 127 171 216 269 327 385
#     4  11  23  40  64  93 136 174 210 268 332 388
#     4  12  23  42  65  98 136 174 215 268 331 394
#
# _framework density 22.148942999999999
#
# number of rings (size 3 to 8) (size 9 to 14) (size 15 to 20)
#    0.000    0.750    3.750    4.500    3.500    1.000 
#    2.250    0.625    0.000    0.000    0.000    0.000 
#    0.000    0.000    0.000    0.000    0.000    0.000 
#
# Total GULP energy -198260.865810 kJ/mol
# GULP energy per Si atom -12391.304113 kJ/mol
# Density = 2.209853 g / cm^3
# Si number density = 22.148943 Si / 1000 Ang^3
#
#
#
# Elastic Constant Matrix: (Units=GPa)
#
#
# Indices 1 2 3 4 5 6 
#
# 1 65.9779 35.1928 14.5144 6.9940 2.7525 -13.3485
# 2 35.1928 97.5787 20.0300 3.6740 1.5989 -23.2450
# 3 14.5144 20.0300 105.0138 4.0493 3.6230 -7.1474
# 4 6.9940 3.6740 4.0493 28.3430 -4.6789 -0.1837
# 5 2.7525 1.5989 3.6230 -4.6789 30.7705 -0.9719
# 6 -13.3485 -23.2450 -7.1474 -0.1837 -0.9719 45.5105
#
#
#
# Elastic Compliance Matrix: (Units=1/GPa)
#
#
# Indices 1 2 3 4 5 6 
#
# 1 0.019674 -0.006091 -0.001167 -0.004191 -0.001867 0.002419
# 2 -0.006091 0.013967 -0.001477 -0.000038 0.000149 0.005118
# 3 -0.001167 -0.001477 0.010081 -0.001150 -0.001166 0.000457
# 4 -0.004191 -0.000038 -0.001150 0.037498 0.006178 -0.001146
# 5 -0.001867 0.000149 -0.001166 0.006178 0.033738 0.000091
# 6 0.002419 0.005118 0.000457 -0.001146 0.000091 0.025366
#
#
# Mechanical properties :
#
#
# Convention : Reuss Voigt Hill
#
# Bulk Modulus (GPa) = 38.09396 45.33832 41.71614
# Shear Modulus (GPa) = 30.02200 34.18034 32.10117
#
# Velocity S-wave (km/s) = 3.68565 3.93263 3.81114
# Velocity P-wave (km/s) = 5.94545 6.41365 6.18398
#
# Compressibility (1/GPa) = 0.02625088
#
# Stress axis : x y z
#
# Youngs Moduli (GPa) = 50.82825 71.59974 99.19363
#
# Poissons Ratio (x) = 0.43615 0.11573
# Poissons Ratio (y) = 0.30962 0.14654
# Poissons Ratio (z) = 0.05930 0.10578
#
# Static dielectric constant tensor:
#      x y z
#    x 3.799740 0.196170 0.222760 
#    y 0.196170 4.126810 -0.370870 
#    z 0.222760 -0.370870 3.077740 
# 
# 
# High freq. dielectric constant tensor:
#      x y z
#    x 1.863020 -0.015360 0.009910 
#    y -0.015360 1.869760 0.008590 
#    z 0.009910 0.008590 1.876980 
# 
# From -- ./inp_files/504020.got.cif
#   From: 2010.06.25/outbox.cif.g09.slc.cpg/sg2_253_cif.got.tgz:504020.got - 2010.06.27 13:26:56.
