data_PCOD8027024
_publ_section_title
;
Structure prediction by ZEFSAII (Michael W. Deem and Ramdas Pophale) SiO2 
 PCOD8027024
Probable space group: P -1
;
_chemical_formula_sum "Si O2"
_cell_formula_units_Z 14
_cell_length_a 16.096478
_cell_length_b 22.123560
_cell_length_c 12.216813
_cell_angle_alpha 151.187333
_cell_angle_beta 35.398510
_cell_angle_gamma 164.556601
_cell_volume 543.461772
_symmetry_space_group_name_H-M "P -1"
_symmetry_group_IT_number 2
_symmetry_cell_setting 'triclinic'
loop_
_space_group_symop_operation_xyz
x,y,z
-x,-y,-z
loop_
_atom_site_type_symbol
_atom_site_label
_atom_site_fract_x
_atom_site_fract_y
_atom_site_fract_z
Si Si1 0.260532 0.281561 0.315740
Si Si2 0.995655 0.294009 0.491324
Si Si3 0.272669 0.693782 0.100391
Si Si4 0.710797 0.374507 0.613149
Si Si5 0.572413 0.912771 0.760001
Si Si6 0.733286 0.504982 0.023358
Si Si7 0.074860 0.879346 0.932589
O O1 0.500000 0.500000 0.500000
O O2 0.071909 0.258764 0.452250
O O3 0.451123 0.381485 0.161502
O O4 0.021284 0.987521 0.156923
O O5 0.308227 0.618020 0.633532
O O6 0.703473 0.153343 0.621765
O O7 0.854479 0.104894 0.243472
O O8 0.592081 0.904029 0.024273
O O9 0.175499 0.509841 0.996138
O O10 0.000000 0.500000 0.000000
O O11 0.443233 0.120755 0.410054
O O12 0.000000 0.500000 0.500000
O O13 0.793748 0.583152 0.819984
O O14 0.609018 0.320776 0.763010
O O15 0.923006 0.153885 0.819357
O O16 0.500000 0.000000 0.000000
#
# Coordination Sequence:
#
# PCOD8027024 Si02
#       7
#     2   2   2   2   2   2   2
#     4  11  26  47  65  95 134 182 227 272 340 399
#     4  11  22  43  67  94 132 181 220 275 334 398
#     4  11  23  40  68 100 129 176 225 276 337 394
#     4  11  23  41  72 102 137 174 220 282 340 396
#     4  11  22  41  70 104 135 172 224 282 338 395
#     4  11  24  45  68 102 136 176 226 279 337 402
#     4  10  24  44  64  98 133 168 225 282 330 400
#
# _framework density 25.760781999999999
#
# number of rings (size 3 to 8) (size 9 to 14) (size 15 to 20)
#    0.000    1.143    2.857    3.429    6.000    1.714 
#    7.714    1.429    0.000    0.000    0.000    0.000 
#    0.000    0.000    0.000    0.000    0.000    0.000 
#
# Total GULP energy -173511.388693 kJ/mol
# GULP energy per Si atom -12393.670621 kJ/mol
# Density = 2.570215 g / cm^3
# Si number density = 25.760782 Si / 1000 Ang^3
#
#
#
# Elastic Constant Matrix: (Units=GPa)
#
#
# Indices 1 2 3 4 5 6 
#
# 1 85.7426 -7.5210 16.3922 4.5062 -9.0229 -0.3824
# 2 -7.5210 40.7822 -1.1982 -3.1671 -7.1308 1.7115
# 3 16.3922 -1.1982 107.0670 11.3906 -0.1700 -13.3033
# 4 4.5062 -3.1671 11.3906 37.2050 -3.4629 7.6015
# 5 -9.0229 -7.1308 -0.1700 -3.4629 64.7953 0.4122
# 6 -0.3824 1.7115 -13.3033 7.6015 0.4122 29.2091
#
#
#
# Elastic Compliance Matrix: (Units=1/GPa)
#
#
# Indices 1 2 3 4 5 6 
#
# 1 0.012489 0.002605 -0.001944 -0.000342 0.002007 -0.000814
# 2 0.002605 0.025914 -0.000749 0.002976 0.003388 -0.002648
# 3 -0.001944 -0.000749 0.010866 -0.004465 -0.000602 0.006138
# 4 -0.000342 0.002976 -0.004465 0.030821 0.001981 -0.010261
# 5 0.002007 0.003388 -0.000602 0.001981 0.016198 -0.001191
# 6 -0.000814 -0.002648 0.006138 -0.010261 -0.001191 0.039863
#
#
# Mechanical properties :
#
#
# Convention : Reuss Voigt Hill
#
# Bulk Modulus (GPa) = 20.37054 27.65975 24.01515
# Shear Modulus (GPa) = 32.74593 41.30313 37.02453
#
# Velocity S-wave (km/s) = 3.56919 4.00851 3.79521
# Velocity P-wave (km/s) = 4.99102 5.67315 5.34298
#
# Compressibility (1/GPa) = 0.04909049
#
# Stress axis : x y z
#
# Youngs Moduli (GPa) = 80.07288 38.58986 92.03050
#
# Poissons Ratio (x) = -0.10051 0.17894
# Poissons Ratio (y) = -0.20856 0.06893
# Poissons Ratio (z) = 0.15569 0.02890
#
# Static dielectric constant tensor:
#      x y z
#    x 5.456970 -0.597550 2.453560 
#    y -0.597550 6.877000 -4.337010 
#    z 2.453560 -4.337010 16.642860 
# 
# 
# High freq. dielectric constant tensor:
#      x y z
#    x 2.033710 -0.001200 0.006870 
#    y -0.001200 2.011520 0.012300 
#    z 0.006870 0.012300 2.049530 
# 
# From -- ./inp_files/398028.got.cif
#   From: 2010.06.25/outbox.cif.g09.slc.cpg/sg2_200_cif.got.tgz:398028.got - 2010.06.27 13:26:56.
