data_PCOD8027811
_publ_section_title
;
Structure prediction by ZEFSAII (Michael W. Deem and Ramdas Pophale) SiO2 
 PCOD8027811
Probable space group: P -1
;
_chemical_formula_sum "Si O2"
_cell_formula_units_Z 14
_cell_length_a 14.191179
_cell_length_b 8.054575
_cell_length_c 14.767715
_cell_angle_alpha 135.248468
_cell_angle_beta 146.186046
_cell_angle_gamma 66.138127
_cell_volume 582.518678
_symmetry_space_group_name_H-M "P -1"
_symmetry_group_IT_number 2
_symmetry_cell_setting 'triclinic'
loop_
_space_group_symop_operation_xyz
x,y,z
-x,-y,-z
loop_
_atom_site_type_symbol
_atom_site_label
_atom_site_fract_x
_atom_site_fract_y
_atom_site_fract_z
Si Si1 0.681008 0.003362 0.052632
Si Si2 0.700088 0.498371 0.518032
Si Si3 0.503476 0.831560 0.522725
Si Si4 0.385071 0.149990 0.678905
Si Si5 0.866779 0.581747 0.868656
Si Si6 0.582141 0.760746 0.062320
Si Si7 0.052825 0.146199 0.294449
O O1 0.503882 0.757236 0.764518
O O2 0.719465 0.905285 0.142598
O O3 0.621283 0.236165 0.111996
O O4 0.881842 0.148290 0.216548
O O5 0.679570 0.764550 0.632037
O O6 0.810399 0.446702 0.670733
O O7 0.835142 0.580864 0.568309
O O8 0.323158 0.533975 0.265546
O O9 0.500000 0.000000 0.500000
O O10 0.494052 0.988039 0.665966
O O11 0.545472 0.459034 0.920243
O O12 0.197018 0.088467 0.448482
O O13 0.322410 0.079312 0.706557
O O14 0.000000 0.500000 0.000000
O O15 0.956925 0.898298 0.052749
#
# Coordination Sequence:
#
# PCOD8027811 Si02
#       7
#     2   2   2   2   2   2   2
#     4  11  24  46  75  98 135 187 235 286 355 402
#     4  12  25  47  70 107 146 180 229 291 357 426
#     4  12  22  42  75 102 146 185 221 288 356 420
#     4  11  23  44  70 101 140 186 235 282 348 406
#     4  12  25  43  66 107 146 180 227 285 355 429
#     4  10  24  47  70  96 138 189 236 288 338 411
#     4  12  25  43  71 107 141 179 234 284 352 424
#
# _framework density 24.033563000000001
#
# number of rings (size 3 to 8) (size 9 to 14) (size 15 to 20)
#    0.000    0.571    5.714    1.714    2.000    1.143 
#    0.000    0.000    0.000    0.000    0.000    0.000 
#    0.000    0.000    0.000    0.000    0.000    0.000 
#
# Total GULP energy -173512.573229 kJ/mol
# GULP energy per Si atom -12393.755231 kJ/mol
# Density = 2.397886 g / cm^3
# Si number density = 24.033563 Si / 1000 Ang^3
#
#
#
# Elastic Constant Matrix: (Units=GPa)
#
#
# Indices 1 2 3 4 5 6 
#
# 1 142.7308 31.6720 51.2250 -12.7989 9.0783 18.7946
# 2 31.6720 65.1201 12.9759 -13.9941 -3.9907 12.6347
# 3 51.2250 12.9759 70.4747 -5.5277 -8.1772 16.7780
# 4 -12.7989 -13.9941 -5.5277 32.6128 7.2215 -13.9856
# 5 9.0783 -3.9907 -8.1772 7.2215 47.3185 -1.3724
# 6 18.7946 12.6347 16.7780 -13.9856 -1.3724 50.9130
#
#
#
# Elastic Compliance Matrix: (Units=1/GPa)
#
#
# Indices 1 2 3 4 5 6 
#
# 1 0.011017 -0.003560 -0.007609 0.002352 -0.004092 -0.000140
# 2 -0.003560 0.018686 0.000177 0.005565 0.001387 -0.001815
# 3 -0.007609 0.000177 0.021255 -0.002561 0.005400 -0.004797
# 4 0.002352 0.005565 -0.002561 0.038782 -0.006080 0.009084
# 5 -0.004092 0.001387 0.005400 -0.006080 0.023849 -0.001640
# 6 -0.000140 -0.001815 -0.004797 0.009084 -0.001640 0.024175
#
#
# Mechanical properties :
#
#
# Convention : Reuss Voigt Hill
#
# Bulk Modulus (GPa) = 34.51465 52.23016 43.37240
# Shear Modulus (GPa) = 29.51503 38.33239 33.92371
#
# Velocity S-wave (km/s) = 3.50819 3.99802 3.76109
# Velocity P-wave (km/s) = 5.54996 6.56442 6.07839
#
# Compressibility (1/GPa) = 0.02897321
#
# Stress axis : x y z
#
# Youngs Moduli (GPa) = 90.77238 53.51720 47.04700
#
# Poissons Ratio (x) = 0.19052 0.35798
# Poissons Ratio (y) = 0.32315 -0.00832
# Poissons Ratio (z) = 0.69068 -0.00946
#
# Static dielectric constant tensor:
#      x y z
#    x 4.426450 0.061350 -0.241360 
#    y 0.061350 4.495050 0.091480 
#    z -0.241360 0.091480 4.265910 
# 
# 
# High freq. dielectric constant tensor:
#      x y z
#    x 1.954500 0.013010 -0.016420 
#    y 0.013010 1.965190 0.010700 
#    z -0.016420 0.010700 1.939460 
# 
# From -- ./inp_files/187197.got.cif
#   From: 2010.06.25/outbox.cif.g09.slc.cpg/sg2_94_cif.got.tgz:187197.got - 2010.06.27 13:26:56.
