data_PCOD8027370
_publ_section_title
;
Structure prediction by ZEFSAII (Michael W. Deem and Ramdas Pophale) SiO2 
 PCOD8027370
Probable space group: P -1
;
_chemical_formula_sum "Si O2"
_cell_formula_units_Z 16
_cell_length_a 11.941537
_cell_length_b 20.206275
_cell_length_c 14.727524
_cell_angle_alpha 28.117296
_cell_angle_beta 148.681020
_cell_angle_gamma 150.629330
_cell_volume 762.901389
_symmetry_space_group_name_H-M "P -1"
_symmetry_group_IT_number 2
_symmetry_cell_setting 'triclinic'
loop_
_space_group_symop_operation_xyz
x,y,z
-x,-y,-z
loop_
_atom_site_type_symbol
_atom_site_label
_atom_site_fract_x
_atom_site_fract_y
_atom_site_fract_z
Si Si1 0.015409 0.209987 0.564148
Si Si2 0.551168 0.970529 0.288930
Si Si3 0.500465 0.742175 0.387014
Si Si4 0.865404 0.437975 0.076574
Si Si5 0.647796 0.614458 0.260822
Si Si6 0.819979 0.235963 0.011742
Si Si7 0.979484 0.995086 0.340430
Si Si8 0.119336 0.887995 0.223881
O O1 0.930139 0.305539 0.321447
O O2 0.813756 0.125823 0.607206
O O3 0.277807 0.329088 0.650377
O O4 0.044629 0.072023 0.697365
O O5 0.405731 0.827276 0.290497
O O6 0.357317 0.963621 0.235644
O O7 0.745443 0.935734 0.518247
O O8 0.689024 0.142161 0.126892
O O9 0.439882 0.570808 0.588476
O O10 0.796188 0.847980 0.455951
O O11 0.380958 0.735988 0.214705
O O12 0.571951 0.352586 0.963179
O O13 0.000000 0.500000 0.000000
O O14 0.952607 0.590050 0.019877
O O15 0.893971 0.712532 0.250652
O O16 0.908038 0.136557 0.127750
O O17 0.000000 0.000000 0.000000
#
# Coordination Sequence:
#
# PCOD8027370 Si02
#       8
#     2   2   2   2   2   2   2   2
#     4  10  25  44  64 100 135 174 226 267 335 388
#     4  11  23  41  64  96 132 177 222 268 333 395
#     4  11  22  41  69  97 134 167 221 285 334 396
#     4  12  24  42  72 101 134 174 218 282 337 401
#     4  10  24  45  65  94 135 173 222 275 331 390
#     4  11  23  40  68 102 134 167 221 275 345 392
#     4  11  23  39  66 101 132 172 214 281 336 397
#     4  10  26  44  64  91 135 185 225 267 321 404
#
# _framework density 20.972567999999999
#
# number of rings (size 3 to 8) (size 9 to 14) (size 15 to 20)
#    0.750    0.500    1.250    6.000    8.750    2.000 
#    0.000    0.000    0.000    3.000    0.000    0.000 
#    0.000    0.000    0.000    0.000    0.000    0.000 
#
# Total GULP energy -198322.015879 kJ/mol
# GULP energy per Si atom -12395.125992 kJ/mol
# Density = 2.092483 g / cm^3
# Si number density = 20.972568 Si / 1000 Ang^3
#
#
#
# Elastic Constant Matrix: (Units=GPa)
#
#
# Indices 1 2 3 4 5 6 
#
# 1 121.8919 25.7445 36.4628 4.2646 5.8844 5.0481
# 2 25.7445 66.2184 32.7572 10.4240 7.4122 -2.3040
# 3 36.4628 32.7572 99.0237 10.9786 1.2031 7.7924
# 4 4.2646 10.4240 10.9786 31.6626 -0.8726 5.8850
# 5 5.8844 7.4122 1.2031 -0.8726 27.4209 4.0962
# 6 5.0481 -2.3040 7.7924 5.8850 4.0962 31.7533
#
#
#
# Elastic Compliance Matrix: (Units=1/GPa)
#
#
# Indices 1 2 3 4 5 6 
#
# 1 0.009596 -0.002388 -0.002717 0.000590 -0.001127 -0.000996
# 2 -0.002388 0.020494 -0.005608 -0.005570 -0.005707 0.005011
# 3 -0.002717 -0.005608 0.013378 -0.001783 0.001930 -0.003177
# 4 0.000590 -0.005570 -0.001783 0.035373 0.003641 -0.007086
# 5 -0.001127 -0.005707 0.001930 0.003641 0.039247 -0.006446
# 6 -0.000996 0.005011 -0.003177 -0.007086 -0.006446 0.034939
#
#
# Mechanical properties :
#
#
# Convention : Reuss Voigt Hill
#
# Bulk Modulus (GPa) = 45.36553 53.00699 49.18626
# Shear Modulus (GPa) = 27.50267 30.97866 29.24066
#
# Velocity S-wave (km/s) = 3.62520 3.84748 3.73799
# Velocity P-wave (km/s) = 6.26104 6.71318 6.49105
#
# Compressibility (1/GPa) = 0.02204317
#
# Stress axis : x y z
#
# Youngs Moduli (GPa) = 104.20878 48.79477 74.74853
#
# Poissons Ratio (x) = 0.11653 0.20308
# Poissons Ratio (y) = 0.24887 0.41916
# Poissons Ratio (z) = 0.28312 0.27362
#
# Static dielectric constant tensor:
#      x y z
#    x 4.911640 0.710190 -0.111780 
#    y 0.710190 4.850680 0.092720 
#    z -0.111780 0.092720 3.797210 
# 
# 
# High freq. dielectric constant tensor:
#      x y z
#    x 1.801300 -0.014630 0.003190 
#    y -0.014630 1.827640 0.003190 
#    z 0.003190 0.003190 1.827840 
# 
# From -- ./inp_files/524069.got.cif
#   From: 2010.06.25/outbox.cif.g09.slc.cpg/sg2_263_cif.got.tgz:524069.got - 2010.06.27 13:26:56.
