data_PCOD8027519
_publ_section_title
;
Structure prediction by ZEFSAII (Michael W. Deem and Ramdas Pophale) SiO2 
 PCOD8027519
Probable space group: P -1
;
_chemical_formula_sum "Si O2"
_cell_formula_units_Z 16
_cell_length_a 11.873232
_cell_length_b 14.046253
_cell_length_c 8.653637
_cell_angle_alpha 100.256857
_cell_angle_beta 72.818669
_cell_angle_gamma 147.941137
_cell_volume 724.380355
_symmetry_space_group_name_H-M "P -1"
_symmetry_group_IT_number 2
_symmetry_cell_setting 'triclinic'
loop_
_space_group_symop_operation_xyz
x,y,z
-x,-y,-z
loop_
_atom_site_type_symbol
_atom_site_label
_atom_site_fract_x
_atom_site_fract_y
_atom_site_fract_z
Si Si1 0.258476 0.707956 0.197195
Si Si2 0.139942 0.429653 0.651791
Si Si3 0.351232 0.573746 0.278637
Si Si4 0.919907 0.102629 0.806781
Si Si5 0.402565 0.922318 0.686031
Si Si6 0.414556 0.747537 0.828332
Si Si7 0.008991 0.782671 0.840692
Si Si8 0.865622 0.927373 0.187722
O O1 0.298416 0.646632 0.276291
O O2 0.027302 0.596402 0.302142
O O3 0.457319 0.921343 0.200107
O O4 0.258835 0.677047 0.009152
O O5 0.266273 0.496788 0.462544
O O6 0.004930 0.238811 0.688200
O O7 0.318707 0.579043 0.756038
O O8 0.608914 0.731240 0.207634
O O9 0.238839 0.419459 0.162320
O O10 0.045262 0.086987 0.724791
O O11 0.660614 0.903316 0.836109
O O12 0.973281 0.180895 0.976480
O O13 0.402815 0.811445 0.705787
O O14 0.154586 0.789975 0.743572
O O15 0.500000 0.000000 0.500000
O O16 0.089334 0.929364 0.744735
O O17 0.000000 0.000000 0.000000
#
# Coordination Sequence:
#
# PCOD8027519 Si02
#       8
#     2   2   2   2   2   2   2   2
#     4  12  21  43  66  96 137 176 219 269 329 401
#     4  12  26  40  65 100 138 171 218 274 339 391
#     4  12  25  43  68  99 135 170 220 279 334 390
#     4  11  24  44  66  97 129 178 229 270 323 389
#     4  12  22  38  69  99 136 173 211 269 338 394
#     4  12  24  42  67  96 138 176 222 271 326 396
#     4  11  23  43  70  97 131 174 222 273 328 392
#     4  10  24  45  70  95 127 177 231 272 324 387
#
# _framework density 22.087845000000002
#
# number of rings (size 3 to 8) (size 9 to 14) (size 15 to 20)
#    0.000    0.500    3.750    5.625    0.000    3.500 
#    0.000    1.250    0.000    0.000    0.000    0.000 
#    0.000    0.000    0.000    0.000    0.000    0.000 
#
# Total GULP energy -198478.712498 kJ/mol
# GULP energy per Si atom -12404.919531 kJ/mol
# Density = 2.203757 g / cm^3
# Si number density = 22.087845 Si / 1000 Ang^3
#
#
#
# Elastic Constant Matrix: (Units=GPa)
#
#
# Indices 1 2 3 4 5 6 
#
# 1 125.5217 33.7786 16.2584 -11.9296 -5.4469 17.5425
# 2 33.7786 115.5968 2.8282 -12.3892 -20.4714 22.9876
# 3 16.2584 2.8282 85.2681 -16.1603 4.8808 18.0843
# 4 -11.9296 -12.3892 -16.1603 31.5643 2.1040 -2.9574
# 5 -5.4469 -20.4714 4.8808 2.1040 18.4114 -11.3526
# 6 17.5425 22.9876 18.0843 -2.9574 -11.3526 27.7269
#
#
#
# Elastic Compliance Matrix: (Units=1/GPa)
#
#
# Indices 1 2 3 4 5 6 
#
# 1 0.009326 -0.001932 0.000040 0.002489 -0.002926 -0.005257
# 2 -0.001932 0.012290 0.001441 0.003697 0.008593 -0.005994
# 3 0.000040 0.001441 0.018271 0.009242 -0.015756 -0.018602
# 4 0.002489 0.003697 0.009242 0.038418 -0.008086 -0.009881
# 5 -0.002926 0.008593 -0.015756 -0.008086 0.094521 0.042842
# 6 -0.005257 -0.005994 -0.018602 -0.009881 0.042842 0.072982
#
#
# Mechanical properties :
#
#
# Convention : Reuss Voigt Hill
#
# Bulk Modulus (GPa) = 25.65098 48.01299 36.83199
# Shear Modulus (GPa) = 19.25261 33.77529 26.51395
#
# Velocity S-wave (km/s) = 2.95555 3.91466 3.46842
# Velocity P-wave (km/s) = 4.82550 6.49748 5.72288
#
# Compressibility (1/GPa) = 0.03898486
#
# Stress axis : x y z
#
# Youngs Moduli (GPa) = 107.22938 81.36677 54.73102
#
# Poissons Ratio (x) = 0.15720 -0.00220
# Poissons Ratio (y) = 0.20716 -0.07885
# Poissons Ratio (z) = -0.00431 -0.11723
#
# Static dielectric constant tensor:
#      x y z
#    x 4.503870 -0.176320 0.024170 
#    y -0.176320 4.334460 -0.046700 
#    z 0.024170 -0.046700 3.744620 
# 
# 
# High freq. dielectric constant tensor:
#      x y z
#    x 1.870890 -0.001360 0.005270 
#    y -0.001360 1.887490 -0.007280 
#    z 0.005270 -0.007280 1.856850 
# 
# From -- ./inp_files/223761.got.cif
#   From: 2010.06.25/outbox.cif.g09.slc.cpg/sg2_112_cif.got.tgz:223761.got - 2010.06.27 13:26:56.
