data_PCOD8027339
_publ_section_title
;
Structure prediction by ZEFSAII (Michael W. Deem and Ramdas Pophale) SiO2 
 PCOD8027339
Probable space group: P -1
;
_chemical_formula_sum "Si O2"
_cell_formula_units_Z 14
_cell_length_a 13.687737
_cell_length_b 7.928686
_cell_length_c 12.748444
_cell_angle_alpha 144.034131
_cell_angle_beta 136.968321
_cell_angle_gamma 51.936622
_cell_volume 553.417636
_symmetry_space_group_name_H-M "P -1"
_symmetry_group_IT_number 2
_symmetry_cell_setting 'triclinic'
loop_
_space_group_symop_operation_xyz
x,y,z
-x,-y,-z
loop_
_atom_site_type_symbol
_atom_site_label
_atom_site_fract_x
_atom_site_fract_y
_atom_site_fract_z
Si Si1 0.018173 0.166457 0.319664
Si Si2 0.691845 0.008866 0.611968
Si Si3 0.388202 0.328853 0.886650
Si Si4 0.028335 0.770369 0.312951
Si Si5 0.865797 0.297568 0.060537
Si Si6 0.508249 0.502847 0.275105
Si Si7 0.362768 0.702271 0.531410
O O1 0.966965 0.116237 0.133010
O O2 0.000000 0.500000 0.500000
O O3 0.186670 0.091046 0.423981
O O4 0.954838 0.942010 0.240386
O O5 0.584063 0.757705 0.404199
O O6 0.617025 0.313554 0.662434
O O7 0.760014 0.078324 0.814275
O O8 0.229052 0.478248 0.828938
O O9 0.389822 0.022703 0.676826
O O10 0.500000 0.500000 0.000000
O O11 0.435531 0.302389 0.032609
O O12 0.193541 0.651157 0.358286
O O13 0.948955 0.480244 0.131037
O O14 0.000000 0.000000 0.500000
O O15 0.619655 0.311239 0.334691
O O16 0.500000 0.500000 0.500000
#
# Coordination Sequence:
#
# PCOD8027339 Si02
#       7
#     2   2   2   2   2   2   2
#     4  12  24  41  72 100 139 191 234 294 366 424
#     4  10  24  45  68 105 143 182 246 296 356 430
#     4  11  26  46  72 104 145 188 243 292 360 438
#     4  12  25  46  74 104 146 188 239 297 356 438
#     4  11  25  48  70 104 145 191 242 298 359 437
#     4  10  24  44  75  95 141 194 230 299 361 420
#     4  12  26  45  73 112 145 182 243 300 359 429
#
# _framework density 25.297349000000001
#
# number of rings (size 3 to 8) (size 9 to 14) (size 15 to 20)
#    0.000    0.857    2.857    2.571   10.000    0.571 
#    5.143    0.000    0.000    0.000    0.000    0.000 
#    0.000    0.000    0.000    0.000    0.000    0.000 
#
# Total GULP energy -173460.732620 kJ/mol
# GULP energy per Si atom -12390.052330 kJ/mol
# Density = 2.523977 g / cm^3
# Si number density = 25.297349 Si / 1000 Ang^3
#
#
#
# Elastic Constant Matrix: (Units=GPa)
#
#
# Indices 1 2 3 4 5 6 
#
# 1 100.2496 41.8709 10.3600 11.7870 23.7176 -18.7902
# 2 41.8709 134.3837 13.2567 -12.5232 15.0987 15.4306
# 3 10.3600 13.2567 78.7246 2.7942 10.6800 -11.0444
# 4 11.7870 -12.5232 2.7942 35.8428 1.2312 -4.5020
# 5 23.7176 15.0987 10.6800 1.2312 38.8951 0.8171
# 6 -18.7902 15.4306 -11.0444 -4.5020 0.8171 53.9662
#
#
#
# Elastic Compliance Matrix: (Units=1/GPa)
#
#
# Indices 1 2 3 4 5 6 
#
# 1 0.016140 -0.005639 0.001109 -0.006206 -0.007910 0.007061
# 2 -0.005639 0.010432 -0.001860 0.005033 -0.000157 -0.004904
# 3 0.001109 -0.001860 0.013961 -0.001506 -0.003818 0.003708
# 4 -0.006206 0.005033 -0.001506 0.031611 0.001270 -0.001290
# 5 -0.007910 -0.000157 -0.003818 0.001270 0.031684 -0.003864
# 6 0.007061 -0.004904 0.003708 -0.001290 -0.003864 0.023101
#
#
# Mechanical properties :
#
#
# Convention : Reuss Voigt Hill
#
# Bulk Modulus (GPa) = 36.03051 49.37036 42.70044
# Shear Modulus (GPa) = 33.56657 42.26548 37.91603
#
# Velocity S-wave (km/s) = 3.64659 4.09191 3.87565
# Velocity P-wave (km/s) = 5.65720 6.47174 6.07813
#
# Compressibility (1/GPa) = 0.02775426
#
# Stress axis : x y z
#
# Youngs Moduli (GPa) = 61.95802 95.86291 71.62647
#
# Poissons Ratio (x) = 0.54054 -0.07946
# Poissons Ratio (y) = 0.34936 0.13323
# Poissons Ratio (z) = -0.06874 0.17831
#
# Static dielectric constant tensor:
#      x y z
#    x 4.889550 -0.047060 -0.266230 
#    y -0.047060 5.171490 -0.179040 
#    z -0.266230 -0.179040 4.396250 
# 
# 
# High freq. dielectric constant tensor:
#      x y z
#    x 2.020160 -0.003440 -0.015460 
#    y -0.003440 2.034100 -0.009750 
#    z -0.015460 -0.009750 2.003630 
# 
# From -- ./inp_files/528009.got.cif
#   From: 2010.06.25/outbox.cif.g09.slc.cpg/sg2_265_cif.got.tgz:528009.got - 2010.06.27 13:26:56.
