data_PCOD8027335
_publ_section_title
;
Structure prediction by ZEFSAII (Michael W. Deem and Ramdas Pophale) SiO2 
 PCOD8027335
Probable space group: P -1
;
_chemical_formula_sum "Si O2"
_cell_formula_units_Z 16
_cell_length_a 11.256446
_cell_length_b 14.433121
_cell_length_c 9.676915
_cell_angle_alpha 136.103094
_cell_angle_beta 44.710201
_cell_angle_gamma 139.967775
_cell_volume 655.127810
_symmetry_space_group_name_H-M "P -1"
_symmetry_group_IT_number 2
_symmetry_cell_setting 'triclinic'
loop_
_space_group_symop_operation_xyz
x,y,z
-x,-y,-z
loop_
_atom_site_type_symbol
_atom_site_label
_atom_site_fract_x
_atom_site_fract_y
_atom_site_fract_z
Si Si1 0.732949 0.112384 0.440228
Si Si2 0.397360 0.590368 0.238529
Si Si3 0.653656 0.377557 0.372295
Si Si4 0.702682 0.829485 0.060185
Si Si5 0.691405 0.835740 0.760806
Si Si6 0.847410 0.181979 0.952831
Si Si7 0.962759 0.701394 0.808081
Si Si8 0.015706 0.275453 0.619683
O O1 0.828688 0.246144 0.384704
O O2 0.813701 0.192115 0.607434
O O3 0.500000 0.000000 0.500000
O O4 0.827542 0.006027 0.205278
O O5 0.434078 0.619075 0.402803
O O6 0.500471 0.749855 0.235950
O O7 0.163317 0.487496 0.284540
O O8 0.500000 0.500000 0.000000
O O9 0.479729 0.318013 0.339739
O O10 0.834856 0.548439 0.365312
O O11 0.715685 0.248746 0.189774
O O12 0.631563 0.827995 0.961422
O O13 0.828631 0.746006 0.873858
O O14 0.891045 0.833097 0.581537
O O15 0.722391 0.994212 0.834833
O O16 0.951967 0.275994 0.829340
O O17 0.010389 0.223036 0.981542
#
# Coordination Sequence:
#
# PCOD8027335 Si02
#       8
#     2   2   2   2   2   2   2   2
#     4  12  26  43  74 102 145 195 253 309 376 427
#     4  10  24  44  75 107 146 193 256 303 370 447
#     4  12  28  49  75 111 159 194 246 315 381 445
#     4  11  24  44  76 106 146 196 252 310 370 445
#     4  12  26  48  78 109 155 197 254 304 374 459
#     4  12  29  44  74 110 158 198 245 310 380 443
#     4  11  23  49  70 105 148 194 252 313 364 448
#     4  12  27  50  73 110 149 206 254 303 375 456
#
# _framework density 24.422716999999999
#
# number of rings (size 3 to 8) (size 9 to 14) (size 15 to 20)
#    0.000    0.500    3.750    3.375   10.500    1.500 
#    0.000    0.000    0.000    0.000    0.000    0.000 
#    0.000    0.000    0.000    0.000    0.000    0.000 
#
# Total GULP energy -198395.700948 kJ/mol
# GULP energy per Si atom -12399.731309 kJ/mol
# Density = 2.436713 g / cm^3
# Si number density = 24.422717 Si / 1000 Ang^3
#
#
#
# Elastic Constant Matrix: (Units=GPa)
#
#
# Indices 1 2 3 4 5 6 
#
# 1 96.8076 53.6805 42.3774 -4.3312 24.7571 15.8427
# 2 53.6805 143.1434 51.4530 -13.5035 14.4142 13.0518
# 3 42.3774 51.4530 125.0879 -13.8049 31.0257 -2.1483
# 4 -4.3312 -13.5035 -13.8049 51.3023 -8.1037 2.3323
# 5 24.7571 14.4142 31.0257 -8.1037 49.7737 5.0631
# 6 15.8427 13.0518 -2.1483 2.3323 5.0631 44.0498
#
#
#
# Elastic Compliance Matrix: (Units=1/GPa)
#
#
# Indices 1 2 3 4 5 6 
#
# 1 0.015567 -0.004185 -0.002567 -0.001045 -0.004705 -0.003888
# 2 -0.004185 0.009739 -0.002787 0.001773 0.001468 -0.001779
# 3 -0.002567 -0.002787 0.011471 0.001192 -0.005161 0.002839
# 4 -0.001045 0.001773 0.001192 0.020700 0.002787 -0.001508
# 5 -0.004705 0.001468 -0.005161 0.002787 0.025892 -0.002118
# 6 -0.003888 -0.001779 0.002839 -0.001508 -0.002118 0.025089
#
#
# Mechanical properties :
#
#
# Convention : Reuss Voigt Hill
#
# Bulk Modulus (GPa) = 56.50500 73.34008 64.92254
# Shear Modulus (GPa) = 37.47087 43.52703 40.49895
#
# Velocity S-wave (km/s) = 3.92122 4.22623 4.07658
# Velocity P-wave (km/s) = 6.60967 7.34230 6.98560
#
# Compressibility (1/GPa) = 0.01769755
#
# Stress axis : x y z
#
# Youngs Moduli (GPa) = 64.23768 102.68010 87.17672
#
# Poissons Ratio (x) = 0.42975 0.22381
# Poissons Ratio (y) = 0.26885 0.24298
# Poissons Ratio (z) = 0.16492 0.28619
#
# Static dielectric constant tensor:
#      x y z
#    x 4.272480 0.008510 0.085370 
#    y 0.008510 5.356200 -0.060700 
#    z 0.085370 -0.060700 4.613990 
# 
# 
# High freq. dielectric constant tensor:
#      x y z
#    x 1.961600 -0.002240 0.002490 
#    y -0.002240 1.994980 0.005510 
#    z 0.002490 0.005510 1.983860 
# 
# From -- ./inp_files/274307.got.cif
#   From: 2010.06.25/outbox.cif.g09.slc.cpg/sg2_138_cif.got.tgz:274307.got - 2010.06.27 13:26:56.
