data_PCOD8027407
_publ_section_title
;
Structure prediction by ZEFSAII (Michael W. Deem and Ramdas Pophale) SiO2 
 PCOD8027407
Probable space group: P -1
;
_chemical_formula_sum "Si O2"
_cell_formula_units_Z 16
_cell_length_a 9.855512
_cell_length_b 11.675972
_cell_length_c 9.421790
_cell_angle_alpha 102.168657
_cell_angle_beta 56.453591
_cell_angle_gamma 129.578915
_cell_volume 679.394202
_symmetry_space_group_name_H-M "P -1"
_symmetry_group_IT_number 2
_symmetry_cell_setting 'triclinic'
loop_
_space_group_symop_operation_xyz
x,y,z
-x,-y,-z
loop_
_atom_site_type_symbol
_atom_site_label
_atom_site_fract_x
_atom_site_fract_y
_atom_site_fract_z
Si Si1 0.449860 0.613944 0.528066
Si Si2 0.850584 0.640337 0.551731
Si Si3 0.184294 0.791639 0.630223
Si Si4 0.550663 0.853455 0.038980
Si Si5 0.555132 0.398032 0.163392
Si Si6 0.816315 0.143800 0.800316
Si Si7 0.374581 0.112674 0.679061
Si Si8 0.010839 0.637403 0.978787
O O1 0.500000 0.500000 0.500000
O O2 0.235091 0.512104 0.528845
O O3 0.424190 0.660230 0.710661
O O4 0.631228 0.769331 0.378669
O O5 0.651095 0.616519 0.725352
O O6 0.990454 0.664306 0.609104
O O7 0.991890 0.786120 0.402910
O O8 0.396995 0.840769 0.453826
O O9 0.197838 0.939812 0.679525
O O10 0.156774 0.717070 0.777637
O O11 0.447397 0.690721 0.990283
O O12 0.727224 0.976866 0.855775
O O13 0.369993 0.868218 0.171007
O O14 0.661599 0.875309 0.130846
O O15 0.771449 0.572666 0.066567
O O16 0.888742 0.239747 0.925362
O O17 0.000000 0.500000 0.000000
#
# Coordination Sequence:
#
# PCOD8027407 Si02
#       8
#     2   2   2   2   2   2   2   2
#     4  10  24  45  67  98 137 183 227 282 348 414
#     4  11  25  46  66 101 139 183 226 286 352 420
#     4  11  26  43  70 106 138 181 231 288 356 408
#     4  11  24  42  68 106 136 182 233 289 344 411
#     4  11  25  44  68  98 139 185 226 285 349 417
#     4  11  23  42  69 101 144 175 236 288 342 419
#     4  11  24  45  71 103 142 177 234 294 342 414
#     4  12  23  42  70 103 137 182 232 286 342 411
#
# _framework density 23.550391999999999
#
# number of rings (size 3 to 8) (size 9 to 14) (size 15 to 20)
#    0.000    1.000    5.000    0.750    3.500    1.500 
#    4.500    0.625    0.000    0.000    0.000    0.000 
#    0.000    0.000    0.000    0.000    0.000    0.000 
#
# Total GULP energy -198363.559345 kJ/mol
# GULP energy per Si atom -12397.722459 kJ/mol
# Density = 2.349679 g / cm^3
# Si number density = 23.550392 Si / 1000 Ang^3
#
#
#
# Elastic Constant Matrix: (Units=GPa)
#
#
# Indices 1 2 3 4 5 6 
#
# 1 50.5667 12.2326 1.4751 7.3962 11.1263 4.5991
# 2 12.2326 77.4916 -3.3564 5.3437 16.8790 5.9872
# 3 1.4751 -3.3564 74.7341 -0.2546 12.4453 -3.6282
# 4 7.3962 5.3437 -0.2546 41.7267 8.9228 8.6966
# 5 11.1263 16.8790 12.4453 8.9228 36.7275 -7.0161
# 6 4.5991 5.9872 -3.6282 8.6966 -7.0161 35.0886
#
#
#
# Elastic Compliance Matrix: (Units=1/GPa)
#
#
# Indices 1 2 3 4 5 6 
#
# 1 0.022117 -0.001731 0.000360 -0.001642 -0.006280 -0.003415
# 2 -0.001731 0.015280 0.001882 0.000945 -0.008138 -0.004047
# 3 0.000360 0.001882 0.014484 0.001209 -0.006256 -0.000421
# 4 -0.001642 0.000945 0.001209 0.027764 -0.008705 -0.008443
# 5 -0.006280 -0.008138 -0.006256 -0.008705 0.039318 0.011584
# 6 -0.003415 -0.004047 -0.000421 -0.008443 0.011584 0.034003
#
#
# Mechanical properties :
#
#
# Convention : Reuss Voigt Hill
#
# Bulk Modulus (GPa) = 18.90222 24.83276 21.86749
# Shear Modulus (GPa) = 29.48546 35.53798 32.51172
#
# Velocity S-wave (km/s) = 3.54222 3.88882 3.71956
# Velocity P-wave (km/s) = 4.97730 5.54359 5.26806
#
# Compressibility (1/GPa) = 0.05290383
#
# Stress axis : x y z
#
# Youngs Moduli (GPa) = 45.21484 65.44687 69.04305
#
# Poissons Ratio (x) = 0.11327 -0.02487
# Poissons Ratio (y) = 0.07825 -0.12997
# Poissons Ratio (z) = -0.01629 -0.12320
#
# Static dielectric constant tensor:
#      x y z
#    x 3.817050 0.595130 -0.097380 
#    y 0.595130 4.143570 0.310680 
#    z -0.097380 0.310680 4.072890 
# 
# 
# High freq. dielectric constant tensor:
#      x y z
#    x 1.907360 0.020620 0.014400 
#    y 0.020620 1.938860 -0.000240 
#    z 0.014400 -0.000240 1.941070 
# 
# From -- ./inp_files/273328.got.cif
#   From: 2010.06.25/outbox.cif.g09.slc.cpg/sg2_137_cif.got.tgz:273328.got - 2010.06.27 13:26:56.
