data_PCOD8027996
_publ_section_title
;
Structure prediction by ZEFSAII (Michael W. Deem and Ramdas Pophale) SiO2 
 PCOD8027996
Probable space group: P -1
;
_chemical_formula_sum "Si O2"
_cell_formula_units_Z 14
_cell_length_a 13.982630
_cell_length_b 13.919802
_cell_length_c 7.014396
_cell_angle_alpha 82.112247
_cell_angle_beta 82.085466
_cell_angle_gamma 149.917726
_cell_volume 580.430876
_symmetry_space_group_name_H-M "P -1"
_symmetry_group_IT_number 2
_symmetry_cell_setting 'triclinic'
loop_
_space_group_symop_operation_xyz
x,y,z
-x,-y,-z
loop_
_atom_site_type_symbol
_atom_site_label
_atom_site_fract_x
_atom_site_fract_y
_atom_site_fract_z
Si Si1 0.393086 0.508298 0.622344
Si Si2 0.753403 0.214429 0.937456
Si Si3 0.257465 0.954850 0.284614
Si Si4 0.917724 0.321045 0.263569
Si Si5 0.448406 0.371985 0.839909
Si Si6 0.039205 0.960798 0.326186
Si Si7 0.306709 0.544348 0.984998
O O1 0.515878 0.545062 0.726881
O O2 0.550760 0.682914 0.352971
O O3 0.320986 0.534970 0.757238
O O4 0.189114 0.262127 0.661021
O O5 0.841064 0.191067 0.832619
O O6 0.919340 0.449479 0.755907
O O7 0.767508 0.225716 0.159488
O O8 0.500000 0.000000 0.000000
O O9 0.250765 0.871508 0.480161
O O10 0.128011 0.936284 0.380665
O O11 0.513171 0.208891 0.092516
O O12 0.062825 0.361042 0.143837
O O13 0.211349 0.155279 0.067201
O O14 0.643700 0.503921 0.881334
O O15 0.000000 0.000000 0.500000
#
# Coordination Sequence:
#
# PCOD8027996 Si02
#       7
#     2   2   2   2   2   2   2
#     4  11  24  41  65  96 137 194 236 285 352 398
#     4  11  24  50  73 107 139 175 232 293 352 423
#     4  11  25  45  69 105 139 185 231 288 352 416
#     4  11  25  46  77 100 141 183 226 290 358 420
#     4  10  25  41  65  95 137 186 234 293 335 408
#     4  11  26  44  67 100 143 188 238 287 345 411
#     4  11  24  43  67 103 140 181 237 286 347 421
#
# _framework density 24.120011999999999
#
# number of rings (size 3 to 8) (size 9 to 14) (size 15 to 20)
#    0.000    1.143    1.429    3.000   12.000    4.000 
#    5.143    0.000    0.000    0.000    0.000    0.000 
#    0.000    0.000    0.000    0.000    0.000    0.000 
#
# Total GULP energy -173523.903661 kJ/mol
# GULP energy per Si atom -12394.564547 kJ/mol
# Density = 2.406511 g / cm^3
# Si number density = 24.120012 Si / 1000 Ang^3
#
#
#
# Elastic Constant Matrix: (Units=GPa)
#
#
# Indices 1 2 3 4 5 6 
#
# 1 75.1155 37.3525 28.4106 6.5848 -0.3232 -2.9383
# 2 37.3525 93.3384 39.4717 16.1066 -2.0403 -1.0000
# 3 28.4106 39.4717 136.0583 0.3585 1.4931 -10.5900
# 4 6.5848 16.1066 0.3585 30.4608 -5.9155 -12.4049
# 5 -0.3232 -2.0403 1.4931 -5.9155 39.6394 8.7651
# 6 -2.9383 -1.0000 -10.5900 -12.4049 8.7651 40.8898
#
#
#
# Elastic Compliance Matrix: (Units=1/GPa)
#
#
# Indices 1 2 3 4 5 6 
#
# 1 0.017017 -0.006016 -0.001758 -0.000290 -0.000279 0.000592
# 2 -0.006016 0.016141 -0.003697 -0.008611 0.000455 -0.003705
# 3 -0.001758 -0.003697 0.009048 0.003437 -0.000770 0.003334
# 4 -0.000290 -0.008611 0.003437 0.043347 0.002982 0.013170
# 5 -0.000279 0.000455 -0.000770 0.002982 0.026841 -0.005057
# 6 0.000592 -0.003705 0.003334 0.013170 -0.005057 0.030351
#
#
# Mechanical properties :
#
#
# Convention : Reuss Voigt Hill
#
# Bulk Modulus (GPa) = 51.91150 57.22018 54.56584
# Shear Modulus (GPa) = 29.05148 35.48316 32.26732
#
# Velocity S-wave (km/s) = 3.47429 3.83966 3.66154
# Velocity P-wave (km/s) = 6.13703 6.59029 6.36770
#
# Compressibility (1/GPa) = 0.01926356
#
# Stress axis : x y z
#
# Youngs Moduli (GPa) = 58.76567 61.95440 110.51718
#
# Poissons Ratio (x) = 0.37272 0.19429
# Poissons Ratio (y) = 0.35354 0.40859
# Poissons Ratio (z) = 0.10331 0.22905
#
# Static dielectric constant tensor:
#      x y z
#    x 4.436960 -0.097540 -0.108270 
#    y -0.097540 4.241230 0.092740 
#    z -0.108270 0.092740 4.605020 
# 
# 
# High freq. dielectric constant tensor:
#      x y z
#    x 1.958810 -0.004240 -0.009230 
#    y -0.004240 1.948430 0.004880 
#    z -0.009230 0.004880 1.970340 
# 
# From -- ./inp_files/97953.got.cif
#   From: 2010.06.25/outbox.cif.g09.slc.cpg/sg2_49_cif.got.tgz:97953.got - 2010.06.27 13:26:56.
