data_PCOD8027758
_publ_section_title
;
Structure prediction by ZEFSAII (Michael W. Deem and Ramdas Pophale) SiO2 
 PCOD8027758
Probable space group: P -1
;
_chemical_formula_sum "Si O2"
_cell_formula_units_Z 12
_cell_length_a 5.089422
_cell_length_b 5.399783
_cell_length_c 19.423763
_cell_angle_alpha 96.225760
_cell_angle_beta 83.287613
_cell_angle_gamma 83.744629
_cell_volume 522.998892
_symmetry_space_group_name_H-M "P -1"
_symmetry_group_IT_number 2
_symmetry_cell_setting 'triclinic'
loop_
_space_group_symop_operation_xyz
x,y,z
-x,-y,-z
loop_
_atom_site_type_symbol
_atom_site_label
_atom_site_fract_x
_atom_site_fract_y
_atom_site_fract_z
Si Si1 0.165714 0.686645 0.041910
Si Si2 0.460914 0.712330 0.907256
Si Si3 0.976721 0.142318 0.576354
Si Si4 0.010374 0.100646 0.153963
Si Si5 0.803854 0.087790 0.307570
Si Si6 0.412193 0.359160 0.638848
O O1 0.396834 0.557034 0.081298
O O2 0.961659 0.859431 0.102178
O O3 0.312323 0.841915 0.984133
O O4 0.000000 0.500000 0.000000
O O5 0.687680 0.856589 0.870812
O O6 0.228235 0.685403 0.856407
O O7 0.701680 0.321059 0.595672
O O8 0.794182 0.673541 0.418127
O O9 0.006615 0.937306 0.631344
O O10 0.000000 0.000000 0.500000
O O11 0.990845 0.051630 0.233935
O O12 0.619678 0.858218 0.309155
O O13 0.633562 0.362509 0.319102
#
# Coordination Sequence:
#
# PCOD8027758 Si02
#       6
#     2   2   2   2   2   2
#     4  11  25  44  67  98 128 172 232 287 340 404
#     4  11  26  42  66  94 129 171 226 281 345 398
#     4  10  24  46  75 105 140 185 230 283 341 408
#     4  12  27  41  68  93 135 179 223 280 350 401
#     4  10  28  44  70 102 146 182 232 283 345 417
#     4  10  25  43  69 102 143 177 233 280 343 405
#
# _framework density 22.944600000000001
#
# number of rings (size 3 to 8) (size 9 to 14) (size 15 to 20)
#    1.000    0.333    1.667    1.500   11.667    2.667 
#    0.000    0.000    0.000    0.000    0.000    0.000 
#    0.000    0.000    0.000    0.000    0.000    0.000 
#
# Total GULP energy -148665.715409 kJ/mol
# GULP energy per Si atom -12388.809617 kJ/mol
# Density = 2.289238 g / cm^3
# Si number density = 22.944600 Si / 1000 Ang^3
#
#
#
# Elastic Constant Matrix: (Units=GPa)
#
#
# Indices 1 2 3 4 5 6 
#
# 1 113.7070 31.7363 37.6839 -0.9240 -12.2611 -24.3906
# 2 31.7363 111.1941 49.1184 11.0848 -6.8216 0.0153
# 3 37.6839 49.1184 165.4434 3.5066 -2.2031 -17.3921
# 4 -0.9240 11.0848 3.5066 28.3994 -9.7210 -5.6963
# 5 -12.2611 -6.8216 -2.2031 -9.7210 25.5875 2.0428
# 6 -24.3906 0.0153 -17.3921 -5.6963 2.0428 25.4467
#
#
#
# Elastic Compliance Matrix: (Units=1/GPa)
#
#
# Indices 1 2 3 4 5 6 
#
# 1 0.013972 -0.004033 -0.000565 0.007409 0.007261 0.014084
# 2 -0.004033 0.012213 -0.003375 -0.006242 -0.000739 -0.007518
# 3 -0.000565 -0.003375 0.007670 0.001201 -0.000453 0.005008
# 4 0.007409 -0.006242 0.001201 0.047566 0.018697 0.017073
# 5 0.007261 -0.000739 -0.000453 0.018697 0.048877 0.006912
# 6 0.014084 -0.007518 0.005008 0.017073 0.006912 0.059492
#
#
# Mechanical properties :
#
#
# Convention : Reuss Voigt Hill
#
# Bulk Modulus (GPa) = 55.83895 69.71351 62.77623
# Shear Modulus (GPa) = 23.61775 34.00712 28.81244
#
# Velocity S-wave (km/s) = 3.21181 3.85403 3.54749
# Velocity P-wave (km/s) = 6.17605 7.08902 6.64822
#
# Compressibility (1/GPa) = 0.01790865
#
# Stress axis : x y z
#
# Youngs Moduli (GPa) = 71.57343 81.87726 130.37705
#
# Poissons Ratio (x) = 0.33023 0.07363
# Poissons Ratio (y) = 0.28868 0.44005
# Poissons Ratio (z) = 0.04042 0.27635
#
# Static dielectric constant tensor:
#      x y z
#    x 4.084300 -0.208610 -0.140070 
#    y -0.208610 3.998360 -0.006040 
#    z -0.140070 -0.006040 4.137340 
# 
# 
# High freq. dielectric constant tensor:
#      x y z
#    x 1.908490 -0.016680 -0.008670 
#    y -0.016680 1.893860 -0.004960 
#    z -0.008670 -0.004960 1.898630 
# 
# From -- ./inp_files/102639.got.cif
#   From: 2010.06.25/outbox.cif.g09.slc.cpg/sg2_52_cif.got.tgz:102639.got - 2010.06.27 13:26:56.
