data_PCOD8027620
_publ_section_title
;
Structure prediction by ZEFSAII (Michael W. Deem and Ramdas Pophale) SiO2 
 PCOD8027620
Probable space group: P -1
;
_chemical_formula_sum "Si O2"
_cell_formula_units_Z 12
_cell_length_a 13.658324
_cell_length_b 8.841558
_cell_length_c 11.144650
_cell_angle_alpha 140.515323
_cell_angle_beta 60.393448
_cell_angle_gamma 138.157379
_cell_volume 560.392971
_symmetry_space_group_name_H-M "P -1"
_symmetry_group_IT_number 2
_symmetry_cell_setting 'triclinic'
loop_
_space_group_symop_operation_xyz
x,y,z
-x,-y,-z
loop_
_atom_site_type_symbol
_atom_site_label
_atom_site_fract_x
_atom_site_fract_y
_atom_site_fract_z
Si Si1 0.375288 0.246333 0.766759
Si Si2 0.832835 0.184157 0.908876
Si Si3 0.719179 0.723143 0.902463
Si Si4 0.650740 0.351412 0.138354
Si Si5 0.837550 0.728541 0.484819
Si Si6 0.852924 0.458764 0.545643
O O1 0.548362 0.423610 0.788245
O O2 0.357837 0.408363 0.770541
O O3 0.294665 0.897936 0.557412
O O4 0.284537 0.218803 0.919754
O O5 0.777512 0.035539 0.985431
O O6 0.784776 0.902758 0.680212
O O7 0.760828 0.324815 0.988159
O O8 0.000000 0.500000 0.000000
O O9 0.833490 0.661357 0.769553
O O10 0.710450 0.472143 0.311567
O O11 0.500000 0.000000 0.000000
O O12 0.853880 0.547140 0.462576
O O13 0.000000 0.000000 0.500000
O O14 0.000000 0.500000 0.500000
#
# Coordination Sequence:
#
# PCOD8027620 Si02
#       6
#     2   2   2   2   2   2
#     4  11  24  43  70  94 140 177 224 281 339 414
#     4  11  23  44  72  97 136 179 229 286 342 406
#     4  10  24  46  66  99 133 182 222 282 347 397
#     4  12  25  44  68 104 136 179 233 274 344 413
#     4  11  24  43  70  98 139 180 222 283 340 405
#     4  11  25  43  69 101 135 174 231 283 344 411
#
# _framework density 21.413544999999999
#
# number of rings (size 3 to 8) (size 9 to 14) (size 15 to 20)
#    0.000    1.000    3.333    2.500    4.667    4.000 
#    0.000    0.000    0.000    0.000    0.000    0.000 
#    0.000    0.000    0.000    0.000    0.000    0.000 
#
# Total GULP energy -148712.683554 kJ/mol
# GULP energy per Si atom -12392.723630 kJ/mol
# Density = 2.136481 g / cm^3
# Si number density = 21.413545 Si / 1000 Ang^3
#
#
#
# Elastic Constant Matrix: (Units=GPa)
#
#
# Indices 1 2 3 4 5 6 
#
# 1 94.1653 16.2144 44.5392 -7.2318 -5.7435 3.9569
# 2 16.2144 107.5119 22.8667 13.8176 7.4076 -1.1572
# 3 44.5392 22.8667 103.0338 5.7400 5.1661 -0.9683
# 4 -7.2318 13.8176 5.7400 46.6307 4.0326 -3.1188
# 5 -5.7435 7.4076 5.1661 4.0326 42.3130 -0.3755
# 6 3.9569 -1.1572 -0.9683 -3.1188 -0.3755 45.0300
#
#
#
# Elastic Compliance Matrix: (Units=1/GPa)
#
#
# Indices 1 2 3 4 5 6 
#
# 1 0.014217 -0.001427 -0.006143 0.003078 0.002626 -0.001183
# 2 -0.001427 0.010308 -0.001428 -0.002957 -0.001541 0.000142
# 3 -0.006143 -0.001428 0.012889 -0.001904 -0.001971 0.000632
# 4 0.003078 -0.002957 -0.001904 0.023203 -0.001033 0.001211
# 5 0.002626 -0.001541 -0.001971 -0.001033 0.024597 -0.000179
# 6 -0.001183 0.000142 0.000632 0.001211 -0.000179 0.022411
#
#
# Mechanical properties :
#
#
# Convention : Reuss Voigt Hill
#
# Bulk Modulus (GPa) = 51.49722 52.43907 51.96814
# Shear Modulus (GPa) = 37.85195 41.53413 39.69304
#
# Velocity S-wave (km/s) = 4.20892 4.40889 4.31006
# Velocity P-wave (km/s) = 6.90805 7.10349 7.00645
#
# Compressibility (1/GPa) = 0.01941853
#
# Stress axis : x y z
#
# Youngs Moduli (GPa) = 70.33688 97.01337 77.58658
#
# Poissons Ratio (x) = 0.13841 0.47665
# Poissons Ratio (y) = 0.10035 0.11076
# Poissons Ratio (z) = 0.43211 0.13849
#
# Static dielectric constant tensor:
#      x y z
#    x 3.982660 -0.150880 -0.114410 
#    y -0.150880 4.173130 0.012990 
#    z -0.114410 0.012990 4.000160 
# 
# 
# High freq. dielectric constant tensor:
#      x y z
#    x 1.843210 0.002330 -0.015540 
#    y 0.002330 1.853160 0.010470 
#    z -0.015540 0.010470 1.849770 
# 
# From -- ./inp_files/173701.got.cif
#   From: 2010.06.25/outbox.cif.g09.slc.cpg/sg2_87_cif.got.tgz:173701.got - 2010.06.27 13:26:56.
