data_PCOD8027551
_publ_section_title
;
Structure prediction by ZEFSAII (Michael W. Deem and Ramdas Pophale) SiO2 
 PCOD8027551
Probable space group: P -1
;
_chemical_formula_sum "Si O2"
_cell_formula_units_Z 16
_cell_length_a 12.818704
_cell_length_b 8.844718
_cell_length_c 14.660457
_cell_angle_alpha 30.452732
_cell_angle_beta 113.090788
_cell_angle_gamma 100.244826
_cell_volume 727.737685
_symmetry_space_group_name_H-M "P -1"
_symmetry_group_IT_number 2
_symmetry_cell_setting 'triclinic'
loop_
_space_group_symop_operation_xyz
x,y,z
-x,-y,-z
loop_
_atom_site_type_symbol
_atom_site_label
_atom_site_fract_x
_atom_site_fract_y
_atom_site_fract_z
Si Si1 0.011938 0.911170 0.945955
Si Si2 0.838457 0.798511 0.271657
Si Si3 0.804895 0.164646 0.617548
Si Si4 0.583889 0.587487 0.912983
Si Si5 0.420231 0.775548 0.081831
Si Si6 0.102520 0.198079 0.337622
Si Si7 0.459480 0.676149 0.489448
Si Si8 0.156863 0.859531 0.722403
O O1 0.057058 0.150679 0.778901
O O2 0.104178 0.553488 0.156772
O O3 0.881743 0.948396 0.838578
O O4 0.000000 0.000000 0.000000
O O5 0.859978 0.428344 0.466984
O O6 0.841051 0.887690 0.332010
O O7 0.716109 0.995870 0.077043
O O8 0.669733 0.333747 0.518388
O O9 0.812447 0.952025 0.641059
O O10 0.556669 0.436597 0.889936
O O11 0.541906 0.966368 0.696625
O O12 0.500000 0.500000 0.000000
O O13 0.724728 0.453634 0.061019
O O14 0.441466 0.529264 0.299421
O O15 0.500000 0.000000 0.000000
O O16 0.964020 0.223198 0.263494
O O17 0.160956 0.007518 0.547565
O O18 0.500000 0.500000 0.500000
#
# Coordination Sequence:
#
# PCOD8027551 Si02
#       8
#     2   2   2   2   2   2   2   2
#     4  12  27  43  69 105 141 180 231 284 353 407
#     4  11  25  45  70  98 141 182 229 285 344 421
#     4  12  26  45  73  98 141 182 233 285 350 415
#     4  11  26  45  73 101 139 184 235 287 352 422
#     4  11  24  48  70  99 137 183 236 291 351 407
#     4  11  25  44  72 102 139 179 231 286 345 419
#     4  12  28  46  70 104 142 184 237 291 352 418
#     4  10  24  45  72 100 140 180 230 283 352 410
#
# _framework density 21.985944
#
# number of rings (size 3 to 8) (size 9 to 14) (size 15 to 20)
#    0.000    0.750    2.500    3.375   12.250    2.000 
#    0.000    0.000    0.000    0.000    0.000    0.000 
#    0.000    0.000    0.000    0.000    0.000    0.000 
#
# Total GULP energy -198457.750595 kJ/mol
# GULP energy per Si atom -12403.609412 kJ/mol
# Density = 2.193590 g / cm^3
# Si number density = 21.985944 Si / 1000 Ang^3
#
#
#
# Elastic Constant Matrix: (Units=GPa)
#
#
# Indices 1 2 3 4 5 6 
#
# 1 95.1758 46.1551 30.7047 8.0147 4.0435 -14.7483
# 2 46.1551 153.6397 76.2996 7.3094 6.6208 -21.8389
# 3 30.7047 76.2996 146.8782 1.1825 2.9411 -5.5243
# 4 8.0147 7.3094 1.1825 53.3508 6.6209 -3.1927
# 5 4.0435 6.6208 2.9411 6.6209 35.5029 -3.0606
# 6 -14.7483 -21.8389 -5.5243 -3.1927 -3.0606 40.6506
#
#
#
# Elastic Compliance Matrix: (Units=1/GPa)
#
#
# Indices 1 2 3 4 5 6 
#
# 1 0.012791 -0.002823 -0.001083 -0.001296 -0.000353 0.002848
# 2 -0.002823 0.010209 -0.004553 -0.000553 -0.000780 0.003740
# 3 -0.001083 -0.004553 0.009339 0.000491 -0.000025 -0.001533
# 4 -0.001296 -0.000553 0.000491 0.019456 -0.003369 0.000574
# 5 -0.000353 -0.000780 -0.000025 -0.003369 0.029101 0.001376
# 6 0.002848 0.003740 -0.001533 0.000574 0.001376 0.027583
#
#
# Mechanical properties :
#
#
# Convention : Reuss Voigt Hill
#
# Bulk Modulus (GPa) = 64.84311 78.00140 71.42226
# Shear Modulus (GPa) = 38.30375 42.06980 40.18678
#
# Velocity S-wave (km/s) = 4.17849 4.37909 4.27996
# Velocity P-wave (km/s) = 7.26888 7.81815 7.54851
#
# Compressibility (1/GPa) = 0.01542184
#
# Stress axis : x y z
#
# Youngs Moduli (GPa) = 78.18153 97.95167 107.08323
#
# Poissons Ratio (x) = 0.27652 0.11595
# Poissons Ratio (y) = 0.22071 0.48750
# Poissons Ratio (z) = 0.08465 0.44593
#
# Static dielectric constant tensor:
#      x y z
#    x 3.944210 0.068030 0.068130 
#    y 0.068030 4.051320 0.081460 
#    z 0.068130 0.081460 4.253730 
# 
# 
# High freq. dielectric constant tensor:
#      x y z
#    x 1.864470 -0.001660 0.004520 
#    y -0.001660 1.875260 0.002530 
#    z 0.004520 0.002530 1.888880 
# 
# From -- ./inp_files/514842.got.cif
#   From: 2010.06.25/outbox.cif.g09.slc.cpg/sg2_258_cif.got.tgz:514842.got - 2010.06.27 13:26:56.
