data_PCOD8027288
_publ_section_title
;
Structure prediction by ZEFSAII (Michael W. Deem and Ramdas Pophale) SiO2 
 PCOD8027288
Probable space group: P -1
;
_chemical_formula_sum "Si O2"
_cell_formula_units_Z 16
_cell_length_a 14.885718
_cell_length_b 8.356498
_cell_length_c 9.113014
_cell_angle_alpha 98.436770
_cell_angle_beta 138.134407
_cell_angle_gamma 73.334149
_cell_volume 720.788517
_symmetry_space_group_name_H-M "P -1"
_symmetry_group_IT_number 2
_symmetry_cell_setting 'triclinic'
loop_
_space_group_symop_operation_xyz
x,y,z
-x,-y,-z
loop_
_atom_site_type_symbol
_atom_site_label
_atom_site_fract_x
_atom_site_fract_y
_atom_site_fract_z
Si Si1 0.593335 0.578855 0.953229
Si Si2 0.069911 0.560761 0.955644
Si Si3 0.869960 0.619312 0.285972
Si Si4 0.369080 0.428791 0.322335
Si Si5 0.398144 0.115950 0.507088
Si Si6 0.105580 0.071717 0.239208
Si Si7 0.856777 0.991465 0.393335
Si Si8 0.574118 0.228641 0.970804
O O1 0.747704 0.551233 0.202393
O O2 0.482316 0.716861 0.928135
O O3 0.607110 0.658455 0.820859
O O4 0.561239 0.397598 0.882519
O O5 0.103397 0.407684 0.859484
O O6 0.971475 0.733263 0.796132
O O7 0.225605 0.580919 0.183077
O O8 0.000000 0.500000 0.000000
O O9 0.835535 0.811347 0.313087
O O10 0.000000 0.500000 0.500000
O O11 0.500000 0.500000 0.500000
O O12 0.355213 0.301863 0.414838
O O13 0.257688 0.054222 0.348514
O O14 0.481834 0.120778 0.762404
O O15 0.500000 0.000000 0.500000
O O16 0.135873 0.974707 0.418374
O O17 0.000000 0.000000 0.000000
O O18 0.000000 0.000000 0.500000
O O19 0.733081 0.124079 0.175783
#
# Coordination Sequence:
#
# PCOD8027288 Si02
#       8
#     2   2   2   2   2   2   2   2
#     4  10  24  44  72 103 136 188 240 304 352 438
#     4  11  25  45  72 102 140 186 243 298 356 435
#     4  11  23  44  71  97 141 183 238 291 364 425
#     4  11  24  45  73 104 141 190 236 296 364 428
#     4  12  29  47  74 108 152 193 241 304 367 439
#     4  12  30  50  72 111 149 195 245 302 370 442
#     4  12  29  47  74 107 148 197 243 307 371 430
#     4  11  26  47  72 105 147 185 252 297 367 432
#
# _framework density 22.197914000000001
#
# number of rings (size 3 to 8) (size 9 to 14) (size 15 to 20)
#    0.000    0.750    3.750    1.500   12.250    1.000 
#    0.000    0.000    0.000    0.000    0.000    0.000 
#    0.000    0.000    0.000    0.000    0.000    0.000 
#
# Total GULP energy -198296.051552 kJ/mol
# GULP energy per Si atom -12393.503222 kJ/mol
# Density = 2.214739 g / cm^3
# Si number density = 22.197914 Si / 1000 Ang^3
#
#
#
# Elastic Constant Matrix: (Units=GPa)
#
#
# Indices 1 2 3 4 5 6 
#
# 1 154.0319 25.8182 61.0911 5.2494 21.0865 -3.2963
# 2 25.8182 69.2839 35.4696 9.7597 3.5860 -16.8230
# 3 61.0911 35.4696 137.1728 3.7354 22.1163 -5.2971
# 4 5.2494 9.7597 3.7354 40.0728 2.7290 6.4055
# 5 21.0865 3.5860 22.1163 2.7290 48.9087 -3.3099
# 6 -3.2963 -16.8230 -5.2971 6.4055 -3.3099 35.6443
#
#
#
# Elastic Compliance Matrix: (Units=1/GPa)
#
#
# Indices 1 2 3 4 5 6 
#
# 1 0.008198 -0.001564 -0.002921 -0.000183 -0.002128 -0.000579
# 2 -0.001564 0.020492 -0.004395 -0.006153 0.002192 0.010183
# 3 -0.002921 -0.004395 0.010160 0.000927 -0.003152 -0.001294
# 4 -0.000183 -0.006153 0.000927 0.027798 -0.001979 -0.007963
# 5 -0.002128 0.002192 -0.003152 -0.001979 0.022932 0.002854
# 6 -0.000579 0.010183 -0.001294 -0.007963 0.002854 0.034311
#
#
# Mechanical properties :
#
#
# Convention : Reuss Voigt Hill
#
# Bulk Modulus (GPa) = 47.41402 67.24961 57.33181
# Shear Modulus (GPa) = 33.62890 40.79914 37.21402
#
# Velocity S-wave (km/s) = 3.89647 4.29181 4.09891
# Velocity P-wave (km/s) = 6.45363 7.41085 6.94874
#
# Compressibility (1/GPa) = 0.02109081
#
# Stress axis : x y z
#
# Youngs Moduli (GPa) = 121.98158 48.79946 98.42253
#
# Poissons Ratio (x) = 0.07633 0.28748
# Poissons Ratio (y) = 0.19081 0.43254
# Poissons Ratio (z) = 0.35629 0.21446
#
# Static dielectric constant tensor:
#      x y z
#    x 4.260700 0.436340 -0.140000 
#    y 0.436340 4.164400 -0.852270 
#    z -0.140000 -0.852270 4.765860 
# 
# 
# High freq. dielectric constant tensor:
#      x y z
#    x 1.891840 -0.006840 0.010340 
#    y -0.006840 1.858730 -0.002240 
#    z 0.010340 -0.002240 1.894110 
# 
# From -- ./inp_files/299007.got.cif
#   From: 2010.06.25/outbox.cif.g09.slc.cpg/sg2_150_cif.got.tgz:299007.got - 2010.06.27 13:26:56.
