data_PCOD8027571
_publ_section_title
;
Structure prediction by ZEFSAII (Michael W. Deem and Ramdas Pophale) SiO2 
 PCOD8027571
Probable space group: P -1
;
_chemical_formula_sum "Si O2"
_cell_formula_units_Z 16
_cell_length_a 8.540174
_cell_length_b 19.529220
_cell_length_c 14.408568
_cell_angle_alpha 21.079959
_cell_angle_beta 126.528031
_cell_angle_gamma 125.860443
_cell_volume 690.682017
_symmetry_space_group_name_H-M "P -1"
_symmetry_group_IT_number 2
_symmetry_cell_setting 'triclinic'
loop_
_space_group_symop_operation_xyz
x,y,z
-x,-y,-z
loop_
_atom_site_type_symbol
_atom_site_label
_atom_site_fract_x
_atom_site_fract_y
_atom_site_fract_z
Si Si1 0.151104 0.898019 0.620091
Si Si2 0.778702 0.392320 0.284453
Si Si3 0.276805 0.910727 0.022312
Si Si4 0.588585 0.403025 0.895756
Si Si5 0.573969 0.745252 0.776890
Si Si6 0.906000 0.741725 0.564949
Si Si7 0.057694 0.660183 0.398717
Si Si8 0.664278 0.504933 0.477057
O O1 0.041451 0.761970 0.676883
O O2 0.303276 0.050166 0.428505
O O3 0.278532 0.753767 0.904295
O O4 0.000000 0.000000 0.500000
O O5 0.602463 0.238828 0.379363
O O6 0.794648 0.393188 0.400985
O O7 0.982639 0.350509 0.363352
O O8 0.721468 0.600570 0.970870
O O9 0.157389 0.862041 0.138254
O O10 0.269163 0.707598 0.225486
O O11 0.500000 0.000000 0.000000
O O12 0.155237 0.050498 0.744719
O O13 0.713169 0.606729 0.694523
O O14 0.408514 0.440773 0.718889
O O15 0.510271 0.325412 0.064768
O O16 0.000000 0.500000 0.500000
O O17 0.843030 0.667196 0.361367
O O18 0.500000 0.500000 0.500000
#
# Coordination Sequence:
#
# PCOD8027571 Si02
#       8
#     2   2   2   2   2   2   2   2
#     4  12  29  45  72 108 143 191 249 299 363 429
#     4  11  25  46  74 103 149 186 242 293 375 425
#     4  11  25  46  67 104 140 188 238 295 359 432
#     4  12  25  49  73 103 151 188 242 302 367 427
#     4  11  26  46  74 107 141 193 244 302 363 430
#     4  12  27  46  73 105 150 187 240 299 365 439
#     4  10  24  45  73 102 139 191 239 294 363 430
#     4  11  25  46  73 105 142 191 242 299 360 427
#
# _framework density 23.165507000000002
#
# number of rings (size 3 to 8) (size 9 to 14) (size 15 to 20)
#    0.000    0.750    2.500    3.750   10.500    0.500 
#    0.000    0.000    0.000    0.000    0.000    0.000 
#    0.000    0.000    0.000    0.000    0.000    0.000 
#
# Total GULP energy -198338.962330 kJ/mol
# GULP energy per Si atom -12396.185146 kJ/mol
# Density = 2.311278 g / cm^3
# Si number density = 23.165507 Si / 1000 Ang^3
#
#
#
# Elastic Constant Matrix: (Units=GPa)
#
#
# Indices 1 2 3 4 5 6 
#
# 1 123.7003 33.2102 48.2127 -3.1840 -13.9240 13.1504
# 2 33.2102 110.2189 29.2096 12.5635 -21.0005 13.6169
# 3 48.2127 29.2096 124.3979 -2.4001 -3.0626 11.3115
# 4 -3.1840 12.5635 -2.4001 34.3041 3.8743 -7.7114
# 5 -13.9240 -21.0005 -3.0626 3.8743 46.8003 -9.7799
# 6 13.1504 13.6169 11.3115 -7.7114 -9.7799 46.0005
#
#
#
# Elastic Compliance Matrix: (Units=1/GPa)
#
#
# Indices 1 2 3 4 5 6 
#
# 1 0.010219 -0.001845 -0.003374 0.000967 0.001698 -0.001022
# 2 -0.001845 0.011984 -0.001865 -0.005788 0.004654 -0.002542
# 3 -0.003374 -0.001865 0.009863 0.000990 -0.001499 -0.001061
# 4 0.000967 -0.005788 0.000990 0.033193 -0.003747 0.005961
# 5 0.001698 0.004654 -0.001499 -0.003747 0.024833 0.003157
# 6 -0.001022 -0.002542 -0.001061 0.005961 0.003157 0.024715
#
#
# Mechanical properties :
#
#
# Convention : Reuss Voigt Hill
#
# Bulk Modulus (GPa) = 55.87237 64.39802 60.13520
# Shear Modulus (GPa) = 37.05345 41.93328 39.49337
#
# Velocity S-wave (km/s) = 4.00373 4.25921 4.13344
# Velocity P-wave (km/s) = 6.74865 7.21438 6.98540
#
# Compressibility (1/GPa) = 0.01789793
#
# Stress axis : x y z
#
# Youngs Moduli (GPa) = 97.85524 83.44755 101.39032
#
# Poissons Ratio (x) = 0.15399 0.34208
# Poissons Ratio (y) = 0.18058 0.18905
# Poissons Ratio (z) = 0.33015 0.15559
#
# Static dielectric constant tensor:
#      x y z
#    x 4.642150 0.101770 -0.071100 
#    y 0.101770 3.956400 -0.007030 
#    z -0.071100 -0.007030 4.341660 
# 
# 
# High freq. dielectric constant tensor:
#      x y z
#    x 1.935110 0.018400 0.001430 
#    y 0.018400 1.914390 0.003390 
#    z 0.001430 0.003390 1.915720 
# 
# From -- ./inp_files/508094.got.cif
#   From: 2010.06.25/outbox.cif.g09.slc.cpg/sg2_255_cif.got.tgz:508094.got - 2010.06.27 13:26:56.
