data_PCOD8027686
_publ_section_title
;
Structure prediction by ZEFSAII (Michael W. Deem and Ramdas Pophale) SiO2 
 PCOD8027686
Probable space group: P -1
;
_chemical_formula_sum "Si O2"
_cell_formula_units_Z 14
_cell_length_a 12.945344
_cell_length_b 9.380171
_cell_length_c 9.303343
_cell_angle_alpha 136.448909
_cell_angle_beta 72.533833
_cell_angle_gamma 124.870092
_cell_volume 625.439046
_symmetry_space_group_name_H-M "P -1"
_symmetry_group_IT_number 2
_symmetry_cell_setting 'triclinic'
loop_
_space_group_symop_operation_xyz
x,y,z
-x,-y,-z
loop_
_atom_site_type_symbol
_atom_site_label
_atom_site_fract_x
_atom_site_fract_y
_atom_site_fract_z
Si Si1 0.672705 0.460912 0.534489
Si Si2 0.279279 0.167443 0.436166
Si Si3 0.939547 0.271353 0.959814
Si Si4 0.450071 0.986184 0.351156
Si Si5 0.632835 0.527319 0.931378
Si Si6 0.054272 0.441807 0.569301
Si Si7 0.135662 0.115271 0.724964
O O1 0.636545 0.594735 0.526432
O O2 0.578426 0.164920 0.332702
O O3 0.649705 0.522924 0.750174
O O4 0.821067 0.559515 0.526636
O O5 0.362892 0.100977 0.453201
O O6 0.193294 0.220098 0.618553
O O7 0.194893 0.944219 0.201614
O O8 0.040074 0.190292 0.876822
O O9 0.909435 0.344445 0.177140
O O10 0.000000 0.500000 0.000000
O O11 0.500000 0.000000 0.500000
O O12 0.370521 0.694666 0.138531
O O13 0.500000 0.500000 0.000000
O O14 0.750209 0.783719 0.131762
O O15 0.000000 0.500000 0.500000
O O16 0.940767 0.176852 0.478275
#
# Coordination Sequence:
#
# PCOD8027686 Si02
#       7
#     2   2   2   2   2   2   2
#     4  11  25  46  71 107 145 181 247 302 355 423
#     4  12  24  45  74 107 144 187 240 305 357 428
#     4  12  24  44  68 104 146 190 236 287 369 423
#     4  10  24  46  71 100 139 188 238 291 361 431
#     4  11  26  46  74 102 142 194 240 299 361 430
#     4  12  28  43  73 108 148 193 237 299 355 434
#     4  12  25  46  71 105 149 190 242 291 364 429
#
# _framework density 22.384276
#
# number of rings (size 3 to 8) (size 9 to 14) (size 15 to 20)
#    0.000    0.571    2.857    5.143    8.000    1.143 
#    0.000    2.143    0.000    0.000    0.000    0.000 
#    0.000    0.000    0.000    0.000    0.000    0.000 
#
# Total GULP energy -173567.182836 kJ/mol
# GULP energy per Si atom -12397.655917 kJ/mol
# Density = 2.233333 g / cm^3
# Si number density = 22.384276 Si / 1000 Ang^3
#
#
#
# Elastic Constant Matrix: (Units=GPa)
#
#
# Indices 1 2 3 4 5 6 
#
# 1 131.5329 43.8723 40.7538 -3.4990 4.1984 -5.4991
# 2 43.8723 145.3262 38.0680 -5.7372 -6.0312 -3.7757
# 3 40.7538 38.0680 117.1835 -17.9534 -2.6810 8.7801
# 4 -3.4990 -5.7372 -17.9534 38.8034 2.2326 3.3274
# 5 4.1984 -6.0312 -2.6810 2.2326 29.8907 7.9201
# 6 -5.4991 -3.7757 8.7801 3.3274 7.9201 37.6583
#
#
#
# Elastic Compliance Matrix: (Units=1/GPa)
#
#
# Indices 1 2 3 4 5 6 
#
# 1 0.009395 -0.002142 -0.002954 -0.000899 -0.002605 0.002473
# 2 -0.002142 0.008107 -0.001900 -0.000018 0.001607 0.000607
# 3 -0.002954 -0.001900 0.011275 0.004916 0.001750 -0.004053
# 4 -0.000899 -0.000018 0.004916 0.028309 -0.000582 -0.003658
# 5 -0.002605 0.001607 0.001750 -0.000582 0.036534 -0.008260
# 6 0.002473 0.000607 -0.004053 -0.003658 -0.008260 0.029982
#
#
# Mechanical properties :
#
#
# Convention : Reuss Voigt Hill
#
# Bulk Modulus (GPa) = 67.63613 71.04786 69.34199
# Shear Modulus (GPa) = 35.08197 39.36039 37.22118
#
# Velocity S-wave (km/s) = 3.96316 4.19787 4.08220
# Velocity P-wave (km/s) = 7.15707 7.43674 7.29825
#
# Compressibility (1/GPa) = 0.01478500
#
# Stress axis : x y z
#
# Youngs Moduli (GPa) = 106.43982 123.34794 88.68948
#
# Poissons Ratio (x) = 0.26418 0.26200
# Poissons Ratio (y) = 0.22796 0.16854
# Poissons Ratio (z) = 0.31444 0.23440
#
# Static dielectric constant tensor:
#      x y z
#    x 4.086780 -0.004940 0.091340 
#    y -0.004940 4.502230 0.249370 
#    z 0.091340 0.249370 3.998440 
# 
# 
# High freq. dielectric constant tensor:
#      x y z
#    x 1.890360 0.002800 0.007790 
#    y 0.002800 1.897360 0.008200 
#    z 0.007790 0.008200 1.879780 
# 
# From -- ./inp_files/185515.got.cif
#   From: 2010.06.25/outbox.cif.g09.slc.cpg/sg2_93_cif.got.tgz:185515.got - 2010.06.27 13:26:56.
