data_PCOD8027985
_publ_section_title
;
Structure prediction by ZEFSAII (Michael W. Deem and Ramdas Pophale) SiO2 
 PCOD8027985
Probable space group: P -1
;
_chemical_formula_sum "Si O2"
_cell_formula_units_Z 14
_cell_length_a 12.615992
_cell_length_b 15.445235
_cell_length_c 9.115638
_cell_angle_alpha 150.065202
_cell_angle_beta 55.903688
_cell_angle_gamma 134.808596
_cell_volume 622.511542
_symmetry_space_group_name_H-M "P -1"
_symmetry_group_IT_number 2
_symmetry_cell_setting 'triclinic'
loop_
_space_group_symop_operation_xyz
x,y,z
-x,-y,-z
loop_
_atom_site_type_symbol
_atom_site_label
_atom_site_fract_x
_atom_site_fract_y
_atom_site_fract_z
Si Si1 0.467741 0.236272 0.260748
Si Si2 0.594940 0.696970 0.905612
Si Si3 0.074698 0.049548 0.858296
Si Si4 0.071068 0.390719 0.193283
Si Si5 0.421019 0.624564 0.199319
Si Si6 0.365678 0.982474 0.226392
Si Si7 0.049068 0.709394 0.188988
O O1 0.565878 0.474772 0.571362
O O2 0.390983 0.190421 0.093232
O O3 0.337550 0.094271 0.273283
O O4 0.593646 0.179170 0.097368
O O5 0.744179 0.832081 0.086764
O O6 0.448485 0.662305 0.057899
O O7 0.998726 0.836712 0.513723
O O8 0.024031 0.184879 0.012259
O O9 0.000000 0.000000 0.000000
O O10 0.250349 0.520121 0.228401
O O11 0.000000 0.500000 0.500000
O O12 0.010793 0.337933 0.998298
O O13 0.495510 0.843429 0.535797
O O14 0.500000 0.500000 0.000000
O O15 0.227205 0.863899 0.268674
O O16 0.000000 0.500000 0.000000
#
# Coordination Sequence:
#
# PCOD8027985 Si02
#       7
#     2   2   2   2   2   2   2
#     4  10  25  40  74 107 142 183 242 318 363 438
#     4  11  24  46  73 108 141 188 253 305 373 438
#     4  12  27  48  74 104 153 200 250 309 383 453
#     4  12  29  49  78 112 154 197 248 314 390 449
#     4  12  23  48  78 104 144 190 247 305 365 450
#     4  11  24  45  73 106 147 189 251 302 373 441
#     4  12  29  48  71 110 154 200 251 312 380 449
#
# _framework density 22.489543000000001
#
# number of rings (size 3 to 8) (size 9 to 14) (size 15 to 20)
#    0.000    0.571    4.286    1.286   12.000    2.857 
#    0.000    0.000    0.000    0.000    0.000    0.000 
#    0.000    0.000    0.000    0.000    0.000    0.000 
#
# Total GULP energy -173537.117601 kJ/mol
# GULP energy per Si atom -12395.508400 kJ/mol
# Density = 2.243836 g / cm^3
# Si number density = 22.489543 Si / 1000 Ang^3
#
#
#
# Elastic Constant Matrix: (Units=GPa)
#
#
# Indices 1 2 3 4 5 6 
#
# 1 98.5557 48.7849 67.7309 1.8744 1.5356 -18.5039
# 2 48.7849 155.2995 80.5628 -2.4895 -10.8213 -21.9658
# 3 67.7309 80.5628 168.4709 -9.4726 3.6312 -17.4670
# 4 1.8744 -2.4895 -9.4726 41.1505 -7.4664 -3.2206
# 5 1.5356 -10.8213 3.6312 -7.4664 33.6839 -3.1356
# 6 -18.5039 -21.9658 -17.4670 -3.2206 -3.1356 54.5731
#
#
#
# Elastic Compliance Matrix: (Units=1/GPa)
#
#
# Indices 1 2 3 4 5 6 
#
# 1 0.015020 -0.001875 -0.004961 -0.001907 -0.000934 0.002584
# 2 -0.001875 0.009502 -0.003595 0.000721 0.003900 0.002305
# 3 -0.004961 -0.003595 0.009798 0.001987 -0.001541 0.000036
# 4 -0.001907 0.000721 0.001987 0.026167 0.006107 0.002175
# 5 -0.000934 0.003900 -0.001541 0.006107 0.032783 0.003004
# 6 0.002584 0.002305 0.000036 0.002175 0.003004 0.020440
#
#
# Mechanical properties :
#
#
# Convention : Reuss Voigt Hill
#
# Bulk Modulus (GPa) = 74.30145 90.72037 82.51091
# Shear Modulus (GPa) = 35.95609 40.89798 38.42704
#
# Velocity S-wave (km/s) = 4.00283 4.26905 4.13808
# Velocity P-wave (km/s) = 7.38061 8.04526 7.72009
#
# Compressibility (1/GPa) = 0.01345869
#
# Stress axis : x y z
#
# Youngs Moduli (GPa) = 66.57752 105.23778 102.06183
#
# Poissons Ratio (x) = 0.19731 0.50635
# Poissons Ratio (y) = 0.12482 0.36689
# Poissons Ratio (z) = 0.33030 0.37831
#
# Static dielectric constant tensor:
#      x y z
#    x -7.445670 -8.605800 2.840950 
#    y -8.605800 -1.865120 1.897400 
#    z 2.840950 1.897400 3.590620 
# 
# 
# High freq. dielectric constant tensor:
#      x y z
#    x 1.868600 -0.015220 0.005060 
#    y -0.015220 1.911670 -0.005070 
#    z 0.005060 -0.005070 1.907060 
# 
# From -- ./inp_files/157253.got.cif
#   From: 2010.06.25/outbox.cif.g09.slc.cpg/sg2_79_cif.got.tgz:157253.got - 2010.06.27 13:26:56.
