data_PCOD8027647
_publ_section_title
;
Structure prediction by ZEFSAII (Michael W. Deem and Ramdas Pophale) SiO2 
 PCOD8027647
Probable space group: P -1
;
_chemical_formula_sum "Si O2"
_cell_formula_units_Z 14
_cell_length_a 12.427654
_cell_length_b 7.023349
_cell_length_c 20.259040
_cell_angle_alpha 104.232578
_cell_angle_beta 154.451766
_cell_angle_gamma 92.303073
_cell_volume 575.998072
_symmetry_space_group_name_H-M "P -1"
_symmetry_group_IT_number 2
_symmetry_cell_setting 'triclinic'
loop_
_space_group_symop_operation_xyz
x,y,z
-x,-y,-z
loop_
_atom_site_type_symbol
_atom_site_label
_atom_site_fract_x
_atom_site_fract_y
_atom_site_fract_z
Si Si1 0.846748 0.613546 0.959308
Si Si2 0.590261 0.891306 0.983596
Si Si3 0.501580 0.070550 0.407006
Si Si4 0.680739 0.806610 0.561245
Si Si5 0.595548 0.432850 0.393157
Si Si6 0.291547 0.357048 0.731106
Si Si7 0.147847 0.863850 0.647421
O O1 0.697508 0.691686 0.830297
O O2 0.569560 0.416831 0.840590
O O3 0.000000 0.500000 0.000000
O O4 0.120188 0.860200 0.171077
O O5 0.407066 0.589592 0.862809
O O6 0.488439 0.929987 0.858541
O O7 0.500000 0.000000 0.000000
O O8 0.964064 0.042489 0.202079
O O9 0.553743 0.230252 0.514423
O O10 0.638877 0.232837 0.428798
O O11 0.678721 0.952335 0.508697
O O12 0.521929 0.526044 0.425565
O O13 0.924332 0.678663 0.567318
O O14 0.988982 0.276871 0.510957
O O15 0.181338 0.116088 0.692402
#
# Coordination Sequence:
#
# PCOD8027647 Si02
#       7
#     2   2   2   2   2   2   2
#     4  11  22  44  71 101 133 174 229 283 340 400
#     4  12  24  44  69 101 136 180 229 276 343 411
#     4  11  24  44  69  95 136 181 218 286 332 396
#     4  11  24  44  65  99 136 176 225 273 343 398
#     4  11  23  43  68 100 131 175 231 272 339 404
#     4  10  24  47  70  95 141 177 227 285 337 406
#     4  10  24  46  68  99 133 183 225 283 338 404
#
# _framework density 24.305634999999999
#
# number of rings (size 3 to 8) (size 9 to 14) (size 15 to 20)
#    0.000    1.143    4.286    1.286    0.000    4.000 
#    7.714    0.000    0.000    0.000    0.000    0.000 
#    0.000    0.000    0.000    0.000    0.000    0.000 
#
# Total GULP energy -173577.711643 kJ/mol
# GULP energy per Si atom -12398.407974 kJ/mol
# Density = 2.425031 g / cm^3
# Si number density = 24.305635 Si / 1000 Ang^3
#
#
#
# Elastic Constant Matrix: (Units=GPa)
#
#
# Indices 1 2 3 4 5 6 
#
# 1 67.7598 29.5415 15.8315 6.1746 -5.3906 0.0723
# 2 29.5415 112.2999 32.0466 -14.4398 2.1842 24.1887
# 3 15.8315 32.0466 130.4768 -23.5032 -13.4589 11.6170
# 4 6.1746 -14.4398 -23.5032 44.0274 -1.5396 -13.2487
# 5 -5.3906 2.1842 -13.4589 -1.5396 23.1522 8.4377
# 6 0.0723 24.1887 11.6170 -13.2487 8.4377 46.3465
#
#
#
# Elastic Compliance Matrix: (Units=1/GPa)
#
#
# Indices 1 2 3 4 5 6 
#
# 1 0.018052 -0.005224 -0.001526 -0.004588 0.003062 0.001212
# 2 -0.005224 0.012146 -0.001626 0.002289 -0.001322 -0.005028
# 3 -0.001526 -0.001626 0.009891 0.004753 0.006386 -0.001432
# 4 -0.004588 0.002289 0.004753 0.028340 0.001369 0.005473
# 5 0.003062 -0.001322 0.006386 0.001369 0.051437 -0.009889
# 6 0.001212 -0.005028 -0.001432 0.005473 -0.009889 0.027923
#
#
# Mechanical properties :
#
#
# Convention : Reuss Voigt Hill
#
# Bulk Modulus (GPa) = 42.84740 51.70841 47.27791
# Shear Modulus (GPa) = 29.01583 38.24634 33.63108
#
# Velocity S-wave (km/s) = 3.45888 3.97111 3.72381
# Velocity P-wave (km/s) = 5.79816 6.50744 6.16301
#
# Compressibility (1/GPa) = 0.02333864
#
# Stress axis : x y z
#
# Youngs Moduli (GPa) = 55.39428 82.33177 101.10094
#
# Poissons Ratio (x) = 0.43009 0.15426
# Poissons Ratio (y) = 0.28938 0.16436
# Poissons Ratio (z) = 0.08452 0.13385
#
# Static dielectric constant tensor:
#      x y z
#    x 4.157430 -0.059440 -0.289030 
#    y -0.059440 4.438840 -0.165150 
#    z -0.289030 -0.165150 4.610360 
# 
# 
# High freq. dielectric constant tensor:
#      x y z
#    x 1.954810 -0.009480 -0.017660 
#    y -0.009480 1.969310 -0.010370 
#    z -0.017660 -0.010370 1.972210 
# 
# From -- ./inp_files/611317.got.cif
#   From: 2010.06.25/outbox.cif.g09.slc.cpg/sg2_306_cif.got.tgz:611317.got - 2010.06.27 13:26:56.
