data_PCOD8027535
_publ_section_title
;
Structure prediction by ZEFSAII (Michael W. Deem and Ramdas Pophale) SiO2 
 PCOD8027535
Probable space group: P -1
;
_chemical_formula_sum "Si O2"
_cell_formula_units_Z 16
_cell_length_a 20.914596
_cell_length_b 6.393111
_cell_length_c 12.669507
_cell_angle_alpha 135.663945
_cell_angle_beta 34.805555
_cell_angle_gamma 123.106636
_cell_volume 672.167349
_symmetry_space_group_name_H-M "P -1"
_symmetry_group_IT_number 2
_symmetry_cell_setting 'triclinic'
loop_
_space_group_symop_operation_xyz
x,y,z
-x,-y,-z
loop_
_atom_site_type_symbol
_atom_site_label
_atom_site_fract_x
_atom_site_fract_y
_atom_site_fract_z
Si Si1 0.117709 0.298432 0.275837
Si Si2 0.897317 0.543623 0.420036
Si Si3 0.295713 0.145201 0.335320
Si Si4 0.380497 0.748767 0.462419
Si Si5 0.208805 0.038881 0.638173
Si Si6 0.298428 0.580015 0.990912
Si Si7 0.509637 0.255648 0.486974
Si Si8 0.867511 0.354366 0.945645
O O1 0.153997 0.286719 0.345179
O O2 0.211222 0.430242 0.127769
O O3 0.000000 0.500000 0.500000
O O4 0.106248 0.952983 0.133964
O O5 0.827933 0.694945 0.469978
O O6 0.027943 0.587934 0.249707
O O7 0.886433 0.189222 0.322742
O O8 0.384132 0.399709 0.295700
O O9 0.288192 0.020465 0.419985
O O10 0.336596 0.875746 0.103898
O O11 0.376024 0.750532 0.599451
O O12 0.277201 0.950005 0.620935
O O13 0.490372 0.924574 0.347218
O O14 0.150688 0.376770 0.848449
O O15 0.242495 0.666548 0.984873
O O16 0.408441 0.349594 0.741176
O O17 0.500000 0.500000 0.500000
#
# Coordination Sequence:
#
# PCOD8027535 Si02
#       8
#     2   2   2   2   2   2   2   2
#     4  12  24  42  69 100 143 185 231 284 332 408
#     4  11  23  42  63 100 144 183 230 281 338 401
#     4  11  24  44  68  99 142 180 223 289 344 406
#     4  10  24  45  71 101 136 174 223 288 351 405
#     4  11  24  43  67  99 143 180 231 286 340 404
#     4  12  25  44  72 102 134 186 234 274 348 414
#     4  11  25  48  74 103 136 174 228 296 346 409
#     4  12  25  40  69 102 135 188 240 274 337 407
#
# _framework density 23.803597
#
# number of rings (size 3 to 8) (size 9 to 14) (size 15 to 20)
#    0.000    0.750    5.000    2.250    1.750    2.000 
#    0.000    1.250    0.000    0.000    0.000    0.000 
#    0.000    0.000    0.000    0.000    0.000    0.000 
#
# Total GULP energy -198308.836386 kJ/mol
# GULP energy per Si atom -12394.302274 kJ/mol
# Density = 2.374942 g / cm^3
# Si number density = 23.803597 Si / 1000 Ang^3
#
#
#
# Elastic Constant Matrix: (Units=GPa)
#
#
# Indices 1 2 3 4 5 6 
#
# 1 88.6456 25.8468 -0.4409 2.8399 2.2132 -7.1176
# 2 25.8468 149.0477 11.0214 23.2708 6.0274 9.5041
# 3 -0.4409 11.0214 57.4305 4.3345 4.2991 5.9874
# 4 2.8399 23.2708 4.3345 34.0564 -0.2301 9.7028
# 5 2.2132 6.0274 4.2991 -0.2301 25.9679 2.3831
# 6 -7.1176 9.5041 5.9874 9.7028 2.3831 46.9596
#
#
#
# Elastic Compliance Matrix: (Units=1/GPa)
#
#
# Indices 1 2 3 4 5 6 
#
# 1 0.012142 -0.002215 0.000351 -0.000213 -0.000794 0.002328
# 2 -0.002215 0.008054 -0.000998 -0.004993 -0.001493 -0.000731
# 3 0.000351 -0.000998 0.018068 -0.001190 -0.002647 -0.001668
# 4 -0.000213 -0.004993 -0.001190 0.034713 0.002247 -0.006156
# 5 -0.000794 -0.001493 -0.002647 0.002247 0.039561 -0.001953
# 6 0.002328 -0.000731 -0.001668 -0.006156 -0.001953 0.023380
#
#
# Mechanical properties :
#
#
# Convention : Reuss Voigt Hill
#
# Bulk Modulus (GPa) = 30.73027 40.88646 35.80837
# Shear Modulus (GPa) = 32.78963 38.64322 35.71642
#
# Velocity S-wave (km/s) = 3.71550 4.03354 3.87778
# Velocity P-wave (km/s) = 5.59862 6.23750 5.92668
#
# Compressibility (1/GPa) = 0.03254121
#
# Stress axis : x y z
#
# Youngs Moduli (GPa) = 82.35919 124.16724 55.34516
#
# Poissons Ratio (x) = 0.27499 -0.01943
# Poissons Ratio (y) = 0.18240 0.05522
# Poissons Ratio (z) = -0.02891 0.12389
#
# Static dielectric constant tensor:
#      x y z
#    x 4.612850 0.099960 0.034450 
#    y 0.099960 4.568150 0.218820 
#    z 0.034450 0.218820 4.195420 
# 
# 
# High freq. dielectric constant tensor:
#      x y z
#    x 1.955090 -0.002200 0.005670 
#    y -0.002200 1.970130 0.019810 
#    z 0.005670 0.019810 1.905630 
# 
# From -- ./inp_files/135102.got.cif
#   From: 2010.06.25/outbox.cif.g09.slc.cpg/sg2_68_cif.got.tgz:135102.got - 2010.06.27 13:26:56.
