data_PCOD8027820
_publ_section_title
;
Structure prediction by ZEFSAII (Michael W. Deem and Ramdas Pophale) SiO2 
 PCOD8027820
Probable space group: P -1
;
_chemical_formula_sum "Si O2"
_cell_formula_units_Z 14
_cell_length_a 9.671522
_cell_length_b 21.744660
_cell_length_c 17.162890
_cell_angle_alpha 18.556970
_cell_angle_beta 44.008554
_cell_angle_gamma 35.259707
_cell_volume 632.872541
_symmetry_space_group_name_H-M "P -1"
_symmetry_group_IT_number 2
_symmetry_cell_setting 'triclinic'
loop_
_space_group_symop_operation_xyz
x,y,z
-x,-y,-z
loop_
_atom_site_type_symbol
_atom_site_label
_atom_site_fract_x
_atom_site_fract_y
_atom_site_fract_z
Si Si1 0.994755 0.119620 0.639721
Si Si2 0.744439 0.674023 0.077870
Si Si3 0.319087 0.657566 0.992982
Si Si4 0.210348 0.886153 0.988184
Si Si5 0.352519 0.017330 0.113840
Si Si6 0.128904 0.736804 0.799533
Si Si7 0.766378 0.526593 0.601689
O O1 0.843261 0.401346 0.346381
O O2 0.846733 0.014709 0.800120
O O3 0.256735 0.918065 0.730307
O O4 0.064874 0.090076 0.736506
O O5 0.453431 0.860141 0.948664
O O6 0.916510 0.700045 0.919991
O O7 0.766765 0.732517 0.089040
O O8 0.201563 0.700458 0.904318
O O9 0.619483 0.460425 0.112933
O O10 0.198570 0.567821 0.209733
O O11 0.296193 0.622350 0.246147
O O12 0.000000 0.000000 0.000000
O O13 0.529360 0.807700 0.356787
O O14 0.500000 0.000000 0.000000
O O15 0.000000 0.000000 0.500000
O O16 0.000000 0.500000 0.500000
#
# Coordination Sequence:
#
# PCOD8027820 Si02
#       7
#     2   2   2   2   2   2   2
#     4  11  25  46  68 102 151 183 248 297 362 447
#     4  12  26  45  72 104 142 193 242 308 368 424
#     4  10  24  47  71 109 144 192 247 300 367 435
#     4  11  25  43  66 107 147 191 243 300 358 440
#     4  12  24  42  71 104 146 198 240 298 366 437
#     4  11  25  46  79 106 144 191 252 306 363 446
#     4  11  23  43  71 103 151 192 237 303 368 440
#
# _framework density 22.121359000000002
#
# number of rings (size 3 to 8) (size 9 to 14) (size 15 to 20)
#    0.000    0.857    2.857    4.286    2.000    5.143 
#    0.000    5.000    0.000    0.000    0.000    0.000 
#    0.000    0.000    0.000    0.000    0.000    0.000 
#
# Total GULP energy -173446.099941 kJ/mol
# GULP energy per Si atom -12389.007139 kJ/mol
# Density = 2.207101 g / cm^3
# Si number density = 22.121359 Si / 1000 Ang^3
#
#
#
# Elastic Constant Matrix: (Units=GPa)
#
#
# Indices 1 2 3 4 5 6 
#
# 1 122.0068 56.4125 52.8698 4.1104 2.6183 -18.2702
# 2 56.4125 144.7581 48.4041 1.1245 2.6308 -12.6078
# 3 52.8698 48.4041 118.0906 -8.5535 6.9224 -2.7150
# 4 4.1104 1.1245 -8.5535 38.3425 -2.0693 -1.2310
# 5 2.6183 2.6308 6.9224 -2.0693 40.0812 -3.8116
# 6 -18.2702 -12.6078 -2.7150 -1.2310 -3.8116 41.3247
#
#
#
# Elastic Compliance Matrix: (Units=1/GPa)
#
#
# Indices 1 2 3 4 5 6 
#
# 1 0.012079 -0.002902 -0.004294 -0.002011 0.000434 0.004153
# 2 -0.002902 0.008947 -0.002377 -0.000434 0.000113 0.001288
# 3 -0.004294 -0.002377 0.011630 0.002976 -0.001601 -0.001918
# 4 -0.002011 -0.000434 0.002976 0.027032 0.001049 0.000076
# 5 0.000434 0.000113 -0.001601 0.001049 0.025482 0.002503
# 6 0.004153 0.001288 -0.001918 0.000076 0.002503 0.026535
#
#
# Mechanical properties :
#
#
# Convention : Reuss Voigt Hill
#
# Bulk Modulus (GPa) = 74.01293 77.80314 75.90803
# Shear Modulus (GPa) = 36.94014 39.09429 38.01721
#
# Velocity S-wave (km/s) = 4.09086 4.20845 4.15007
# Velocity P-wave (km/s) = 7.47287 7.67216 7.57317
#
# Compressibility (1/GPa) = 0.01351115
#
# Stress axis : x y z
#
# Youngs Moduli (GPa) = 82.78731 111.76727 85.98463
#
# Poissons Ratio (x) = 0.32435 0.36922
# Poissons Ratio (y) = 0.24025 0.20435
# Poissons Ratio (z) = 0.35549 0.26562
#
# Static dielectric constant tensor:
#      x y z
#    x 3.942800 -0.235770 0.154940 
#    y -0.235770 3.734220 -0.057480 
#    z 0.154940 -0.057480 4.048630 
# 
# 
# High freq. dielectric constant tensor:
#      x y z
#    x 1.874300 -0.003600 0.009590 
#    y -0.003600 1.882890 -0.019660 
#    z 0.009590 -0.019660 1.875910 
# 
# From -- ./inp_files/562490.got.cif
#   From: 2010.06.25/outbox.cif.g09.slc.cpg/sg2_282_cif.got.tgz:562490.got - 2010.06.27 13:26:56.
