data_PCOD8027909
_publ_section_title
;
Structure prediction by ZEFSAII (Michael W. Deem and Ramdas Pophale) SiO2 
 PCOD8027909
Probable space group: P -1
;
_chemical_formula_sum "Si O2"
_cell_formula_units_Z 12
_cell_length_a 16.605935
_cell_length_b 4.986252
_cell_length_c 6.075043
_cell_angle_alpha 91.010643
_cell_angle_beta 89.419690
_cell_angle_gamma 69.027193
_cell_volume 469.551029
_symmetry_space_group_name_H-M "P -1"
_symmetry_group_IT_number 2
_symmetry_cell_setting 'triclinic'
loop_
_space_group_symop_operation_xyz
x,y,z
-x,-y,-z
loop_
_atom_site_type_symbol
_atom_site_label
_atom_site_fract_x
_atom_site_fract_y
_atom_site_fract_z
Si Si1 0.497070 0.257898 0.157908
Si Si2 0.100517 0.101707 0.374790
Si Si3 0.793229 0.698474 0.969078
Si Si4 0.312679 0.494185 0.372888
Si Si5 0.321296 0.990568 0.652717
Si Si6 0.906543 0.372056 0.337048
O O1 0.413305 0.363732 0.311664
O O2 0.577350 0.172505 0.320768
O O3 0.500000 0.500000 0.000000
O O4 0.500000 0.000000 0.000000
O O5 0.097875 0.320473 0.572250
O O6 0.004369 0.161698 0.286215
O O7 0.135776 0.781013 0.481043
O O8 0.158249 0.139023 0.175734
O O9 0.728430 0.966089 0.113772
O O10 0.857830 0.437364 0.106865
O O11 0.741584 0.532906 0.835723
O O12 0.296452 0.313905 0.572866
O O13 0.287197 0.821388 0.466482
#
# Coordination Sequence:
#
# PCOD8027909 Si02
#       6
#     2   2   2   2   2   2
#     4  12  24  50  78 103 143 204 249 296 371 443
#     4  10  24  48  76 108 148 198 250 304 374 451
#     4  12  27  47  76 114 156 192 256 309 385 434
#     4  12  28  48  74 108 151 198 247 310 371 439
#     4  12  28  48  74 108 151 198 247 310 371 439
#     4  10  24  48  76 108 148 198 250 304 374 451
#
# _framework density 25.556327
#
# number of rings (size 3 to 8) (size 9 to 14) (size 15 to 20)
#    0.000    0.667    1.667    4.500    0.000    9.333 
#    0.000    5.000    0.000    3.000    0.000    0.000 
#    0.000    0.000    0.000    0.000    0.000    0.000 
#
# Total GULP energy -148891.463439 kJ/mol
# GULP energy per Si atom -12407.621953 kJ/mol
# Density = 2.549816 g / cm^3
# Si number density = 25.556327 Si / 1000 Ang^3
#
#
#
# Elastic Constant Matrix: (Units=GPa)
#
#
# Indices 1 2 3 4 5 6 
#
# 1 141.5631 35.3502 79.7224 -8.9415 4.3751 7.5985
# 2 35.3502 141.0784 48.8722 -10.2294 8.4433 18.9512
# 3 79.7224 48.8722 147.2384 -5.1315 12.4573 0.1236
# 4 -8.9415 -10.2294 -5.1315 60.7033 -6.4716 3.2632
# 5 4.3751 8.4433 12.4573 -6.4716 53.2206 -5.6228
# 6 7.5985 18.9512 0.1236 3.2632 -5.6228 34.8656
#
#
#
# Elastic Compliance Matrix: (Units=1/GPa)
#
#
# Indices 1 2 3 4 5 6 
#
# 1 0.010439 -0.000359 -0.005526 0.001167 0.000412 -0.002103
# 2 -0.000359 0.008939 -0.002623 0.001383 -0.001144 -0.005085
# 3 -0.005526 -0.002623 0.010754 -0.000633 -0.001469 0.002414
# 4 0.001167 0.001383 -0.000633 0.017129 0.001669 -0.002338
# 5 0.000412 -0.001144 -0.001469 0.001669 0.019863 0.003584
# 6 -0.002103 -0.005085 0.002414 -0.002338 0.003584 0.032692
#
#
# Mechanical properties :
#
#
# Convention : Reuss Voigt Hill
#
# Bulk Modulus (GPa) = 76.23998 84.19662 80.21830
# Shear Modulus (GPa) = 41.25266 47.48690 44.36978
#
# Velocity S-wave (km/s) = 4.02205 4.31528 4.17124
# Velocity P-wave (km/s) = 7.17399 7.60565 7.39297
#
# Compressibility (1/GPa) = 0.01311648
#
# Stress axis : x y z
#
# Youngs Moduli (GPa) = 95.79170 111.87160 92.98470
#
# Poissons Ratio (x) = 0.04018 0.51379
# Poissons Ratio (y) = 0.03440 0.24393
# Poissons Ratio (z) = 0.52930 0.29348
#
# Static dielectric constant tensor:
#      x y z
#    x 5.183660 -0.111500 0.071640 
#    y -0.111500 4.633870 -0.081750 
#    z 0.071640 -0.081750 4.512990 
# 
# 
# High freq. dielectric constant tensor:
#      x y z
#    x 2.051490 -0.005790 0.002250 
#    y -0.005790 2.032430 -0.004450 
#    z 0.002250 -0.004450 2.023560 
# 
# From -- ./inp_files/102567.got.cif
#   From: 2010.06.25/outbox.cif.g09.slc.cpg/sg2_52_cif.got.tgz:102567.got - 2010.06.27 13:26:56.
