data_PCOD8027817
_publ_section_title
;
Structure prediction by ZEFSAII (Michael W. Deem and Ramdas Pophale) SiO2 
 PCOD8027817
Probable space group: P -1
;
_chemical_formula_sum "Si O2"
_cell_formula_units_Z 16
_cell_length_a 7.345172
_cell_length_b 5.013087
_cell_length_c 19.274392
_cell_angle_alpha 82.920176
_cell_angle_beta 61.764199
_cell_angle_gamma 70.443738
_cell_volume 588.673265
_symmetry_space_group_name_H-M "P -1"
_symmetry_group_IT_number 2
_symmetry_cell_setting 'triclinic'
loop_
_space_group_symop_operation_xyz
x,y,z
-x,-y,-z
loop_
_atom_site_type_symbol
_atom_site_label
_atom_site_fract_x
_atom_site_fract_y
_atom_site_fract_z
Si Si1 0.000963 0.645720 0.276593
Si Si2 0.861135 0.278795 0.056018
Si Si3 0.788080 0.638608 0.454058
Si Si4 0.434731 0.318910 0.721495
Si Si5 0.670487 0.151245 0.546278
Si Si6 0.105022 0.016726 0.147483
Si Si7 0.472680 0.256812 0.205001
Si Si8 0.280482 0.442752 0.057930
O O1 0.024396 0.956841 0.240482
O O2 0.219073 0.391496 0.226019
O O3 0.968792 0.651064 0.364854
O O4 0.804358 0.583700 0.272983
O O5 0.606526 0.297581 0.111533
O O6 0.842615 0.546487 0.997211
O O7 0.935001 0.269193 0.124531
O O8 0.000000 0.000000 0.000000
O O9 0.827734 0.325542 0.486521
O O10 0.555830 0.749215 0.456204
O O11 0.797845 0.828093 0.513244
O O12 0.623794 0.189172 0.635048
O O13 0.475219 0.589586 0.740540
O O14 0.459831 0.077854 0.782373
O O15 0.136167 0.711165 0.118410
O O16 0.311362 0.139540 0.101852
O O17 0.500000 0.500000 0.000000
#
# Coordination Sequence:
#
# PCOD8027817 Si02
#       8
#     2   2   2   2   2   2   2   2
#     4  11  26  47  74 108 151 192 247 306 365 436
#     4  10  24  47  71 100 142 183 238 297 359 437
#     4   9  19  36  67 101 138 191 239 292 359 429
#     4  11  26  47  74 107 149 193 245 305 367 436
#     4   9  18  39  66  99 141 190 238 292 361 429
#     4  11  24  42  67  96 133 181 225 285 356 414
#     4  12  27  46  74 108 144 194 248 300 375 439
#     4  11  24  42  67  98 132 176 226 285 352 424
#
# _framework density 27.179763999999999
#
# number of rings (size 3 to 8) (size 9 to 14) (size 15 to 20)
#    0.000    1.500    1.250    2.250    1.750   10.000 
#    0.000    3.750    0.000    0.000    0.000    0.000 
#    0.000    0.000    0.000    0.000    0.000    0.000 
#
# Total GULP energy -198300.698013 kJ/mol
# GULP energy per Si atom -12393.793626 kJ/mol
# Density = 2.711790 g / cm^3
# Si number density = 27.179764 Si / 1000 Ang^3
#
#
#
# Elastic Constant Matrix: (Units=GPa)
#
#
# Indices 1 2 3 4 5 6 
#
# 1 70.1456 17.0830 15.2183 3.2727 -8.3211 -4.7508
# 2 17.0830 62.3715 19.2572 -5.4581 -14.1142 11.5454
# 3 15.2183 19.2572 180.5667 -8.0041 -12.5821 4.7733
# 4 3.2727 -5.4581 -8.0041 46.1010 1.5746 -9.8545
# 5 -8.3211 -14.1142 -12.5821 1.5746 30.2148 1.9930
# 6 -4.7508 11.5454 4.7733 -9.8545 1.9930 44.2883
#
#
#
# Elastic Compliance Matrix: (Units=1/GPa)
#
#
# Indices 1 2 3 4 5 6 
#
# 1 0.015943 -0.004237 -0.000881 -0.001312 0.001946 0.002530
# 2 -0.004237 0.020580 -0.001057 0.001018 0.008339 -0.005854
# 3 -0.000881 -0.001057 0.005889 0.000828 0.001696 -0.000346
# 4 -0.001312 0.001018 0.000828 0.023087 -0.001054 0.004689
# 5 0.001946 0.008339 0.001696 -0.001054 0.038560 -0.004118
# 6 0.002530 -0.005854 -0.000346 0.004689 -0.004118 0.025643
#
#
# Mechanical properties :
#
#
# Convention : Reuss Voigt Hill
#
# Bulk Modulus (GPa) = 33.26588 46.24451 39.75519
# Shear Modulus (GPa) = 32.87901 41.55584 37.21742
#
# Velocity S-wave (km/s) = 3.48183 3.91439 3.70443
# Velocity P-wave (km/s) = 5.33197 6.12219 5.74069
#
# Compressibility (1/GPa) = 0.03006084
#
# Stress axis : x y z
#
# Youngs Moduli (GPa) = 62.72505 48.59164 169.80548
#
# Poissons Ratio (x) = 0.20590 0.14963
# Poissons Ratio (y) = 0.26579 0.17943
# Poissons Ratio (z) = 0.05527 0.05135
#
# Static dielectric constant tensor:
#      x y z
#    x 5.370330 -0.087420 -0.367430 
#    y -0.087420 4.175470 -1.653560 
#    z -0.367430 -1.653560 2.227960 
# 
# 
# High freq. dielectric constant tensor:
#      x y z
#    x 2.108420 -0.001370 -0.001460 
#    y -0.001370 2.076910 -0.010870 
#    z -0.001460 -0.010870 2.117990 
# 
# From -- ./inp_files/605446.got.cif
#   From: 2010.06.25/outbox.cif.g09.slc.cpg/sg2_303_cif.got.tgz:605446.got - 2010.06.27 13:26:56.
