data_PCOD8027063
_publ_section_title
;
Structure prediction by ZEFSAII (Michael W. Deem and Ramdas Pophale) SiO2 
 PCOD8027063
Probable space group: P -1
;
_chemical_formula_sum "Si O2"
_cell_formula_units_Z 14
_cell_length_a 6.828765
_cell_length_b 9.015402
_cell_length_c 29.648229
_cell_angle_alpha 28.687489
_cell_angle_beta 130.301498
_cell_angle_gamma 122.359918
_cell_volume 665.638021
_symmetry_space_group_name_H-M "P -1"
_symmetry_group_IT_number 2
_symmetry_cell_setting 'triclinic'
loop_
_space_group_symop_operation_xyz
x,y,z
-x,-y,-z
loop_
_atom_site_type_symbol
_atom_site_label
_atom_site_fract_x
_atom_site_fract_y
_atom_site_fract_z
Si Si1 0.223813 0.773900 0.815059
Si Si2 0.967793 0.767425 0.018109
Si Si3 0.962475 0.252254 0.492381
Si Si4 0.833281 0.157466 0.599282
Si Si5 0.431610 0.079869 0.843266
Si Si6 0.354030 0.771859 0.636993
Si Si7 0.737871 0.346535 0.991052
O O1 0.268588 0.059275 0.778749
O O2 0.486836 0.586520 0.888221
O O3 0.075233 0.908499 0.712873
O O4 0.043069 0.570407 0.872198
O O5 0.212154 0.786689 0.016369
O O6 0.698247 0.878547 0.924140
O O7 0.000000 0.000000 0.000000
O O8 0.826204 0.237475 0.524238
O O9 0.740337 0.294454 0.410105
O O10 0.143864 0.539400 0.446393
O O11 0.123981 0.926888 0.592118
O O12 0.571039 0.007918 0.609830
O O13 0.459570 0.439862 0.762450
O O14 0.296242 0.930458 0.905491
O O15 0.000000 0.500000 0.000000
#
# Coordination Sequence:
#
# PCOD8027063 Si02
#       7
#     2   2   2   2   2   2   2
#     4  11  22  39  63  94 127 164 216 255 307 385
#     4  11  23  39  61  91 127 163 206 263 311 366
#     4  10  24  44  66  96 124 162 218 260 312 388
#     4  11  23  43  67  93 129 166 207 264 320 367
#     4  11  22  39  63  94 127 164 216 255 307 385
#     4  11  23  43  67  93 129 166 207 264 320 367
#     4  11  21  41  65  88 127 174 207 250 316 372
#
# _framework density 21.032451999999999
#
# number of rings (size 3 to 8) (size 9 to 14) (size 15 to 20)
#    0.000    1.143    4.286    2.571    0.000    6.857 
#    0.000    1.429    0.000    0.000    0.000    0.000 
#    0.000    0.000    0.000    0.000    0.000    0.000 
#
# Total GULP energy -173562.064750 kJ/mol
# GULP energy per Si atom -12397.290339 kJ/mol
# Density = 2.098458 g / cm^3
# Si number density = 21.032452 Si / 1000 Ang^3
#
#
#
# Elastic Constant Matrix: (Units=GPa)
#
#
# Indices 1 2 3 4 5 6 
#
# 1 112.6637 22.6902 26.1832 -4.1399 -1.1006 -6.3441
# 2 22.6902 99.4092 20.0066 -3.5273 -6.8424 -4.2488
# 3 26.1832 20.0066 90.0825 -14.1112 -7.0141 0.3010
# 4 -4.1399 -3.5273 -14.1112 33.2824 1.8994 -4.1790
# 5 -1.1006 -6.8424 -7.0141 1.8994 19.7782 -5.2090
# 6 -6.3441 -4.2488 0.3010 -4.1790 -5.2090 37.0314
#
#
#
# Elastic Compliance Matrix: (Units=1/GPa)
#
#
# Indices 1 2 3 4 5 6 
#
# 1 0.009890 -0.001722 -0.002510 0.000199 -0.000570 0.001459
# 2 -0.001722 0.011103 -0.001656 0.000249 0.003534 0.001518
# 3 -0.002510 -0.001656 0.013256 0.004970 0.003601 0.000339
# 4 0.000199 0.000249 0.004970 0.032682 -0.000313 0.003666
# 5 -0.000570 0.003534 0.003601 -0.000313 0.055166 0.008003
# 6 0.001459 0.001518 0.000339 0.003666 0.008003 0.028965
#
#
# Mechanical properties :
#
#
# Convention : Reuss Voigt Hill
#
# Bulk Modulus (GPa) = 44.49996 48.87948 46.68972
# Shear Modulus (GPa) = 29.35473 33.57009 31.46241
#
# Velocity S-wave (km/s) = 3.73994 3.99947 3.87188
# Velocity P-wave (km/s) = 6.31294 6.67968 6.49890
#
# Compressibility (1/GPa) = 0.02247193
#
# Stress axis : x y z
#
# Youngs Moduli (GPa) = 101.11116 90.06794 75.43680
#
# Poissons Ratio (x) = 0.15510 0.18937
# Poissons Ratio (y) = 0.17412 0.12494
# Poissons Ratio (z) = 0.25382 0.14917
#
# Static dielectric constant tensor:
#      x y z
#    x 3.168110 -0.359180 -0.252980 
#    y -0.359180 3.902220 -0.091250 
#    z -0.252980 -0.091250 3.585790 
# 
# 
# High freq. dielectric constant tensor:
#      x y z
#    x 1.813520 -0.000800 -0.002350 
#    y -0.000800 1.844340 -0.001550 
#    z -0.002350 -0.001550 1.822830 
# 
# From -- ./inp_files/36174.got.cif
#   From: 2010.06.25/outbox.cif.g09.slc.cpg/sg2_19_cif.got.tgz:36174.got - 2010.06.27 13:26:56.
