data_PCOD8027743
_publ_section_title
;
Structure prediction by ZEFSAII (Michael W. Deem and Ramdas Pophale) SiO2 
 PCOD8027743
Probable space group: P -1
;
_chemical_formula_sum "Si O2"
_cell_formula_units_Z 16
_cell_length_a 19.742892
_cell_length_b 11.435114
_cell_length_c 13.758296
_cell_angle_alpha 147.748327
_cell_angle_beta 147.194033
_cell_angle_gamma 41.894569
_cell_volume 891.982378
_symmetry_space_group_name_H-M "P -1"
_symmetry_group_IT_number 2
_symmetry_cell_setting 'triclinic'
loop_
_space_group_symop_operation_xyz
x,y,z
-x,-y,-z
loop_
_atom_site_type_symbol
_atom_site_label
_atom_site_fract_x
_atom_site_fract_y
_atom_site_fract_z
Si Si1 0.060257 0.069848 0.523346
Si Si2 0.765825 0.317120 0.600057
Si Si3 0.688673 0.006521 0.777090
Si Si4 0.537045 0.176358 0.546061
Si Si5 0.686356 0.523562 0.449377
Si Si6 0.529934 0.242157 0.361169
Si Si7 0.252962 0.222599 0.996197
Si Si8 0.195475 0.837324 0.794263
O O1 0.949559 0.215008 0.431623
O O2 0.109494 0.857529 0.367481
O O3 0.178184 0.199340 0.788506
O O4 0.000000 0.000000 0.500000
O O5 0.757457 0.398706 0.536908
O O6 0.648915 0.179811 0.390500
O O7 0.775126 0.522143 0.826869
O O8 0.665457 0.124932 0.727362
O O9 0.553397 0.014862 0.675743
O O10 0.746495 0.749499 0.654767
O O11 0.779668 0.140103 0.045102
O O12 0.461036 0.412727 0.653889
O O13 0.570156 0.171394 0.469402
O O14 0.705367 0.360017 0.265916
O O15 0.500000 0.500000 0.500000
O O16 0.402237 0.144709 0.105225
O O17 0.210034 0.070253 0.923621
#
# Coordination Sequence:
#
# PCOD8027743 Si02
#       8
#     2   2   2   2   2   2   2   2
#     4  10  22  31  45  76 104 132 174 199 237 305
#     4  11  19  32  51  75 105 136 157 201 257 295
#     4   9  18  33  50  71 104 130 161 213 245 283
#     4   9  17  33  50  75 103 125 166 204 247 305
#     4  10  17  30  50  75 102 128 164 196 254 299
#     4  10  17  31  55  73 102 132 160 198 256 305
#     4  10  18  31  47  73 104 131 159 202 245 297
#     4  11  19  32  50  73 104 134 166 205 245 292
#
# _framework density 17.937574000000001
#
# number of rings (size 3 to 8) (size 9 to 14) (size 15 to 20)
#    0.750    1.250    7.500    0.000    0.000    4.000 
#    0.000    0.000    0.000    0.750    0.000    4.375 
#    0.000    0.000    0.000    0.000    0.000    0.000 
#
# Total GULP energy -198212.796270 kJ/mol
# GULP energy per Si atom -12388.299767 kJ/mol
# Density = 1.789675 g / cm^3
# Si number density = 17.937574 Si / 1000 Ang^3
#
#
#
# Elastic Constant Matrix: (Units=GPa)
#
#
# Indices 1 2 3 4 5 6 
#
# 1 35.9684 29.9117 27.7053 -2.5610 -1.9714 -9.2260
# 2 29.9117 61.7360 36.0410 -15.2895 -8.4697 -4.6900
# 3 27.7053 36.0410 97.7764 -19.1213 -18.0074 0.2645
# 4 -2.5610 -15.2895 -19.1213 30.1946 -1.3034 -10.4513
# 5 -1.9714 -8.4697 -18.0074 -1.3034 21.6612 -1.5011
# 6 -9.2260 -4.6900 0.2645 -10.4513 -1.5011 33.1471
#
#
#
# Elastic Compliance Matrix: (Units=1/GPa)
#
#
# Indices 1 2 3 4 5 6 
#
# 1 0.060244 -0.026876 -0.013081 -0.014835 -0.016262 0.007656
# 2 -0.026876 0.035462 0.000432 0.017812 0.013110 0.003744
# 3 -0.013081 0.000432 0.019001 0.012084 0.015555 0.000783
# 4 -0.014835 0.017812 0.012084 0.055145 0.020129 0.016594
# 5 -0.016262 0.013110 0.015555 0.020129 0.064402 0.006468
# 6 0.007656 0.003744 0.000783 0.016594 0.006468 0.038348
#
#
# Mechanical properties :
#
#
# Convention : Reuss Voigt Hill
#
# Bulk Modulus (GPa) = 28.04504 42.53299 35.28901
# Shear Modulus (GPa) = 13.75373 23.78878 18.77125
#
# Velocity S-wave (km/s) = 2.77204 3.64565 3.23844
# Velocity P-wave (km/s) = 5.09061 6.44082 5.80511
#
# Compressibility (1/GPa) = 0.03565693
#
# Stress axis : x y z
#
# Youngs Moduli (GPa) = 16.59907 28.19911 52.62965
#
# Poissons Ratio (x) = 0.75788 0.68843
# Poissons Ratio (y) = 0.44612 -0.02272
# Poissons Ratio (z) = 0.21713 -0.01217
#
# Static dielectric constant tensor:
#      x y z
#    x 19.507420 2.813610 6.332460 
#    y 2.813610 3.988730 0.771990 
#    z 6.332460 0.771990 6.070340 
# 
# 
# High freq. dielectric constant tensor:
#      x y z
#    x 1.659160 -0.010430 -0.016430 
#    y -0.010430 1.680700 -0.009310 
#    z -0.016430 -0.009310 1.679040 
# 
# From -- ./inp_files/541027.got.cif
#   From: 2010.06.25/outbox.cif.g09.slc.cpg/sg2_271_cif.got.tgz:541027.got - 2010.06.27 13:26:56.
