data_PCOD8027327
_publ_section_title
;
Structure prediction by ZEFSAII (Michael W. Deem and Ramdas Pophale) SiO2 
 PCOD8027327
Probable space group: P -1
;
_chemical_formula_sum "Si O2"
_cell_formula_units_Z 12
_cell_length_a 12.666045
_cell_length_b 18.554026
_cell_length_c 21.849409
_cell_angle_alpha 161.864641
_cell_angle_beta 19.617884
_cell_angle_gamma 152.167740
_cell_volume 533.711854
_symmetry_space_group_name_H-M "P -1"
_symmetry_group_IT_number 2
_symmetry_cell_setting 'triclinic'
loop_
_space_group_symop_operation_xyz
x,y,z
-x,-y,-z
loop_
_atom_site_type_symbol
_atom_site_label
_atom_site_fract_x
_atom_site_fract_y
_atom_site_fract_z
Si Si1 0.744507 0.463011 0.284362
Si Si2 0.802659 0.199477 0.731652
Si Si3 0.830945 0.995408 0.281805
Si Si4 0.648184 0.449856 0.135657
Si Si5 0.275056 0.942251 0.752648
Si Si6 0.607797 0.787014 0.813628
O O1 0.500000 0.500000 0.500000
O O2 0.518164 0.444755 0.333746
O O3 0.945638 0.680549 0.349177
O O4 0.974256 0.233539 0.984480
O O5 0.556708 0.096992 0.738559
O O6 0.626923 0.392899 0.029277
O O7 0.000000 0.000000 0.500000
O O8 0.500000 0.000000 0.500000
O O9 0.827445 0.988516 0.204582
O O10 0.015553 0.214022 0.380708
O O11 0.395988 0.668776 0.466440
O O12 0.560543 0.216367 0.030478
O O13 0.000000 0.500000 0.000000
O O14 0.000000 0.000000 0.000000
O O15 0.500000 0.000000 0.000000
#
# Coordination Sequence:
#
# PCOD8027327 Si02
#       6
#     2   2   2   2   2   2
#     4  11  26  44  72 104 137 186 242 288 351 429
#     4  12  26  45  78 107 142 190 246 295 352 435
#     4  11  27  46  71 105 145 186 236 299 365 419
#     4  12  24  47  76 105 140 190 245 289 357 431
#     4  12  29  47  72 110 151 185 239 303 366 421
#     4  10  24  44  74  98 140 184 239 289 355 420
#
# _framework density 22.484041000000001
#
# number of rings (size 3 to 8) (size 9 to 14) (size 15 to 20)
#    0.000    0.667    3.333    2.000   14.000    4.667 
#    0.000    0.000    0.000    0.000    0.000    0.000 
#    0.000    0.000    0.000    0.000    0.000    0.000 
#
# Total GULP energy -148706.652338 kJ/mol
# GULP energy per Si atom -12392.221028 kJ/mol
# Density = 2.243287 g / cm^3
# Si number density = 22.484041 Si / 1000 Ang^3
#
#
#
# Elastic Constant Matrix: (Units=GPa)
#
#
# Indices 1 2 3 4 5 6 
#
# 1 141.4827 72.8221 33.7445 -16.4551 1.0912 15.7890
# 2 72.8221 198.9872 49.6448 -31.1680 -3.5375 5.6258
# 3 33.7445 49.6448 126.7828 -17.7226 12.1082 -0.5273
# 4 -16.4551 -31.1680 -17.7226 42.5745 -3.0884 2.6365
# 5 1.0912 -3.5375 12.1082 -3.0884 31.8260 -9.2129
# 6 15.7890 5.6258 -0.5273 2.6365 -9.2129 53.4793
#
#
#
# Elastic Compliance Matrix: (Units=1/GPa)
#
#
# Indices 1 2 3 4 5 6 
#
# 1 0.009241 -0.002873 -0.001108 0.001108 -0.000872 -0.002642
# 2 -0.002873 0.007075 -0.001703 0.003486 0.001944 0.000250
# 3 -0.001108 -0.001703 0.009474 0.002015 -0.003594 -0.000119
# 4 0.001108 0.003486 0.002015 0.027542 0.001755 -0.001729
# 5 -0.000872 0.001944 -0.003594 0.001755 0.034926 0.005948
# 6 -0.002642 0.000250 -0.000119 -0.001729 0.005948 0.020561
#
#
# Mechanical properties :
#
#
# Convention : Reuss Voigt Hill
#
# Bulk Modulus (GPa) = 69.33359 86.63062 77.98210
# Shear Modulus (GPa) = 40.00185 46.31206 43.15695
#
# Velocity S-wave (km/s) = 4.22254 4.54340 4.38590
# Velocity P-wave (km/s) = 7.39438 8.13245 7.77218
#
# Compressibility (1/GPa) = 0.01442302
#
# Stress axis : x y z
#
# Youngs Moduli (GPa) = 108.21015 141.33841 105.55544
#
# Poissons Ratio (x) = 0.40606 0.11691
# Poissons Ratio (y) = 0.31088 0.17977
# Poissons Ratio (z) = 0.11985 0.24071
#
# Static dielectric constant tensor:
#      x y z
#    x 4.468920 0.280130 0.101960 
#    y 0.280130 4.125400 0.227100 
#    z 0.101960 0.227100 3.850390 
# 
# 
# High freq. dielectric constant tensor:
#      x y z
#    x 1.905740 0.000770 0.002030 
#    y 0.000770 1.914490 -0.008870 
#    z 0.002030 -0.008870 1.869740 
# 
# From -- ./inp_files/183413.got.cif
#   From: 2010.06.25/outbox.cif.g09.slc.cpg/sg2_92_cif.got.tgz:183413.got - 2010.06.27 13:26:56.
