data_PCOD8027875
_publ_section_title
;
Structure prediction by ZEFSAII (Michael W. Deem and Ramdas Pophale) SiO2 
 PCOD8027875
Probable space group: P -1
;
_chemical_formula_sum "Si O2"
_cell_formula_units_Z 16
_cell_length_a 18.643525
_cell_length_b 12.462371
_cell_length_c 9.257464
_cell_angle_alpha 99.840791
_cell_angle_beta 51.875236
_cell_angle_gamma 142.914090
_cell_volume 750.067619
_symmetry_space_group_name_H-M "P -1"
_symmetry_group_IT_number 2
_symmetry_cell_setting 'triclinic'
loop_
_space_group_symop_operation_xyz
x,y,z
-x,-y,-z
loop_
_atom_site_type_symbol
_atom_site_label
_atom_site_fract_x
_atom_site_fract_y
_atom_site_fract_z
Si Si1 0.442963 0.536737 0.184140
Si Si2 0.695480 0.677809 0.384484
Si Si3 0.804667 0.069016 0.832067
Si Si4 0.135552 0.538985 0.010052
Si Si5 0.857217 0.443195 0.326111
Si Si6 0.063616 0.217239 0.080949
Si Si7 0.917346 0.799580 0.622196
Si Si8 0.546124 0.998922 0.095776
O O1 0.338556 0.377037 0.417556
O O2 0.286819 0.447516 0.269555
O O3 0.500000 0.500000 0.000000
O O4 0.639226 0.814224 0.054101
O O5 0.500000 0.500000 0.500000
O O6 0.779976 0.657093 0.205229
O O7 0.844739 0.939258 0.243960
O O8 0.966816 0.280607 0.798036
O O9 0.920134 0.124496 0.577233
O O10 0.688259 0.046289 0.901040
O O11 0.206308 0.610258 0.772668
O O12 0.333499 0.784987 0.909100
O O13 0.059777 0.342925 0.117605
O O14 0.946442 0.418409 0.239580
O O15 0.661879 0.255529 0.624713
O O16 0.131494 0.240898 0.157145
O O17 0.000000 0.000000 0.500000
O O18 0.500000 0.000000 0.000000
#
# Coordination Sequence:
#
# PCOD8027875 Si02
#       8
#     2   2   2   2   2   2   2   2
#     4  12  24  44  71 102 135 185 232 276 337 409
#     4  11  26  43  66 102 143 176 227 279 334 407
#     4  11  26  40  74  96 135 182 229 276 351 395
#     4  10  25  44  72  99 132 181 225 282 345 416
#     4  10  24  48  69  97 136 175 228 285 348 411
#     4  11  26  43  67 100 138 183 226 277 348 397
#     4  12  24  44  67  95 141 182 231 282 331 413
#     4  11  26  46  71 104 134 170 233 289 343 413
#
# _framework density 21.331409000000001
#
# number of rings (size 3 to 8) (size 9 to 14) (size 15 to 20)
#    0.000    1.000    2.500    1.875   10.500    2.000 
#    0.000    0.000    0.000    0.000    0.000    0.000 
#    0.000    0.000    0.000    0.000    0.000    0.000 
#
# Total GULP energy -198467.873550 kJ/mol
# GULP energy per Si atom -12404.242097 kJ/mol
# Density = 2.128286 g / cm^3
# Si number density = 21.331409 Si / 1000 Ang^3
#
#
#
# Elastic Constant Matrix: (Units=GPa)
#
#
# Indices 1 2 3 4 5 6 
#
# 1 121.2181 64.4779 58.4459 5.4550 0.2341 11.3844
# 2 64.4779 144.8257 53.9811 -7.8606 -5.3347 -0.0611
# 3 58.4459 53.9811 134.6565 9.4332 -5.1252 6.6567
# 4 5.4550 -7.8606 9.4332 36.1596 8.5111 -1.6411
# 5 0.2341 -5.3347 -5.1252 8.5111 33.4167 3.3691
# 6 11.3844 -0.0611 6.6567 -1.6411 3.3691 46.3955
#
#
#
# Elastic Compliance Matrix: (Units=1/GPa)
#
#
# Indices 1 2 3 4 5 6 
#
# 1 0.012621 -0.004465 -0.003442 -0.001964 -0.000563 -0.002638
# 2 -0.004465 0.009975 -0.002373 0.003481 0.000216 0.001557
# 3 -0.003442 -0.002373 0.010221 -0.003202 0.002118 -0.000892
# 4 -0.001964 0.003481 -0.003202 0.031604 -0.008239 0.002662
# 5 -0.000563 0.000216 0.002118 -0.008239 0.032672 -0.002830
# 6 -0.002638 0.001557 -0.000892 0.002662 -0.002830 0.022631
#
#
# Mechanical properties :
#
#
# Convention : Reuss Voigt Hill
#
# Bulk Modulus (GPa) = 81.58649 83.83447 82.71048
# Shear Modulus (GPa) = 34.63366 38.11404 36.37385
#
# Velocity S-wave (km/s) = 4.03376 4.23159 4.13386
# Velocity P-wave (km/s) = 7.74759 7.95370 7.85132
#
# Compressibility (1/GPa) = 0.01225693
#
# Stress axis : x y z
#
# Youngs Moduli (GPa) = 79.23312 100.25310 97.84133
#
# Poissons Ratio (x) = 0.44759 0.33674
# Poissons Ratio (y) = 0.35375 0.23222
# Poissons Ratio (z) = 0.27269 0.23795
#
# Static dielectric constant tensor:
#      x y z
#    x 3.873970 0.080980 -0.307950 
#    y 0.080980 4.131930 0.033540 
#    z -0.307950 0.033540 4.377960 
# 
# 
# High freq. dielectric constant tensor:
#      x y z
#    x 1.834950 0.004380 -0.008700 
#    y 0.004380 1.854500 0.000490 
#    z -0.008700 0.000490 1.842470 
# 
# From -- ./inp_files/333360.got.cif
#   From: 2010.06.25/outbox.cif.g09.slc.cpg/sg2_167_cif.got.tgz:333360.got - 2010.06.27 13:26:56.
