data_PCOD8027889
_publ_section_title
;
Structure prediction by ZEFSAII (Michael W. Deem and Ramdas Pophale) SiO2 
 PCOD8027889
Probable space group: P -1
;
_chemical_formula_sum "Si O2"
_cell_formula_units_Z 16
_cell_length_a 16.693748
_cell_length_b 10.806114
_cell_length_c 12.771325
_cell_angle_alpha 59.274687
_cell_angle_beta 136.847465
_cell_angle_gamma 86.249252
_cell_volume 903.198448
_symmetry_space_group_name_H-M "P -1"
_symmetry_group_IT_number 2
_symmetry_cell_setting 'triclinic'
loop_
_space_group_symop_operation_xyz
x,y,z
-x,-y,-z
loop_
_atom_site_type_symbol
_atom_site_label
_atom_site_fract_x
_atom_site_fract_y
_atom_site_fract_z
Si Si1 0.455607 0.930359 0.215921
Si Si2 0.575251 0.079362 0.577153
Si Si3 0.568491 0.280140 0.875813
Si Si4 0.731554 0.455054 0.668394
Si Si5 0.727120 0.415130 0.913271
Si Si6 0.090667 0.248704 0.089475
Si Si7 0.574137 0.042100 0.136755
Si Si8 0.949078 0.686330 0.735288
O O1 0.362086 0.002554 0.207410
O O2 0.355931 0.918475 0.041173
O O3 0.657411 0.685060 0.523594
O O4 0.475261 0.080120 0.132905
O O5 0.431394 0.334315 0.316664
O O6 0.500000 0.000000 0.500000
O O7 0.741923 0.971736 0.713371
O O8 0.387680 0.508036 0.552289
O O9 0.704887 0.286581 0.012240
O O10 0.529294 0.246316 0.967917
O O11 0.720238 0.377468 0.799755
O O12 0.930079 0.289545 0.890152
O O13 0.914079 0.312940 0.165453
O O14 0.122103 0.223720 0.254337
O O15 0.054148 0.441743 0.928571
O O16 0.784969 0.839885 0.433989
O O17 0.500000 0.000000 0.000000
#
# Coordination Sequence:
#
# PCOD8027889 Si02
#       8
#     2   2   2   2   2   2   2   2
#     4   8  17  30  51  74  93 127 165 204 239 281
#     4  11  19  28  49  80 103 124 158 208 260 287
#     4   9  18  32  54  70 101 135 167 195 240 300
#     4   8  16  30  52  71  95 125 163 203 240 281
#     4  10  19  31  49  78 103 127 159 207 252 288
#     4  10  17  30  50  79  97 125 163 210 250 280
#     4  10  17  31  53  76  93 130 173 203 234 290
#     4  10  18  30  51  74 102 124 166 207 241 290
#
# _framework density 17.714822999999999
#
# number of rings (size 3 to 8) (size 9 to 14) (size 15 to 20)
#    0.750    1.750    2.500    1.125    0.000    0.500 
#    0.000    0.625    0.000    9.750    0.000    0.000 
#    0.000    0.000    0.000    0.000    0.000    0.000 
#
# Total GULP energy -198219.922899 kJ/mol
# GULP energy per Si atom -12388.745181 kJ/mol
# Density = 1.767450 g / cm^3
# Si number density = 17.714823 Si / 1000 Ang^3
#
#
#
# Elastic Constant Matrix: (Units=GPa)
#
#
# Indices 1 2 3 4 5 6 
#
# 1 115.8996 38.5696 33.7920 -7.2264 7.8681 16.0691
# 2 38.5696 45.3069 20.7333 0.0347 8.0138 5.7315
# 3 33.7920 20.7333 82.6031 11.8919 14.4316 1.8623
# 4 -7.2264 0.0347 11.8919 17.7975 -0.9710 6.2970
# 5 7.8681 8.0138 14.4316 -0.9710 29.3998 -4.3574
# 6 16.0691 5.7315 1.8623 6.2970 -4.3574 31.4745
#
#
#
# Elastic Compliance Matrix: (Units=1/GPa)
#
#
# Indices 1 2 3 4 5 6 
#
# 1 0.015395 -0.009549 -0.005670 0.013030 0.000462 -0.008328
# 2 -0.009549 0.032696 -0.003149 -0.001667 -0.005052 -0.001258
# 3 -0.005670 -0.003149 0.018694 -0.016853 -0.006644 0.004814
# 4 0.013030 -0.001667 -0.016853 0.080350 0.004817 -0.020760
# 5 0.000462 -0.005052 -0.006644 0.004817 0.039515 0.005584
# 6 -0.008328 -0.001258 0.004814 -0.020760 0.005584 0.040894
#
#
# Mechanical properties :
#
#
# Convention : Reuss Voigt Hill
#
# Bulk Modulus (GPa) = 33.27875 47.77770 40.52823
# Shear Modulus (GPa) = 18.22837 25.78200 22.00519
#
# Velocity S-wave (km/s) = 3.21127 3.81910 3.52830
# Velocity P-wave (km/s) = 5.70756 6.81736 6.28700
#
# Compressibility (1/GPa) = 0.03004921
#
# Stress axis : x y z
#
# Youngs Moduli (GPa) = 64.95725 30.58477 53.49186
#
# Poissons Ratio (x) = 0.29205 0.30329
# Poissons Ratio (y) = 0.62028 0.16846
# Poissons Ratio (z) = 0.36829 0.09632
#
# Static dielectric constant tensor:
#      x y z
#    x 3.666740 -0.116390 0.045390 
#    y -0.116390 3.038210 0.049960 
#    z 0.045390 0.049960 3.264470 
# 
# 
# High freq. dielectric constant tensor:
#      x y z
#    x 1.692110 0.013750 0.002760 
#    y 0.013750 1.640980 0.023420 
#    z 0.002760 0.023420 1.664100 
# 
# From -- ./inp_files/449918.got.cif
#   From: 2010.06.25/outbox.cif.g09.slc.cpg/sg2_225_cif.got.tgz:449918.got - 2010.06.27 13:26:56.
