data_PCOD8027747
_publ_section_title
;
Structure prediction by ZEFSAII (Michael W. Deem and Ramdas Pophale) SiO2 
 PCOD8027747
Probable space group: P -1
;
_chemical_formula_sum "Si O2"
_cell_formula_units_Z 14
_cell_length_a 17.783467
_cell_length_b 8.479688
_cell_length_c 9.418940
_cell_angle_alpha 125.401181
_cell_angle_beta 150.764479
_cell_angle_gamma 53.953165
_cell_volume 553.042094
_symmetry_space_group_name_H-M "P -1"
_symmetry_group_IT_number 2
_symmetry_cell_setting 'triclinic'
loop_
_space_group_symop_operation_xyz
x,y,z
-x,-y,-z
loop_
_atom_site_type_symbol
_atom_site_label
_atom_site_fract_x
_atom_site_fract_y
_atom_site_fract_z
Si Si1 0.887806 0.896735 0.358302
Si Si2 0.341175 0.720987 0.812723
Si Si3 0.319474 0.388076 0.172289
Si Si4 0.613295 0.246699 0.415488
Si Si5 0.886835 0.887435 0.676598
Si Si6 0.431130 0.221534 0.548170
Si Si7 0.131639 0.422339 0.294380
O O1 0.946736 0.862854 0.599397
O O2 0.719645 0.044576 0.151292
O O3 0.845960 0.688264 0.126237
O O4 0.000000 0.000000 0.500000
O O5 0.390220 0.667995 0.704874
O O6 0.202273 0.606829 0.561470
O O7 0.482072 0.672219 0.132645
O O8 0.427367 0.276817 0.163769
O O9 0.293846 0.627865 0.258141
O O10 0.432500 0.343486 0.471577
O O11 0.706156 0.016941 0.456711
O O12 0.915299 0.673294 0.687063
O O13 0.000000 0.000000 0.000000
O O14 0.253967 0.245055 0.326372
O O15 0.500000 0.000000 0.500000
O O16 0.000000 0.500000 0.000000
#
# Coordination Sequence:
#
# PCOD8027747 Si02
#       7
#     2   2   2   2   2   2   2
#     4  11  27  46  72 111 153 199 251 318 381 455
#     4  11  25  44  77 110 148 198 252 310 384 455
#     4  11  24  43  75 104 155 188 248 319 384 435
#     4  10  24  46  73 109 145 190 252 313 380 450
#     4  11  27  46  75 105 146 204 252 302 382 460
#     4  12  25  44  75 110 146 195 255 312 375 442
#     4  12  27  47  77 109 155 200 251 312 385 460
#
# _framework density 25.314530000000001
#
# number of rings (size 3 to 8) (size 9 to 14) (size 15 to 20)
#    0.000    0.857    2.857    3.000    6.000    3.429 
#    0.000    2.143    0.000    0.000    0.000    0.000 
#    0.000    0.000    0.000    0.000    0.000    0.000 
#
# Total GULP energy -173477.241662 kJ/mol
# GULP energy per Si atom -12391.231547 kJ/mol
# Density = 2.525691 g / cm^3
# Si number density = 25.314530 Si / 1000 Ang^3
#
#
#
# Elastic Constant Matrix: (Units=GPa)
#
#
# Indices 1 2 3 4 5 6 
#
# 1 127.7630 34.5978 54.8028 3.3556 -15.7135 31.6304
# 2 34.5978 101.8157 42.7117 6.9080 -12.1208 15.3476
# 3 54.8028 42.7117 158.3188 10.3227 -11.5016 18.1123
# 4 3.3556 6.9080 10.3227 46.7176 8.0859 -3.6996
# 5 -15.7135 -12.1208 -11.5016 8.0859 40.2971 1.9703
# 6 31.6304 15.3476 18.1123 -3.6996 1.9703 50.3338
#
#
#
# Elastic Compliance Matrix: (Units=1/GPa)
#
#
# Indices 1 2 3 4 5 6 
#
# 1 0.011241 -0.001338 -0.002490 -0.001192 0.003803 -0.005996
# 2 -0.001338 0.012017 -0.002178 -0.001894 0.002964 -0.002295
# 3 -0.002490 -0.002178 0.008031 -0.001513 0.001009 -0.000812
# 4 -0.001192 -0.001894 -0.001513 0.023513 -0.006373 0.003849
# 5 0.003803 0.002964 0.001009 -0.006373 0.029014 -0.005261
# 6 -0.005996 -0.002295 -0.000812 0.003849 -0.005261 0.025116
#
#
# Mechanical properties :
#
#
# Convention : Reuss Voigt Hill
#
# Bulk Modulus (GPa) = 51.87296 72.45800 62.16548
# Shear Modulus (GPa) = 39.25612 44.52204 41.88908
#
# Velocity S-wave (km/s) = 3.94221 4.19830 4.07227
# Velocity P-wave (km/s) = 6.42318 7.22400 6.83533
#
# Compressibility (1/GPa) = 0.01927787
#
# Stress axis : x y z
#
# Youngs Moduli (GPa) = 88.96058 83.21520 124.52333
#
# Poissons Ratio (x) = 0.11131 0.31009
# Poissons Ratio (y) = 0.11900 0.27115
# Poissons Ratio (z) = 0.22153 0.18120
#
# Static dielectric constant tensor:
#      x y z
#    x 5.003270 2.628570 0.723750 
#    y 2.628570 20.576720 4.375850 
#    z 0.723750 4.375850 5.544780 
# 
# 
# High freq. dielectric constant tensor:
#      x y z
#    x 2.012440 -0.002230 -0.010940 
#    y -0.002230 2.029160 0.007120 
#    z -0.010940 0.007120 2.001030 
# 
# From -- ./inp_files/329502.got.cif
#   From: 2010.06.25/outbox.cif.g09.slc.cpg/sg2_165_cif.got.tgz:329502.got - 2010.06.27 13:26:56.
