data_PCOD8027078
_publ_section_title
;
Structure prediction by ZEFSAII (Michael W. Deem and Ramdas Pophale) SiO2 
 PCOD8027078
Probable space group: P -1
;
_chemical_formula_sum "Si O2"
_cell_formula_units_Z 16
_cell_length_a 9.330658
_cell_length_b 8.376846
_cell_length_c 14.232017
_cell_angle_alpha 127.163219
_cell_angle_beta 95.442164
_cell_angle_gamma 114.751608
_cell_volume 706.008623
_symmetry_space_group_name_H-M "P -1"
_symmetry_group_IT_number 2
_symmetry_cell_setting 'triclinic'
loop_
_space_group_symop_operation_xyz
x,y,z
-x,-y,-z
loop_
_atom_site_type_symbol
_atom_site_label
_atom_site_fract_x
_atom_site_fract_y
_atom_site_fract_z
Si Si1 0.454067 0.047167 0.654123
Si Si2 0.096121 0.114068 0.445952
Si Si3 0.342661 0.701858 0.692451
Si Si4 0.630959 0.439054 0.951844
Si Si5 0.998693 0.047832 0.822507
Si Si6 0.290923 0.932055 0.091885
Si Si7 0.908964 0.264745 0.185107
Si Si8 0.771994 0.169049 0.600953
O O1 0.607403 0.156233 0.624451
O O2 0.428615 0.838419 0.647364
O O3 0.262807 0.913734 0.541146
O O4 0.522971 0.299251 0.801103
O O5 0.210592 0.409379 0.562272
O O6 0.977255 0.002796 0.303265
O O7 0.226428 0.033959 0.412406
O O8 0.000000 0.000000 0.500000
O O9 0.233489 0.794656 0.764433
O O10 0.515104 0.791759 0.800739
O O11 0.824835 0.694705 0.036865
O O12 0.500000 0.500000 0.000000
O O13 0.665108 0.265270 0.953046
O O14 0.833445 0.063552 0.835421
O O15 0.975326 0.828381 0.805823
O O16 0.197325 0.875939 0.966033
O O17 0.040584 0.559656 0.278368
#
# Coordination Sequence:
#
# PCOD8027078 Si02
#       8
#     2   2   2   2   2   2   2   2
#     4  10  24  44  67 101 135 183 225 284 347 419
#     4  12  26  42  69 101 137 180 234 288 351 412
#     4  11  25  44  70  98 140 177 232 293 351 409
#     4  11  24  42  72 101 143 179 231 285 351 410
#     4  12  26  44  71 101 142 190 234 287 348 413
#     4  11  25  46  70 101 141 184 234 286 349 418
#     4  12  25  44  72 103 141 184 236 288 346 409
#     4  11  24  43  70  98 141 180 233 286 345 413
#
# _framework density 22.662614000000001
#
# number of rings (size 3 to 8) (size 9 to 14) (size 15 to 20)
#    0.000    0.750    1.250    6.375    3.500    6.000 
#    0.000    0.000    0.000    0.000    0.000    0.000 
#    0.000    0.000    0.000    0.000    0.000    0.000 
#
# Total GULP energy -198273.719968 kJ/mol
# GULP energy per Si atom -12392.107498 kJ/mol
# Density = 2.261103 g / cm^3
# Si number density = 22.662614 Si / 1000 Ang^3
#
#
#
# Elastic Constant Matrix: (Units=GPa)
#
#
# Indices 1 2 3 4 5 6 
#
# 1 111.5203 33.0783 30.1967 4.2377 -6.7533 -6.7498
# 2 33.0783 81.7442 57.3006 -3.4842 -5.0635 1.1565
# 3 30.1967 57.3006 176.7763 -0.1420 7.0112 -1.6207
# 4 4.2377 -3.4842 -0.1420 41.6696 -0.2238 8.0870
# 5 -6.7533 -5.0635 7.0112 -0.2238 33.9438 5.5531
# 6 -6.7498 1.1565 -1.6207 8.0870 5.5531 35.8666
#
#
#
# Elastic Compliance Matrix: (Units=1/GPa)
#
#
# Indices 1 2 3 4 5 6 
#
# 1 0.010566 -0.003913 -0.000566 -0.001846 0.001245 0.002313
# 2 -0.003913 0.017871 -0.005282 0.002402 0.003423 -0.002623
# 3 -0.000566 -0.005282 0.007578 -0.000554 -0.002623 0.000937
# 4 -0.001846 0.002402 -0.000554 0.025641 0.001328 -0.006437
# 5 0.001245 0.003423 -0.002623 0.001328 0.031618 -0.005189
# 6 0.002313 -0.002623 0.000937 -0.006437 -0.005189 0.030698
#
#
# Mechanical properties :
#
#
# Convention : Reuss Voigt Hill
#
# Bulk Modulus (GPa) = 60.63438 67.91021 64.27230
# Shear Modulus (GPa) = 33.55851 38.92702 36.24276
#
# Velocity S-wave (km/s) = 3.85227 4.14898 4.00338
# Velocity P-wave (km/s) = 6.82642 7.27893 7.05631
#
# Compressibility (1/GPa) = 0.01649229
#
# Stress axis : x y z
#
# Youngs Moduli (GPa) = 94.63895 55.95667 131.96211
#
# Poissons Ratio (x) = 0.21897 0.07471
# Poissons Ratio (y) = 0.37034 0.69705
# Poissons Ratio (z) = 0.05358 0.29557
#
# Static dielectric constant tensor:
#      x y z
#    x 3.730740 0.193610 -0.714820 
#    y 0.193610 3.881110 0.285220 
#    z -0.714820 0.285220 3.466110 
# 
# 
# High freq. dielectric constant tensor:
#      x y z
#    x 1.902690 0.000060 0.002460 
#    y 0.000060 1.882680 -0.001040 
#    z 0.002460 -0.001040 1.921630 
# 
# From -- ./inp_files/494385.got.cif
#   From: 2010.06.25/outbox.cif.g09.slc.cpg/sg2_248_cif.got.tgz:494385.got - 2010.06.27 13:26:56.
