data_PCOD8027097
_publ_section_title
;
Structure prediction by ZEFSAII (Michael W. Deem and Ramdas Pophale) SiO2 
 PCOD8027097
Probable space group: P -1
;
_chemical_formula_sum "Si O2"
_cell_formula_units_Z 16
_cell_length_a 18.992270
_cell_length_b 8.430669
_cell_length_c 17.894639
_cell_angle_alpha 45.056698
_cell_angle_beta 156.983061
_cell_angle_gamma 132.640781
_cell_volume 789.121914
_symmetry_space_group_name_H-M "P -1"
_symmetry_group_IT_number 2
_symmetry_cell_setting 'triclinic'
loop_
_space_group_symop_operation_xyz
x,y,z
-x,-y,-z
loop_
_atom_site_type_symbol
_atom_site_label
_atom_site_fract_x
_atom_site_fract_y
_atom_site_fract_z
Si Si1 0.178554 0.078856 0.102199
Si Si2 0.405648 0.398159 0.015795
Si Si3 0.483831 0.742348 0.087947
Si Si4 0.632142 0.463075 0.805988
Si Si5 0.282613 0.623782 0.571817
Si Si6 0.726299 0.368531 0.612862
Si Si7 0.028219 0.641024 0.905333
Si Si8 0.054728 0.148600 0.793858
O O1 0.290936 0.284243 0.183565
O O2 0.293518 0.863232 0.282360
O O3 0.134264 0.157410 0.951042
O O4 0.000000 0.000000 0.000000
O O5 0.352818 0.612127 0.941610
O O6 0.545448 0.264812 0.247840
O O7 0.500000 0.500000 0.000000
O O8 0.220314 0.240282 0.870168
O O9 0.391435 0.700614 0.091682
O O10 0.683243 0.643484 0.310535
O O11 0.500000 0.000000 0.000000
O O12 0.436143 0.486052 0.570525
O O13 0.759781 0.350388 0.910196
O O14 0.279774 0.705840 0.455809
O O15 0.103362 0.683663 0.419820
O O16 0.912076 0.520323 0.764505
O O17 0.976519 0.895597 0.779796
O O18 0.000000 0.500000 0.000000
#
# Coordination Sequence:
#
# PCOD8027097 Si02
#       8
#     2   2   2   2   2   2   2   2
#     4  12  19  39  70  93 132 171 208 268 311 388
#     4  10  24  44  67  94 127 163 216 271 328 376
#     4   9  21  44  68  94 122 159 218 272 318 378
#     4  11  23  41  66  93 126 174 219 256 328 377
#     4   9  22  42  68  97 120 168 222 252 326 395
#     4  11  22  41  65  96 132 170 221 257 310 394
#     4  12  26  40  57  97 136 173 211 264 310 372
#     4  12  22  42  65  91 138 169 209 262 330 377
#
# _framework density 20.275701000000002
#
# number of rings (size 3 to 8) (size 9 to 14) (size 15 to 20)
#    0.750    0.500    5.000    0.375    1.750    2.000 
#    2.250    0.625    0.000    0.000    0.000    0.000 
#    0.000    0.000    0.000    0.000    0.000    0.000 
#
# Total GULP energy -198260.603142 kJ/mol
# GULP energy per Si atom -12391.287696 kJ/mol
# Density = 2.022955 g / cm^3
# Si number density = 20.275701 Si / 1000 Ang^3
#
#
#
# Elastic Constant Matrix: (Units=GPa)
#
#
# Indices 1 2 3 4 5 6 
#
# 1 94.5267 26.7634 42.3069 -5.0812 17.2481 14.5778
# 2 26.7634 109.4344 37.0855 -13.4832 5.9435 17.5093
# 3 42.3069 37.0855 110.8060 -5.8405 20.2449 6.4568
# 4 -5.0812 -13.4832 -5.8405 31.8731 -5.0221 1.1615
# 5 17.2481 5.9435 20.2449 -5.0221 31.5147 5.3005
# 6 14.5778 17.5093 6.4568 1.1615 5.3005 29.8405
#
#
#
# Elastic Compliance Matrix: (Units=1/GPa)
#
#
# Indices 1 2 3 4 5 6 
#
# 1 0.014181 -0.001056 -0.004005 0.000608 -0.004096 -0.004738
# 2 -0.001056 0.012066 -0.003435 0.004915 0.002374 -0.006434
# 3 -0.004005 -0.003435 0.012579 -0.000777 -0.005752 0.002302
# 4 0.000608 0.004915 -0.000777 0.034492 0.005637 -0.005357
# 5 -0.004096 0.002374 -0.005752 0.005637 0.039009 -0.005296
# 6 -0.004738 -0.006434 0.002302 -0.005357 -0.005296 0.040253
#
#
# Mechanical properties :
#
#
# Convention : Reuss Voigt Hill
#
# Bulk Modulus (GPa) = 45.79655 58.56431 52.18043
# Shear Modulus (GPa) = 28.27256 32.55307 30.41281
#
# Velocity S-wave (km/s) = 3.73823 4.01124 3.87714
# Velocity P-wave (km/s) = 6.42405 7.09930 6.77010
#
# Compressibility (1/GPa) = 0.02183571
#
# Stress axis : x y z
#
# Youngs Moduli (GPa) = 70.51694 82.87558 79.49484
#
# Poissons Ratio (x) = 0.08748 0.31835
# Poissons Ratio (y) = 0.07444 0.27308
# Poissons Ratio (z) = 0.28240 0.28469
#
# Static dielectric constant tensor:
#      x y z
#    x 3.552800 0.082830 0.014620 
#    y 0.082830 3.663180 0.044670 
#    z 0.014620 0.044670 3.905770 
# 
# 
# High freq. dielectric constant tensor:
#      x y z
#    x 1.785690 0.000270 0.003420 
#    y 0.000270 1.776980 -0.004820 
#    z 0.003420 -0.004820 1.792480 
# 
# From -- ./inp_files/601132.got.cif
#   From: 2010.06.25/outbox.cif.g09.slc.cpg/sg2_301_cif.got.tgz:601132.got - 2010.06.27 13:26:56.
