data_PCOD8027768
_publ_section_title
;
Structure prediction by ZEFSAII (Michael W. Deem and Ramdas Pophale) SiO2 
 PCOD8027768
Probable space group: P -1
;
_chemical_formula_sum "Si O2"
_cell_formula_units_Z 16
_cell_length_a 13.425245
_cell_length_b 11.288301
_cell_length_c 8.861201
_cell_angle_alpha 65.653229
_cell_angle_beta 106.300973
_cell_angle_gamma 149.608399
_cell_volume 610.730085
_symmetry_space_group_name_H-M "P -1"
_symmetry_group_IT_number 2
_symmetry_cell_setting 'triclinic'
loop_
_space_group_symop_operation_xyz
x,y,z
-x,-y,-z
loop_
_atom_site_type_symbol
_atom_site_label
_atom_site_fract_x
_atom_site_fract_y
_atom_site_fract_z
Si Si1 0.574393 0.592297 0.179851
Si Si2 0.048811 0.719531 0.077996
Si Si3 0.881796 0.817982 0.403488
Si Si4 0.784790 0.913175 0.823341
Si Si5 0.526265 0.014886 0.679704
Si Si6 0.810934 0.486790 0.688745
Si Si7 0.335009 0.597455 0.018481
Si Si8 0.195463 0.805536 0.788215
O O1 0.707633 0.728634 0.316648
O O2 0.419524 0.304138 0.251313
O O3 0.730202 0.757425 0.020185
O O4 0.440546 0.578599 0.123721
O O5 0.891681 0.669595 0.000186
O O6 0.910638 0.445345 0.164545
O O7 0.163632 0.887040 0.192116
O O8 0.213290 0.869128 0.937809
O O9 0.756535 0.557487 0.536813
O O10 0.000000 0.000000 0.500000
O O11 0.031095 0.944495 0.265923
O O12 0.462575 0.810260 0.833314
O O13 0.413912 0.022234 0.699387
O O14 0.500000 0.000000 0.500000
O O15 0.755010 0.293919 0.675258
O O16 0.052450 0.755238 0.669255
O O17 0.699443 0.352823 0.872426
#
# Coordination Sequence:
#
# PCOD8027768 Si02
#       8
#     2   2   2   2   2   2   2   2
#     4  11  28  47  77 111 146 202 254 310 383 440
#     4   9  21  43  77 104 146 190 248 303 366 449
#     4  12  30  52  72 106 156 201 255 320 373 441
#     4  11  27  45  76 110 144 197 256 311 371 453
#     4  11  26  44  73 114 154 186 243 314 372 453
#     4  11  26  45  73 105 142 202 252 302 375 446
#     4  10  24  46  76 108 150 198 252 303 372 460
#     4   9  22  45  69 106 143 195 236 298 376 440
#
# _framework density 26.198153000000001
#
# number of rings (size 3 to 8) (size 9 to 14) (size 15 to 20)
#    0.000    1.500    0.000    2.250   15.750    4.500 
#    0.000    0.000    0.000    0.000    0.000    0.000 
#    0.000    0.000    0.000    0.000    0.000    0.000 
#
# Total GULP energy -198226.876375 kJ/mol
# GULP energy per Si atom -12389.179773 kJ/mol
# Density = 2.613853 g / cm^3
# Si number density = 26.198153 Si / 1000 Ang^3
#
#
#
# Elastic Constant Matrix: (Units=GPa)
#
#
# Indices 1 2 3 4 5 6 
#
# 1 104.2801 23.2482 34.8682 12.5026 -8.2090 0.5924
# 2 23.2482 123.2569 36.0698 23.5980 -8.4362 -21.6117
# 3 34.8682 36.0698 90.5727 17.5973 0.0482 6.5206
# 4 12.5026 23.5980 17.5973 50.4844 -1.8907 -4.6508
# 5 -8.2090 -8.4362 0.0482 -1.8907 33.5268 1.0352
# 6 0.5924 -21.6117 6.5206 -4.6508 1.0352 35.6771
#
#
#
# Elastic Compliance Matrix: (Units=1/GPa)
#
#
# Indices 1 2 3 4 5 6 
#
# 1 0.011370 -0.000631 -0.003915 -0.001066 0.002573 -0.000069
# 2 -0.000631 0.011495 -0.004287 -0.002962 0.002352 0.007303
# 3 -0.003915 -0.004287 0.015232 -0.002932 -0.002050 -0.005638
# 4 -0.001066 -0.002962 -0.002932 0.022644 0.000222 0.001705
# 5 0.002573 0.002352 -0.002050 0.000222 0.031037 0.000885
# 6 -0.000069 0.007303 -0.005638 0.001705 0.000885 0.033681
#
#
# Mechanical properties :
#
#
# Convention : Reuss Voigt Hill
#
# Bulk Modulus (GPa) = 48.94261 56.27578 52.60919
# Shear Modulus (GPa) = 33.34788 38.86589 36.10689
#
# Velocity S-wave (km/s) = 3.57166 3.85585 3.71647
# Velocity P-wave (km/s) = 5.97756 6.43046 6.20814
#
# Compressibility (1/GPa) = 0.02043210
#
# Stress axis : x y z
#
# Youngs Moduli (GPa) = 87.95011 86.99450 65.65158
#
# Poissons Ratio (x) = 0.05486 0.25705
# Poissons Ratio (y) = 0.05547 0.28142
# Poissons Ratio (z) = 0.34435 0.37290
#
# Static dielectric constant tensor:
#      x y z
#    x 5.146080 0.461240 0.109940 
#    y 0.461240 5.143270 0.276850 
#    z 0.109940 0.276850 4.664690 
# 
# 
# High freq. dielectric constant tensor:
#      x y z
#    x 2.053230 0.009690 -0.000390 
#    y 0.009690 2.065840 0.016630 
#    z -0.000390 0.016630 2.026830 
# 
# From -- ./inp_files/307127.got.cif
#   From: 2010.06.25/outbox.cif.g09.slc.cpg/sg2_154_cif.got.tgz:307127.got - 2010.06.27 13:26:56.
