data_PCOD8027567
_publ_section_title
;
Structure prediction by ZEFSAII (Michael W. Deem and Ramdas Pophale) SiO2 
 PCOD8027567
Probable space group: P -1
;
_chemical_formula_sum "Si O2"
_cell_formula_units_Z 16
_cell_length_a 14.060621
_cell_length_b 6.838825
_cell_length_c 9.268899
_cell_angle_alpha 73.218008
_cell_angle_beta 68.955278
_cell_angle_gamma 97.504814
_cell_volume 768.540496
_symmetry_space_group_name_H-M "P -1"
_symmetry_group_IT_number 2
_symmetry_cell_setting 'triclinic'
loop_
_space_group_symop_operation_xyz
x,y,z
-x,-y,-z
loop_
_atom_site_type_symbol
_atom_site_label
_atom_site_fract_x
_atom_site_fract_y
_atom_site_fract_z
Si Si1 0.544751 0.027419 0.668834
Si Si2 0.103993 0.532757 0.341144
Si Si3 0.986974 0.337368 0.914485
Si Si4 0.345551 0.188662 0.839036
Si Si5 0.452670 0.633634 0.614063
Si Si6 0.273844 0.952119 0.220415
Si Si7 0.883671 0.907574 0.519880
Si Si8 0.857525 0.907577 0.203145
O O1 0.435080 0.073070 0.770376
O O2 0.601227 0.211950 0.483685
O O3 0.613726 0.042371 0.771844
O O4 0.529025 0.796188 0.650533
O O5 0.065040 0.545348 0.199327
O O6 0.206619 0.720239 0.270133
O O7 0.152416 0.340365 0.386285
O O8 0.000000 0.500000 0.500000
O O9 0.097919 0.296051 0.812871
O O10 0.000000 0.500000 0.000000
O O11 0.911147 0.108261 0.034705
O O12 0.379663 0.444926 0.789241
O O13 0.265499 0.150782 0.755673
O O14 0.290629 0.096311 0.038043
O O15 0.500000 0.500000 0.500000
O O16 0.204778 0.020959 0.363600
O O17 0.879969 0.974695 0.342127
O O18 0.000000 0.000000 0.500000
#
# Coordination Sequence:
#
# PCOD8027567 Si02
#       8
#     2   2   2   2   2   2   2   2
#     4  10  24  45  73 101 136 181 229 276 345 415
#     4  12  24  45  65 100 138 178 228 279 335 410
#     4  11  24  42  69  94 135 179 229 276 343 399
#     4  11  25  45  69 102 144 173 231 285 339 405
#     4   9  22  43  71  99 137 170 226 284 337 402
#     4  12  27  44  70 101 138 185 227 283 344 403
#     4  12  26  43  68  97 140 179 228 282 341 404
#     4  11  25  42  66 101 135 176 228 285 333 407
#
# _framework density 20.818680000000001
#
# number of rings (size 3 to 8) (size 9 to 14) (size 15 to 20)
#    0.000    1.000    3.750    1.125   10.500    3.500 
#    0.000    0.000    0.000    0.000    0.000    0.000 
#    0.000    0.000    0.000    0.000    0.000    0.000 
#
# Total GULP energy -198261.224784 kJ/mol
# GULP energy per Si atom -12391.326549 kJ/mol
# Density = 2.077130 g / cm^3
# Si number density = 20.818680 Si / 1000 Ang^3
#
#
#
# Elastic Constant Matrix: (Units=GPa)
#
#
# Indices 1 2 3 4 5 6 
#
# 1 128.0140 26.0480 34.8408 9.1242 9.0472 17.2203
# 2 26.0480 104.4129 29.9483 -4.7213 -3.8056 19.4428
# 3 34.8408 29.9483 111.7886 -1.6371 13.2991 13.0575
# 4 9.1242 -4.7213 -1.6371 45.2034 -0.7182 -3.0644
# 5 9.0472 -3.8056 13.2991 -0.7182 35.9580 7.4078
# 6 17.2203 19.4428 13.0575 -3.0644 7.4078 32.5225
#
#
#
# Elastic Compliance Matrix: (Units=1/GPa)
#
#
# Indices 1 2 3 4 5 6 
#
# 1 0.009324 -0.001252 -0.002089 -0.002331 -0.001067 -0.003326
# 2 -0.001252 0.011964 -0.002525 0.001048 0.003823 -0.006248
# 3 -0.002089 -0.002525 0.010803 0.000434 -0.003549 -0.000873
# 4 -0.002331 0.001048 0.000434 0.022894 0.000483 0.002481
# 5 -0.001067 0.003823 -0.003549 0.000483 0.031327 -0.007386
# 6 -0.003326 -0.006248 -0.000873 0.002481 -0.007386 0.038511
#
#
# Mechanical properties :
#
#
# Convention : Reuss Voigt Hill
#
# Bulk Modulus (GPa) = 49.11592 58.43220 53.77406
# Shear Modulus (GPa) = 34.88184 39.62866 37.25525
#
# Velocity S-wave (km/s) = 4.09774 4.36766 4.23485
# Velocity P-wave (km/s) = 6.78469 7.31870 7.05675
#
# Compressibility (1/GPa) = 0.02036000
#
# Stress axis : x y z
#
# Youngs Moduli (GPa) = 107.25035 83.58454 92.56283
#
# Poissons Ratio (x) = 0.10462 0.19339
# Poissons Ratio (y) = 0.13424 0.23370
# Poissons Ratio (z) = 0.22408 0.21103
#
# Static dielectric constant tensor:
#      x y z
#    x 3.274130 0.342350 -0.041160 
#    y 0.342350 3.795330 -0.166960 
#    z -0.041160 -0.166960 4.019290 
# 
# 
# High freq. dielectric constant tensor:
#      x y z
#    x 1.810650 0.000040 0.011730 
#    y 0.000040 1.829180 -0.006180 
#    z 0.011730 -0.006180 1.827430 
# 
# From -- ./inp_files/273141.got.cif
#   From: 2010.06.25/outbox.cif.g09.slc.cpg/sg2_137_cif.got.tgz:273141.got - 2010.06.27 13:26:56.
