data_PCOD8027741
_publ_section_title
;
Structure prediction by ZEFSAII (Michael W. Deem and Ramdas Pophale) SiO2 
 PCOD8027741
Probable space group: P -1
;
_chemical_formula_sum "Si O2"
_cell_formula_units_Z 14
_cell_length_a 12.390434
_cell_length_b 5.240124
_cell_length_c 24.883977
_cell_angle_alpha 70.822766
_cell_angle_beta 152.031809
_cell_angle_gamma 92.410979
_cell_volume 592.917447
_symmetry_space_group_name_H-M "P -1"
_symmetry_group_IT_number 2
_symmetry_cell_setting 'triclinic'
loop_
_space_group_symop_operation_xyz
x,y,z
-x,-y,-z
loop_
_atom_site_type_symbol
_atom_site_label
_atom_site_fract_x
_atom_site_fract_y
_atom_site_fract_z
Si Si1 0.449643 0.725215 0.012124
Si Si2 0.189998 0.622696 0.093656
Si Si3 0.487523 0.364905 0.352274
Si Si4 0.374791 0.205423 0.484049
Si Si5 0.318773 0.578593 0.754474
Si Si6 0.004134 0.342137 0.567693
Si Si7 0.143134 0.735352 0.270878
O O1 0.643172 0.493901 0.160676
O O2 0.500000 0.500000 0.000000
O O3 0.500000 0.000000 0.000000
O O4 0.131347 0.905991 0.879215
O O5 0.381576 0.396126 0.242932
O O6 0.386738 0.590921 0.134265
O O7 0.000000 0.500000 0.000000
O O8 0.000000 0.000000 0.000000
O O9 0.213664 0.551779 0.256931
O O10 0.685395 0.497655 0.434777
O O11 0.689782 0.983587 0.487217
O O12 0.109134 0.546389 0.319685
O O13 0.589775 0.261786 0.602050
O O14 0.500000 0.000000 0.500000
O O15 0.155661 0.421057 0.673407
O O16 0.154069 0.962269 0.647247
O O17 0.000000 0.500000 0.500000
#
# Coordination Sequence:
#
# PCOD8027741 Si02
#       7
#     2   2   2   2   2   2   2
#     4  12  30  49  75 106 148 202 248 307 381 447
#     4  12  28  47  77 109 149 196 249 302 374 446
#     4  11  26  43  80 108 148 197 245 313 377 441
#     4   9  22  41  70 106 140 188 243 308 363 432
#     4  12  28  50  75 111 154 197 253 314 372 456
#     4  12  27  49  77 110 156 198 255 304 384 445
#     4  10  24  46  73 107 150 185 256 301 376 441
#
# _framework density 23.612057
#
# number of rings (size 3 to 8) (size 9 to 14) (size 15 to 20)
#    0.000    0.857    1.429    3.000   12.000    4.571 
#    0.000    0.000    0.000    0.000    0.000    0.000 
#    0.000    0.000    0.000    0.000    0.000    0.000 
#
# Total GULP energy -173573.119847 kJ/mol
# GULP energy per Si atom -12398.079989 kJ/mol
# Density = 2.355831 g / cm^3
# Si number density = 23.612057 Si / 1000 Ang^3
#
#
#
# Elastic Constant Matrix: (Units=GPa)
#
#
# Indices 1 2 3 4 5 6 
#
# 1 141.0505 48.8778 53.2728 6.3165 -18.4227 11.5961
# 2 48.8778 142.7598 42.7773 8.7959 -2.1569 3.1090
# 3 53.2728 42.7773 103.8828 8.6698 -11.3878 5.2955
# 4 6.3165 8.7959 8.6698 47.1269 -3.8673 -3.8844
# 5 -18.4227 -2.1569 -11.3878 -3.8673 46.2501 -7.0731
# 6 11.5961 3.1090 5.2955 -3.8844 -7.0731 39.9057
#
#
#
# Elastic Compliance Matrix: (Units=1/GPa)
#
#
# Indices 1 2 3 4 5 6 
#
# 1 0.009718 -0.002125 -0.003726 -0.000151 0.002579 -0.001722
# 2 -0.002125 0.008511 -0.002460 -0.000945 -0.001136 -0.000012
# 3 -0.003726 -0.002460 0.012829 -0.001312 0.001403 -0.000307
# 4 -0.000151 -0.000945 -0.001312 0.022036 0.001838 0.002762
# 5 0.002579 -0.001136 0.001403 0.001838 0.023633 0.003521
# 6 -0.001722 -0.000012 -0.000307 0.002762 0.003521 0.026494
#
#
# Mechanical properties :
#
#
# Convention : Reuss Voigt Hill
#
# Bulk Modulus (GPa) = 69.26824 75.28321 72.27572
# Shear Modulus (GPa) = 40.11094 42.84088 41.47591
#
# Velocity S-wave (km/s) = 4.12606 4.26416 4.19568
# Velocity P-wave (km/s) = 7.21795 7.49644 7.35851
#
# Compressibility (1/GPa) = 0.01443663
#
# Stress axis : x y z
#
# Youngs Moduli (GPa) = 102.89856 117.49738 77.95077
#
# Poissons Ratio (x) = 0.24971 0.29041
# Poissons Ratio (y) = 0.21869 0.19174
# Poissons Ratio (z) = 0.38335 0.28902
#
# Static dielectric constant tensor:
#      x y z
#    x 4.427240 0.431100 -0.231050 
#    y 0.431100 4.200180 -0.117620 
#    z -0.231050 -0.117620 4.466750 
# 
# 
# High freq. dielectric constant tensor:
#      x y z
#    x 1.951920 0.002920 -0.008290 
#    y 0.002920 1.945300 -0.001280 
#    z -0.008290 -0.001280 1.940430 
# 
# From -- ./inp_files/609167.got.cif
#   From: 2010.06.25/outbox.cif.g09.slc.cpg/sg2_305_cif.got.tgz:609167.got - 2010.06.27 13:26:56.
