data_PCOD8027578
_publ_section_title
;
Structure prediction by ZEFSAII (Michael W. Deem and Ramdas Pophale) SiO2 
 PCOD8027578
Probable space group: P -1
;
_chemical_formula_sum "Si O2"
_cell_formula_units_Z 12
_cell_length_a 11.990315
_cell_length_b 8.927174
_cell_length_c 9.630930
_cell_angle_alpha 40.308630
_cell_angle_beta 68.911834
_cell_angle_gamma 50.311466
_cell_volume 496.157325
_symmetry_space_group_name_H-M "P -1"
_symmetry_group_IT_number 2
_symmetry_cell_setting 'triclinic'
loop_
_space_group_symop_operation_xyz
x,y,z
-x,-y,-z
loop_
_atom_site_type_symbol
_atom_site_label
_atom_site_fract_x
_atom_site_fract_y
_atom_site_fract_z
Si Si1 0.009651 0.289036 0.033750
Si Si2 0.156796 0.967213 0.669570
Si Si3 0.262536 0.839924 0.413761
Si Si4 0.049261 0.684020 0.249272
Si Si5 0.357518 0.100118 0.580876
Si Si6 0.540860 0.822748 0.244809
O O1 0.868488 0.275145 0.118591
O O2 0.163135 0.971761 0.224763
O O3 0.000000 0.500000 0.000000
O O4 0.009075 0.395947 0.802718
O O5 0.153602 0.010452 0.474450
O O6 0.314226 0.883319 0.717334
O O7 0.035756 0.268785 0.598506
O O8 0.393726 0.874488 0.336413
O O9 0.330475 0.506581 0.622071
O O10 0.226079 0.437024 0.362866
O O11 0.000000 0.000000 0.000000
O O12 0.395394 0.071105 0.747174
O O13 0.500000 0.000000 0.500000
O O14 0.500000 0.000000 0.000000
#
# Coordination Sequence:
#
# PCOD8027578 Si02
#       6
#     2   2   2   2   2   2
#     4  11  25  44  78 107 148 189 253 308 374 437
#     4  11  24  45  72 108 145 195 247 307 368 436
#     4  11  25  48  72 113 146 194 255 308 365 458
#     4  10  24  45  73 110 146 196 249 306 375 438
#     4  12  25  48  74 106 154 193 247 309 371 452
#     4  11  27  47  75 106 155 197 245 305 386 441
#
# _framework density 24.185876
#
# number of rings (size 3 to 8) (size 9 to 14) (size 15 to 20)
#    0.000    1.000    1.667    4.000    4.667    1.333 
#    3.000    4.167    0.000    0.000    0.000    0.000 
#    0.000    0.000    0.000    0.000    0.000    0.000 
#
# Total GULP energy -148740.736701 kJ/mol
# GULP energy per Si atom -12395.061392 kJ/mol
# Density = 2.413083 g / cm^3
# Si number density = 24.185876 Si / 1000 Ang^3
#
#
#
# Elastic Constant Matrix: (Units=GPa)
#
#
# Indices 1 2 3 4 5 6 
#
# 1 166.1417 58.2499 44.5300 7.0230 10.4181 16.3539
# 2 58.2499 165.4254 70.6049 26.1299 7.5228 -5.5784
# 3 44.5300 70.6049 144.5478 12.9042 38.0272 3.9176
# 4 7.0230 26.1299 12.9042 43.3383 9.2515 9.9074
# 5 10.4181 7.5228 38.0272 9.2515 38.6453 -1.2035
# 6 16.3539 -5.5784 3.9176 9.9074 -1.2035 43.9582
#
#
#
# Elastic Compliance Matrix: (Units=1/GPa)
#
#
# Indices 1 2 3 4 5 6 
#
# 1 0.007496 -0.002651 -0.000729 0.001671 -0.001296 -0.003472
# 2 -0.002651 0.010013 -0.005041 -0.006221 0.005347 0.004254
# 3 -0.000729 -0.005041 0.012566 0.002490 -0.011858 -0.002374
# 4 0.001671 -0.006221 0.002490 0.029709 -0.009069 -0.008577
# 5 -0.001296 0.005347 -0.011858 -0.009069 0.039190 0.005334
# 6 -0.003472 0.004254 -0.002374 -0.008577 0.005334 0.026871
#
#
# Mechanical properties :
#
#
# Convention : Reuss Voigt Hill
#
# Bulk Modulus (GPa) = 75.55887 91.43162 83.49524
# Shear Modulus (GPa) = 33.99094 45.37036 39.68065
#
# Velocity S-wave (km/s) = 3.75294 4.33587 4.05489
# Velocity P-wave (km/s) = 7.07730 7.93424 7.51799
#
# Compressibility (1/GPa) = 0.01323471
#
# Stress axis : x y z
#
# Youngs Moduli (GPa) = 133.40490 99.87291 79.57679
#
# Poissons Ratio (x) = 0.26472 0.05799
# Poissons Ratio (y) = 0.35359 0.40115
# Poissons Ratio (z) = 0.09721 0.50346
#
# Static dielectric constant tensor:
#      x y z
#    x 5.409750 0.187620 1.005180 
#    y 0.187620 4.817870 0.336240 
#    z 1.005180 0.336240 5.833020 
# 
# 
# High freq. dielectric constant tensor:
#      x y z
#    x 1.969160 0.016810 0.003290 
#    y 0.016810 1.976580 0.014020 
#    z 0.003290 0.014020 1.962160 
# 
# From -- ./inp_files/241948.got.cif
#   From: 2010.06.25/outbox.cif.g09.slc.cpg/sg2_121_cif.got.tgz:241948.got - 2010.06.27 13:26:56.
