data_PCOD8027844
_publ_section_title
;
Structure prediction by ZEFSAII (Michael W. Deem and Ramdas Pophale) SiO2 
 PCOD8027844
Probable space group: P -1
;
_chemical_formula_sum "Si O2"
_cell_formula_units_Z 16
_cell_length_a 11.468533
_cell_length_b 11.604271
_cell_length_c 11.721675
_cell_angle_alpha 99.951764
_cell_angle_beta 133.540879
_cell_angle_gamma 117.567390
_cell_volume 645.498725
_symmetry_space_group_name_H-M "P -1"
_symmetry_group_IT_number 2
_symmetry_cell_setting 'triclinic'
loop_
_space_group_symop_operation_xyz
x,y,z
-x,-y,-z
loop_
_atom_site_type_symbol
_atom_site_label
_atom_site_fract_x
_atom_site_fract_y
_atom_site_fract_z
Si Si1 0.816869 0.569269 0.487110
Si Si2 0.318870 0.743050 0.566129
Si Si3 0.168711 0.391101 0.758640
Si Si4 0.521422 0.709513 0.497916
Si Si5 0.292885 0.155129 0.786726
Si Si6 0.296597 0.355628 0.210457
Si Si7 0.995619 0.083997 0.751672
Si Si8 0.600836 0.100219 0.963899
O O1 0.671941 0.355041 0.349833
O O2 0.897919 0.659537 0.430740
O O3 0.600962 0.532402 0.387919
O O4 0.067237 0.702030 0.768768
O O5 0.418799 0.757094 0.512422
O O6 0.003211 0.598729 0.312510
O O7 0.515855 0.964375 0.780288
O O8 0.032785 0.198660 0.694196
O O9 0.495580 0.607019 0.045056
O O10 0.264603 0.473407 0.245413
O O11 0.726805 0.746993 0.716500
O O12 0.681982 0.852279 0.517979
O O13 0.201873 0.100383 0.851639
O O14 0.458705 0.141540 0.852747
O O15 0.000000 0.000000 0.500000
O O16 0.063458 0.181997 0.934733
O O17 0.500000 0.000000 0.000000
#
# Coordination Sequence:
#
# PCOD8027844 Si02
#       8
#     2   2   2   2   2   2   2   2
#     4  11  23  44  72 106 145 181 244 303 362 422
#     4  11  24  47  71 102 147 189 240 301 349 433
#     4  12  24  46  72 107 148 191 233 306 374 426
#     4  10  26  46  71 104 139 196 248 293 352 425
#     4  12  28  46  73 112 148 190 238 302 376 438
#     4  10  24  47  74  99 141 192 249 296 354 430
#     4  12  27  44  72 102 150 191 240 301 360 439
#     4  12  25  40  75 111 140 189 239 297 368 429
#
# _framework density 24.787037999999999
#
# number of rings (size 3 to 8) (size 9 to 14) (size 15 to 20)
#    0.000    0.750    3.750    2.625    5.250    3.500 
#    0.000    0.625    0.000    0.000    0.000    0.000 
#    0.000    0.000    0.000    0.000    0.000    0.000 
#
# Total GULP energy -198285.816388 kJ/mol
# GULP energy per Si atom -12392.863524 kJ/mol
# Density = 2.473062 g / cm^3
# Si number density = 24.787038 Si / 1000 Ang^3
#
#
#
# Elastic Constant Matrix: (Units=GPa)
#
#
# Indices 1 2 3 4 5 6 
#
# 1 113.2924 25.6090 12.5762 14.1318 -15.4781 -4.1263
# 2 25.6090 96.0831 9.9912 8.8752 -3.5765 22.4498
# 3 12.5762 9.9912 114.9162 4.5845 -11.1349 -7.6412
# 4 14.1318 8.8752 4.5845 26.0555 -4.0682 0.2446
# 5 -15.4781 -3.5765 -11.1349 -4.0682 41.6063 13.4917
# 6 -4.1263 22.4498 -7.6412 0.2446 13.4917 32.0202
#
#
#
# Elastic Compliance Matrix: (Units=1/GPa)
#
#
# Indices 1 2 3 4 5 6 
#
# 1 0.010440 -0.002781 -0.000348 -0.004299 0.002408 0.002230
# 2 -0.002781 0.014551 -0.001332 -0.002531 0.003629 -0.012388
# 3 -0.000348 -0.001332 0.009183 -0.000792 0.001315 0.002532
# 4 -0.004299 -0.002531 -0.000792 0.042049 0.002146 -0.000194
# 5 0.002408 0.003629 0.001315 0.002146 0.030616 -0.014837
# 6 0.002230 -0.012388 0.002532 -0.000194 -0.014837 0.047060
#
#
# Mechanical properties :
#
#
# Convention : Reuss Voigt Hill
#
# Bulk Modulus (GPa) = 39.59837 46.73829 43.16833
# Shear Modulus (GPa) = 29.19915 38.34410 33.77163
#
# Velocity S-wave (km/s) = 3.43592 3.93738 3.69517
# Velocity P-wave (km/s) = 5.63479 6.29027 5.97153
#
# Compressibility (1/GPa) = 0.02525357
#
# Stress axis : x y z
#
# Youngs Moduli (GPa) = 95.78155 68.72586 108.89390
#
# Poissons Ratio (x) = 0.19112 0.03786
# Poissons Ratio (y) = 0.26636 0.14503
# Poissons Ratio (z) = 0.03330 0.09153
#
# Static dielectric constant tensor:
#      x y z
#    x 5.059080 -0.241480 -0.045950 
#    y -0.241480 4.325520 0.197740 
#    z -0.045950 0.197740 4.712340 
# 
# 
# High freq. dielectric constant tensor:
#      x y z
#    x 2.000010 -0.009010 -0.010270 
#    y -0.009010 1.974660 0.021000 
#    z -0.010270 0.021000 1.979180 
# 
# From -- ./inp_files/428462.got.cif
#   From: 2010.06.25/outbox.cif.g09.slc.cpg/sg2_215_cif.got.tgz:428462.got - 2010.06.27 13:26:56.
