data_PCOD8027897
_publ_section_title
;
Structure prediction by ZEFSAII (Michael W. Deem and Ramdas Pophale) SiO2 
 PCOD8027897
Probable space group: P -1
;
_chemical_formula_sum "Si O2"
_cell_formula_units_Z 12
_cell_length_a 9.259890
_cell_length_b 9.276677
_cell_length_c 12.198037
_cell_angle_alpha 143.836693
_cell_angle_beta 116.296437
_cell_angle_gamma 82.430193
_cell_volume 501.229042
_symmetry_space_group_name_H-M "P -1"
_symmetry_group_IT_number 2
_symmetry_cell_setting 'triclinic'
loop_
_space_group_symop_operation_xyz
x,y,z
-x,-y,-z
loop_
_atom_site_type_symbol
_atom_site_label
_atom_site_fract_x
_atom_site_fract_y
_atom_site_fract_z
Si Si1 0.000214 0.328767 0.729520
Si Si2 0.640067 0.085026 0.339449
Si Si3 0.898267 0.738869 0.048242
Si Si4 0.335042 0.568594 0.844561
Si Si5 0.178658 0.767665 0.730210
Si Si6 0.470989 0.724503 0.378553
O O1 0.994785 0.180309 0.751850
O O2 0.176514 0.379368 0.752894
O O3 0.825578 0.119451 0.478552
O O4 0.997093 0.620530 0.924546
O O5 0.688529 0.211996 0.312584
O O6 0.547554 0.240983 0.475298
O O7 0.508337 0.765023 0.093235
O O8 0.876451 0.985038 0.135086
O O9 0.707706 0.504269 0.871158
O O10 0.280263 0.768170 0.876293
O O11 0.372319 0.364178 0.650395
O O12 0.000000 0.500000 0.500000
O O13 0.500000 0.000000 0.500000
#
# Coordination Sequence:
#
# PCOD8027897 Si02
#       6
#     2   2   2   2   2   2
#     4  10  24  48  77 106 141 195 244 304 361 430
#     4  11  25  48  72 109 143 195 236 301 363 426
#     4  10  24  48  73 108 149 189 245 303 363 429
#     4  12  26  48  76 106 150 190 243 302 364 435
#     4  12  26  47  73 109 148 195 244 294 365 438
#     4  11  26  46  74 113 145 187 249 300 367 433
#
# _framework density 23.94115
#
# number of rings (size 3 to 8) (size 9 to 14) (size 15 to 20)
#    0.000    1.000    3.333    1.500    2.333    8.667 
#    3.000    0.000    0.000    0.000    0.000    0.000 
#    0.000    0.000    0.000    0.000    0.000    0.000 
#
# Total GULP energy -148819.293802 kJ/mol
# GULP energy per Si atom -12401.607817 kJ/mol
# Density = 2.388666 g / cm^3
# Si number density = 23.941150 Si / 1000 Ang^3
#
#
#
# Elastic Constant Matrix: (Units=GPa)
#
#
# Indices 1 2 3 4 5 6 
#
# 1 166.8622 11.6857 50.9327 17.8429 -17.6045 1.4536
# 2 11.6857 84.1104 36.0263 20.1604 -7.9900 -19.9637
# 3 50.9327 36.0263 127.9277 8.6323 8.3479 -10.3694
# 4 17.8429 20.1604 8.6323 41.0298 -0.7253 -8.4095
# 5 -17.6045 -7.9900 8.3479 -0.7253 43.5778 4.3447
# 6 1.4536 -19.9637 -10.3694 -8.4095 4.3447 26.9898
#
#
#
# Elastic Compliance Matrix: (Units=1/GPa)
#
#
# Indices 1 2 3 4 5 6 
#
# 1 0.007942 0.001121 -0.003746 -0.003735 0.004359 -0.002903
# 2 0.001121 0.017574 -0.004499 -0.006338 0.003568 0.008661
# 3 -0.003746 -0.004499 0.010944 0.001954 -0.004645 0.002435
# 4 -0.003735 -0.006338 0.001954 0.029891 -0.003154 0.006085
# 5 0.004359 0.003568 -0.004645 -0.003154 0.026664 -0.004655
# 6 -0.002903 0.008661 0.002435 0.006085 -0.004655 0.047195
#
#
# Mechanical properties :
#
#
# Convention : Reuss Voigt Hill
#
# Bulk Modulus (GPa) = 45.01681 64.02107 54.51894
# Shear Modulus (GPa) = 30.89080 41.00318 35.94699
#
# Velocity S-wave (km/s) = 3.59594 4.14293 3.87909
# Velocity P-wave (km/s) = 6.00708 7.04870 6.54863
#
# Compressibility (1/GPa) = 0.02221392
#
# Stress axis : x y z
#
# Youngs Moduli (GPa) = 125.90893 56.90214 91.37727
#
# Poissons Ratio (x) = -0.06379 0.34226
# Poissons Ratio (y) = -0.14115 0.41106
# Poissons Ratio (z) = 0.47160 0.25598
#
# Static dielectric constant tensor:
#      x y z
#    x 4.605540 0.068310 0.019410 
#    y 0.068310 4.122280 -0.199950 
#    z 0.019410 -0.199950 4.352890 
# 
# 
# High freq. dielectric constant tensor:
#      x y z
#    x 1.966760 0.001940 -0.001010 
#    y 0.001940 1.931970 0.001310 
#    z -0.001010 0.001310 1.962700 
# 
# From -- ./inp_files/184986.got.cif
#   From: 2010.06.25/outbox.cif.g09.slc.cpg/sg2_93_cif.got.tgz:184986.got - 2010.06.27 13:26:56.
