data_PCOD8027444
_publ_section_title
;
Structure prediction by ZEFSAII (Michael W. Deem and Ramdas Pophale) SiO2 
 PCOD8027444
Probable space group: P -1
;
_chemical_formula_sum "Si O2"
_cell_formula_units_Z 8
_cell_length_a 6.631372
_cell_length_b 9.560451
_cell_length_c 8.608021
_cell_angle_alpha 50.691356
_cell_angle_beta 81.046960
_cell_angle_gamma 52.214239
_cell_volume 308.648716
_symmetry_space_group_name_H-M "P -1"
_symmetry_group_IT_number 2
_symmetry_cell_setting 'triclinic'
loop_
_space_group_symop_operation_xyz
x,y,z
-x,-y,-z
loop_
_atom_site_type_symbol
_atom_site_label
_atom_site_fract_x
_atom_site_fract_y
_atom_site_fract_z
Si Si1 0.046340 0.220433 0.452285
Si Si2 0.515616 0.642524 0.029699
Si Si3 0.718281 0.224923 0.726074
Si Si4 0.540771 0.039344 0.669505
O O1 0.231415 0.016732 0.438668
O O2 0.773528 0.463415 0.240014
O O3 0.996177 0.102927 0.680076
O O4 0.234511 0.266447 0.478446
O O5 0.251420 0.786542 0.080484
O O6 0.500000 0.500000 0.000000
O O7 0.560397 0.810411 0.831034
O O8 0.500000 0.500000 0.500000
O O9 0.597921 0.098256 0.785825
#
# Coordination Sequence:
#
# PCOD8027444 Si02
#       4
#     2   2   2   2
#     4  10  25  45  72  97 136 175 227 273 335 399
#     4  11  26  45  68 103 136 175 225 277 333 397
#     4  10  24  45  69 100 135 176 227 272 332 400
#     4  11  24  45  73  97 134 181 220 276 338 388
#
# _framework density 25.919432
#
# number of rings (size 3 to 8) (size 9 to 14) (size 15 to 20)
#    0.000    1.500    0.000    2.250   17.500    5.000 
#    4.500    0.000    0.000    0.000    0.000    0.000 
#    0.000    0.000    0.000    0.000    0.000    0.000 
#
# Total GULP energy -99133.670748 kJ/mol
# GULP energy per Si atom -12391.708844 kJ/mol
# Density = 2.586044 g / cm^3
# Si number density = 25.919432 Si / 1000 Ang^3
#
#
#
# Elastic Constant Matrix: (Units=GPa)
#
#
# Indices 1 2 3 4 5 6 
#
# 1 108.9591 80.1458 35.1380 24.4201 -16.9746 6.1122
# 2 80.1458 163.2598 49.9586 50.6933 -27.0454 22.8696
# 3 35.1380 49.9586 114.3697 31.8248 -19.0766 2.6682
# 4 24.4201 50.6933 31.8248 45.0894 5.6068 -6.3235
# 5 -16.9746 -27.0454 -19.0766 5.6068 28.8127 -0.2919
# 6 6.1122 22.8696 2.6682 -6.3235 -0.2919 49.6854
#
#
#
# Elastic Compliance Matrix: (Units=1/GPa)
#
#
# Indices 1 2 3 4 5 6 
#
# 1 0.014819 -0.007820 -0.001940 0.002487 -0.000356 0.002195
# 2 -0.007820 0.027317 0.006788 -0.037658 0.032689 -0.016577
# 3 -0.001940 0.006788 0.015600 -0.020903 0.019562 -0.006269
# 4 0.002487 -0.037658 -0.020903 0.090101 -0.064960 0.029236
# 5 -0.000356 0.032689 0.019562 -0.064960 0.090533 -0.023789
# 6 0.002195 -0.016577 -0.006269 0.029236 -0.023789 0.031405
#
#
# Mechanical properties :
#
#
# Convention : Reuss Voigt Hill
#
# Bulk Modulus (GPa) = 19.30758 79.67482 49.49120
# Shear Modulus (GPa) = 17.06579 39.47392 28.26986
#
# Velocity S-wave (km/s) = 2.56875 3.90673 3.30613
# Velocity P-wave (km/s) = 4.03277 7.15236 5.80600
#
# Compressibility (1/GPa) = 0.05179314
#
# Stress axis : x y z
#
# Youngs Moduli (GPa) = 67.47870 36.60667 64.10171
#
# Poissons Ratio (x) = 0.28627 0.12434
# Poissons Ratio (y) = 0.52769 -0.43511
# Poissons Ratio (z) = 0.13089 -0.24848
#
# Static dielectric constant tensor:
#      x y z
#    x 5.194110 -0.616900 0.023650 
#    y -0.616900 5.072060 0.573660 
#    z 0.023650 0.573660 4.804750 
# 
# 
# High freq. dielectric constant tensor:
#      x y z
#    x 2.045930 -0.018370 0.011810 
#    y -0.018370 2.038360 0.025980 
#    z 0.011810 0.025980 2.047250 
# 
# From -- ./inp_files/15260.got.cif
#   From: 2010.06.25/outbox.cif.g09.slc.cpg/sg2_8_cif.got.tgz:15260.got - 2010.06.27 13:26:56.
