data_PCOD8027387
_publ_section_title
;
Structure prediction by ZEFSAII (Michael W. Deem and Ramdas Pophale) SiO2 
 PCOD8027387
Probable space group: P -1
;
_chemical_formula_sum "Si O2"
_cell_formula_units_Z 12
_cell_length_a 8.815215
_cell_length_b 12.031914
_cell_length_c 8.825520
_cell_angle_alpha 140.169517
_cell_angle_beta 68.680546
_cell_angle_gamma 132.183486
_cell_volume 420.845095
_symmetry_space_group_name_H-M "P -1"
_symmetry_group_IT_number 2
_symmetry_cell_setting 'triclinic'
loop_
_space_group_symop_operation_xyz
x,y,z
-x,-y,-z
loop_
_atom_site_type_symbol
_atom_site_label
_atom_site_fract_x
_atom_site_fract_y
_atom_site_fract_z
Si Si1 0.254698 0.019781 0.542570
Si Si2 0.249973 0.793546 0.870676
Si Si3 0.274888 0.721065 0.448690
Si Si4 0.329481 0.533019 0.753766
Si Si5 0.813530 0.877792 0.816909
Si Si6 0.122704 0.309615 0.888461
O O1 0.262910 0.896673 0.552999
O O2 0.094219 0.833317 0.280389
O O3 0.485482 0.190715 0.553769
O O4 0.180922 0.158944 0.774156
O O5 0.190838 0.690358 0.616038
O O6 0.201355 0.611835 0.822853
O O7 0.500000 0.000000 0.000000
O O8 0.146039 0.912581 0.070790
O O9 0.111398 0.454146 0.172354
O O10 0.581012 0.711211 0.808241
O O11 0.187484 0.275072 0.466181
O O12 0.317501 0.510038 0.915717
O O13 0.000000 0.000000 0.000000
#
# Coordination Sequence:
#
# PCOD8027387 Si02
#       6
#     2   2   2   2   2   2
#     4  10  26  45  72 105 140 185 229 288 347 412
#     4  10  25  47  70 101 145 183 225 293 350 407
#     4  11  25  46  73 102 139 186 235 282 354 412
#     4  10  25  45  72 103 140 178 232 292 344 410
#     4  10  24  45  67 100 138 184 226 278 351 414
#     4  11  25  48  74 104 140 182 237 288 346 411
#
# _framework density 28.514054000000002
#
# number of rings (size 3 to 8) (size 9 to 14) (size 15 to 20)
#    0.000    1.667    0.000    1.000   18.667    2.000 
#    3.000    0.000    0.000    0.000    0.000    0.000 
#    0.000    0.000    0.000    0.000    0.000    0.000 
#
# Total GULP energy -148889.711219 kJ/mol
# GULP energy per Si atom -12407.475935 kJ/mol
# Density = 2.844915 g / cm^3
# Si number density = 28.514054 Si / 1000 Ang^3
#
#
#
# Elastic Constant Matrix: (Units=GPa)
#
#
# Indices 1 2 3 4 5 6 
#
# 1 149.8655 20.7288 58.7400 10.8453 -22.9356 -8.0786
# 2 20.7288 98.3843 44.5852 21.4533 -9.2335 -18.3111
# 3 58.7400 44.5852 179.8394 3.1533 -26.2960 -9.1587
# 4 10.8453 21.4533 3.1533 54.9946 -2.1119 -0.7317
# 5 -22.9356 -9.2335 -26.2960 -2.1119 54.7254 7.2663
# 6 -8.0786 -18.3111 -9.1587 -0.7317 7.2663 46.9863
#
#
#
# Elastic Compliance Matrix: (Units=1/GPa)
#
#
# Indices 1 2 3 4 5 6 
#
# 1 0.008014 -0.000082 -0.002232 -0.001331 0.002147 0.000558
# 2 -0.000082 0.013484 -0.002995 -0.005011 0.000000 0.004579
# 3 -0.002232 -0.002995 0.007305 0.001267 0.002178 -0.000444
# 4 -0.001331 -0.005011 0.001267 0.020314 0.000209 -0.001651
# 5 0.002147 0.000000 0.002178 0.000209 0.020543 -0.002380
# 6 0.000558 0.004579 -0.000444 -0.001651 -0.002380 0.023419
#
#
# Mechanical properties :
#
#
# Convention : Reuss Voigt Hill
#
# Bulk Modulus (GPa) = 54.98620 75.13304 65.05962
# Shear Modulus (GPa) = 45.55489 51.61029 48.58259
#
# Velocity S-wave (km/s) = 4.00137 4.25902 4.13220
# Velocity P-wave (km/s) = 6.37760 7.11283 6.75522
#
# Compressibility (1/GPa) = 0.01818638
#
# Stress axis : x y z
#
# Youngs Moduli (GPa) = 124.78878 74.16394 136.88324
#
# Poissons Ratio (x) = 0.00605 0.30546
# Poissons Ratio (y) = 0.01018 0.40998
# Poissons Ratio (z) = 0.27847 0.22213
#
# Static dielectric constant tensor:
#      x y z
#    x 5.833530 0.167530 -0.502540 
#    y 0.167530 5.467830 0.607340 
#    z -0.502540 0.607340 5.701610 
# 
# 
# High freq. dielectric constant tensor:
#      x y z
#    x 2.181770 0.025120 -0.002440 
#    y 0.025120 2.201610 0.017960 
#    z -0.002440 0.017960 2.167310 
# 
# From -- ./inp_files/191081.got.cif
#   From: 2010.06.25/outbox.cif.g09.slc.cpg/sg2_96_cif.got.tgz:191081.got - 2010.06.27 13:26:56.
