data_PCOD8027810
_publ_section_title
;
Structure prediction by ZEFSAII (Michael W. Deem and Ramdas Pophale) SiO2 
 PCOD8027810
Probable space group: P -1
;
_chemical_formula_sum "Si O2"
_cell_formula_units_Z 16
_cell_length_a 15.594513
_cell_length_b 8.313423
_cell_length_c 12.786152
_cell_angle_alpha 99.812661
_cell_angle_beta 152.540772
_cell_angle_gamma 88.047475
_cell_volume 727.719171
_symmetry_space_group_name_H-M "P -1"
_symmetry_group_IT_number 2
_symmetry_cell_setting 'triclinic'
loop_
_space_group_symop_operation_xyz
x,y,z
-x,-y,-z
loop_
_atom_site_type_symbol
_atom_site_label
_atom_site_fract_x
_atom_site_fract_y
_atom_site_fract_z
Si Si1 0.261470 0.048249 0.857123
Si Si2 0.954125 0.906959 0.175511
Si Si3 0.936910 0.232373 0.069853
Si Si4 0.930550 0.490528 0.596208
Si Si5 0.367631 0.715159 0.406701
Si Si6 0.065297 0.271592 0.556088
Si Si7 0.669932 0.180841 0.390437
Si Si8 0.231558 0.323192 0.226644
O O1 0.212063 0.153745 0.716555
O O2 0.187546 0.137015 0.885174
O O3 0.489668 0.071533 0.116682
O O4 0.151599 0.849878 0.707461
O O5 0.172022 0.927237 0.452434
O O6 0.918433 0.074154 0.106247
O O7 0.909225 0.750427 0.029854
O O8 0.941009 0.397762 0.161711
O O9 0.134022 0.251334 0.221686
O O10 0.755290 0.194015 0.790749
O O11 0.861608 0.615129 0.454588
O O12 0.747719 0.361997 0.437962
O O13 0.062888 0.391304 0.666573
O O14 0.397120 0.799118 0.561677
O O15 0.254573 0.521153 0.272634
O O16 0.572787 0.734254 0.576762
#
# Coordination Sequence:
#
# PCOD8027810 Si02
#       8
#     2   2   2   2   2   2   2   2
#     4  11  24  46  71  95 132 172 218 279 331 387
#     4  12  24  42  64  97 135 177 214 271 328 388
#     4  12  24  41  65  95 139 175 213 269 322 388
#     4  11  23  44  71  97 130 174 220 275 329 384
#     4  11  24  39  66  99 131 176 216 260 323 402
#     4  10  24  47  70  95 130 172 222 280 332 377
#     4  12  24  42  71  98 131 176 220 262 334 397
#     4  11  23  40  64  95 135 173 217 259 325 393
#
# _framework density 21.986502999999999
#
# number of rings (size 3 to 8) (size 9 to 14) (size 15 to 20)
#    0.000    0.750    6.250    1.500    0.000    2.500 
#    0.000    1.250    0.000    0.000    0.000    0.000 
#    0.000    0.000    0.000    0.000    0.000    0.000 
#
# Total GULP energy -198453.051824 kJ/mol
# GULP energy per Si atom -12403.315739 kJ/mol
# Density = 2.193646 g / cm^3
# Si number density = 21.986503 Si / 1000 Ang^3
#
#
#
# Elastic Constant Matrix: (Units=GPa)
#
#
# Indices 1 2 3 4 5 6 
#
# 1 58.5912 8.2517 10.2496 -11.9872 -11.1805 4.9946
# 2 8.2517 96.3416 39.7078 -16.1216 -2.1940 18.5158
# 3 10.2496 39.7078 130.4596 -11.9571 7.6682 8.5583
# 4 -11.9872 -16.1216 -11.9571 32.5475 -12.6359 -12.0331
# 5 -11.1805 -2.1940 7.6682 -12.6359 32.7632 3.3722
# 6 4.9946 18.5158 8.5583 -12.0331 3.3722 31.1464
#
#
#
# Elastic Compliance Matrix: (Units=1/GPa)
#
#
# Indices 1 2 3 4 5 6 
#
# 1 0.022500 0.001381 -0.001728 0.013458 0.013387 -0.000204
# 2 0.001381 0.014039 -0.003761 0.005950 0.005183 -0.005796
# 3 -0.001728 -0.003761 0.009087 -0.000273 -0.003099 0.000246
# 4 0.013458 0.005950 -0.000273 0.052265 0.023979 0.011975
# 5 0.013387 0.005183 -0.003099 0.023979 0.045414 -0.000029
# 6 -0.000204 -0.005796 0.000246 0.011975 -0.000029 0.040147
#
#
# Mechanical properties :
#
#
# Convention : Reuss Voigt Hill
#
# Bulk Modulus (GPa) = 26.73007 44.64561 35.68784
# Shear Modulus (GPa) = 24.49331 34.43697 29.46514
#
# Velocity S-wave (km/s) = 3.34131 3.96192 3.66477
# Velocity P-wave (km/s) = 5.20285 6.42488 5.84588
#
# Compressibility (1/GPa) = 0.03741105
#
# Stress axis : x y z
#
# Youngs Moduli (GPa) = 44.44363 71.22935 110.05253
#
# Poissons Ratio (x) = -0.09838 0.19018
# Poissons Ratio (y) = -0.06139 0.41387
# Poissons Ratio (z) = 0.07680 0.26787
#
# Static dielectric constant tensor:
#      x y z
#    x 4.092070 0.064060 -0.257390 
#    y 0.064060 3.902100 0.069880 
#    z -0.257390 0.069880 3.992580 
# 
# 
# High freq. dielectric constant tensor:
#      x y z
#    x 1.874930 0.000400 -0.017780 
#    y 0.000400 1.867200 0.002770 
#    z -0.017780 0.002770 1.856650 
# 
# From -- ./inp_files/447709.got.cif
#   From: 2010.06.25/outbox.cif.g09.slc.cpg/sg2_224_cif.got.tgz:447709.got - 2010.06.27 13:26:56.
