data_PCOD8027598
_publ_section_title
;
Structure prediction by ZEFSAII (Michael W. Deem and Ramdas Pophale) SiO2 
 PCOD8027598
Probable space group: P -1
;
_chemical_formula_sum "Si O2"
_cell_formula_units_Z 12
_cell_length_a 5.812454
_cell_length_b 12.703761
_cell_length_c 15.590300
_cell_angle_alpha 28.351628
_cell_angle_beta 78.803489
_cell_angle_gamma 89.478943
_cell_volume 502.891243
_symmetry_space_group_name_H-M "P -1"
_symmetry_group_IT_number 2
_symmetry_cell_setting 'triclinic'
loop_
_space_group_symop_operation_xyz
x,y,z
-x,-y,-z
loop_
_atom_site_type_symbol
_atom_site_label
_atom_site_fract_x
_atom_site_fract_y
_atom_site_fract_z
Si Si1 0.193098 0.368758 0.610361
Si Si2 0.912181 0.648543 0.716680
Si Si3 0.588504 0.731762 0.988519
Si Si4 0.615188 0.901649 0.329267
Si Si5 0.787191 0.588852 0.234908
Si Si6 0.981595 0.126707 0.277509
O O1 0.500000 0.500000 0.500000
O O2 0.162868 0.157069 0.696594
O O3 0.108695 0.277961 0.778367
O O4 0.000000 0.500000 0.500000
O O5 0.613824 0.528434 0.828150
O O6 0.023195 0.701617 0.766811
O O7 0.994024 0.447274 0.811055
O O8 0.007464 0.886198 0.483894
O O9 0.672619 0.743620 0.073273
O O10 0.794714 0.744121 0.894514
O O11 0.500992 0.956177 0.827351
O O12 0.410845 0.666354 0.546765
O O13 0.726554 0.065211 0.286307
#
# Coordination Sequence:
#
# PCOD8027598 Si02
#       6
#     2   2   2   2   2   2
#     4  10  24  45  79 107 147 195 242 306 367 435
#     4  11  24  44  71 102 143 191 241 300 366 435
#     4  12  25  43  70 106 144 187 239 302 364 440
#     4  11  24  45  72 103 145 187 244 299 369 432
#     4  11  24  45  72 103 145 187 244 299 369 432
#     4  11  24  44  71 102 143 191 241 300 366 435
#
# _framework density 23.862020000000001
#
# number of rings (size 3 to 8) (size 9 to 14) (size 15 to 20)
#    0.000    1.000    3.333    2.500    4.667    5.333 
#    0.000    3.333    0.000    0.000    0.000    0.000 
#    0.000    0.000    0.000    0.000    0.000    0.000 
#
# Total GULP energy -148735.673881 kJ/mol
# GULP energy per Si atom -12394.639490 kJ/mol
# Density = 2.380771 g / cm^3
# Si number density = 23.862020 Si / 1000 Ang^3
#
#
#
# Elastic Constant Matrix: (Units=GPa)
#
#
# Indices 1 2 3 4 5 6 
#
# 1 87.4858 21.0229 31.5222 20.8907 19.5177 11.9058
# 2 21.0229 110.2305 28.4580 41.7021 9.2719 10.3957
# 3 31.5222 28.4580 99.9239 32.2157 11.0543 7.0824
# 4 20.8907 41.7021 32.2157 29.2124 9.5849 13.2900
# 5 19.5177 9.2719 11.0543 9.5849 46.7779 3.0201
# 6 11.9058 10.3957 7.0824 13.2900 3.0201 35.0759
#
#
#
# Elastic Compliance Matrix: (Units=1/GPa)
#
#
# Indices 1 2 3 4 5 6 
#
# 1 0.014940 0.001375 -0.001736 -0.008676 -0.004223 -0.001478
# 2 0.001375 0.024291 0.007488 -0.048806 0.002254 0.009120
# 3 -0.001736 0.007488 0.018642 -0.033737 0.001278 0.007279
# 4 -0.008676 -0.048806 -0.033737 0.168435 -0.010750 -0.038671
# 5 -0.004223 0.002254 0.001278 -0.010750 0.024434 0.002477
# 6 -0.001478 0.009120 0.007279 -0.038671 0.002477 0.039277
#
#
# Mechanical properties :
#
#
# Convention : Reuss Voigt Hill
#
# Bulk Modulus (GPa) = 13.86420 51.07182 32.46801
# Shear Modulus (GPa) = 16.67730 36.65571 26.66650
#
# Velocity S-wave (km/s) = 2.64655 3.92363 3.34657
# Velocity P-wave (km/s) = 3.89381 6.47888 5.34498
#
# Compressibility (1/GPa) = 0.07212820
#
# Stress axis : x y z
#
# Youngs Moduli (GPa) = 66.93343 41.16734 53.64098
#
# Poissons Ratio (x) = -0.05662 0.09311
# Poissons Ratio (y) = -0.09207 -0.40164
# Poissons Ratio (z) = 0.11619 -0.30824
#
# Static dielectric constant tensor:
#      x y z
#    x 4.332540 0.096300 -0.017150 
#    y 0.096300 4.966750 0.322550 
#    z -0.017150 0.322550 4.261100 
# 
# 
# High freq. dielectric constant tensor:
#      x y z
#    x 1.943570 0.007340 -0.001080 
#    y 0.007340 1.955580 0.018030 
#    z -0.001080 0.018030 1.950280 
# 
# From -- ./inp_files/94994.got.cif
#   From: 2010.06.25/outbox.cif.g09.slc.cpg/sg2_48_cif.got.tgz:94994.got - 2010.06.27 13:26:56.
