data_PCOD8027114
_publ_section_title
;
Structure prediction by ZEFSAII (Michael W. Deem and Ramdas Pophale) SiO2 
 PCOD8027114
Probable space group: P -1
;
_chemical_formula_sum "Si O2"
_cell_formula_units_Z 16
_cell_length_a 11.192045
_cell_length_b 12.014654
_cell_length_c 20.673347
_cell_angle_alpha 157.888780
_cell_angle_beta 132.387455
_cell_angle_gamma 58.077149
_cell_volume 725.538601
_symmetry_space_group_name_H-M "P -1"
_symmetry_group_IT_number 2
_symmetry_cell_setting 'triclinic'
loop_
_space_group_symop_operation_xyz
x,y,z
-x,-y,-z
loop_
_atom_site_type_symbol
_atom_site_label
_atom_site_fract_x
_atom_site_fract_y
_atom_site_fract_z
Si Si1 0.329416 0.454402 0.564920
Si Si2 0.342680 0.115073 0.910508
Si Si3 0.592838 0.312390 0.662699
Si Si4 0.948489 0.385122 0.148417
Si Si5 0.073578 0.247899 0.254849
Si Si6 0.164236 0.941259 0.448225
Si Si7 0.955559 0.734064 0.533711
Si Si8 0.405191 0.531874 0.917854
O O1 0.483539 0.325068 0.565513
O O2 0.176659 0.276792 0.463735
O O3 0.266004 0.376474 0.425357
O O4 0.397527 0.828970 0.803092
O O5 0.388319 0.384419 0.125202
O O6 0.448652 0.246681 0.955621
O O7 0.139580 0.988440 0.754547
O O8 0.777550 0.308045 0.705768
O O9 0.500000 0.000000 0.500000
O O10 0.060186 0.390128 0.256208
O O11 0.744776 0.311375 0.045884
O O12 0.016497 0.734008 0.330957
O O13 0.981189 0.129233 0.973948
O O14 0.960366 0.378496 0.333618
O O15 0.096727 0.159154 0.495852
O O16 0.327191 0.176624 0.671810
O O17 0.500000 0.500000 0.000000
#
# Coordination Sequence:
#
# PCOD8027114 Si02
#       8
#     2   2   2   2   2   2   2   2
#     4  11  25  44  73  97 141 176 227 281 344 409
#     4  11  25  44  70 101 136 180 222 283 345 397
#     4  12  25  45  65 106 137 170 226 288 342 394
#     4  11  26  45  72  97 138 183 227 278 327 409
#     4  10  24  44  68 100 131 175 237 272 328 398
#     4  12  26  44  73  96 140 180 225 278 339 405
#     4  11  23  46  71  99 137 178 227 279 339 410
#     4  12  26  44  70 101 142 180 228 276 339 405
#
# _framework density 22.052584
#
# number of rings (size 3 to 8) (size 9 to 14) (size 15 to 20)
#    0.000    0.750    3.750    3.000    8.750    3.500 
#    0.000    3.125    0.000    0.000    0.000    0.000 
#    0.000    0.000    0.000    0.000    0.000    0.000 
#
# Total GULP energy -198361.826532 kJ/mol
# GULP energy per Si atom -12397.614158 kJ/mol
# Density = 2.200239 g / cm^3
# Si number density = 22.052584 Si / 1000 Ang^3
#
#
#
# Elastic Constant Matrix: (Units=GPa)
#
#
# Indices 1 2 3 4 5 6 
#
# 1 47.7769 2.5606 16.9212 6.7384 10.8749 -1.3834
# 2 2.5606 140.3169 46.3070 -7.4211 -5.4019 -2.7171
# 3 16.9212 46.3070 111.4439 7.3473 -1.8148 3.1168
# 4 6.7384 -7.4211 7.3473 33.7882 4.9369 -1.5481
# 5 10.8749 -5.4019 -1.8148 4.9369 34.6925 8.3977
# 6 -1.3834 -2.7171 3.1168 -1.5481 8.3977 28.6929
#
#
#
# Elastic Compliance Matrix: (Units=1/GPa)
#
#
# Indices 1 2 3 4 5 6 
#
# 1 0.024748 0.000503 -0.004052 -0.002515 -0.008510 0.004036
# 2 0.000503 0.008560 -0.003839 0.002633 0.000282 0.001311
# 3 -0.004052 -0.003839 0.011494 -0.002998 0.002343 -0.002655
# 4 -0.002515 0.002633 -0.002998 0.032125 -0.004369 0.003466
# 5 -0.008510 0.000282 0.002343 -0.004369 0.034969 -0.011109
# 6 0.004036 0.001311 -0.002655 0.003466 -0.011109 0.038897
#
#
# Mechanical properties :
#
#
# Convention : Reuss Voigt Hill
#
# Bulk Modulus (GPa) = 33.30544 47.90172 40.60358
# Shear Modulus (GPa) = 28.47747 35.01799 31.74773
#
# Velocity S-wave (km/s) = 3.59743 3.98921 3.79837
# Velocity P-wave (km/s) = 5.69129 6.55646 6.13913
#
# Compressibility (1/GPa) = 0.03002512
#
# Stress axis : x y z
#
# Youngs Moduli (GPa) = 40.40808 116.82261 87.00470
#
# Poissons Ratio (x) = -0.05879 0.35257
# Poissons Ratio (y) = -0.02033 0.33401
# Poissons Ratio (z) = 0.16374 0.44847
#
# Static dielectric constant tensor:
#      x y z
#    x 4.066300 -0.073120 -0.252340 
#    y -0.073120 4.226820 0.029660 
#    z -0.252340 0.029660 4.300220 
# 
# 
# High freq. dielectric constant tensor:
#      x y z
#    x 1.858800 -0.002220 -0.010200 
#    y -0.002220 1.887480 0.002430 
#    z -0.010200 0.002430 1.871600 
# 
# From -- ./inp_files/378018.got.cif
#   From: 2010.06.25/outbox.cif.g09.slc.cpg/sg2_190_cif.got.tgz:378018.got - 2010.06.27 13:26:56.
