data_PCOD8027907
_publ_section_title
;
Structure prediction by ZEFSAII (Michael W. Deem and Ramdas Pophale) SiO2 
 PCOD8027907
Probable space group: P -1
;
_chemical_formula_sum "Si O2"
_cell_formula_units_Z 16
_cell_length_a 14.434901
_cell_length_b 12.071313
_cell_length_c 9.052440
_cell_angle_alpha 59.265020
_cell_angle_beta 110.962392
_cell_angle_gamma 59.404688
_cell_volume 641.996005
_symmetry_space_group_name_H-M "P -1"
_symmetry_group_IT_number 2
_symmetry_cell_setting 'triclinic'
loop_
_space_group_symop_operation_xyz
x,y,z
-x,-y,-z
loop_
_atom_site_type_symbol
_atom_site_label
_atom_site_fract_x
_atom_site_fract_y
_atom_site_fract_z
Si Si1 0.757355 0.358635 0.422553
Si Si2 0.574298 0.397605 0.780053
Si Si3 0.838919 0.922828 0.421864
Si Si4 0.993260 0.513846 0.314458
Si Si5 0.498503 0.820766 0.766219
Si Si6 0.231042 0.481364 0.392958
Si Si7 0.557975 0.046998 0.679643
Si Si8 0.927446 0.170088 0.169475
O O1 0.613684 0.401520 0.356534
O O2 0.791272 0.409609 0.548753
O O3 0.674694 0.537710 0.121489
O O4 0.961169 0.072987 0.679885
O O5 0.500000 0.500000 0.500000
O O6 0.703632 0.373002 0.926494
O O7 0.702343 0.123704 0.070438
O O8 0.989933 0.646666 0.637781
O O9 0.962931 0.906644 0.566390
O O10 0.707743 0.011301 0.418605
O O11 0.000000 0.500000 0.500000
O O12 0.173403 0.398102 0.441989
O O13 0.788676 0.809886 0.955992
O O14 0.508193 0.953829 0.744700
O O15 0.533829 0.791273 0.631515
O O16 0.456362 0.235154 0.631033
O O17 0.080511 0.700941 0.034250
#
# Coordination Sequence:
#
# PCOD8027907 Si02
#       8
#     2   2   2   2   2   2   2   2
#     4  11  27  50  75 112 155 205 258 316 382 465
#     4  11  26  49  75 110 154 205 258 309 378 458
#     4  11  27  50  76 117 159 197 262 324 381 465
#     4  12  29  47  79 113 154 204 255 318 395 460
#     4  10  24  48  76 107 159 196 255 317 389 451
#     4  12  27  48  79 114 156 197 262 319 380 466
#     4  11  26  45  76 111 149 201 250 319 385 450
#     4  12  28  47  80 112 154 205 257 319 387 451
#
# _framework density 24.922273000000001
#
# number of rings (size 3 to 8) (size 9 to 14) (size 15 to 20)
#    0.000    0.750    2.500    2.250   10.500    7.000 
#    0.000    0.000    0.000    0.000    0.000    0.000 
#    0.000    0.000    0.000    0.000    0.000    0.000 
#
# Total GULP energy -198428.157479 kJ/mol
# GULP energy per Si atom -12401.759842 kJ/mol
# Density = 2.486555 g / cm^3
# Si number density = 24.922273 Si / 1000 Ang^3
#
#
#
# Elastic Constant Matrix: (Units=GPa)
#
#
# Indices 1 2 3 4 5 6 
#
# 1 129.4027 27.8039 32.8842 6.4983 3.6933 -0.0370
# 2 27.8039 120.0397 25.3739 -13.4469 9.6093 14.4415
# 3 32.8842 25.3739 111.3431 2.2187 -5.9889 -0.1634
# 4 6.4983 -13.4469 2.2187 35.2376 2.0950 4.0958
# 5 3.6933 9.6093 -5.9889 2.0950 46.3163 3.6305
# 6 -0.0370 14.4415 -0.1634 4.0958 3.6305 27.8730
#
#
#
# Elastic Compliance Matrix: (Units=1/GPa)
#
#
# Indices 1 2 3 4 5 6 
#
# 1 0.008836 -0.001992 -0.002137 -0.002390 -0.000574 0.001457
# 2 -0.001992 0.010746 -0.002091 0.005435 -0.002108 -0.006107
# 3 -0.002137 -0.002091 0.010218 -0.001286 0.001899 0.001082
# 4 -0.002390 0.005435 -0.001286 0.031936 -0.001979 -0.007262
# 5 -0.000574 -0.002108 0.001899 -0.001979 0.022530 -0.001541
# 6 0.001457 -0.006107 0.001082 -0.007262 -0.001541 0.040317
#
#
# Mechanical properties :
#
#
# Convention : Reuss Voigt Hill
#
# Bulk Modulus (GPa) = 57.60305 59.21216 58.40761
# Shear Modulus (GPa) = 35.01153 40.20030 37.60591
#
# Velocity S-wave (km/s) = 3.75217 4.02061 3.88871
# Velocity P-wave (km/s) = 6.47572 6.73528 6.60678
#
# Compressibility (1/GPa) = 0.01736019
#
# Stress axis : x y z
#
# Youngs Moduli (GPa) = 113.17813 93.05490 97.86435
#
# Poissons Ratio (x) = 0.18537 0.20910
# Poissons Ratio (y) = 0.22546 0.20466
# Poissons Ratio (z) = 0.24182 0.19461
#
# Static dielectric constant tensor:
#      x y z
#    x 4.711670 0.132430 -0.631600 
#    y 0.132430 4.501790 -0.463970 
#    z -0.631600 -0.463970 4.823730 
# 
# 
# High freq. dielectric constant tensor:
#      x y z
#    x 2.014630 -0.007980 -0.011080 
#    y -0.007980 1.982910 -0.004590 
#    z -0.011080 -0.004590 2.002060 
# 
# From -- ./inp_files/306778.got.cif
#   From: 2010.06.25/outbox.cif.g09.slc.cpg/sg2_154_cif.got.tgz:306778.got - 2010.06.27 13:26:56.
