data_PCOD8027944
_publ_section_title
;
Structure prediction by ZEFSAII (Michael W. Deem and Ramdas Pophale) SiO2 
 PCOD8027944
Probable space group: P -1
;
_chemical_formula_sum "Si O2"
_cell_formula_units_Z 16
_cell_length_a 8.916686
_cell_length_b 14.028923
_cell_length_c 5.537336
_cell_angle_alpha 86.448022
_cell_angle_beta 101.368399
_cell_angle_gamma 70.830556
_cell_volume 635.399059
_symmetry_space_group_name_H-M "P -1"
_symmetry_group_IT_number 2
_symmetry_cell_setting 'triclinic'
loop_
_space_group_symop_operation_xyz
x,y,z
-x,-y,-z
loop_
_atom_site_type_symbol
_atom_site_label
_atom_site_fract_x
_atom_site_fract_y
_atom_site_fract_z
Si Si1 0.760644 0.589748 0.568548
Si Si2 0.651682 0.454315 0.886937
Si Si3 0.343487 0.856363 0.785486
Si Si4 0.432637 0.720494 0.272307
Si Si5 0.889457 0.190312 0.583896
Si Si6 0.610415 0.886722 0.597101
Si Si7 0.908283 0.387551 0.345933
Si Si8 0.756711 0.913600 0.149335
O O1 0.702332 0.545792 0.790704
O O2 0.617719 0.693813 0.430333
O O3 0.815861 0.501076 0.399610
O O4 0.910094 0.625956 0.680005
O O5 0.597309 0.387474 0.685449
O O6 0.500000 0.500000 0.000000
O O7 0.807317 0.374624 0.084918
O O8 0.160122 0.856544 0.669845
O O9 0.475709 0.831736 0.605279
O O10 0.333054 0.963942 0.885464
O O11 0.434977 0.760421 0.997460
O O12 0.274857 0.802993 0.328558
O O13 0.914226 0.298829 0.549114
O O14 0.048317 0.111879 0.773037
O O15 0.713986 0.856578 0.382517
O O16 0.500000 0.000000 0.500000
O O17 0.716191 0.874533 0.882200
#
# Coordination Sequence:
#
# PCOD8027944 Si02
#       8
#     2   2   2   2   2   2   2   2
#     4  11  25  44  69  94 139 182 229 295 358 430
#     4  12  22  44  69 100 138 184 230 299 365 432
#     4  11  26  45  72 104 144 191 242 296 370 433
#     4  12  26  42  70 103 138 183 243 295 365 442
#     4  12  27  44  69 104 144 188 244 304 361 445
#     4  10  24  49  77 105 142 197 248 301 366 438
#     4  11  24  45  66  99 135 180 237 287 360 424
#     4  11  27  49  76 107 152 195 244 307 366 435
#
# _framework density 25.181025000000002
#
# number of rings (size 3 to 8) (size 9 to 14) (size 15 to 20)
#    0.000    0.750    3.750    3.375    8.750    0.500 
#    0.000    0.000    0.000    0.000    0.000    0.000 
#    0.000    0.000    0.000    0.000    0.000    0.000 
#
# Total GULP energy -198228.140458 kJ/mol
# GULP energy per Si atom -12389.258779 kJ/mol
# Density = 2.512371 g / cm^3
# Si number density = 25.181025 Si / 1000 Ang^3
#
#
#
# Elastic Constant Matrix: (Units=GPa)
#
#
# Indices 1 2 3 4 5 6 
#
# 1 189.0267 29.1474 66.1014 -8.2573 10.9432 -4.9884
# 2 29.1474 56.2795 9.6880 -9.9527 -1.3969 -1.6380
# 3 66.1014 9.6880 122.9000 -15.7726 4.4376 -7.1588
# 4 -8.2573 -9.9527 -15.7726 34.0107 0.7008 0.8747
# 5 10.9432 -1.3969 4.4376 0.7008 47.7980 -8.0667
# 6 -4.9884 -1.6380 -7.1588 0.8747 -8.0667 39.9083
#
#
#
# Elastic Compliance Matrix: (Units=1/GPa)
#
#
# Indices 1 2 3 4 5 6 
#
# 1 0.007100 -0.003246 -0.003635 -0.000879 -0.001397 -0.000161
# 2 -0.003246 0.020332 0.000845 0.005508 0.001300 0.000722
# 3 -0.003635 0.000845 0.010653 0.004268 0.000043 0.001406
# 4 -0.000879 0.005508 0.004268 0.032789 -0.000504 0.000061
# 5 -0.001397 0.001300 0.000043 -0.000504 0.022016 0.004348
# 6 -0.000161 0.000722 0.001406 0.000061 0.004348 0.026197
#
#
# Mechanical properties :
#
#
# Convention : Reuss Voigt Hill
#
# Bulk Modulus (GPa) = 38.44121 64.23108 51.33615
# Shear Modulus (GPa) = 35.75786 41.89469 38.82628
#
# Velocity S-wave (km/s) = 3.77242 4.08332 3.93095
# Velocity P-wave (km/s) = 5.85440 6.91335 6.40580
#
# Compressibility (1/GPa) = 0.02601375
#
# Stress axis : x y z
#
# Youngs Moduli (GPa) = 140.84392 49.18455 93.86977
#
# Poissons Ratio (x) = 0.15967 0.34117
# Poissons Ratio (y) = 0.45722 -0.07935
# Poissons Ratio (z) = 0.51190 -0.04158
#
# Static dielectric constant tensor:
#      x y z
#    x 5.125140 0.033840 -0.122530 
#    y 0.033840 0.320000 -1.388440 
#    z -0.122530 -1.388440 4.174620 
# 
# 
# High freq. dielectric constant tensor:
#      x y z
#    x 2.029100 0.007480 0.008740 
#    y 0.007480 2.002120 -0.005230 
#    z 0.008740 -0.005230 1.994440 
# 
# From -- ./inp_files/38090.got.cif
#   From: 2010.06.25/outbox.cif.g09.slc.cpg/sg2_20_cif.got.tgz:38090.got - 2010.06.27 13:26:56.
