data_PCOD8027850
_publ_section_title
;
Structure prediction by ZEFSAII (Michael W. Deem and Ramdas Pophale) SiO2 
 PCOD8027850
Probable space group: P -1
;
_chemical_formula_sum "Si O2"
_cell_formula_units_Z 14
_cell_length_a 16.085196
_cell_length_b 5.518888
_cell_length_c 15.286116
_cell_angle_alpha 102.557180
_cell_angle_beta 154.812865
_cell_angle_gamma 86.168863
_cell_volume 535.404212
_symmetry_space_group_name_H-M "P -1"
_symmetry_group_IT_number 2
_symmetry_cell_setting 'triclinic'
loop_
_space_group_symop_operation_xyz
x,y,z
-x,-y,-z
loop_
_atom_site_type_symbol
_atom_site_label
_atom_site_fract_x
_atom_site_fract_y
_atom_site_fract_z
Si Si1 0.629997 0.956142 0.911661
Si Si2 0.626269 0.485539 0.483791
Si Si3 0.059624 0.699327 0.900718
Si Si4 0.326177 0.020214 0.759652
Si Si5 0.329759 0.727584 0.312891
Si Si6 0.926091 0.697044 0.248727
Si Si7 0.226628 0.547421 0.752269
O O1 0.449105 0.700995 0.685404
O O2 0.510917 0.105243 0.871317
O O3 0.790737 0.886800 0.122444
O O4 0.749675 0.102131 0.952176
O O5 0.426680 0.546137 0.333127
O O6 0.724507 0.363331 0.646935
O O7 0.830749 0.733558 0.672527
O O8 0.023681 0.406578 0.804953
O O9 0.122406 0.727667 0.065163
O O10 0.365861 0.821271 0.859912
O O11 0.120675 0.860562 0.502170
O O12 0.309411 0.300493 0.795169
O O13 0.500000 0.000000 0.500000
O O14 0.797690 0.440940 0.163698
O O15 0.000000 0.500000 0.500000
#
# Coordination Sequence:
#
# PCOD8027850 Si02
#       7
#     2   2   2   2   2   2   2
#     4  12  27  43  72 111 140 195 246 307 367 447
#     4  11  25  48  69 104 146 182 240 304 367 443
#     4  12  26  44  73 103 144 192 238 300 372 439
#     4  11  26  48  76 105 154 198 249 315 371 440
#     4  11  24  47  73 102 142 185 241 296 368 451
#     4  11  25  44  72 104 147 190 248 301 377 438
#     4  10  24  47  75 107 148 201 250 310 374 443
#
# _framework density 26.148471000000001
#
# number of rings (size 3 to 8) (size 9 to 14) (size 15 to 20)
#    0.000    0.857    4.286    2.143    8.000    4.000 
#    0.000    0.000    0.000    0.000    0.000    0.000 
#    0.000    0.000    0.000    0.000    0.000    0.000 
#
# Total GULP energy -173505.310400 kJ/mol
# GULP energy per Si atom -12393.236457 kJ/mol
# Density = 2.608896 g / cm^3
# Si number density = 26.148471 Si / 1000 Ang^3
#
#
#
# Elastic Constant Matrix: (Units=GPa)
#
#
# Indices 1 2 3 4 5 6 
#
# 1 88.1277 9.3892 23.5254 -7.3728 -4.6343 4.8896
# 2 9.3892 95.8900 27.7961 -6.7440 -0.7006 11.6889
# 3 23.5254 27.7961 111.6025 8.8515 -1.9782 11.6052
# 4 -7.3728 -6.7440 8.8515 47.2820 1.6185 4.7082
# 5 -4.6343 -0.7006 -1.9782 1.6185 50.0328 2.6801
# 6 4.8896 11.6889 11.6052 4.7082 2.6801 36.2532
#
#
#
# Elastic Compliance Matrix: (Units=1/GPa)
#
#
# Indices 1 2 3 4 5 6 
#
# 1 0.012393 -0.000121 -0.002638 0.002492 0.001025 -0.001187
# 2 -0.000121 0.011818 -0.002777 0.002505 0.000137 -0.003240
# 3 -0.002638 -0.002777 0.010612 -0.002623 0.000319 -0.001829
# 4 0.002492 0.002505 -0.002623 0.022721 -0.000400 -0.003225
# 5 0.001025 0.000137 0.000319 -0.000400 0.020202 -0.001726
# 6 -0.001187 -0.003240 -0.001829 -0.003225 -0.001726 0.029921
#
#
# Mechanical properties :
#
#
# Convention : Reuss Voigt Hill
#
# Bulk Modulus (GPa) = 42.10636 46.33795 44.22216
# Shear Modulus (GPa) = 39.47725 42.37424 40.92574
#
# Velocity S-wave (km/s) = 3.88975 4.02994 3.96046
# Velocity P-wave (km/s) = 6.02588 6.27801 6.15324
#
# Compressibility (1/GPa) = 0.02374938
#
# Stress axis : x y z
#
# Youngs Moduli (GPa) = 80.69344 84.61934 94.23287
#
# Poissons Ratio (x) = 0.01026 0.24860
# Poissons Ratio (y) = 0.00978 0.26169
# Poissons Ratio (z) = 0.21288 0.23499
#
# Static dielectric constant tensor:
#      x y z
#    x 4.141610 1.026860 -0.294620 
#    y 1.026860 4.417780 0.456170 
#    z -0.294620 0.456170 5.017690 
# 
# 
# High freq. dielectric constant tensor:
#      x y z
#    x 2.063280 0.002780 -0.000090 
#    y 0.002780 2.028100 0.015440 
#    z -0.000090 0.015440 2.100400 
# 
# From -- ./inp_files/137446.got.cif
#   From: 2010.06.25/outbox.cif.g09.slc.cpg/sg2_69_cif.got.tgz:137446.got - 2010.06.27 13:26:56.
