data_PCOD8027271
_publ_section_title
;
Structure prediction by ZEFSAII (Michael W. Deem and Ramdas Pophale) SiO2 
 PCOD8027271
Probable space group: P -1
;
_chemical_formula_sum "Si O2"
_cell_formula_units_Z 14
_cell_length_a 15.505375
_cell_length_b 14.198024
_cell_length_c 23.866767
_cell_angle_alpha 20.434426
_cell_angle_beta 161.721552
_cell_angle_gamma 150.773255
_cell_volume 568.281055
_symmetry_space_group_name_H-M "P -1"
_symmetry_group_IT_number 2
_symmetry_cell_setting 'triclinic'
loop_
_space_group_symop_operation_xyz
x,y,z
-x,-y,-z
loop_
_atom_site_type_symbol
_atom_site_label
_atom_site_fract_x
_atom_site_fract_y
_atom_site_fract_z
Si Si1 0.934795 0.721702 0.025492
Si Si2 0.766659 0.644148 0.086929
Si Si3 0.303244 0.628592 0.014382
Si Si4 0.509692 0.823981 0.332445
Si Si5 0.718052 0.638603 0.682865
Si Si6 0.598352 0.176443 0.510412
Si Si7 0.308500 0.228056 0.646514
O O1 0.894541 0.013729 0.804610
O O2 0.830829 0.775572 0.994077
O O3 0.761220 0.504864 0.010811
O O4 0.275369 0.613454 0.295670
O O5 0.039014 0.427673 0.392710
O O6 0.500000 0.500000 0.000000
O O7 0.701829 0.887371 0.956261
O O8 0.051461 0.577163 0.929152
O O9 0.337385 0.941313 0.855799
O O10 0.580436 0.477465 0.302938
O O11 0.668032 0.798331 0.503614
O O12 0.717493 0.822521 0.408407
O O13 0.597897 0.829944 0.552802
O O14 0.583555 0.360332 0.755267
O O15 0.500000 0.000000 0.500000
#
# Coordination Sequence:
#
# PCOD8027271 Si02
#       7
#     2   2   2   2   2   2   2
#     4  11  21  44  70  98 138 186 231 283 350 412
#     4  12  24  39  66 105 143 178 228 285 352 414
#     4  11  25  44  68  99 143 184 231 281 340 417
#     4  12  23  44  71 107 141 181 227 292 356 411
#     4  12  22  45  73  97 140 183 228 290 348 410
#     4  10  24  44  71  97 132 191 240 276 339 414
#     4  12  26  43  70 112 141 177 230 288 357 412
#
# _framework density 24.635698000000001
#
# number of rings (size 3 to 8) (size 9 to 14) (size 15 to 20)
#    0.000    0.571    4.286    4.714    0.000    2.286 
#    0.000    0.714    0.000    0.000    0.000    0.000 
#    0.000    0.000    0.000    0.000    0.000    0.000 
#
# Total GULP energy -173516.615093 kJ/mol
# GULP energy per Si atom -12394.043935 kJ/mol
# Density = 2.457963 g / cm^3
# Si number density = 24.635698 Si / 1000 Ang^3
#
#
#
# Elastic Constant Matrix: (Units=GPa)
#
#
# Indices 1 2 3 4 5 6 
#
# 1 89.3915 11.9722 14.0786 -10.8433 15.9112 -9.7431
# 2 11.9722 82.6540 32.7569 -8.4126 -7.2655 18.2057
# 3 14.0786 32.7569 131.1541 -25.6181 -18.0805 12.3464
# 4 -10.8433 -8.4126 -25.6181 42.3406 1.2113 3.4146
# 5 15.9112 -7.2655 -18.0805 1.2113 43.8446 -8.2902
# 6 -9.7431 18.2057 12.3464 3.4146 -8.2902 33.1044
#
#
#
# Elastic Compliance Matrix: (Units=1/GPa)
#
#
# Indices 1 2 3 4 5 6 
#
# 1 0.013397 -0.002574 -0.001585 0.001746 -0.005143 0.004481
# 2 -0.002574 0.015490 -0.002364 0.001635 0.000905 -0.008337
# 3 -0.001585 -0.002364 0.010200 0.005397 0.003751 -0.002588
# 4 0.001746 0.001635 0.005397 0.028078 0.000090 -0.005272
# 5 -0.005143 0.000905 0.003751 0.000090 0.027000 0.003342
# 6 0.004481 -0.008337 -0.002588 -0.005272 0.003342 0.038457
#
#
# Mechanical properties :
#
#
# Convention : Reuss Voigt Hill
#
# Bulk Modulus (GPa) = 38.39884 46.75722 42.57803
# Shear Modulus (GPa) = 32.39413 40.15072 36.27243
#
# Velocity S-wave (km/s) = 3.63013 4.04143 3.84129
# Velocity P-wave (km/s) = 5.76116 6.38735 6.08232
#
# Compressibility (1/GPa) = 0.02604245
#
# Stress axis : x y z
#
# Youngs Moduli (GPa) = 74.64519 64.55585 98.03764
#
# Poissons Ratio (x) = 0.16615 0.15539
# Poissons Ratio (y) = 0.19212 0.23173
# Poissons Ratio (z) = 0.11831 0.15259
#
# Static dielectric constant tensor:
#      x y z
#    x 4.771410 -0.318500 0.000170 
#    y -0.318500 4.379000 0.010800 
#    z 0.000170 0.010800 5.771180 
# 
# 
# High freq. dielectric constant tensor:
#      x y z
#    x 1.981630 -0.020990 0.010980 
#    y -0.020990 1.954450 -0.012820 
#    z 0.010980 -0.012820 2.010720 
# 
# From -- ./inp_files/424927.got.cif
#   From: 2010.06.25/outbox.cif.g09.slc.cpg/sg2_213_cif.got.tgz:424927.got - 2010.06.27 13:26:56.
