data_PCOD8027804
_publ_section_title
;
Structure prediction by ZEFSAII (Michael W. Deem and Ramdas Pophale) SiO2 
 PCOD8027804
Probable space group: P -1
;
_chemical_formula_sum "Si O2"
_cell_formula_units_Z 12
_cell_length_a 6.590597
_cell_length_b 8.393514
_cell_length_c 11.998421
_cell_angle_alpha 112.425074
_cell_angle_beta 80.881454
_cell_angle_gamma 123.047856
_cell_volume 513.225691
_symmetry_space_group_name_H-M "P -1"
_symmetry_group_IT_number 2
_symmetry_cell_setting 'triclinic'
loop_
_space_group_symop_operation_xyz
x,y,z
-x,-y,-z
loop_
_atom_site_type_symbol
_atom_site_label
_atom_site_fract_x
_atom_site_fract_y
_atom_site_fract_z
Si Si1 0.865199 0.197304 0.835560
Si Si2 0.304575 0.545756 0.993302
Si Si3 0.852212 0.885999 0.373416
Si Si4 0.560467 0.162832 0.132212
Si Si5 0.380343 0.589674 0.456162
Si Si6 0.131041 0.764037 0.668466
O O1 0.049163 0.327704 0.955715
O O2 0.016469 0.225704 0.717975
O O3 0.693257 0.952238 0.806006
O O4 0.701712 0.299948 0.874129
O O5 0.372874 0.632246 0.883055
O O6 0.500000 0.500000 0.000000
O O7 0.574393 0.724590 0.381863
O O8 0.849846 0.032754 0.320543
O O9 0.000000 0.000000 0.500000
O O10 0.786002 0.209599 0.203364
O O11 0.500000 0.000000 0.000000
O O12 0.500000 0.500000 0.500000
O O13 0.311463 0.725233 0.570702
O O14 0.145899 0.418196 0.365735
#
# Coordination Sequence:
#
# PCOD8027804 Si02
#       6
#     2   2   2   2   2   2
#     4  10  25  45  69 106 144 179 244 290 358 422
#     4  10  24  49  71 103 138 192 240 295 355 416
#     4  12  25  45  73 105 146 185 232 298 360 427
#     4  10  24  47  70 101 142 184 241 291 350 424
#     4  11  25  48  72 106 142 189 243 290 362 426
#     4  11  26  46  72 104 144 193 238 294 356 424
#
# _framework density 23.381526999999998
#
# number of rings (size 3 to 8) (size 9 to 14) (size 15 to 20)
#    0.000    1.333    1.667    1.500    7.000    2.000 
#   12.000    0.000    0.000    0.000    0.000    0.000 
#    0.000    0.000    0.000    0.000    0.000    0.000 
#
# Total GULP energy -148738.450490 kJ/mol
# GULP energy per Si atom -12394.870874 kJ/mol
# Density = 2.332831 g / cm^3
# Si number density = 23.381527 Si / 1000 Ang^3
#
#
#
# Elastic Constant Matrix: (Units=GPa)
#
#
# Indices 1 2 3 4 5 6 
#
# 1 167.7578 72.8418 72.6400 -7.2512 -0.9971 -2.0358
# 2 72.8418 119.1251 43.6661 -7.1943 8.4695 11.1493
# 3 72.6400 43.6661 135.7418 1.4723 1.0336 0.6560
# 4 -7.2512 -7.1943 1.4723 28.2061 -1.8178 1.6187
# 5 -0.9971 8.4695 1.0336 -1.8178 57.0110 -5.1584
# 6 -2.0358 11.1493 0.6560 1.6187 -5.1584 48.6718
#
#
#
# Elastic Compliance Matrix: (Units=1/GPa)
#
#
# Indices 1 2 3 4 5 6 
#
# 1 0.009704 -0.004717 -0.003708 0.001466 0.001130 0.001607
# 2 -0.004717 0.012399 -0.001455 0.002079 -0.002132 -0.003313
# 3 -0.003708 -0.001455 0.009839 -0.001849 -0.000077 0.000099
# 4 0.001466 0.002079 -0.001849 0.036595 0.000779 -0.001524
# 5 0.001130 -0.002132 -0.000077 0.000779 0.018123 0.002431
# 6 0.001607 -0.003313 0.000099 -0.001524 0.002431 0.021679
#
#
# Mechanical properties :
#
#
# Convention : Reuss Voigt Hill
#
# Bulk Modulus (GPa) = 82.07851 88.99118 85.53484
# Shear Modulus (GPa) = 37.83293 42.34289 40.08791
#
# Velocity S-wave (km/s) = 4.02689 4.26015 4.14516
# Velocity P-wave (km/s) = 7.53666 7.89567 7.71825
#
# Compressibility (1/GPa) = 0.01218346
#
# Stress axis : x y z
#
# Youngs Moduli (GPa) = 103.04738 80.65009 101.63306
#
# Poissons Ratio (x) = 0.38042 0.37685
# Poissons Ratio (y) = 0.48607 0.14785
# Poissons Ratio (z) = 0.38210 0.11733
#
# Static dielectric constant tensor:
#      x y z
#    x 3.798420 -0.005040 -0.059080 
#    y -0.005040 5.116840 -0.240240 
#    z -0.059080 -0.240240 4.289160 
# 
# 
# High freq. dielectric constant tensor:
#      x y z
#    x 1.929470 0.019720 -0.005510 
#    y 0.019720 1.937840 0.008770 
#    z -0.005510 0.008770 1.922710 
# 
# From -- ./inp_files/28811.got.cif
#   From: 2010.06.25/outbox.cif.g09.slc.cpg/sg2_15_cif.got.tgz:28811.got - 2010.06.27 13:26:56.
