data_PCOD8027819
_publ_section_title
;
Structure prediction by ZEFSAII (Michael W. Deem and Ramdas Pophale) SiO2 
 PCOD8027819
Probable space group: P -1
;
_chemical_formula_sum "Si O2"
_cell_formula_units_Z 14
_cell_length_a 8.041225
_cell_length_b 11.353358
_cell_length_c 8.848463
_cell_angle_alpha 40.265270
_cell_angle_beta 98.485795
_cell_angle_gamma 93.708988
_cell_volume 514.947581
_symmetry_space_group_name_H-M "P -1"
_symmetry_group_IT_number 2
_symmetry_cell_setting 'triclinic'
loop_
_space_group_symop_operation_xyz
x,y,z
-x,-y,-z
loop_
_atom_site_type_symbol
_atom_site_label
_atom_site_fract_x
_atom_site_fract_y
_atom_site_fract_z
Si Si1 0.671183 0.292311 0.927368
Si Si2 0.749470 0.129494 0.651806
Si Si3 0.726409 0.966596 0.483519
Si Si4 0.917331 0.750297 0.487651
Si Si5 0.994334 0.616451 0.233623
Si Si6 0.473729 0.375113 0.260547
Si Si7 0.677568 0.808329 0.131577
O O1 0.843164 0.260309 0.882333
O O2 0.661028 0.504747 0.772910
O O3 0.502569 0.273482 0.825051
O O4 0.671419 0.151206 0.204056
O O5 0.648548 0.327563 0.420361
O O6 0.942196 0.164265 0.683636
O O7 0.762184 0.011665 0.615063
O O8 0.660358 0.024964 0.878652
O O9 0.892065 0.859600 0.534662
O O10 0.580854 0.824913 0.597298
O O11 0.983782 0.539734 0.741244
O O12 0.742602 0.773522 0.345198
O O13 0.000000 0.500000 0.500000
O O14 0.814668 0.732458 0.095947
O O15 0.500000 0.500000 0.000000
#
# Coordination Sequence:
#
# PCOD8027819 Si02
#       7
#     2   2   2   2   2   2   2
#     4  12  24  47  79 109 150 201 251 319 372 448
#     4  12  24  46  74 108 154 196 249 319 371 451
#     4  12  25  47  73 112 148 195 262 302 382 449
#     4  11  25  45  70 109 150 200 247 313 377 446
#     4  10  24  47  71 108 154 196 255 306 372 451
#     4  12  24  46  76 110 151 192 256 313 380 448
#     4  11  25  47  75 111 156 198 252 310 381 452
#
# _framework density 27.187234
#
# number of rings (size 3 to 8) (size 9 to 14) (size 15 to 20)
#    0.000    0.571    4.286    3.857    0.000    4.000 
#    5.143    2.143    0.000    0.000    0.000    0.000 
#    0.000    0.000    0.000    0.000    0.000    0.000 
#
# Total GULP energy -173553.883922 kJ/mol
# GULP energy per Si atom -12396.705994 kJ/mol
# Density = 2.712536 g / cm^3
# Si number density = 27.187234 Si / 1000 Ang^3
#
#
#
# Elastic Constant Matrix: (Units=GPa)
#
#
# Indices 1 2 3 4 5 6 
#
# 1 116.7280 14.5598 15.2076 -10.3187 -11.7077 1.2645
# 2 14.5598 62.5121 3.5214 -24.6288 6.0374 -6.9715
# 3 15.2076 3.5214 126.1963 -20.0209 -5.8345 4.5454
# 4 -10.3187 -24.6288 -20.0209 31.0226 -7.5857 2.0656
# 5 -11.7077 6.0374 -5.8345 -7.5857 46.2132 -8.5840
# 6 1.2645 -6.9715 4.5454 2.0656 -8.5840 45.9828
#
#
#
# Elastic Compliance Matrix: (Units=1/GPa)
#
#
# Indices 1 2 3 4 5 6 
#
# 1 0.009317 -0.001556 -0.000604 0.002169 0.002844 0.000001
# 2 -0.001556 0.024628 0.002729 0.020774 0.000643 0.002694
# 3 -0.000604 0.002729 0.009386 0.008542 0.001983 -0.000511
# 4 0.002169 0.020774 0.008542 0.056954 0.008500 0.001274
# 5 0.002844 0.000643 0.001983 0.008500 0.024672 0.004047
# 6 0.000001 0.002694 -0.000511 0.001274 0.004047 0.022905
#
#
# Mechanical properties :
#
#
# Convention : Reuss Voigt Hill
#
# Bulk Modulus (GPa) = 22.48731 41.33489 31.91110
# Shear Modulus (GPa) = 30.95074 42.78690 36.86882
#
# Velocity S-wave (km/s) = 3.37772 3.97140 3.68653
# Velocity P-wave (km/s) = 4.84781 6.02214 5.46660
#
# Compressibility (1/GPa) = 0.04446952
#
# Stress axis : x y z
#
# Youngs Moduli (GPa) = 107.33526 40.60357 106.54186
#
# Poissons Ratio (x) = 0.06317 0.06432
# Poissons Ratio (y) = 0.16698 -0.29072
# Poissons Ratio (z) = 0.06480 -0.11079
#
# Static dielectric constant tensor:
#      x y z
#    x 5.312690 -0.501580 0.113360 
#    y -0.501580 5.495320 -0.701300 
#    z 0.113360 -0.701300 4.901670 
# 
# 
# High freq. dielectric constant tensor:
#      x y z
#    x 2.112060 -0.016830 -0.011420 
#    y -0.016830 2.091990 -0.023620 
#    z -0.011420 -0.023620 2.090970 
# 
# From -- ./inp_files/183852.got.cif
#   From: 2010.06.25/outbox.cif.g09.slc.cpg/sg2_92_cif.got.tgz:183852.got - 2010.06.27 13:26:56.
