data_PCOD8027058
_publ_section_title
;
Structure prediction by ZEFSAII (Michael W. Deem and Ramdas Pophale) SiO2 
 PCOD8027058
Probable space group: P -1
;
_chemical_formula_sum "Si O2"
_cell_formula_units_Z 14
_cell_length_a 19.066998
_cell_length_b 9.820702
_cell_length_c 8.791384
_cell_angle_alpha 45.945782
_cell_angle_beta 90.787972
_cell_angle_gamma 54.284046
_cell_volume 667.403064
_symmetry_space_group_name_H-M "P -1"
_symmetry_group_IT_number 2
_symmetry_cell_setting 'triclinic'
loop_
_space_group_symop_operation_xyz
x,y,z
-x,-y,-z
loop_
_atom_site_type_symbol
_atom_site_label
_atom_site_fract_x
_atom_site_fract_y
_atom_site_fract_z
Si Si1 0.893192 0.821367 0.145875
Si Si2 0.318739 0.938970 0.172066
Si Si3 0.268279 0.274246 0.213933
Si Si4 0.490917 0.240993 0.852525
Si Si5 0.225754 0.773614 0.889680
Si Si6 0.066615 0.436348 0.197040
Si Si7 0.486943 0.308484 0.149302
O O1 0.000000 0.500000 0.500000
O O2 0.959787 0.770259 0.041434
O O3 0.809941 0.150391 0.989669
O O4 0.814765 0.815897 0.088198
O O5 0.381780 0.596584 0.484038
O O6 0.386581 0.909474 0.065876
O O7 0.311568 0.091824 0.197979
O O8 0.170415 0.357239 0.225890
O O9 0.387950 0.054255 0.492632
O O10 0.202888 0.623286 0.924114
O O11 0.465150 0.289361 0.992682
O O12 0.500000 0.000000 0.000000
O O13 0.135153 0.115186 0.534341
O O14 0.369375 0.514196 0.087730
O O15 0.000000 0.500000 0.000000
O O16 0.500000 0.500000 0.000000
#
# Coordination Sequence:
#
# PCOD8027058 Si02
#       7
#     2   2   2   2   2   2   2
#     4  10  24  44  66  90 130 174 213 265 316 376
#     4  11  23  43  64  93 134 168 209 269 326 373
#     4  12  25  42  69  98 128 172 214 269 326 384
#     4  11  25  40  65  98 131 169 213 262 322 390
#     4  11  25  43  67  97 129 168 218 266 325 386
#     4  11  23  46  67  92 131 172 220 265 318 379
#     4  12  22  43  68  96 133 169 209 266 333 382
#
# _framework density 20.976828999999999
#
# number of rings (size 3 to 8) (size 9 to 14) (size 15 to 20)
#    0.000    0.857    4.286    2.143    6.000    1.143 
#    0.000    0.000    0.000    0.000    0.000    0.000 
#    0.000    0.000    0.000    0.000    0.000    0.000 
#
# Total GULP energy -173559.859877 kJ/mol
# GULP energy per Si atom -12397.132848 kJ/mol
# Density = 2.092908 g / cm^3
# Si number density = 20.976829 Si / 1000 Ang^3
#
#
#
# Elastic Constant Matrix: (Units=GPa)
#
#
# Indices 1 2 3 4 5 6 
#
# 1 -110.4339 83.4909 129.4849 -12.0471 -34.4654 26.6643
# 2 83.4909 137.6523 23.4805 -16.5142 7.7382 -16.3226
# 3 129.4849 23.4805 51.3267 -3.1275 28.5665 -8.7158
# 4 -12.0471 -16.5142 -3.1275 28.5294 8.8743 1.5204
# 5 -34.4654 7.7382 28.5665 8.8743 33.8292 -8.3928
# 6 26.6643 -16.3226 -8.7158 1.5204 -8.3928 43.0323
#
#
#
# Elastic Compliance Matrix: (Units=1/GPa)
#
#
# Indices 1 2 3 4 5 6 
#
# 1 -0.000804 0.000209 0.005438 0.002197 -0.005925 0.000446
# 2 0.000209 0.008605 -0.004968 0.003760 0.002048 0.002395
# 3 0.005438 -0.004968 0.008321 0.001037 -0.001593 -0.003916
# 4 0.002197 0.003760 0.001037 0.041986 -0.011361 -0.003424
# 5 -0.005925 0.002048 -0.001593 -0.011361 0.029953 0.010369
# 6 0.000446 0.002395 -0.003916 -0.003424 0.010369 0.025221
#
#
# Mechanical properties :
#
#
# Convention : Reuss Voigt Hill
#
# Bulk Modulus (GPa) = 57.20523 61.27308 59.23915
# Shear Modulus (GPa) = 42.46240 10.55076 26.50658
#
# Velocity S-wave (km/s) = 4.50405 2.24514 3.55859
# Velocity P-wave (km/s) = 7.37418 5.99951 6.72208
#
# Compressibility (1/GPa) = 0.01748092
#
# Stress axis : x y z
#
# Youngs Moduli (GPa) = -1244.51803 116.20803 120.18046
#
# Poissons Ratio (x) = -0.02431 -0.65359
# Poissons Ratio (y) = 0.26032 0.59710
# Poissons Ratio (z) = 6.76819 0.57737
#
# Static dielectric constant tensor:
#      x y z
#    x 4.057980 -0.253220 0.117760 
#    y -0.253220 4.505600 -0.320930 
#    z 0.117760 -0.320930 3.943290 
# 
# 
# High freq. dielectric constant tensor:
#      x y z
#    x 1.825970 -0.007570 0.012670 
#    y -0.007570 1.844510 -0.001320 
#    z 0.012670 -0.001320 1.815530 
# 
# From -- ./inp_files/175787.got.cif
#   From: 2010.06.25/outbox.cif.g09.slc.cpg/sg2_88_cif.got.tgz:175787.got - 2010.06.27 13:26:56.
