data_PCOD8027918
_publ_section_title
;
Structure prediction by ZEFSAII (Michael W. Deem and Ramdas Pophale) SiO2 
 PCOD8027918
Probable space group: P -1
;
_chemical_formula_sum "Si O2"
_cell_formula_units_Z 16
_cell_length_a 7.877820
_cell_length_b 22.203543
_cell_length_c 13.022790
_cell_angle_alpha 146.373609
_cell_angle_beta 38.372215
_cell_angle_gamma 120.296962
_cell_volume 706.420236
_symmetry_space_group_name_H-M "P -1"
_symmetry_group_IT_number 2
_symmetry_cell_setting 'triclinic'
loop_
_space_group_symop_operation_xyz
x,y,z
-x,-y,-z
loop_
_atom_site_type_symbol
_atom_site_label
_atom_site_fract_x
_atom_site_fract_y
_atom_site_fract_z
Si Si1 0.308983 0.878950 0.975096
Si Si2 0.803061 0.360900 0.055192
Si Si3 0.081525 0.247049 0.100981
Si Si4 0.189200 0.468673 0.078370
Si Si5 0.524417 0.523644 0.257654
Si Si6 0.689436 0.707443 0.732718
Si Si7 0.534760 0.304655 0.851162
Si Si8 0.883427 0.849777 0.546641
O O1 0.480331 0.805795 0.890023
O O2 0.559622 0.853647 0.732361
O O3 0.047549 0.848215 0.006136
O O4 0.148205 0.018642 0.280373
O O5 0.743916 0.488238 0.202214
O O6 0.497440 0.368409 0.259053
O O7 0.025081 0.381035 0.059889
O O8 0.989505 0.232945 0.730070
O O9 0.246560 0.223843 0.101920
O O10 0.801534 0.375608 0.420701
O O11 0.310366 0.243430 0.896186
O O12 0.006077 0.608856 0.396210
O O13 0.313789 0.448586 0.875222
O O14 0.480359 0.399021 0.916007
O O15 0.494121 0.396152 0.094119
O O16 0.882873 0.202226 0.541011
#
# Coordination Sequence:
#
# PCOD8027918 Si02
#       8
#     2   2   2   2   2   2   2   2
#     4  11  26  46  68  91 126 175 218 261 320 373
#     4  11  22  41  62  96 131 172 209 263 324 375
#     4  12  23  42  66  97 129 171 209 263 323 378
#     4  12  23  36  66 100 129 169 212 255 325 391
#     4  11  21  37  62  93 134 167 203 263 317 383
#     4  12  23  41  67  98 131 167 213 264 316 388
#     4  11  22  41  63  93 134 164 205 268 319 371
#     4  10  24  49  64  88 131 168 213 274 310 370
#
# _framework density 22.649408000000001
#
# number of rings (size 3 to 8) (size 9 to 14) (size 15 to 20)
#    0.000    0.750    3.750    6.000    1.750    1.000 
#    2.250    1.250    0.000    0.000    0.000    0.000 
#    0.000    0.000    0.000    0.000    0.000    0.000 
#
# Total GULP energy -198224.298879 kJ/mol
# GULP energy per Si atom -12389.018680 kJ/mol
# Density = 2.259786 g / cm^3
# Si number density = 22.649408 Si / 1000 Ang^3
#
#
#
# Elastic Constant Matrix: (Units=GPa)
#
#
# Indices 1 2 3 4 5 6 
#
# 1 47.9077 13.7445 -2.3666 22.6058 -5.9700 -5.4839
# 2 13.7445 75.9063 2.9239 9.3106 -7.4992 3.5161
# 3 -2.3666 2.9239 56.7274 12.6960 -11.1606 -10.7619
# 4 22.6058 9.3106 12.6960 36.1672 -5.1258 -10.8298
# 5 -5.9700 -7.4992 -11.1606 -5.1258 22.8002 -1.3057
# 6 -5.4839 3.5161 -10.7619 -10.8298 -1.3057 39.3674
#
#
#
# Elastic Compliance Matrix: (Units=1/GPa)
#
#
# Indices 1 2 3 4 5 6 
#
# 1 0.033264 -0.003095 0.007954 -0.021387 0.006859 0.001429
# 2 -0.003095 0.014399 -0.000221 -0.001887 0.003268 -0.002188
# 3 0.007954 -0.000221 0.023456 -0.009960 0.011549 0.005183
# 4 -0.021387 -0.001887 -0.009960 0.047224 -0.000052 0.007456
# 5 0.006859 0.003268 0.011549 -0.000052 0.052690 0.005554
# 6 0.001429 -0.002188 0.005183 0.007456 0.005554 0.029448
#
#
# Mechanical properties :
#
#
# Convention : Reuss Voigt Hill
#
# Bulk Modulus (GPa) = 12.43848 23.23835 17.83841
# Shear Modulus (GPa) = 22.93541 30.74960 26.84251
#
# Velocity S-wave (km/s) = 3.18563 3.68861 3.44631
# Velocity P-wave (km/s) = 4.36287 5.33136 4.87124
#
# Compressibility (1/GPa) = 0.08039569
#
# Stress axis : x y z
#
# Youngs Moduli (GPa) = 30.06217 69.45086 42.63297
#
# Poissons Ratio (x) = 0.21494 -0.33912
# Poissons Ratio (y) = 0.09304 0.00943
# Poissons Ratio (z) = -0.23913 0.01537
#
# Static dielectric constant tensor:
#      x y z
#    x 4.711770 0.259070 -0.287250 
#    y 0.259070 4.053440 -0.076200 
#    z -0.287250 -0.076200 3.891440 
# 
# 
# High freq. dielectric constant tensor:
#      x y z
#    x 1.910520 0.009380 -0.018870 
#    y 0.009380 1.898450 -0.014250 
#    z -0.018870 -0.014250 1.879460 
# 
# From -- ./inp_files/216689.got.cif
#   From: 2010.06.25/outbox.cif.g09.slc.cpg/sg2_109_cif.got.tgz:216689.got - 2010.06.27 13:26:56.
