data_PCOD8027862
_publ_section_title
;
Structure prediction by ZEFSAII (Michael W. Deem and Ramdas Pophale) SiO2 
 PCOD8027862
Probable space group: P -1
;
_chemical_formula_sum "Si O2"
_cell_formula_units_Z 14
_cell_length_a 12.529778
_cell_length_b 18.232107
_cell_length_c 9.446843
_cell_angle_alpha 50.842538
_cell_angle_beta 143.588101
_cell_angle_gamma 150.524489
_cell_volume 612.398715
_symmetry_space_group_name_H-M "P -1"
_symmetry_group_IT_number 2
_symmetry_cell_setting 'triclinic'
loop_
_space_group_symop_operation_xyz
x,y,z
-x,-y,-z
loop_
_atom_site_type_symbol
_atom_site_label
_atom_site_fract_x
_atom_site_fract_y
_atom_site_fract_z
Si Si1 0.354278 0.841550 0.709294
Si Si2 0.584340 0.521104 0.901976
Si Si3 0.818087 0.170597 0.170531
Si Si4 0.221640 0.816032 0.291595
Si Si5 0.698800 0.292616 0.711146
Si Si6 0.683204 0.386367 0.009215
Si Si7 0.594122 0.671829 0.502436
O O1 0.154853 0.807152 0.658220
O O2 0.168635 0.766275 0.458458
O O3 0.644268 0.024163 0.773771
O O4 0.450874 0.774525 0.930289
O O5 0.534349 0.391034 0.965126
O O6 0.447938 0.532072 0.620980
O O7 0.500000 0.500000 0.000000
O O8 0.920863 0.691377 0.038324
O O9 0.075538 0.210023 0.340414
O O10 0.834693 0.281225 0.989267
O O11 0.500000 0.000000 0.000000
O O12 0.407037 0.810405 0.415275
O O13 0.417848 0.234097 0.538082
O O14 0.971151 0.476994 0.751936
O O15 0.619314 0.407619 0.763111
#
# Coordination Sequence:
#
# PCOD8027862 Si02
#       7
#     2   2   2   2   2   2   2
#     4  11  24  44  73  97 139 186 230 286 352 407
#     4  11  26  43  68 100 145 183 231 283 354 413
#     4  12  24  47  70 101 146 183 232 288 351 409
#     4  10  24  48  65  98 147 181 227 295 342 419
#     4  11  24  44  69 103 142 181 233 289 345 417
#     4  11  25  43  70 105 137 184 237 290 347 407
#     4  12  25  43  73 105 141 180 236 290 341 414
#
# _framework density 22.860921000000001
#
# number of rings (size 3 to 8) (size 9 to 14) (size 15 to 20)
#    0.000    0.857    5.714    0.857    6.000    1.714 
#    2.571    0.714    0.000    0.000    0.000    0.000 
#    0.000    0.000    0.000    0.000    0.000    0.000 
#
# Total GULP energy -173521.646995 kJ/mol
# GULP energy per Si atom -12394.403357 kJ/mol
# Density = 2.280889 g / cm^3
# Si number density = 22.860921 Si / 1000 Ang^3
#
#
#
# Elastic Constant Matrix: (Units=GPa)
#
#
# Indices 1 2 3 4 5 6 
#
# 1 213.4317 46.6387 70.9601 -22.5591 -5.5180 -11.9914
# 2 46.6387 93.5324 37.1375 -13.0595 6.7247 -16.0060
# 3 70.9601 37.1375 96.2326 -21.0205 -3.4669 -2.6550
# 4 -22.5591 -13.0595 -21.0205 27.3593 4.1790 -3.8010
# 5 -5.5180 6.7247 -3.4669 4.1790 52.1647 -5.1707
# 6 -11.9914 -16.0060 -2.6550 -3.8010 -5.1707 31.5771
#
#
#
# Elastic Compliance Matrix: (Units=1/GPa)
#
#
# Indices 1 2 3 4 5 6 
#
# 1 0.006568 -0.001166 -0.003868 0.002061 0.000614 0.001927
# 2 -0.001166 0.014692 -0.003717 0.004452 -0.001936 0.006911
# 3 -0.003868 -0.003717 0.016265 0.007320 0.000463 -0.001028
# 4 0.002061 0.004452 0.007320 0.047669 -0.002803 0.008934
# 5 0.000614 -0.001936 0.000463 -0.002803 0.019960 0.002222
# 6 0.001927 0.006911 -0.001028 0.008934 0.002222 0.037256
#
#
# Mechanical properties :
#
#
# Convention : Reuss Voigt Hill
#
# Bulk Modulus (GPa) = 49.93926 79.18548 64.56237
# Shear Modulus (GPa) = 30.01472 38.78425 34.39948
#
# Velocity S-wave (km/s) = 3.62736 4.12336 3.88329
# Velocity P-wave (km/s) = 6.27980 7.57513 6.95768
#
# Compressibility (1/GPa) = 0.02002432
#
# Stress axis : x y z
#
# Youngs Moduli (GPa) = 152.25328 68.06408 61.48194
#
# Poissons Ratio (x) = 0.07936 0.23779
# Poissons Ratio (y) = 0.17753 0.22851
# Poissons Ratio (z) = 0.58885 0.25298
#
# Static dielectric constant tensor:
#      x y z
#    x 4.656000 -0.015240 -0.189000 
#    y -0.015240 4.026010 -0.194650 
#    z -0.189000 -0.194650 4.045350 
# 
# 
# High freq. dielectric constant tensor:
#      x y z
#    x 1.925740 -0.009700 -0.016080 
#    y -0.009700 1.889700 -0.010670 
#    z -0.016080 -0.010670 1.888580 
# 
# From -- ./inp_files/279152.got.cif
#   From: 2010.06.25/outbox.cif.g09.slc.cpg/sg2_140_cif.got.tgz:279152.got - 2010.06.27 13:26:56.
