data_PCOD8027317
_publ_section_title
;
Structure prediction by ZEFSAII (Michael W. Deem and Ramdas Pophale) SiO2 
 PCOD8027317
Probable space group: P -1
;
_chemical_formula_sum "Si O2"
_cell_formula_units_Z 16
_cell_length_a 9.203066
_cell_length_b 14.296032
_cell_length_c 8.645027
_cell_angle_alpha 116.534738
_cell_angle_beta 77.570349
_cell_angle_gamma 57.466467
_cell_volume 683.813158
_symmetry_space_group_name_H-M "P -1"
_symmetry_group_IT_number 2
_symmetry_cell_setting 'triclinic'
loop_
_space_group_symop_operation_xyz
x,y,z
-x,-y,-z
loop_
_atom_site_type_symbol
_atom_site_label
_atom_site_fract_x
_atom_site_fract_y
_atom_site_fract_z
Si Si1 0.188597 0.143392 0.439255
Si Si2 0.014329 0.399144 0.263414
Si Si3 0.501871 0.410855 0.809691
Si Si4 0.765154 0.107371 0.703258
Si Si5 0.178195 0.687996 0.587822
Si Si6 0.333685 0.268349 0.348642
Si Si7 0.016893 0.614353 0.062486
Si Si8 0.776707 0.152543 0.091527
O O1 0.353000 0.139687 0.315202
O O2 0.023327 0.176631 0.376096
O O3 0.068630 0.266416 0.695718
O O4 0.308915 0.977557 0.350277
O O5 0.869525 0.405842 0.421023
O O6 0.852257 0.578703 0.393571
O O7 0.239267 0.318459 0.232504
O O8 0.093810 0.301778 0.016088
O O9 0.607376 0.251255 0.733670
O O10 0.608881 0.406114 0.630638
O O11 0.500000 0.500000 0.000000
O O12 0.263105 0.508074 0.889389
O O13 0.763346 0.154805 0.911858
O O14 0.000000 0.000000 0.500000
O O15 0.220940 0.729211 0.766241
O O16 0.572261 0.195860 0.246209
O O17 0.000000 0.500000 0.000000
O O18 0.000000 0.000000 0.000000
#
# Coordination Sequence:
#
# PCOD8027317 Si02
#       8
#     2   2   2   2   2   2   2   2
#     4  11  23  49  70 103 151 188 231 304 357 433
#     4  10  24  44  73 109 139 188 241 296 361 423
#     4  12  26  45  73 104 144 192 236 301 362 417
#     4  12  26  47  73 101 146 190 233 296 372 421
#     4  11  24  44  72 106 141 183 247 298 355 422
#     4  10  24  45  74 104 145 185 238 299 355 427
#     4  12  25  44  73 107 145 188 241 294 357 435
#     4  12  26  46  73 105 142 190 243 295 357 439
#
# _framework density 23.398204
#
# number of rings (size 3 to 8) (size 9 to 14) (size 15 to 20)
#    0.000    0.750    5.000    0.750    7.000    1.500 
#    0.000    0.625    0.000    0.000    0.000    0.000 
#    0.000    0.000    0.000    0.000    0.000    0.000 
#
# Total GULP energy -198265.454862 kJ/mol
# GULP energy per Si atom -12391.590929 kJ/mol
# Density = 2.334495 g / cm^3
# Si number density = 23.398204 Si / 1000 Ang^3
#
#
#
# Elastic Constant Matrix: (Units=GPa)
#
#
# Indices 1 2 3 4 5 6 
#
# 1 125.7643 21.1009 27.4819 1.1575 7.7341 1.0684
# 2 21.1009 69.9818 25.0187 0.5940 12.9379 10.7972
# 3 27.4819 25.0187 92.4160 -16.1994 23.5211 -3.3814
# 4 1.1575 0.5940 -16.1994 37.1533 -4.4410 5.1820
# 5 7.7341 12.9379 23.5211 -4.4410 41.0605 4.5040
# 6 1.0684 10.7972 -3.3814 5.1820 4.5040 39.2540
#
#
#
# Elastic Compliance Matrix: (Units=1/GPa)
#
#
# Indices 1 2 3 4 5 6 
#
# 1 0.008780 -0.001849 -0.002357 -0.001289 0.000115 0.000224
# 2 -0.001849 0.017463 -0.003982 -0.001622 -0.002545 -0.004590
# 3 -0.002357 -0.003982 0.015419 0.005697 -0.006794 0.002515
# 4 -0.001289 -0.001622 0.005697 0.030029 0.001080 -0.003116
# 5 0.000115 -0.002545 -0.006794 0.001080 0.029518 -0.003418
# 6 0.000224 -0.004590 0.002515 -0.003116 -0.003418 0.027752
#
#
# Mechanical properties :
#
#
# Convention : Reuss Voigt Hill
#
# Bulk Modulus (GPa) = 39.54979 48.37391 43.96185
# Shear Modulus (GPa) = 32.51665 37.79759 35.15712
#
# Velocity S-wave (km/s) = 3.73192 4.02357 3.88049
# Velocity P-wave (km/s) = 5.95897 6.50420 6.23754
#
# Compressibility (1/GPa) = 0.02528459
#
# Stress axis : x y z
#
# Youngs Moduli (GPa) = 113.89961 57.26348 64.85295
#
# Poissons Ratio (x) = 0.10590 0.15288
# Poissons Ratio (y) = 0.21064 0.25825
# Poissons Ratio (z) = 0.26850 0.22803
#
# Static dielectric constant tensor:
#      x y z
#    x 4.497060 0.152870 0.286260 
#    y 0.152870 4.304710 -0.202800 
#    z 0.286260 -0.202800 4.294450 
# 
# 
# High freq. dielectric constant tensor:
#      x y z
#    x 1.942110 0.008250 0.009890 
#    y 0.008250 1.920820 -0.016030 
#    z 0.009890 -0.016030 1.927880 
# 
# From -- ./inp_files/208669.got.cif
#   From: 2010.06.25/outbox.cif.g09.slc.cpg/sg2_105_cif.got.tgz:208669.got - 2010.06.27 13:26:56.
