data_PCOD8027141
_publ_section_title
;
Structure prediction by ZEFSAII (Michael W. Deem and Ramdas Pophale) SiO2 
 PCOD8027141
Probable space group: P -1
;
_chemical_formula_sum "Si O2"
_cell_formula_units_Z 16
_cell_length_a 15.859603
_cell_length_b 5.027729
_cell_length_c 19.958205
_cell_angle_alpha 68.078315
_cell_angle_beta 27.594962
_cell_angle_gamma 74.268643
_cell_volume 677.233373
_symmetry_space_group_name_H-M "P -1"
_symmetry_group_IT_number 2
_symmetry_cell_setting 'triclinic'
loop_
_space_group_symop_operation_xyz
x,y,z
-x,-y,-z
loop_
_atom_site_type_symbol
_atom_site_label
_atom_site_fract_x
_atom_site_fract_y
_atom_site_fract_z
Si Si1 0.889306 0.266421 0.553626
Si Si2 0.481116 0.215635 0.868968
Si Si3 0.638392 0.419507 0.965626
Si Si4 0.820219 0.108247 0.352267
Si Si5 0.649344 0.791386 0.185668
Si Si6 0.420277 0.866544 0.677554
Si Si7 0.056011 0.497550 0.650684
Si Si8 0.048630 0.777422 0.892736
O O1 0.692731 0.177328 0.735132
O O2 0.855614 0.391703 0.492264
O O3 0.000000 0.500000 0.500000
O O4 0.000000 0.000000 0.500000
O O5 0.425413 0.481344 0.926171
O O6 0.449862 0.272436 0.808453
O O7 0.359069 0.922702 0.005934
O O8 0.500000 0.500000 0.000000
O O9 0.845926 0.560443 0.791765
O O10 0.605574 0.999784 0.496269
O O11 0.925456 0.838105 0.321193
O O12 0.832622 0.325029 0.385374
O O13 0.914549 0.285665 0.205570
O O14 0.615025 0.479184 0.275744
O O15 0.558301 0.028172 0.270115
O O16 0.864219 0.928713 0.012094
O O17 0.233408 0.979937 0.770180
O O18 0.000000 0.500000 0.000000
#
# Coordination Sequence:
#
# PCOD8027141 Si02
#       8
#     2   2   2   2   2   2   2   2
#     4  12  25  44  68  99 135 174 217 269 326 387
#     4  12  24  42  67  94 126 170 216 265 321 384
#     4  12  25  43  64  93 128 169 216 266 319 383
#     4  12  25  44  67  97 133 173 217 268 326 389
#     4  11  23  42  65  95 127 166 214 267 321 381
#     4  11  23  42  66  95 129 167 212 265 321 385
#     4  12  26  45  68  98 133 173 217 270 327 386
#     4  10  24  44  68  97 131 172 218 270 325 385
#
# _framework density 23.625532
#
# number of rings (size 3 to 8) (size 9 to 14) (size 15 to 20)
#    0.000    0.500    0.000    9.375    0.000    5.000 
#    0.000    4.375    0.000    0.000    0.000    0.000 
#    0.000    0.000    0.000    0.000    0.000    0.000 
#
# Total GULP energy -198423.166404 kJ/mol
# GULP energy per Si atom -12401.447900 kJ/mol
# Density = 2.357176 g / cm^3
# Si number density = 23.625532 Si / 1000 Ang^3
#
#
#
# Elastic Constant Matrix: (Units=GPa)
#
#
# Indices 1 2 3 4 5 6 
#
# 1 90.3541 20.8555 18.7271 -3.5796 9.5586 9.5618
# 2 20.8555 94.7341 13.7159 1.8707 7.2305 9.7959
# 3 18.7271 13.7159 130.3497 0.4422 -13.8280 -2.7076
# 4 -3.5796 1.8707 0.4422 34.5363 -0.9479 1.9172
# 5 9.5586 7.2305 -13.8280 -0.9479 56.9216 5.2383
# 6 9.5618 9.7959 -2.7076 1.9172 5.2383 30.8481
#
#
#
# Elastic Compliance Matrix: (Units=1/GPa)
#
#
# Indices 1 2 3 4 5 6 
#
# 1 0.012531 -0.002041 -0.001867 0.001554 -0.001982 -0.003160
# 2 -0.002041 0.011565 -0.001102 -0.000694 -0.001139 -0.002900
# 3 -0.001867 -0.001102 0.008333 -0.000247 0.002356 0.001275
# 4 0.001554 -0.000694 -0.000247 0.029290 0.000456 -0.002181
# 5 -0.001982 -0.001139 0.002356 0.000456 0.018813 -0.002040
# 6 -0.003160 -0.002900 0.001275 -0.002181 -0.002040 0.034911
#
#
# Mechanical properties :
#
#
# Convention : Reuss Voigt Hill
#
# Bulk Modulus (GPa) = 44.62446 46.89278 45.75862
# Shear Modulus (GPa) = 37.61238 41.93716 39.77477
#
# Velocity S-wave (km/s) = 3.99434 4.21774 4.10756
# Velocity P-wave (km/s) = 6.34053 6.60383 6.47352
#
# Compressibility (1/GPa) = 0.02240923
#
# Stress axis : x y z
#
# Youngs Moduli (GPa) = 79.80056 86.46533 120.00246
#
# Poissons Ratio (x) = 0.17649 0.22401
# Poissons Ratio (y) = 0.16288 0.13229
# Poissons Ratio (z) = 0.14897 0.09532
#
# Static dielectric constant tensor:
#      x y z
#    x 4.472700 -0.110970 -0.175560 
#    y -0.110970 4.312880 0.046660 
#    z -0.175560 0.046660 4.503930 
# 
# 
# High freq. dielectric constant tensor:
#      x y z
#    x 1.944960 0.008850 -0.012020 
#    y 0.008850 1.924640 0.005760 
#    z -0.012020 0.005760 1.955400 
# 
# From -- ./inp_files/571660.got.cif
#   From: 2010.06.25/outbox.cif.g09.slc.cpg/sg2_286_cif.got.tgz:571660.got - 2010.06.27 13:26:56.
