data_PCOD8027481
_publ_section_title
;
Structure prediction by ZEFSAII (Michael W. Deem and Ramdas Pophale) SiO2 
 PCOD8027481
Probable space group: P -1
;
_chemical_formula_sum "Si O2"
_cell_formula_units_Z 16
_cell_length_a 17.993838
_cell_length_b 20.698530
_cell_length_c 8.445601
_cell_angle_alpha 57.331092
_cell_angle_beta 47.906302
_cell_angle_gamma 19.082567
_cell_volume 703.851992
_symmetry_space_group_name_H-M "P -1"
_symmetry_group_IT_number 2
_symmetry_cell_setting 'triclinic'
loop_
_space_group_symop_operation_xyz
x,y,z
-x,-y,-z
loop_
_atom_site_type_symbol
_atom_site_label
_atom_site_fract_x
_atom_site_fract_y
_atom_site_fract_z
Si Si1 0.928956 0.465865 0.587994
Si Si2 0.130293 0.341410 0.133852
Si Si3 0.676176 0.114470 0.998506
Si Si4 0.101901 0.912681 0.796410
Si Si5 0.960126 0.766125 0.126456
Si Si6 0.930037 0.919421 0.548659
Si Si7 0.758737 0.891246 0.898962
Si Si8 0.544569 0.484497 0.143332
O O1 0.000000 0.500000 0.500000
O O2 0.910328 0.480900 0.404122
O O3 0.651178 0.638593 0.847435
O O4 0.129400 0.250142 0.637218
O O5 0.183178 0.232768 0.089014
O O6 0.000000 0.500000 0.000000
O O7 0.426247 0.148156 0.054387
O O8 0.791453 0.015654 0.790963
O O9 0.817621 0.092386 0.877122
O O10 0.749295 0.987917 0.172865
O O11 0.326202 0.686178 0.747122
O O12 0.227950 0.902016 0.562486
O O13 0.000000 0.000000 0.000000
O O14 0.262003 0.580814 0.003661
O O15 0.936688 0.767378 0.970588
O O16 0.874930 0.871643 0.631674
O O17 0.257958 0.703376 0.357275
O O18 0.500000 0.500000 0.000000
#
# Coordination Sequence:
#
# PCOD8027481 Si02
#       8
#     2   2   2   2   2   2   2   2
#     4  12  25  42  72 100 133 179 229 282 340 409
#     4  11  26  47  71 101 138 178 229 288 345 410
#     4  10  25  42  62  99 132 178 223 272 341 395
#     4  11  23  39  65  95 134 175 222 277 328 401
#     4  10  24  45  69  98 142 177 229 283 337 409
#     4  11  23  42  67  95 137 175 223 279 333 407
#     4  10  25  45  68 102 136 180 229 281 351 402
#     4  11  24  42  68 100 140 179 229 275 341 406
#
# _framework density 22.732053000000001
#
# number of rings (size 3 to 8) (size 9 to 14) (size 15 to 20)
#    0.000    1.250    1.250    3.375    1.750   12.500 
#    0.000    0.000    0.000    0.000    0.000    0.000 
#    0.000    0.000    0.000    0.000    0.000    0.000 
#
# Total GULP energy -198217.320080 kJ/mol
# GULP energy per Si atom -12388.582505 kJ/mol
# Density = 2.268031 g / cm^3
# Si number density = 22.732053 Si / 1000 Ang^3
#
#
#
# Elastic Constant Matrix: (Units=GPa)
#
#
# Indices 1 2 3 4 5 6 
#
# 1 96.1302 43.8685 39.7962 -12.4479 -8.2313 -5.3267
# 2 43.8685 105.2344 58.0363 -25.0138 -6.5608 10.0842
# 3 39.7962 58.0363 120.6292 -21.3070 4.0325 5.2765
# 4 -12.4479 -25.0138 -21.3070 54.0205 13.5389 -11.7309
# 5 -8.2313 -6.5608 4.0325 13.5389 37.9617 -6.1221
# 6 -5.3267 10.0842 5.2765 -11.7309 -6.1221 39.3115
#
#
#
# Elastic Compliance Matrix: (Units=1/GPa)
#
#
# Indices 1 2 3 4 5 6 
#
# 1 0.014107 -0.004523 -0.002730 0.000152 0.003154 0.003975
# 2 -0.004523 0.015340 -0.005214 0.003245 0.000618 -0.002784
# 3 -0.002730 -0.005214 0.012320 0.002671 -0.003833 -0.000486
# 4 0.000152 0.003245 0.002671 0.024027 -0.007479 0.004835
# 5 0.003154 0.000618 -0.003833 -0.007479 0.030746 0.003340
# 6 0.003975 -0.002784 -0.000486 0.004835 0.003340 0.028718
#
#
# Mechanical properties :
#
#
# Convention : Reuss Voigt Hill
#
# Bulk Modulus (GPa) = 59.40755 67.26621 63.33688
# Shear Modulus (GPa) = 32.09148 38.27825 35.18487
#
# Velocity S-wave (km/s) = 3.76137 4.10797 3.93849
# Velocity P-wave (km/s) = 6.71226 7.22189 6.97174
#
# Compressibility (1/GPa) = 0.01683288
#
# Stress axis : x y z
#
# Youngs Moduli (GPa) = 70.88722 65.18839 81.16715
#
# Poissons Ratio (x) = 0.29485 0.22161
# Poissons Ratio (y) = 0.32063 0.42320
# Poissons Ratio (z) = 0.19354 0.33989
#
# Static dielectric constant tensor:
#      x y z
#    x 5.298360 1.498370 -1.267450 
#    y 1.498370 5.968850 -1.326570 
#    z -1.267450 -1.326570 4.993500 
# 
# 
# High freq. dielectric constant tensor:
#      x y z
#    x 1.908110 0.021920 -0.012640 
#    y 0.021920 1.909570 -0.014540 
#    z -0.012640 -0.014540 1.886900 
# 
# From -- ./inp_files/337668.got.cif
#   From: 2010.06.25/outbox.cif.g09.slc.cpg/sg2_169_cif.got.tgz:337668.got - 2010.06.27 13:26:56.
