data_PCOD8027639
_publ_section_title
;
Structure prediction by ZEFSAII (Michael W. Deem and Ramdas Pophale) SiO2 
 PCOD8027639
Probable space group: P -1
;
_chemical_formula_sum "Si O2"
_cell_formula_units_Z 14
_cell_length_a 17.024605
_cell_length_b 27.801606
_cell_length_c 6.607807
_cell_angle_alpha 45.272191
_cell_angle_beta 133.454643
_cell_angle_gamma 163.858968
_cell_volume 616.619913
_symmetry_space_group_name_H-M "P -1"
_symmetry_group_IT_number 2
_symmetry_cell_setting 'triclinic'
loop_
_space_group_symop_operation_xyz
x,y,z
-x,-y,-z
loop_
_atom_site_type_symbol
_atom_site_label
_atom_site_fract_x
_atom_site_fract_y
_atom_site_fract_z
Si Si1 0.893847 0.109676 0.513085
Si Si2 0.723482 0.597243 0.959486
Si Si3 0.758686 0.503278 0.603761
Si Si4 0.663281 0.228776 0.676566
Si Si5 0.415903 0.333685 0.881505
Si Si6 0.268849 0.848146 0.701832
Si Si7 0.295712 0.612263 0.510109
O O1 0.888395 0.174034 0.449435
O O2 0.032160 0.208946 0.245650
O O3 0.081624 0.159652 0.806157
O O4 0.577154 0.898081 0.544603
O O5 0.580769 0.491013 0.811452
O O6 0.500000 0.500000 0.000000
O O7 0.846226 0.604993 0.277116
O O8 0.504006 0.378530 0.668731
O O9 0.670228 0.383271 0.683740
O O10 0.041426 0.661225 0.770574
O O11 0.631009 0.267324 0.678079
O O12 0.972157 0.409336 0.593416
O O13 0.596698 0.115055 0.981457
O O14 0.483360 0.304080 0.211462
O O15 0.500000 0.000000 0.500000
#
# Coordination Sequence:
#
# PCOD8027639 Si02
#       7
#     2   2   2   2   2   2   2
#     4  12  23  40  67 100 136 165 215 277 333 385
#     4  11  20  35  64  97 136 168 204 269 336 388
#     4  11  20  39  65  94 126 176 213 266 321 389
#     4  11  24  45  64  95 135 176 219 276 314 392
#     4  11  22  41  66  98 129 170 219 267 324 393
#     4  12  23  40  66 101 134 166 217 269 338 390
#     4  10  24  46  68  90 132 178 228 262 321 386
#
# _framework density 22.704425000000001
#
# number of rings (size 3 to 8) (size 9 to 14) (size 15 to 20)
#    0.000    0.857    4.286    4.286    0.000    1.143 
#    2.571    0.714    0.000    0.000    0.000    0.000 
#    0.000    0.000    0.000    0.000    0.000    0.000 
#
# Total GULP energy -173560.400004 kJ/mol
# GULP energy per Si atom -12397.171429 kJ/mol
# Density = 2.265275 g / cm^3
# Si number density = 22.704425 Si / 1000 Ang^3
#
#
#
# Elastic Constant Matrix: (Units=GPa)
#
#
# Indices 1 2 3 4 5 6 
#
# 1 163.1259 41.4013 38.4548 11.9193 -6.1282 -2.4467
# 2 41.4013 85.4456 30.5264 27.5498 13.0609 8.7440
# 3 38.4548 30.5264 53.1958 14.2023 1.0201 10.0626
# 4 11.9193 27.5498 14.2023 33.6167 5.1564 0.5072
# 5 -6.1282 13.0609 1.0201 5.1564 37.2036 7.4096
# 6 -2.4467 8.7440 10.0626 0.5072 7.4096 37.4863
#
#
#
# Elastic Compliance Matrix: (Units=1/GPa)
#
#
# Indices 1 2 3 4 5 6 
#
# 1 0.008078 -0.003165 -0.004858 0.001451 0.001942 0.002166
# 2 -0.003165 0.020196 -0.005508 -0.012252 -0.005320 -0.002222
# 3 -0.004858 -0.005508 0.028374 -0.006044 0.002604 -0.007082
# 4 0.001451 -0.012252 -0.006044 0.042067 -0.002001 0.004401
# 5 0.001942 -0.005320 0.002604 -0.002001 0.030328 -0.005299
# 6 0.002166 -0.002222 -0.007082 0.004401 -0.005299 0.030225
#
#
# Mechanical properties :
#
#
# Convention : Reuss Voigt Hill
#
# Bulk Modulus (GPa) = 33.79941 58.05914 45.92928
# Shear Modulus (GPa) = 25.48533 34.42030 29.95282
#
# Velocity S-wave (km/s) = 3.35398 3.89783 3.63609
# Velocity P-wave (km/s) = 5.46973 6.77382 6.15640
#
# Compressibility (1/GPa) = 0.02958631
#
# Stress axis : x y z
#
# Youngs Moduli (GPa) = 123.79140 49.51571 35.24358
#
# Poissons Ratio (x) = 0.15673 0.17120
# Poissons Ratio (y) = 0.39182 0.19411
# Poissons Ratio (z) = 0.60134 0.27272
#
# Static dielectric constant tensor:
#      x y z
#    x 4.423220 0.021730 0.018750 
#    y 0.021730 3.961330 0.243920 
#    z 0.018750 0.243920 4.064700 
# 
# 
# High freq. dielectric constant tensor:
#      x y z
#    x 1.911880 0.006310 -0.000210 
#    y 0.006310 1.876170 0.023310 
#    z -0.000210 0.023310 1.883280 
# 
# From -- ./inp_files/101016.got.cif
#   From: 2010.06.25/outbox.cif.g09.slc.cpg/sg2_51_cif.got.tgz:101016.got - 2010.06.27 13:26:56.
