data_PCOD8027997
_publ_section_title
;
Structure prediction by ZEFSAII (Michael W. Deem and Ramdas Pophale) SiO2 
 PCOD8027997
Probable space group: P -1
;
_chemical_formula_sum "Si O2"
_cell_formula_units_Z 16
_cell_length_a 9.966640
_cell_length_b 14.026360
_cell_length_c 9.181337
_cell_angle_alpha 92.153574
_cell_angle_beta 46.321569
_cell_angle_gamma 124.128260
_cell_volume 623.516651
_symmetry_space_group_name_H-M "P -1"
_symmetry_group_IT_number 2
_symmetry_cell_setting 'triclinic'
loop_
_space_group_symop_operation_xyz
x,y,z
-x,-y,-z
loop_
_atom_site_type_symbol
_atom_site_label
_atom_site_fract_x
_atom_site_fract_y
_atom_site_fract_z
Si Si1 0.587034 0.696870 0.938598
Si Si2 0.449916 0.540196 0.325355
Si Si3 0.986050 0.878219 0.122344
Si Si4 0.523243 0.989449 0.778752
Si Si5 0.044682 0.246263 0.579768
Si Si6 0.926273 0.063467 0.248328
Si Si7 0.761387 0.319344 0.001351
Si Si8 0.635006 0.418480 0.317695
O O1 0.323563 0.655818 0.080360
O O2 0.730710 0.686999 0.709113
O O3 0.825490 0.860832 0.820506
O O4 0.512914 0.601463 0.123068
O O5 0.598936 0.496162 0.243681
O O6 0.535920 0.644535 0.400846
O O7 0.109633 0.383958 0.573306
O O8 0.848609 0.766440 0.352856
O O9 0.320309 0.001612 0.907753
O O10 0.968256 0.832482 0.964276
O O11 0.849105 0.930690 0.235725
O O12 0.320273 0.823567 0.966165
O O13 0.737013 0.098486 0.754635
O O14 0.678061 0.022640 0.514670
O O15 0.576533 0.297500 0.268762
O O16 0.062661 0.458876 0.835195
#
# Coordination Sequence:
#
# PCOD8027997 Si02
#       8
#     2   2   2   2   2   2   2   2
#     4  11  24  41  68  97 140 175 227 283 338 400
#     4  11  24  44  69  99 132 185 226 275 335 411
#     4  11  23  43  68  98 139 180 227 280 344 406
#     4  11  24  44  71 101 140 176 226 288 341 407
#     4  11  23  42  69 100 131 183 224 274 342 409
#     4  10  25  41  66 103 135 181 228 281 339 410
#     4  11  23  45  67 102 134 179 221 283 342 401
#     4  10  25  42  68  98 134 179 229 272 338 408
#
# _framework density 25.660905
#
# number of rings (size 3 to 8) (size 9 to 14) (size 15 to 20)
#    0.000    1.250    1.250    3.375    5.250    4.500 
#    0.000    0.000    0.000    0.000    0.000    0.000 
#    0.000    0.000    0.000    0.000    0.000    0.000 
#
# Total GULP energy -198215.830218 kJ/mol
# GULP energy per Si atom -12388.489389 kJ/mol
# Density = 2.560250 g / cm^3
# Si number density = 25.660905 Si / 1000 Ang^3
#
#
#
# Elastic Constant Matrix: (Units=GPa)
#
#
# Indices 1 2 3 4 5 6 
#
# 1 135.7107 3.3214 40.0219 3.7437 13.7750 21.2191
# 2 3.3214 66.4149 -8.5170 29.7352 12.8800 13.9086
# 3 40.0219 -8.5170 95.8321 -0.2633 31.4283 3.7673
# 4 3.7437 29.7352 -0.2633 29.9016 7.7228 -2.9025
# 5 13.7750 12.8800 31.4283 7.7228 45.4698 3.7667
# 6 21.2191 13.9086 3.7673 -2.9025 3.7667 45.0685
#
#
#
# Elastic Compliance Matrix: (Units=1/GPa)
#
#
# Indices 1 2 3 4 5 6 
#
# 1 0.009193 0.001386 -0.003617 -0.003075 0.000231 -0.004671
# 2 0.001386 0.035639 0.005373 -0.035061 -0.007134 -0.013762
# 3 -0.003617 0.005373 0.016109 -0.001904 -0.011197 -0.000489
# 4 -0.003075 -0.035061 -0.001904 0.070654 -0.001236 0.017080
# 5 0.000231 -0.007134 -0.011197 -0.001236 0.031869 0.000286
# 6 -0.004671 -0.013762 -0.000489 0.017080 0.000286 0.029752
#
#
# Mechanical properties :
#
#
# Convention : Reuss Voigt Hill
#
# Bulk Modulus (GPa) = 14.87519 40.84559 27.86039
# Shear Modulus (GPa) = 23.88465 41.63010 32.75737
#
# Velocity S-wave (km/s) = 3.05418 4.03217 3.57676
# Velocity P-wave (km/s) = 4.27162 6.13432 5.28567
#
# Compressibility (1/GPa) = 0.06722604
#
# Stress axis : x y z
#
# Youngs Moduli (GPa) = 108.77902 28.05881 62.07806
#
# Poissons Ratio (x) = -0.03890 0.22451
# Poissons Ratio (y) = -0.15081 -0.33353
# Poissons Ratio (z) = 0.39342 -0.15075
#
# Static dielectric constant tensor:
#      x y z
#    x 4.769600 0.476240 -0.255360 
#    y 0.476240 5.121740 0.528420 
#    z -0.255360 0.528420 5.379200 
# 
# 
# High freq. dielectric constant tensor:
#      x y z
#    x 2.026750 0.040650 -0.009210 
#    y 0.040650 2.040330 0.017450 
#    z -0.009210 0.017450 2.060160 
# 
# From -- ./inp_files/206778.got.cif
#   From: 2010.06.25/outbox.cif.g09.slc.cpg/sg2_104_cif.got.tgz:206778.got - 2010.06.27 13:26:56.
