data_PCOD8027583
_publ_section_title
;
Structure prediction by ZEFSAII (Michael W. Deem and Ramdas Pophale) SiO2 
 PCOD8027583
Probable space group: P -1
;
_chemical_formula_sum "Si O2"
_cell_formula_units_Z 10
_cell_length_a 10.247622
_cell_length_b 7.892825
_cell_length_c 10.347283
_cell_angle_alpha 119.918216
_cell_angle_beta 77.904073
_cell_angle_gamma 52.144306
_cell_volume 376.566304
_symmetry_space_group_name_H-M "P -1"
_symmetry_group_IT_number 2
_symmetry_cell_setting 'triclinic'
loop_
_space_group_symop_operation_xyz
x,y,z
-x,-y,-z
loop_
_atom_site_type_symbol
_atom_site_label
_atom_site_fract_x
_atom_site_fract_y
_atom_site_fract_z
Si Si1 0.766696 0.687221 0.757382
Si Si2 0.673536 0.435699 0.539952
Si Si3 0.010643 0.645260 0.166042
Si Si4 0.296571 0.631949 0.772919
Si Si5 0.493465 0.289940 0.869546
O O1 0.832911 0.390480 0.572404
O O2 0.981054 0.470690 0.737588
O O3 0.747835 0.868040 0.711089
O O4 0.500000 0.000000 0.000000
O O5 0.397930 0.732454 0.773927
O O6 0.652298 0.546300 0.440297
O O7 0.786357 0.077263 0.370290
O O8 0.261294 0.461552 0.040326
O O9 0.000000 0.500000 0.000000
O O10 0.459514 0.327079 0.735799
O O11 0.000000 0.000000 0.000000
O O12 0.500000 0.500000 0.000000
#
# Coordination Sequence:
#
# PCOD8027583 Si02
#       5
#     2   2   2   2   2
#     4  10  24  45  74 106 153 197 248 300 380 440
#     4  11  25  47  79 107 151 203 242 305 387 441
#     4  11  25  47  80 109 149 199 248 311 375 442
#     4  11  24  44  75 108 150 189 255 305 369 435
#     4  11  25  44  72 107 155 195 242 312 366 437
#
# _framework density 26.55575
#
# number of rings (size 3 to 8) (size 9 to 14) (size 15 to 20)
#    0.000    1.200    2.000    3.000   14.000    0.800 
#    0.000    2.000    0.000    0.000    0.000    0.000 
#    0.000    0.000    0.000    0.000    0.000    0.000 
#
# Total GULP energy -123881.670741 kJ/mol
# GULP energy per Si atom -12388.167074 kJ/mol
# Density = 2.649531 g / cm^3
# Si number density = 26.555750 Si / 1000 Ang^3
#
#
#
# Elastic Constant Matrix: (Units=GPa)
#
#
# Indices 1 2 3 4 5 6 
#
# 1 140.8147 58.6278 45.9069 -0.7523 31.0371 -6.5701
# 2 58.6278 240.8053 77.5038 -41.9628 32.9700 -14.5415
# 3 45.9069 77.5038 82.4358 -14.0680 22.3725 0.2864
# 4 -0.7523 -41.9628 -14.0680 53.2724 1.9536 10.2388
# 5 31.0371 32.9700 22.3725 1.9536 55.7976 -7.6880
# 6 -6.5701 -14.5415 0.2864 10.2388 -7.6880 37.7122
#
#
#
# Elastic Compliance Matrix: (Units=1/GPa)
#
#
# Indices 1 2 3 4 5 6 
#
# 1 0.009439 -0.000845 -0.003960 -0.001703 -0.002937 0.001212
# 2 -0.000845 0.006932 -0.004927 0.003986 -0.001631 0.001148
# 3 -0.003960 -0.004927 0.020399 0.002384 -0.003720 -0.004150
# 4 -0.001703 0.003986 0.002384 0.023832 -0.004034 -0.006071
# 5 -0.002937 -0.001631 -0.003720 -0.004034 0.022790 0.004629
# 6 0.001212 0.001148 -0.004150 -0.006071 0.004629 0.029794
#
#
# Mechanical properties :
#
#
# Convention : Reuss Voigt Hill
#
# Bulk Modulus (GPa) = 57.78506 92.01476 74.89991
# Shear Modulus (GPa) = 36.12233 48.15760 42.13996
#
# Velocity S-wave (km/s) = 3.69215 4.26309 3.98785
# Velocity P-wave (km/s) = 6.32322 7.67833 7.03349
#
# Compressibility (1/GPa) = 0.01730551
#
# Stress axis : x y z
#
# Youngs Moduli (GPa) = 105.94264 144.26477 49.02155
#
# Poissons Ratio (x) = 0.12193 0.19411
# Poissons Ratio (y) = 0.08954 0.24154
# Poissons Ratio (z) = 0.41951 0.71083
#
# Static dielectric constant tensor:
#      x y z
#    x 4.771570 -0.194210 -0.103180 
#    y -0.194210 6.003480 -0.451600 
#    z -0.103180 -0.451600 4.799020 
# 
# 
# High freq. dielectric constant tensor:
#      x y z
#    x 2.058350 -0.016070 -0.003810 
#    y -0.016070 2.091130 -0.023690 
#    z -0.003810 -0.023690 2.055760 
# 
# From -- ./inp_files/155012.got.cif
#   From: 2010.06.25/outbox.cif.g09.slc.cpg/sg2_78_cif.got.tgz:155012.got - 2010.06.27 13:26:56.
