data_PCOD8027537
_publ_section_title
;
Structure prediction by ZEFSAII (Michael W. Deem and Ramdas Pophale) SiO2 
 PCOD8027537
Probable space group: P -1
;
_chemical_formula_sum "Si O2"
_cell_formula_units_Z 14
_cell_length_a 22.819140
_cell_length_b 12.442021
_cell_length_c 16.201371
_cell_angle_alpha 26.411543
_cell_angle_beta 15.970007
_cell_angle_gamma 28.008545
_cell_volume 553.924993
_symmetry_space_group_name_H-M "P -1"
_symmetry_group_IT_number 2
_symmetry_cell_setting 'triclinic'
loop_
_space_group_symop_operation_xyz
x,y,z
-x,-y,-z
loop_
_atom_site_type_symbol
_atom_site_label
_atom_site_fract_x
_atom_site_fract_y
_atom_site_fract_z
Si Si1 0.743121 0.431824 0.249143
Si Si2 0.772274 0.596565 0.700694
Si Si3 0.670167 0.811020 0.216662
Si Si4 0.677554 0.450085 0.594360
Si Si5 0.847963 0.307655 0.633894
Si Si6 0.801975 0.105756 0.253595
Si Si7 0.734266 0.051137 0.662379
O O1 0.500000 0.500000 0.500000
O O2 0.794871 0.673467 0.060982
O O3 0.794057 0.212237 0.396050
O O4 0.872341 0.324015 0.064895
O O5 0.761406 0.505883 0.683937
O O6 0.739698 0.891491 0.543555
O O7 0.000000 0.500000 0.500000
O O8 0.581225 0.504151 0.072699
O O9 0.749242 0.666989 0.293298
O O10 0.415810 0.793519 0.571497
O O11 0.711868 0.085975 0.974502
O O12 0.811316 0.443450 0.502405
O O13 0.748641 0.189645 0.633326
O O14 0.100800 0.205955 0.377493
O O15 0.000000 0.000000 0.000000
O O16 0.500000 0.000000 0.000000
#
# Coordination Sequence:
#
# PCOD8027537 Si02
#       7
#     2   2   2   2   2   2   2
#     4   9  21  42  69 100 138 181 230 292 344 420
#     4  12  25  46  71 102 145 190 236 288 352 427
#     4  10  24  45  71 102 141 184 234 288 358 410
#     4  11  24  46  70 103 142 184 234 292 355 419
#     4  12  26  47  69 105 146 183 234 298 349 420
#     4  11  22  43  70 105 142 186 236 288 347 419
#     4  11  24  44  70 101 136 186 238 289 353 418
#
# _framework density 25.274180000000001
#
# number of rings (size 3 to 8) (size 9 to 14) (size 15 to 20)
#    0.000    1.143    1.429    4.286    2.000    5.143 
#   10.286    0.000    0.000    0.000    0.000    0.000 
#    0.000    0.000    0.000    0.000    0.000    0.000 
#
# Total GULP energy -173573.900654 kJ/mol
# GULP energy per Si atom -12398.135761 kJ/mol
# Density = 2.521666 g / cm^3
# Si number density = 25.274180 Si / 1000 Ang^3
#
#
#
# Elastic Constant Matrix: (Units=GPa)
#
#
# Indices 1 2 3 4 5 6 
#
# 1 142.5492 46.8660 25.1408 -5.5621 5.7654 9.0260
# 2 46.8660 97.4340 10.6961 4.0285 3.4884 11.1699
# 3 25.1408 10.6961 70.2773 12.9070 -16.6895 4.6021
# 4 -5.5621 4.0285 12.9070 36.6118 5.2629 5.1204
# 5 5.7654 3.4884 -16.6895 5.2629 35.7294 6.8544
# 6 9.0260 11.1699 4.6021 5.1204 6.8544 57.9159
#
#
#
# Elastic Compliance Matrix: (Units=1/GPa)
#
#
# Indices 1 2 3 4 5 6 
#
# 1 0.009440 -0.004066 -0.004351 0.003982 -0.003696 -0.000256
# 2 -0.004066 0.012479 -0.000016 -0.001759 0.000000 -0.001616
# 3 -0.004351 -0.000016 0.020440 -0.009366 0.011924 -0.001526
# 4 0.003982 -0.001759 -0.009366 0.032958 -0.009445 -0.001333
# 5 -0.003696 0.000000 0.011924 -0.009445 0.036280 -0.003830
# 6 -0.000256 -0.001616 -0.001526 -0.001333 -0.003830 0.018310
#
#
# Mechanical properties :
#
#
# Convention : Reuss Voigt Hill
#
# Bulk Modulus (GPa) = 39.22548 52.85181 46.03864
# Shear Modulus (GPa) = 32.20172 41.22193 36.71183
#
# Velocity S-wave (km/s) = 3.57332 4.04293 3.81536
# Velocity P-wave (km/s) = 5.70776 6.53839 6.13714
#
# Compressibility (1/GPa) = 0.02549364
#
# Stress axis : x y z
#
# Youngs Moduli (GPa) = 105.92796 80.13469 48.92418
#
# Poissons Ratio (x) = 0.32585 0.21285
# Poissons Ratio (y) = 0.43073 0.00077
# Poissons Ratio (z) = 0.46086 0.00127
#
# Static dielectric constant tensor:
#      x y z
#    x 5.071790 -0.066530 0.048890 
#    y -0.066530 5.080730 -0.107670 
#    z 0.048890 -0.107670 4.501410 
# 
# 
# High freq. dielectric constant tensor:
#      x y z
#    x 2.027530 -0.000440 -0.007320 
#    y -0.000440 2.018690 0.006070 
#    z -0.007320 0.006070 2.002390 
# 
# From -- ./inp_files/191146.got.cif
#   From: 2010.06.25/outbox.cif.g09.slc.cpg/sg2_96_cif.got.tgz:191146.got - 2010.06.27 13:26:56.
