data_PCOD8027449
_publ_section_title
;
Structure prediction by ZEFSAII (Michael W. Deem and Ramdas Pophale) SiO2 
 PCOD8027449
Probable space group: P -1
;
_chemical_formula_sum "Si O2"
_cell_formula_units_Z 16
_cell_length_a 9.203550
_cell_length_b 27.846924
_cell_length_c 9.462120
_cell_angle_alpha 144.780317
_cell_angle_beta 116.855772
_cell_angle_gamma 37.135440
_cell_volume 691.899999
_symmetry_space_group_name_H-M "P -1"
_symmetry_group_IT_number 2
_symmetry_cell_setting 'triclinic'
loop_
_space_group_symop_operation_xyz
x,y,z
-x,-y,-z
loop_
_atom_site_type_symbol
_atom_site_label
_atom_site_fract_x
_atom_site_fract_y
_atom_site_fract_z
Si Si1 0.683958 0.748373 0.234142
Si Si2 0.178008 0.095679 0.894426
Si Si3 0.754739 0.277621 0.402567
Si Si4 0.611029 0.240104 0.511712
Si Si5 0.186927 0.854246 0.320390
Si Si6 0.917220 0.441366 0.305026
Si Si7 0.818649 0.437662 0.804734
Si Si8 0.156616 0.290634 0.338926
O O1 0.515015 0.731286 0.107717
O O2 0.875829 0.652832 0.227670
O O3 0.463788 0.917865 0.572983
O O4 0.902681 0.674330 0.024315
O O5 0.950018 0.177013 0.857434
O O6 0.297151 0.139183 0.056892
O O7 0.000898 0.147860 0.084571
O O8 0.797634 0.192277 0.343293
O O9 0.429433 0.415856 0.525929
O O10 0.794832 0.355065 0.660325
O O11 0.815131 0.128028 0.466877
O O12 0.396994 0.258138 0.406089
O O13 0.448141 0.392540 0.857224
O O14 0.000000 0.000000 0.500000
O O15 0.000000 0.500000 0.500000
O O16 0.037505 0.341756 0.252116
O O17 0.856657 0.422629 0.616317
#
# Coordination Sequence:
#
# PCOD8027449 Si02
#       8
#     2   2   2   2   2   2   2   2
#     4  11  23  46  71  97 146 190 227 290 360 421
#     4  10  26  47  71 100 145 192 231 286 359 424
#     4  11  25  42  69 112 141 182 237 304 341 415
#     4  12  23  43  74 106 140 182 243 291 355 415
#     4  10  24  45  69 101 139 190 232 284 354 422
#     4  12  24  41  71 104 148 176 241 297 352 406
#     4  11  24  42  72 107 140 186 237 292 360 412
#     4  11  25  41  68 109 135 191 234 293 348 428
#
# _framework density 23.124728000000001
#
# number of rings (size 3 to 8) (size 9 to 14) (size 15 to 20)
#    0.000    1.000    3.750    1.500    5.250    3.500 
#    0.000    6.250    0.000    0.000    0.000    0.000 
#    0.000    0.000    0.000    0.000    0.000    0.000 
#
# Total GULP energy -198259.742263 kJ/mol
# GULP energy per Si atom -12391.233891 kJ/mol
# Density = 2.307209 g / cm^3
# Si number density = 23.124728 Si / 1000 Ang^3
#
#
#
# Elastic Constant Matrix: (Units=GPa)
#
#
# Indices 1 2 3 4 5 6 
#
# 1 102.0486 26.8088 35.8285 -9.4512 -4.7460 17.8666
# 2 26.8088 116.4398 21.8032 -6.6726 -4.6062 14.3938
# 3 35.8285 21.8032 109.2096 -1.7721 0.2737 2.2229
# 4 -9.4512 -6.6726 -1.7721 27.7870 -4.1831 -0.5374
# 5 -4.7460 -4.6062 0.2737 -4.1831 24.4769 -2.3787
# 6 17.8666 14.3938 2.2229 -0.5374 -2.3787 33.2673
#
#
#
# Elastic Compliance Matrix: (Units=1/GPa)
#
#
# Indices 1 2 3 4 5 6 
#
# 1 0.013008 -0.001202 -0.003845 0.004147 0.002468 -0.005966
# 2 -0.001202 0.009727 -0.001451 0.002016 0.001636 -0.003316
# 3 -0.003845 -0.001451 0.010654 -0.001113 -0.001145 0.001881
# 4 0.004147 0.002016 -0.001113 0.038931 0.007670 -0.001848
# 5 0.002468 0.001636 -0.001145 0.007670 0.043086 0.001248
# 6 -0.005966 -0.003316 0.001881 -0.001848 0.001248 0.034632
#
#
# Mechanical properties :
#
#
# Convention : Reuss Voigt Hill
#
# Bulk Modulus (GPa) = 49.03837 55.17545 52.10691
# Shear Modulus (GPa) = 29.44063 33.32342 31.38202
#
# Velocity S-wave (km/s) = 3.57196 3.80021 3.68785
# Velocity P-wave (km/s) = 6.18578 6.57017 6.38087
#
# Compressibility (1/GPa) = 0.02039220
#
# Stress axis : x y z
#
# Youngs Moduli (GPa) = 76.87331 102.80748 93.85745
#
# Poissons Ratio (x) = 0.12361 0.36089
# Poissons Ratio (y) = 0.09243 0.13622
# Poissons Ratio (z) = 0.29559 0.14921
#
# Static dielectric constant tensor:
#      x y z
#    x 5.978250 -0.078780 -0.402620 
#    y -0.078780 4.486950 -0.377130 
#    z -0.402620 -0.377130 4.232620 
# 
# 
# High freq. dielectric constant tensor:
#      x y z
#    x 1.923870 -0.004600 0.002160 
#    y -0.004600 1.920050 -0.014610 
#    z 0.002160 -0.014610 1.909270 
# 
# From -- ./inp_files/227767.got.cif
#   From: 2010.06.25/outbox.cif.g09.slc.cpg/sg2_114_cif.got.tgz:227767.got - 2010.06.27 13:26:56.
