data_PCOD8027840
_publ_section_title
;
Structure prediction by ZEFSAII (Michael W. Deem and Ramdas Pophale) SiO2 
 PCOD8027840
Probable space group: P -1
;
_chemical_formula_sum "Si O2"
_cell_formula_units_Z 14
_cell_length_a 9.736158
_cell_length_b 13.803653
_cell_length_c 11.084053
_cell_angle_alpha 31.221343
_cell_angle_beta 51.278200
_cell_angle_gamma 64.423646
_cell_volume 582.465866
_symmetry_space_group_name_H-M "P -1"
_symmetry_group_IT_number 2
_symmetry_cell_setting 'triclinic'
loop_
_space_group_symop_operation_xyz
x,y,z
-x,-y,-z
loop_
_atom_site_type_symbol
_atom_site_label
_atom_site_fract_x
_atom_site_fract_y
_atom_site_fract_z
Si Si1 0.818228 0.205266 0.872084
Si Si2 0.436984 0.561797 0.842640
Si Si3 0.692347 0.147691 0.252662
Si Si4 0.802111 0.772386 0.311475
Si Si5 0.819960 0.546449 0.096987
Si Si6 0.311157 0.832479 0.277318
Si Si7 0.925325 0.886615 0.863745
O O1 0.733697 0.269577 0.973134
O O2 0.800595 0.978708 0.147612
O O3 0.717363 0.241040 0.767918
O O4 0.034808 0.306266 0.634324
O O5 0.326509 0.720755 0.763396
O O6 0.612224 0.627060 0.594587
O O7 0.296070 0.406110 0.003973
O O8 0.500000 0.500000 0.000000
O O9 0.856727 0.051132 0.299899
O O10 0.500000 0.000000 0.500000
O O11 0.824966 0.774779 0.153366
O O12 0.695315 0.357641 0.437278
O O13 0.868365 0.741779 0.938502
O O14 0.000000 0.500000 0.000000
O O15 0.146072 0.920934 0.319789
O O16 0.500000 0.000000 0.000000
#
# Coordination Sequence:
#
# PCOD8027840 Si02
#       7
#     2   2   2   2   2   2   2
#     4   9  19  38  67  98 133 178 233 292 340 422
#     4  12  27  43  66 102 144 186 237 296 364 429
#     4  11  22  41  72 104 144 188 239 291 361 433
#     4   9  19  39  66  98 132 178 235 283 347 422
#     4  12  27  48  69 107 155 184 243 311 366 437
#     4  11  26  44  75 105 141 196 251 293 367 436
#     4  10  24  47  74 105 143 198 236 302 369 427
#
# _framework density 24.035744000000001
#
# number of rings (size 3 to 8) (size 9 to 14) (size 15 to 20)
#    0.000    1.429    2.857    2.571    2.000    5.143 
#    0.000    2.857    0.000    0.000    0.000    0.000 
#    0.000    0.000    0.000    0.000    0.000    0.000 
#
# Total GULP energy -173513.814714 kJ/mol
# GULP energy per Si atom -12393.843908 kJ/mol
# Density = 2.398104 g / cm^3
# Si number density = 24.035744 Si / 1000 Ang^3
#
#
#
# Elastic Constant Matrix: (Units=GPa)
#
#
# Indices 1 2 3 4 5 6 
#
# 1 166.6958 37.7632 29.0508 15.2316 -11.0910 13.0337
# 2 37.7632 80.5231 19.5838 14.0108 -19.6385 10.6129
# 3 29.0508 19.5838 51.7251 16.4703 -8.4143 -6.9345
# 4 15.2316 14.0108 16.4703 35.8944 -8.1702 -2.8886
# 5 -11.0910 -19.6385 -8.4143 -8.1702 33.9983 3.3046
# 6 13.0337 10.6129 -6.9345 -2.8886 3.3046 44.2769
#
#
#
# Elastic Compliance Matrix: (Units=1/GPa)
#
#
# Indices 1 2 3 4 5 6 
#
# 1 0.007328 -0.002096 -0.003282 -0.000881 0.000374 -0.002254
# 2 -0.002096 0.017498 -0.003921 -0.002653 0.008300 -0.004984
# 3 -0.003282 -0.003921 0.026196 -0.008531 0.000572 0.005409
# 4 -0.000881 -0.002653 -0.008531 0.034249 0.004155 0.001484
# 5 0.000374 0.008300 0.000572 0.004155 0.035899 -0.004418
# 6 -0.002254 -0.004984 0.005409 0.001484 -0.004418 0.025717
#
#
# Mechanical properties :
#
#
# Convention : Reuss Voigt Hill
#
# Bulk Modulus (GPa) = 30.84284 52.41553 41.62919
# Shear Modulus (GPa) = 28.36187 37.00368 32.68277
#
# Velocity S-wave (km/s) = 3.43882 3.92794 3.69149
# Velocity P-wave (km/s) = 5.35044 6.51354 5.96043
#
# Compressibility (1/GPa) = 0.03242243
#
# Stress axis : x y z
#
# Youngs Moduli (GPa) = 136.47075 57.14832 38.17425
#
# Poissons Ratio (x) = 0.11981 0.12530
# Poissons Ratio (y) = 0.28610 0.14967
# Poissons Ratio (z) = 0.44795 0.22406
#
# Static dielectric constant tensor:
#      x y z
#    x 4.585510 -0.106760 -0.068590 
#    y -0.106760 3.717230 0.068960 
#    z -0.068590 0.068960 4.042330 
# 
# 
# High freq. dielectric constant tensor:
#      x y z
#    x 1.968890 0.007400 -0.014600 
#    y 0.007400 1.966090 0.020650 
#    z -0.014600 0.020650 1.928020 
# 
# From -- ./inp_files/398029.got.cif
#   From: 2010.06.25/outbox.cif.g09.slc.cpg/sg2_200_cif.got.tgz:398029.got - 2010.06.27 13:26:56.
