data_PCOD8027542
_publ_section_title
;
Structure prediction by ZEFSAII (Michael W. Deem and Ramdas Pophale) SiO2 
 PCOD8027542
Probable space group: P -1
;
_chemical_formula_sum "Si O2"
_cell_formula_units_Z 12
_cell_length_a 19.236563
_cell_length_b 10.829143
_cell_length_c 7.358612
_cell_angle_alpha 136.690469
_cell_angle_beta 132.414238
_cell_angle_gamma 32.258194
_cell_volume 553.844413
_symmetry_space_group_name_H-M "P -1"
_symmetry_group_IT_number 2
_symmetry_cell_setting 'triclinic'
loop_
_space_group_symop_operation_xyz
x,y,z
-x,-y,-z
loop_
_atom_site_type_symbol
_atom_site_label
_atom_site_fract_x
_atom_site_fract_y
_atom_site_fract_z
Si Si1 0.249949 0.780699 0.397732
Si Si2 0.218363 0.343048 0.465688
Si Si3 0.645681 0.098337 0.002091
Si Si4 0.966960 0.086578 0.328584
Si Si5 0.765116 0.054040 0.826683
Si Si6 0.420456 0.247979 0.002029
O O1 0.257433 0.906943 0.713797
O O2 0.294507 0.833617 0.356129
O O3 0.346437 0.479242 0.260503
O O4 0.100466 0.908180 0.254899
O O5 0.100498 0.629111 0.506342
O O6 0.317590 0.294297 0.735048
O O7 0.159470 0.240004 0.344291
O O8 0.293496 0.181273 0.237706
O O9 0.641547 0.212232 0.922458
O O10 0.510148 0.251126 0.031931
O O11 0.868589 0.070713 0.064230
O O12 0.000000 0.000000 0.500000
O O13 0.500000 0.000000 0.000000
#
# Coordination Sequence:
#
# PCOD8027542 Si02
#       6
#     2   2   2   2   2   2
#     4  12  25  46  73 107 142 191 237 293 362 416
#     4  10  25  48  71 107 140 189 235 290 362 412
#     4  10  25  46  71 104 143 188 236 291 357 417
#     4  12  24  47  74 105 147 185 236 295 359 426
#     4  10  24  45  71 108 139 187 232 297 350 423
#     4  12  26  46  73 105 146 188 242 293 350 431
#
# _framework density 21.666734999999999
#
# number of rings (size 3 to 8) (size 9 to 14) (size 15 to 20)
#    1.000    0.000    3.333    2.500    2.333    4.000 
#    3.000    0.000    0.000    0.000    0.000    0.000 
#    0.000    0.000    0.000    0.000    0.000    0.000 
#
# Total GULP energy -148691.837763 kJ/mol
# GULP energy per Si atom -12390.986480 kJ/mol
# Density = 2.161742 g / cm^3
# Si number density = 21.666735 Si / 1000 Ang^3
#
#
#
# Elastic Constant Matrix: (Units=GPa)
#
#
# Indices 1 2 3 4 5 6 
#
# 1 108.3964 24.5438 14.7968 22.9052 -18.7251 1.7615
# 2 24.5438 117.5697 27.5253 41.2120 -20.9104 12.1423
# 3 14.7968 27.5253 94.1927 29.6460 -15.0806 7.4020
# 4 22.9052 41.2120 29.6460 5.0055 20.9463 -3.6079
# 5 -18.7251 -20.9104 -15.0806 20.9463 23.6530 -0.9352
# 6 1.7615 12.1423 7.4020 -3.6079 -0.9352 43.5175
#
#
#
# Elastic Compliance Matrix: (Units=1/GPa)
#
#
# Indices 1 2 3 4 5 6 
#
# 1 0.009087 -0.003334 -0.002185 0.004590 -0.001160 0.001290
# 2 -0.003334 0.006952 -0.004480 0.006833 -0.005425 -0.000593
# 3 -0.002185 -0.004480 0.009920 0.005366 -0.004117 0.000008
# 4 0.004590 0.006833 0.005366 -0.012556 0.024076 -0.003529
# 5 -0.001160 -0.005425 -0.004117 0.024076 0.012797 0.004532
# 6 0.001290 -0.000593 0.000008 -0.003529 0.004532 0.022896
#
#
# Mechanical properties :
#
#
# Convention : Reuss Voigt Hill
#
# Bulk Modulus (GPa) = 167.76383 50.43228 109.09806
# Shear Modulus (GPa) = 70.34166 31.32140 50.83153
#
# Velocity S-wave (km/s) = 5.70401 3.80623 4.84887
# Velocity P-wave (km/s) = 10.99901 6.53019 9.04494
#
# Compressibility (1/GPa) = 0.00596076
#
# Stress axis : x y z
#
# Youngs Moduli (GPa) = 110.04343 143.85324 100.80227
#
# Poissons Ratio (x) = 0.47959 0.22025
# Poissons Ratio (y) = 0.36687 0.45163
# Poissons Ratio (z) = 0.24044 0.64452
#
# Static dielectric constant tensor:
#      x y z
#    x 4.828300 0.698890 -0.484240 
#    y 0.698890 4.254220 -0.248140 
#    z -0.484240 -0.248140 4.423370 
# 
# 
# High freq. dielectric constant tensor:
#      x y z
#    x 1.861770 0.006590 0.000530 
#    y 0.006590 1.832870 0.004030 
#    z 0.000530 0.004030 1.869130 
# 
# From -- ./inp_files/344858.got.cif
#   From: 2010.06.25/outbox.cif.g09.slc.cpg/sg2_173_cif.got.tgz:344858.got - 2010.06.27 13:26:56.
