data_PCOD8027132
_publ_section_title
;
Structure prediction by ZEFSAII (Michael W. Deem and Ramdas Pophale) SiO2 
 PCOD8027132
Probable space group: P -1
;
_chemical_formula_sum "Si O2"
_cell_formula_units_Z 14
_cell_length_a 8.095217
_cell_length_b 8.795363
_cell_length_c 12.102748
_cell_angle_alpha 71.168512
_cell_angle_beta 118.327318
_cell_angle_gamma 127.264777
_cell_volume 602.898778
_symmetry_space_group_name_H-M "P -1"
_symmetry_group_IT_number 2
_symmetry_cell_setting 'triclinic'
loop_
_space_group_symop_operation_xyz
x,y,z
-x,-y,-z
loop_
_atom_site_type_symbol
_atom_site_label
_atom_site_fract_x
_atom_site_fract_y
_atom_site_fract_z
Si Si1 0.108876 0.893896 0.208216
Si Si2 0.256820 0.054027 0.980706
Si Si3 0.986884 0.495439 0.317580
Si Si4 0.303045 0.481774 0.593937
Si Si5 0.252940 0.141242 0.403188
Si Si6 0.274036 0.819086 0.870267
Si Si7 0.751719 0.918315 0.344449
O O1 0.116121 0.706011 0.256835
O O2 0.216806 0.024192 0.104996
O O3 0.244723 0.010946 0.332069
O O4 0.853779 0.842309 0.137443
O O5 0.523477 0.196836 0.017703
O O6 0.159364 0.849920 0.933842
O O7 0.787378 0.461530 0.342684
O O8 0.895940 0.360465 0.214352
O O9 0.160556 0.464044 0.445108
O O10 0.565018 0.637795 0.620050
O O11 0.275071 0.279308 0.652938
O O12 0.324319 0.085077 0.552696
O O13 0.007798 0.099068 0.361772
O O14 0.387085 0.020885 0.788511
#
# Coordination Sequence:
#
# PCOD8027132 Si02
#       7
#     2   2   2   2   2   2   2
#     4  11  23  45  66  96 135 175 226 274 325 400
#     4  10  24  44  68  90 128 187 224 270 333 383
#     4  11  24  40  65 100 138 167 227 275 325 412
#     4  11  24  41  64 105 138 175 214 266 350 404
#     4  11  22  40  70  95 135 176 214 272 340 386
#     4  11  23  44  68  96 132 175 224 278 329 389
#     4  11  23  43  66  99 138 171 219 279 327 407
#
# _framework density 23.221145
#
# number of rings (size 3 to 8) (size 9 to 14) (size 15 to 20)
#    0.000    1.143    2.857    3.000    4.000    1.714 
#    0.000    5.714    0.000    0.000    0.000    0.000 
#    0.000    0.000    0.000    0.000    0.000    0.000 
#
# Total GULP energy -173528.440661 kJ/mol
# GULP energy per Si atom -12394.888619 kJ/mol
# Density = 2.316829 g / cm^3
# Si number density = 23.221145 Si / 1000 Ang^3
#
#
#
# Elastic Constant Matrix: (Units=GPa)
#
#
# Indices 1 2 3 4 5 6 
#
# 1 38.6412 24.0305 16.1815 4.8472 -7.4438 2.3590
# 2 24.0305 116.7332 33.3258 14.2204 4.8446 -2.9161
# 3 16.1815 33.3258 85.5273 15.8837 -19.3089 -11.0070
# 4 4.8472 14.2204 15.8837 37.4778 -9.5977 -7.0861
# 5 -7.4438 4.8446 -19.3089 -9.5977 38.3055 0.4755
# 6 2.3590 -2.9161 -11.0070 -7.0861 0.4755 37.9298
#
#
#
# Elastic Compliance Matrix: (Units=1/GPa)
#
#
# Indices 1 2 3 4 5 6 
#
# 1 0.032178 -0.006146 -0.002882 0.000213 0.005672 -0.003342
# 2 -0.006146 0.011621 -0.004045 -0.003410 -0.005552 -0.000466
# 3 -0.002882 -0.004045 0.016504 -0.002354 0.007630 0.004122
# 4 0.000213 -0.003410 -0.002354 0.031704 0.007169 0.004875
# 5 0.005672 -0.005552 0.007630 0.007169 0.033524 0.002354
# 6 -0.003342 -0.000466 0.004122 0.004875 0.002354 0.028614
#
#
# Mechanical properties :
#
#
# Convention : Reuss Voigt Hill
#
# Bulk Modulus (GPa) = 29.27756 43.10860 36.19308
# Shear Modulus (GPa) = 26.08559 33.90020 29.99290
#
# Velocity S-wave (km/s) = 3.35528 3.82499 3.59781
# Velocity P-wave (km/s) = 5.25796 6.17350 5.73403
#
# Compressibility (1/GPa) = 0.03415586
#
# Stress axis : x y z
#
# Youngs Moduli (GPa) = 31.07688 86.05246 60.59196
#
# Poissons Ratio (x) = 0.52889 0.17463
# Poissons Ratio (y) = 0.19100 0.24511
# Poissons Ratio (z) = 0.08957 0.34811
#
# Static dielectric constant tensor:
#      x y z
#    x 4.210960 -0.121670 -0.045910 
#    y -0.121670 3.885320 -0.011610 
#    z -0.045910 -0.011610 4.562510 
# 
# 
# High freq. dielectric constant tensor:
#      x y z
#    x 1.915900 -0.014530 -0.008320 
#    y -0.014530 1.893530 0.005850 
#    z -0.008320 0.005850 1.938810 
# 
# From -- ./inp_files/378896.got.cif
#   From: 2010.06.25/outbox.cif.g09.slc.cpg/sg2_190_cif.got.tgz:378896.got - 2010.06.27 13:26:56.
