data_PCOD8027235
_publ_section_title
;
Structure prediction by ZEFSAII (Michael W. Deem and Ramdas Pophale) SiO2 
 PCOD8027235
Probable space group: P -1
;
_chemical_formula_sum "Si O2"
_cell_formula_units_Z 16
_cell_length_a 6.459358
_cell_length_b 17.947873
_cell_length_c 8.479281
_cell_angle_alpha 72.145291
_cell_angle_beta 113.787176
_cell_angle_gamma 123.563131
_cell_volume 745.021028
_symmetry_space_group_name_H-M "P -1"
_symmetry_group_IT_number 2
_symmetry_cell_setting 'triclinic'
loop_
_space_group_symop_operation_xyz
x,y,z
-x,-y,-z
loop_
_atom_site_type_symbol
_atom_site_label
_atom_site_fract_x
_atom_site_fract_y
_atom_site_fract_z
Si Si1 0.602084 0.309237 0.562432
Si Si2 0.855006 0.632305 0.194040
Si Si3 0.770826 0.877299 0.569781
Si Si4 0.565449 0.733919 0.099767
Si Si5 0.652657 0.023371 0.369057
Si Si6 0.535695 0.543674 0.648932
Si Si7 0.976534 0.403356 0.061792
Si Si8 0.738955 0.923664 0.892994
O O1 0.444763 0.225080 0.454368
O O2 0.492419 0.288943 0.718960
O O3 0.582177 0.390560 0.425461
O O4 0.906374 0.340550 0.630574
O O5 0.792265 0.713517 0.131827
O O6 0.607925 0.536185 0.218533
O O7 0.934017 0.624408 0.049271
O O8 0.688532 0.937301 0.394406
O O9 0.783899 0.903906 0.740064
O O10 0.052312 0.892126 0.589896
O O11 0.649702 0.836753 0.030271
O O12 0.320517 0.671956 0.952610
O O13 0.500000 0.000000 0.500000
O O14 0.480595 0.045282 0.180663
O O15 0.500000 0.500000 0.500000
O O16 0.843584 0.598733 0.742116
O O17 0.000000 0.500000 0.000000
O O18 0.000000 0.000000 0.000000
#
# Coordination Sequence:
#
# PCOD8027235 Si02
#       8
#     2   2   2   2   2   2   2   2
#     4  11  26  41  69  98 134 175 229 278 324 407
#     4  11  24  45  66  97 139 181 216 279 335 396
#     4  10  24  44  70  99 129 177 224 273 341 397
#     4  11  26  44  64  99 139 177 228 275 340 398
#     4   9  22  45  67  95 130 165 222 272 340 394
#     4  12  23  44  67  98 136 178 224 269 337 398
#     4  11  24  44  69  99 135 181 223 278 334 403
#     4  11  27  43  69  99 136 178 225 281 337 404
#
# _framework density 21.475902999999999
#
# number of rings (size 3 to 8) (size 9 to 14) (size 15 to 20)
#    0.000    1.250    2.500    1.500   10.500    3.500 
#    0.000    0.000    0.000    0.000    0.000    0.000 
#    0.000    0.000    0.000    0.000    0.000    0.000 
#
# Total GULP energy -198400.664015 kJ/mol
# GULP energy per Si atom -12400.041501 kJ/mol
# Density = 2.142702 g / cm^3
# Si number density = 21.475903 Si / 1000 Ang^3
#
#
#
# Elastic Constant Matrix: (Units=GPa)
#
#
# Indices 1 2 3 4 5 6 
#
# 1 103.2573 28.4419 41.1593 7.4408 35.1999 -6.5177
# 2 28.4419 134.6218 47.8665 9.6345 27.3923 -2.6292
# 3 41.1593 47.8665 101.7258 9.8297 37.0396 -6.8150
# 4 7.4408 9.6345 9.8297 50.2961 -0.9607 5.0484
# 5 35.1999 27.3923 37.0396 -0.9607 49.0814 -0.9708
# 6 -6.5177 -2.6292 -6.8150 5.0484 -0.9708 30.6196
#
#
#
# Elastic Compliance Matrix: (Units=1/GPa)
#
#
# Indices 1 2 3 4 5 6 
#
# 1 0.013634 -0.000318 -0.002098 -0.001948 -0.008007 0.002475
# 2 -0.000318 0.009225 -0.003160 -0.001165 -0.002556 0.000132
# 3 -0.002098 -0.003160 0.015753 -0.002624 -0.008613 0.002948
# 4 -0.001948 -0.001165 -0.002624 0.021441 0.004357 -0.004495
# 5 -0.008007 -0.002556 -0.008613 0.004357 0.034060 -0.003480
# 6 0.002475 0.000132 0.002948 -0.004495 -0.003480 0.034484
#
#
# Mechanical properties :
#
#
# Convention : Reuss Voigt Hill
#
# Bulk Modulus (GPa) = 36.41452 63.83781 50.12617
# Shear Modulus (GPa) = 33.57914 40.80856 37.19385
#
# Velocity S-wave (km/s) = 3.95849 4.36386 4.16611
# Velocity P-wave (km/s) = 6.15514 7.42838 6.82153
#
# Compressibility (1/GPa) = 0.02746157
#
# Stress axis : x y z
#
# Youngs Moduli (GPa) = 73.34417 108.40124 63.47886
#
# Poissons Ratio (x) = 0.03445 0.13315
# Poissons Ratio (y) = 0.02331 0.20060
# Poissons Ratio (z) = 0.15384 0.34257
#
# Static dielectric constant tensor:
#      x y z
#    x 3.332180 -0.425570 0.083190 
#    y -0.425570 3.670950 -0.169850 
#    z 0.083190 -0.169850 3.988160 
# 
# 
# High freq. dielectric constant tensor:
#      x y z
#    x 1.852850 0.000440 0.018020 
#    y 0.000440 1.846720 -0.000240 
#    z 0.018020 -0.000240 1.843930 
# 
# From -- ./inp_files/38214.got.cif
#   From: 2010.06.25/outbox.cif.g09.slc.cpg/sg2_20_cif.got.tgz:38214.got - 2010.06.27 13:26:56.
