data_PCOD8027559
_publ_section_title
;
Structure prediction by ZEFSAII (Michael W. Deem and Ramdas Pophale) SiO2 
 PCOD8027559
Probable space group: P -1
;
_chemical_formula_sum "Si O2"
_cell_formula_units_Z 16
_cell_length_a 15.172143
_cell_length_b 14.699852
_cell_length_c 11.162855
_cell_angle_alpha 124.421148
_cell_angle_beta 141.589919
_cell_angle_gamma 27.917670
_cell_volume 651.389561
_symmetry_space_group_name_H-M "P -1"
_symmetry_group_IT_number 2
_symmetry_cell_setting 'triclinic'
loop_
_space_group_symop_operation_xyz
x,y,z
-x,-y,-z
loop_
_atom_site_type_symbol
_atom_site_label
_atom_site_fract_x
_atom_site_fract_y
_atom_site_fract_z
Si Si1 0.011498 0.311241 0.374063
Si Si2 0.629828 0.345788 0.341585
Si Si3 0.058155 0.041010 0.764132
Si Si4 0.618066 0.959333 0.831703
Si Si5 0.133817 0.540927 0.931512
Si Si6 0.718273 0.513216 0.455809
Si Si7 0.865237 0.025591 0.767082
Si Si8 0.162517 0.320893 0.942738
O O1 0.871323 0.457418 0.216422
O O2 0.810622 0.477901 0.393088
O O3 0.312288 0.164859 0.604110
O O4 0.021311 0.173329 0.268976
O O5 0.624327 0.449425 0.319260
O O6 0.793039 0.267863 0.578860
O O7 0.756339 0.153102 0.272826
O O8 0.308111 0.528196 0.160745
O O9 0.932325 0.046110 0.733958
O O10 0.258052 0.001006 0.999525
O O11 0.819786 0.756646 0.806540
O O12 0.603058 0.907482 0.907641
O O13 0.278463 0.329325 0.972818
O O14 0.465036 0.762490 0.406568
O O15 0.966025 0.364194 0.701776
O O16 0.000000 0.000000 0.000000
O O17 0.000000 0.500000 0.000000
#
# Coordination Sequence:
#
# PCOD8027559 Si02
#       8
#     2   2   2   2   2   2   2   2
#     4  12  28  49  73 110 154 190 250 299 363 455
#     4  11  25  45  73 108 147 186 252 303 369 435
#     4  11  25  44  72 109 146 192 243 311 365 435
#     4  11  24  46  74 104 148 189 243 308 368 427
#     4  11  26  46  74 104 145 196 242 302 366 442
#     4  12  26  47  76 106 145 199 239 307 368 429
#     4  12  27  46  76 107 152 195 243 303 374 439
#     4  10  24  45  72 110 141 191 247 296 365 441
#
# _framework density 24.562874999999998
#
# number of rings (size 3 to 8) (size 9 to 14) (size 15 to 20)
#    0.000    0.750    2.500    4.125    8.750    4.000 
#    0.000    0.000    0.000    0.000    0.000    0.000 
#    0.000    0.000    0.000    0.000    0.000    0.000 
#
# Total GULP energy -198476.086568 kJ/mol
# GULP energy per Si atom -12404.755410 kJ/mol
# Density = 2.450697 g / cm^3
# Si number density = 24.562875 Si / 1000 Ang^3
#
#
#
# Elastic Constant Matrix: (Units=GPa)
#
#
# Indices 1 2 3 4 5 6 
#
# 1 162.8405 28.2586 47.5708 -1.4391 -1.3751 5.6910
# 2 28.2586 46.0082 4.4141 8.2760 3.4722 7.0930
# 3 47.5708 4.4141 122.5974 10.9215 7.1840 0.2614
# 4 -1.4391 8.2760 10.9215 30.4030 1.3479 3.5999
# 5 -1.3751 3.4722 7.1840 1.3479 45.9714 0.4975
# 6 5.6910 7.0930 0.2614 3.5999 0.4975 24.4558
#
#
#
# Elastic Compliance Matrix: (Units=1/GPa)
#
#
# Indices 1 2 3 4 5 6 
#
# 1 0.008048 -0.005124 -0.003266 0.002998 0.001059 -0.000815
# 2 -0.005124 0.027078 0.001824 -0.007516 -0.002203 -0.005530
# 3 -0.003266 0.001824 0.009828 -0.004200 -0.001657 0.000778
# 4 0.002998 -0.007516 -0.004200 0.037042 0.000270 -0.003931
# 5 0.001059 -0.002203 -0.001657 0.000270 0.022203 -0.000081
# 6 -0.000815 -0.005530 0.000778 -0.003931 -0.000081 0.043256
#
#
# Mechanical properties :
#
#
# Convention : Reuss Voigt Hill
#
# Bulk Modulus (GPa) = 31.42430 54.65923 43.04177
# Shear Modulus (GPa) = 29.20688 36.91286 33.05987
#
# Velocity S-wave (km/s) = 3.45202 3.88079 3.67267
# Velocity P-wave (km/s) = 5.35815 6.51013 5.96203
#
# Compressibility (1/GPa) = 0.03182251
#
# Stress axis : x y z
#
# Youngs Moduli (GPa) = 124.25385 36.93037 101.75114
#
# Poissons Ratio (x) = 0.18921 0.33230
# Poissons Ratio (y) = 0.63661 -0.18555
# Poissons Ratio (z) = 0.40579 -0.06735
#
# Static dielectric constant tensor:
#      x y z
#    x 4.756330 0.054560 -0.014740 
#    y 0.054560 4.403610 -0.002710 
#    z -0.014740 -0.002710 4.494530 
# 
# 
# High freq. dielectric constant tensor:
#      x y z
#    x 1.990850 0.003430 0.001180 
#    y 0.003430 1.976710 0.007550 
#    z 0.001180 0.007550 1.983450 
# 
# From -- ./inp_files/455837.got.cif
#   From: 2010.06.25/outbox.cif.g09.slc.cpg/sg2_228_cif.got.tgz:455837.got - 2010.06.27 13:26:56.
