data_PCOD8027506
_publ_section_title
;
Structure prediction by ZEFSAII (Michael W. Deem and Ramdas Pophale) SiO2 
 PCOD8027506
Probable space group: P -1
;
_chemical_formula_sum "Si O2"
_cell_formula_units_Z 16
_cell_length_a 8.601034
_cell_length_b 12.828420
_cell_length_c 15.025117
_cell_angle_alpha 43.886368
_cell_angle_beta 140.886608
_cell_angle_gamma 130.191205
_cell_volume 710.818128
_symmetry_space_group_name_H-M "P -1"
_symmetry_group_IT_number 2
_symmetry_cell_setting 'triclinic'
loop_
_space_group_symop_operation_xyz
x,y,z
-x,-y,-z
loop_
_atom_site_type_symbol
_atom_site_label
_atom_site_fract_x
_atom_site_fract_y
_atom_site_fract_z
Si Si1 0.891615 0.268060 0.584988
Si Si2 0.404842 0.878297 0.954346
Si Si3 0.700730 0.510429 0.460380
Si Si4 0.820203 0.115621 0.331836
Si Si5 0.134594 0.449943 0.289080
Si Si6 0.477654 0.853866 0.643632
Si Si7 0.082500 0.034740 0.916987
Si Si8 0.984697 0.731737 0.969592
O O1 0.771662 0.352256 0.558006
O O2 0.741596 0.268355 0.425942
O O3 0.175801 0.353436 0.635511
O O4 0.880983 0.095857 0.726160
O O5 0.302299 0.947903 0.777246
O O6 0.663232 0.833661 0.060070
O O7 0.181589 0.737244 0.970982
O O8 0.500000 0.000000 0.000000
O O9 0.401866 0.495287 0.330093
O O10 0.812163 0.547865 0.584451
O O11 0.605897 0.109846 0.316159
O O12 0.984788 0.286037 0.291970
O O13 0.000000 0.000000 0.500000
O O14 0.960870 0.571518 0.109215
O O15 0.500000 0.000000 0.500000
O O16 0.715930 0.770015 0.800722
O O17 0.128190 0.870546 0.007608
O O18 0.000000 0.000000 0.000000
#
# Coordination Sequence:
#
# PCOD8027506 Si02
#       8
#     2   2   2   2   2   2   2   2
#     4  11  23  44  72 102 140 192 239 289 360 424
#     4  10  25  44  67 103 140 185 233 295 353 426
#     4  10  24  45  70 103 142 190 232 299 354 427
#     4  12  28  46  74 106 141 188 241 294 365 433
#     4  11  25  46  70 104 144 184 241 292 361 424
#     4  12  25  46  73 105 143 186 240 301 356 432
#     4  11  22  41  71 101 139 184 240 293 356 421
#     4  11  24  43  68 100 143 183 232 293 356 420
#
# _framework density 22.509274000000001
#
# number of rings (size 3 to 8) (size 9 to 14) (size 15 to 20)
#    0.000    1.000    2.500    3.000    5.250    5.000 
#    4.500    0.000    0.000    0.000    0.000    0.000 
#    0.000    0.000    0.000    0.000    0.000    0.000 
#
# Total GULP energy -198222.373704 kJ/mol
# GULP energy per Si atom -12388.898356 kJ/mol
# Density = 2.245804 g / cm^3
# Si number density = 22.509274 Si / 1000 Ang^3
#
#
#
# Elastic Constant Matrix: (Units=GPa)
#
#
# Indices 1 2 3 4 5 6 
#
# 1 128.1086 35.5524 57.3819 6.2560 4.9014 3.6656
# 2 35.5524 94.6814 56.1335 -9.2707 -0.2768 -1.6174
# 3 57.3819 56.1335 162.0417 -5.3858 -2.0807 6.6697
# 4 6.2560 -9.2707 -5.3858 45.2853 -4.5258 -3.3662
# 5 4.9014 -0.2768 -2.0807 -4.5258 34.5668 10.5307
# 6 3.6656 -1.6174 6.6697 -3.3662 10.5307 27.7969
#
#
#
# Elastic Compliance Matrix: (Units=1/GPa)
#
#
# Indices 1 2 3 4 5 6 
#
# 1 0.009890 -0.002304 -0.002791 -0.002376 -0.001784 -0.000381
# 2 -0.002304 0.014191 -0.004111 0.002903 -0.000202 0.002544
# 3 -0.002791 -0.004111 0.008730 0.000566 0.001741 -0.002557
# 4 -0.002376 0.002903 0.000566 0.023512 0.002826 0.002123
# 5 -0.001784 -0.000202 0.001741 0.002826 0.033474 -0.012533
# 6 -0.000381 0.002544 -0.002557 0.002123 -0.012533 0.041792
#
#
# Mechanical properties :
#
#
# Convention : Reuss Voigt Hill
#
# Bulk Modulus (GPa) = 69.44014 75.88527 72.66270
# Shear Modulus (GPa) = 32.29949 37.24740 34.77344
#
# Velocity S-wave (km/s) = 3.79217 4.07228 3.93472
# Velocity P-wave (km/s) = 7.07747 7.47646 7.27970
#
# Compressibility (1/GPa) = 0.01440089
#
# Stress axis : x y z
#
# Youngs Moduli (GPa) = 101.10898 70.46591 114.54795
#
# Poissons Ratio (x) = 0.16234 0.31965
# Poissons Ratio (y) = 0.23293 0.47091
# Poissons Ratio (z) = 0.28215 0.28969
#
# Static dielectric constant tensor:
#      x y z
#    x 3.501720 -0.233650 -0.103470 
#    y -0.233650 4.114030 0.203960 
#    z -0.103470 0.203960 4.057200 
# 
# 
# High freq. dielectric constant tensor:
#      x y z
#    x 1.907740 0.011500 -0.001670 
#    y 0.011500 1.878250 0.012530 
#    z -0.001670 0.012530 1.891780 
# 
# From -- ./inp_files/500123.got.cif
#   From: 2010.06.25/outbox.cif.g09.slc.cpg/sg2_251_cif.got.tgz:500123.got - 2010.06.27 13:26:56.
