data_PCOD8027016
_publ_section_title
;
Structure prediction by ZEFSAII (Michael W. Deem and Ramdas Pophale) SiO2 
 PCOD8027016
Probable space group: P -1
;
_chemical_formula_sum "Si O2"
_cell_formula_units_Z 16
_cell_length_a 14.626704
_cell_length_b 8.884363
_cell_length_c 9.787956
_cell_angle_alpha 106.978361
_cell_angle_beta 73.485482
_cell_angle_gamma 53.710970
_cell_volume 789.597908
_symmetry_space_group_name_H-M "P -1"
_symmetry_group_IT_number 2
_symmetry_cell_setting 'triclinic'
loop_
_space_group_symop_operation_xyz
x,y,z
-x,-y,-z
loop_
_atom_site_type_symbol
_atom_site_label
_atom_site_fract_x
_atom_site_fract_y
_atom_site_fract_z
Si Si1 0.917365 0.936512 0.160774
Si Si2 0.964198 0.722214 0.596011
Si Si3 0.123214 0.674577 0.765013
Si Si4 0.101274 0.618216 0.237829
Si Si5 0.656354 0.141008 0.919697
Si Si6 0.625435 0.544862 0.031883
Si Si7 0.636263 0.770965 0.311367
Si Si8 0.761360 0.846625 0.055685
O O1 0.828126 0.903473 0.130379
O O2 0.969461 0.836074 0.263280
O O3 0.831300 0.206405 0.275076
O O4 0.057288 0.784346 0.970746
O O5 0.000000 0.500000 0.500000
O O6 0.011306 0.731339 0.725459
O O7 0.049653 0.710760 0.438950
O O8 0.795412 0.944177 0.716492
O O9 0.251512 0.397531 0.659530
O O10 0.242853 0.546733 0.134081
O O11 0.126196 0.402566 0.135659
O O12 0.518046 0.242907 0.931508
O O13 0.661426 0.044161 0.036188
O O14 0.644457 0.340018 0.001643
O O15 0.610119 0.638098 0.212416
O O16 0.677301 0.846062 0.199245
O O17 0.500000 0.000000 0.500000
#
# Coordination Sequence:
#
# PCOD8027016 Si02
#       8
#     2   2   2   2   2   2   2   2
#     4  11  21  40  67  93 123 165 216 258 320 386
#     4  12  25  39  66 103 131 161 218 277 316 369
#     4  11  23  40  66  91 129 166 206 267 322 373
#     4  11  23  40  65  99 131 169 212 270 321 382
#     4  11  23  42  67  92 131 173 214 265 318 389
#     4  10  24  44  64  90 132 179 213 252 331 392
#     4  11  26  42  64  93 128 168 216 266 314 386
#     4  11  22  39  67  93 124 169 214 262 322 380
#
# _framework density 20.263477000000002
#
# number of rings (size 3 to 8) (size 9 to 14) (size 15 to 20)
#    0.000    1.000    5.000    1.875    3.500    5.000 
#    0.000    5.000    0.000    0.000    0.000    0.000 
#    0.000    0.000    0.000    0.000    0.000    0.000 
#
# Total GULP energy -198392.635572 kJ/mol
# GULP energy per Si atom -12399.539723 kJ/mol
# Density = 2.021736 g / cm^3
# Si number density = 20.263477 Si / 1000 Ang^3
#
#
#
# Elastic Constant Matrix: (Units=GPa)
#
#
# Indices 1 2 3 4 5 6 
#
# 1 73.1297 32.1355 14.7777 -3.9272 9.9791 0.7534
# 2 32.1355 142.3860 41.9933 -3.4470 -7.8253 -5.6082
# 3 14.7777 41.9933 85.4686 -0.2986 -7.4697 -6.5405
# 4 -3.9272 -3.4470 -0.2986 27.6727 -2.8618 3.7269
# 5 9.9791 -7.8253 -7.4697 -2.8618 18.9569 4.9719
# 6 0.7534 -5.6082 -6.5405 3.7269 4.9719 30.4200
#
#
#
# Elastic Compliance Matrix: (Units=1/GPa)
#
#
# Indices 1 2 3 4 5 6 
#
# 1 0.017437 -0.003933 -0.002075 0.000740 -0.011560 0.000196
# 2 -0.003933 0.009206 -0.003421 0.001006 0.004627 0.000179
# 3 -0.002075 -0.003421 0.014293 -0.000304 0.004808 0.001745
# 4 0.000740 0.001006 -0.000304 0.037868 0.007117 -0.005701
# 5 -0.011560 0.004627 0.004808 0.007117 0.066213 -0.009521
# 6 0.000196 0.000179 0.001745 -0.005701 -0.009521 0.035531
#
#
# Mechanical properties :
#
#
# Convention : Reuss Voigt Hill
#
# Bulk Modulus (GPa) = 45.29753 53.19970 49.24861
# Shear Modulus (GPa) = 24.18207 29.54845 26.86526
#
# Velocity S-wave (km/s) = 3.45828 3.82280 3.64510
# Velocity P-wave (km/s) = 6.19267 6.76728 6.48634
#
# Compressibility (1/GPa) = 0.02207626
#
# Stress axis : x y z
#
# Youngs Moduli (GPa) = 57.34865 108.62970 69.96575
#
# Poissons Ratio (x) = 0.42725 0.14519
# Poissons Ratio (y) = 0.22556 0.23937
# Poissons Ratio (z) = 0.11901 0.37165
#
# Static dielectric constant tensor:
#      x y z
#    x 3.816720 0.102320 0.084080 
#    y 0.102320 4.051940 -0.090380 
#    z 0.084080 -0.090380 3.844420 
# 
# 
# High freq. dielectric constant tensor:
#      x y z
#    x 1.794010 0.008390 0.012340 
#    y 0.008390 1.812110 -0.002730 
#    z 0.012340 -0.002730 1.778420 
# 
# From -- ./inp_files/205612.got.cif
#   From: 2010.06.25/outbox.cif.g09.slc.cpg/sg2_103_cif.got.tgz:205612.got - 2010.06.27 13:26:56.
