data_PCOD8027496
_publ_section_title
;
Structure prediction by ZEFSAII (Michael W. Deem and Ramdas Pophale) SiO2 
 PCOD8027496
Probable space group: P -1
;
_chemical_formula_sum "Si O2"
_cell_formula_units_Z 16
_cell_length_a 9.162751
_cell_length_b 11.766417
_cell_length_c 14.589276
_cell_angle_alpha 60.349958
_cell_angle_beta 97.435831
_cell_angle_gamma 142.410529
_cell_volume 724.366127
_symmetry_space_group_name_H-M "P -1"
_symmetry_group_IT_number 2
_symmetry_cell_setting 'triclinic'
loop_
_space_group_symop_operation_xyz
x,y,z
-x,-y,-z
loop_
_atom_site_type_symbol
_atom_site_label
_atom_site_fract_x
_atom_site_fract_y
_atom_site_fract_z
Si Si1 0.820277 0.810811 0.814707
Si Si2 0.625118 0.896138 0.263069
Si Si3 0.240539 0.119111 0.412085
Si Si4 0.288136 0.605771 0.533512
Si Si5 0.762747 0.140864 0.581827
Si Si6 0.779562 0.292246 0.178612
Si Si7 0.387136 0.772325 0.100151
Si Si8 0.545131 0.331545 0.022540
O O1 0.712703 0.764174 0.723151
O O2 0.722835 0.849836 0.862452
O O3 0.702589 0.585069 0.927043
O O4 0.150920 0.051793 0.746366
O O5 0.420227 0.708572 0.402750
O O6 0.449138 0.769889 0.207501
O O7 0.781685 0.149946 0.191973
O O8 0.526645 0.338309 0.404046
O O9 0.153772 0.904058 0.469208
O O10 0.000000 0.000000 0.500000
O O11 0.256114 0.730560 0.518423
O O12 0.988774 0.314265 0.613641
O O13 0.472052 0.878640 0.703964
O O14 0.754868 0.381751 0.061136
O O15 0.058742 0.524210 0.163893
O O16 0.538902 0.786343 0.036882
O O17 0.500000 0.000000 0.000000
#
# Coordination Sequence:
#
# PCOD8027496 Si02
#       8
#     2   2   2   2   2   2   2   2
#     4  11  24  45  67  99 146 182 222 278 345 417
#     4  11  23  43  69 102 138 180 230 281 341 410
#     4  12  24  45  72  99 138 189 223 280 356 405
#     4  10  24  45  72 101 135 177 238 286 333 409
#     4  10  24  45  70 102 133 178 230 289 335 402
#     4  11  22  45  72  97 143 176 228 290 335 403
#     4  12  24  40  74 105 129 180 234 283 345 401
#     4  11  23  45  69  99 139 183 223 280 342 409
#
# _framework density 22.088276
#
# number of rings (size 3 to 8) (size 9 to 14) (size 15 to 20)
#    0.000    1.000    5.000    1.500    0.000    7.000 
#    2.250    0.000    0.000    0.000    0.000    0.000 
#    0.000    0.000    0.000    0.000    0.000    0.000 
#
# Total GULP energy -198458.560448 kJ/mol
# GULP energy per Si atom -12403.660028 kJ/mol
# Density = 2.203800 g / cm^3
# Si number density = 22.088276 Si / 1000 Ang^3
#
#
#
# Elastic Constant Matrix: (Units=GPa)
#
#
# Indices 1 2 3 4 5 6 
#
# 1 132.8441 51.2232 36.8351 5.1600 -21.1344 11.3877
# 2 51.2232 135.6482 45.0902 5.0864 -4.2380 21.1952
# 3 36.8351 45.0902 92.7138 11.5562 -6.1370 11.4876
# 4 5.1600 5.0864 11.5562 33.4910 5.1996 3.6927
# 5 -21.1344 -4.2380 -6.1370 5.1996 33.0715 12.9312
# 6 11.3877 21.1952 11.4876 3.6927 12.9312 41.9022
#
#
#
# Elastic Compliance Matrix: (Units=1/GPa)
#
#
# Indices 1 2 3 4 5 6 
#
# 1 0.010581 -0.002572 -0.001868 -0.001412 0.007590 -0.003280
# 2 -0.002572 0.010043 -0.003447 0.000402 0.000339 -0.003576
# 3 -0.001868 -0.003447 0.014141 -0.004225 0.002437 -0.002005
# 4 -0.001412 0.000402 -0.004225 0.032489 -0.006990 0.000633
# 5 0.007590 0.000339 0.002437 -0.006990 0.042733 -0.015474
# 6 -0.003280 -0.003576 -0.002005 0.000633 -0.015474 0.031835
#
#
# Mechanical properties :
#
#
# Convention : Reuss Voigt Hill
#
# Bulk Modulus (GPa) = 52.65744 69.72258 61.19001
# Shear Modulus (GPa) = 30.50149 36.89677 33.69913
#
# Velocity S-wave (km/s) = 3.72006 4.09152 3.91020
# Velocity P-wave (km/s) = 6.50716 7.34538 6.93894
#
# Compressibility (1/GPa) = 0.01899067
#
# Stress axis : x y z
#
# Youngs Moduli (GPa) = 94.51013 99.56801 70.71625
#
# Poissons Ratio (x) = 0.25608 0.13211
# Poissons Ratio (y) = 0.24307 0.24378
# Poissons Ratio (z) = 0.17656 0.34324
#
# Static dielectric constant tensor:
#      x y z
#    x 4.440830 0.030420 -0.090670 
#    y 0.030420 3.906000 0.163980 
#    z -0.090670 0.163980 4.036460 
# 
# 
# High freq. dielectric constant tensor:
#      x y z
#    x 1.888410 0.004010 -0.006500 
#    y 0.004010 1.859300 0.005320 
#    z -0.006500 0.005320 1.870070 
# 
# From -- ./inp_files/500187.got.cif
#   From: 2010.06.25/outbox.cif.g09.slc.cpg/sg2_251_cif.got.tgz:500187.got - 2010.06.27 13:26:56.
