data_PCOD8027532
_publ_section_title
;
Structure prediction by ZEFSAII (Michael W. Deem and Ramdas Pophale) SiO2 
 PCOD8027532
Probable space group: P -1
;
_chemical_formula_sum "Si O2"
_cell_formula_units_Z 16
_cell_length_a 14.733168
_cell_length_b 8.517010
_cell_length_c 9.343909
_cell_angle_alpha 104.687521
_cell_angle_beta 39.840546
_cell_angle_gamma 97.825285
_cell_volume 723.370626
_symmetry_space_group_name_H-M "P -1"
_symmetry_group_IT_number 2
_symmetry_cell_setting 'triclinic'
loop_
_space_group_symop_operation_xyz
x,y,z
-x,-y,-z
loop_
_atom_site_type_symbol
_atom_site_label
_atom_site_fract_x
_atom_site_fract_y
_atom_site_fract_z
Si Si1 0.823302 0.813857 0.571240
Si Si2 0.245927 0.835568 0.404848
Si Si3 0.721790 0.149814 0.294323
Si Si4 0.489614 0.192382 0.092080
Si Si5 0.194703 0.208931 0.881403
Si Si6 0.014134 0.684371 0.065349
Si Si7 0.521098 0.686841 0.547862
Si Si8 0.033982 0.320922 0.361429
O O1 0.671581 0.733270 0.734109
O O2 0.944943 0.710048 0.310236
O O3 0.888694 0.806934 0.649137
O O4 0.796492 0.995666 0.586240
O O5 0.279980 0.859794 0.534766
O O6 0.114353 0.730932 0.527490
O O7 0.387478 0.740171 0.139713
O O8 0.564238 0.204930 0.443734
O O9 0.763054 0.968346 0.143994
O O10 0.822710 0.274892 0.129150
O O11 0.524633 0.244335 0.223869
O O12 0.500000 0.000000 0.000000
O O13 0.067757 0.191748 0.918966
O O14 0.314750 0.288731 0.666032
O O15 0.142020 0.329423 0.100682
O O16 0.000000 0.500000 0.000000
O O17 0.500000 0.500000 0.500000
O O18 0.000000 0.500000 0.500000
#
# Coordination Sequence:
#
# PCOD8027532 Si02
#       8
#     2   2   2   2   2   2   2   2
#     4  11  24  44  69  97 136 183 227 279 348 410
#     4  11  24  46  69 103 136 176 234 283 340 420
#     4  12  26  44  75 104 134 185 235 287 348 417
#     4  10  24  45  71 100 138 181 228 279 348 421
#     4  12  24  47  69  98 141 178 238 281 341 424
#     4  12  23  43  70  98 140 179 228 289 346 408
#     4  12  28  46  73 108 140 183 234 293 355 411
#     4  12  28  42  66 103 141 181 227 285 347 404
#
# _framework density 22.118676000000001
#
# number of rings (size 3 to 8) (size 9 to 14) (size 15 to 20)
#    0.000    0.500    3.750    4.125    8.750    0.000 
#    0.000    1.250    0.000    0.000    0.000    0.000 
#    0.000    0.000    0.000    0.000    0.000    0.000 
#
# Total GULP energy -198409.617835 kJ/mol
# GULP energy per Si atom -12400.601115 kJ/mol
# Density = 2.206833 g / cm^3
# Si number density = 22.118676 Si / 1000 Ang^3
#
#
#
# Elastic Constant Matrix: (Units=GPa)
#
#
# Indices 1 2 3 4 5 6 
#
# 1 100.3795 2.0764 29.2779 5.7099 10.7019 -2.9907
# 2 2.0764 79.6906 22.0484 11.3997 1.4600 13.2940
# 3 29.2779 22.0484 160.5507 -7.3191 13.3350 9.9904
# 4 5.7099 11.3997 -7.3191 28.7165 7.1383 2.4661
# 5 10.7019 1.4600 13.3350 7.1383 28.5015 5.0902
# 6 -2.9907 13.2940 9.9904 2.4661 5.0902 29.6673
#
#
#
# Elastic Compliance Matrix: (Units=1/GPa)
#
#
# Indices 1 2 3 4 5 6 
#
# 1 0.011085 0.000259 -0.002055 -0.002274 -0.003075 0.002410
# 2 0.000259 0.015094 -0.002314 -0.006869 0.002986 -0.005900
# 3 -0.002055 -0.002314 0.007487 0.004207 -0.003406 -0.001457
# 4 -0.002274 -0.006869 0.004207 0.041876 -0.011229 -0.000122
# 5 -0.003075 0.002986 -0.003406 -0.011229 0.041694 -0.006721
# 6 0.002410 -0.005900 -0.001457 -0.000122 -0.006721 0.038248
#
#
# Mechanical properties :
#
#
# Convention : Reuss Voigt Hill
#
# Bulk Modulus (GPa) = 39.29963 49.71402 44.50683
# Shear Modulus (GPa) = 29.03836 36.52493 32.78165
#
# Velocity S-wave (km/s) = 3.62725 4.06805 3.85396
# Velocity P-wave (km/s) = 5.94548 6.67759 6.32214
#
# Compressibility (1/GPa) = 0.02544553
#
# Stress axis : x y z
#
# Youngs Moduli (GPa) = 90.20972 66.25086 133.57355
#
# Poissons Ratio (x) = -0.01718 0.27454
# Poissons Ratio (y) = -0.02340 0.30912
# Poissons Ratio (z) = 0.18541 0.15332
#
# Static dielectric constant tensor:
#      x y z
#    x 4.347740 0.154980 -0.269390 
#    y 0.154980 3.887900 -0.084880 
#    z -0.269390 -0.084880 4.582690 
# 
# 
# High freq. dielectric constant tensor:
#      x y z
#    x 1.879180 0.004500 -0.004320 
#    y 0.004500 1.856400 -0.000430 
#    z -0.004320 -0.000430 1.893580 
# 
# From -- ./inp_files/186054.got.cif
#   From: 2010.06.25/outbox.cif.g09.slc.cpg/sg2_94_cif.got.tgz:186054.got - 2010.06.27 13:26:56.
