data_PCOD8027087
_publ_section_title
;
Structure prediction by ZEFSAII (Michael W. Deem and Ramdas Pophale) SiO2 
 PCOD8027087
Probable space group: P -1
;
_chemical_formula_sum "Si O2"
_cell_formula_units_Z 16
_cell_length_a 24.300572
_cell_length_b 5.290681
_cell_length_c 14.218142
_cell_angle_alpha 89.694612
_cell_angle_beta 20.822419
_cell_angle_gamma 86.275742
_cell_volume 640.472176
_symmetry_space_group_name_H-M "P -1"
_symmetry_group_IT_number 2
_symmetry_cell_setting 'triclinic'
loop_
_space_group_symop_operation_xyz
x,y,z
-x,-y,-z
loop_
_atom_site_type_symbol
_atom_site_label
_atom_site_fract_x
_atom_site_fract_y
_atom_site_fract_z
Si Si1 0.068917 0.330234 0.126267
Si Si2 0.661625 0.426951 0.552324
Si Si3 0.745615 0.921611 0.734314
Si Si4 0.936797 0.045961 0.706247
Si Si5 0.720832 0.452289 0.666246
Si Si6 0.252110 0.083105 0.675053
Si Si7 0.678380 0.473102 0.179195
Si Si8 0.429343 0.195895 0.814314
O O1 0.122286 0.109550 0.963890
O O2 0.209964 0.497852 0.909182
O O3 0.902594 0.473433 0.354170
O O4 0.053981 0.225131 0.255826
O O5 0.624775 0.456414 0.722581
O O6 0.753216 0.652797 0.373946
O O7 0.496643 0.428478 0.760998
O O8 0.772515 0.149041 0.355800
O O9 0.658605 0.714971 0.820770
O O10 0.933633 0.817795 0.444780
O O11 0.705427 0.197126 0.748679
O O12 0.674784 0.951571 0.951986
O O13 0.759956 0.208619 0.998073
O O14 0.000000 0.000000 0.500000
O O15 0.421558 0.011509 0.456663
O O16 0.500000 0.500000 0.500000
O O17 0.678018 0.696625 0.102140
#
# Coordination Sequence:
#
# PCOD8027087 Si02
#       8
#     2   2   2   2   2   2   2   2
#     4  11  25  43  70  99 142 176 237 285 353 414
#     4  10  24  45  68 104 137 182 236 283 355 407
#     4  11  25  43  71 101 141 181 232 285 353 408
#     4  11  26  44  71 105 144 185 236 289 356 420
#     4  11  25  45  70 102 136 184 232 291 342 422
#     4  10  24  44  67 104 135 183 231 290 346 420
#     4  12  25  45  73 102 141 188 235 289 355 423
#     4  10  26  41  68 101 142 180 237 281 352 413
#
# _framework density 24.981569
#
# number of rings (size 3 to 8) (size 9 to 14) (size 15 to 20)
#    0.750    0.500    1.250    3.000    7.000    7.000 
#    0.000    0.000    0.000    0.000    0.000    0.000 
#    0.000    0.000    0.000    0.000    0.000    0.000 
#
# Total GULP energy -198280.322465 kJ/mol
# GULP energy per Si atom -12392.520154 kJ/mol
# Density = 2.492471 g / cm^3
# Si number density = 24.981569 Si / 1000 Ang^3
#
#
#
# Elastic Constant Matrix: (Units=GPa)
#
#
# Indices 1 2 3 4 5 6 
#
# 1 70.7224 16.0473 -6.4437 -14.8990 3.4127 -2.7705
# 2 16.0473 121.8959 -1.5607 -8.9289 3.4680 4.4396
# 3 -6.4437 -1.5607 56.7661 1.6705 -5.1647 0.3095
# 4 -14.8990 -8.9289 1.6705 28.3470 -0.7454 3.6367
# 5 3.4127 3.4680 -5.1647 -0.7454 41.0241 0.8422
# 6 -2.7705 4.4396 0.3095 3.6367 0.8422 35.6016
#
#
#
# Elastic Compliance Matrix: (Units=1/GPa)
#
#
# Indices 1 2 3 4 5 6 
#
# 1 0.016366 -0.001554 0.001496 0.007915 -0.000912 0.000667
# 2 -0.001554 0.008625 -0.000042 0.002067 -0.000539 -0.001395
# 3 0.001496 -0.000042 0.017986 -0.000223 0.002141 -0.000063
# 4 0.007915 0.002067 -0.000223 0.040586 -0.000046 -0.003785
# 5 -0.000912 -0.000539 0.002141 -0.000046 0.024778 -0.000604
# 6 0.000667 -0.001395 -0.000063 -0.003785 -0.000604 0.028716
#
#
# Mechanical properties :
#
#
# Convention : Reuss Voigt Hill
#
# Bulk Modulus (GPa) = 23.37654 29.49669 26.43662
# Shear Modulus (GPa) = 32.99953 37.08396 35.04175
#
# Velocity S-wave (km/s) = 3.63844 3.85704 3.74933
# Velocity P-wave (km/s) = 5.19892 5.62749 5.41745
#
# Compressibility (1/GPa) = 0.04277793
#
# Stress axis : x y z
#
# Youngs Moduli (GPa) = 61.10150 115.93763 55.59743
#
# Poissons Ratio (x) = 0.18017 -0.08315
# Poissons Ratio (y) = 0.09495 0.00231
# Poissons Ratio (z) = -0.09138 0.00482
#
# Static dielectric constant tensor:
#      x y z
#    x 4.436840 0.061130 -0.078290 
#    y 0.061130 4.151720 0.001600 
#    z -0.078290 0.001600 4.485630 
# 
# 
# High freq. dielectric constant tensor:
#      x y z
#    x 1.989900 0.006410 0.001230 
#    y 0.006410 1.984060 -0.002060 
#    z 0.001230 -0.002060 2.003310 
# 
# From -- ./inp_files/543569.got.cif
#   From: 2010.06.25/outbox.cif.g09.slc.cpg/sg2_272_cif.got.tgz:543569.got - 2010.06.27 13:26:56.
