data_PCOD8027623
_publ_section_title
;
Structure prediction by ZEFSAII (Michael W. Deem and Ramdas Pophale) SiO2 
 PCOD8027623
Probable space group: P -1
;
_chemical_formula_sum "Si O2"
_cell_formula_units_Z 16
_cell_length_a 9.027629
_cell_length_b 9.038681
_cell_length_c 13.400301
_cell_angle_alpha 110.655015
_cell_angle_beta 86.212250
_cell_angle_gamma 133.634189
_cell_volume 714.674428
_symmetry_space_group_name_H-M "P -1"
_symmetry_group_IT_number 2
_symmetry_cell_setting 'triclinic'
loop_
_space_group_symop_operation_xyz
x,y,z
-x,-y,-z
loop_
_atom_site_type_symbol
_atom_site_label
_atom_site_fract_x
_atom_site_fract_y
_atom_site_fract_z
Si Si1 0.037806 0.751753 0.375382
Si Si2 0.317652 0.425963 0.921439
Si Si3 0.124024 0.680911 0.767634
Si Si4 0.053037 0.862515 0.995782
Si Si5 0.458125 0.153420 0.526642
Si Si6 0.176180 0.126465 0.678725
Si Si7 0.911399 0.642102 0.573803
Si Si8 0.497916 0.147060 0.105472
O O1 0.025979 0.586891 0.266626
O O2 0.856629 0.739902 0.352984
O O3 0.992346 0.643825 0.462784
O O4 0.267021 0.012197 0.420164
O O5 0.236746 0.216195 0.810117
O O6 0.384338 0.617539 0.893792
O O7 0.500000 0.500000 0.000000
O O8 0.135655 0.355391 0.984180
O O9 0.084377 0.783641 0.876419
O O10 0.369872 0.804395 0.789932
O O11 0.073730 0.706421 0.666656
O O12 0.254156 0.012871 0.098576
O O13 0.000000 0.000000 0.000000
O O14 0.368384 0.167946 0.634451
O O15 0.666730 0.408744 0.545618
O O16 0.500000 0.000000 0.500000
O O17 0.951050 0.861704 0.624867
O O18 0.500000 0.000000 0.000000
#
# Coordination Sequence:
#
# PCOD8027623 Si02
#       8
#     2   2   2   2   2   2   2   2
#     4  11  24  48  65 105 143 175 230 295 344 414
#     4  12  25  44  72 103 141 186 228 284 350 406
#     4  11  23  44  72  99 147 182 229 292 343 413
#     4  11  24  45  72 105 139 185 242 281 339 426
#     4  11  24  43  71 102 134 179 235 285 339 423
#     4  11  27  45  70 102 143 179 230 290 348 411
#     4  11  24  44  74  98 136 185 229 277 359 410
#     4  10  24  46  67 102 142 178 233 293 336 407
#
# _framework density 22.387816000000001
#
# number of rings (size 3 to 8) (size 9 to 14) (size 15 to 20)
#    0.000    1.000    3.750    2.625    5.250    5.000 
#    2.250    3.750    0.000    0.000    0.000    0.000 
#    0.000    0.000    0.000    0.000    0.000    0.000 
#
# Total GULP energy -198246.899700 kJ/mol
# GULP energy per Si atom -12390.431231 kJ/mol
# Density = 2.233686 g / cm^3
# Si number density = 22.387816 Si / 1000 Ang^3
#
#
#
# Elastic Constant Matrix: (Units=GPa)
#
#
# Indices 1 2 3 4 5 6 
#
# 1 143.5954 47.4850 59.9507 -3.8696 11.4431 6.7823
# 2 47.4850 121.7872 36.9641 16.8378 0.7621 17.8726
# 3 59.9507 36.9641 116.9188 16.7925 11.0598 -0.6753
# 4 -3.8696 16.8378 16.7925 33.6175 -9.5790 2.7906
# 5 11.4431 0.7621 11.0598 -9.5790 44.5426 14.8034
# 6 6.7823 17.8726 -0.6753 2.7906 14.8034 38.1195
#
#
#
# Elastic Compliance Matrix: (Units=1/GPa)
#
#
# Indices 1 2 3 4 5 6 
#
# 1 0.010285 -0.003073 -0.005094 0.005385 0.000142 -0.000929
# 2 -0.003073 0.011209 -0.001551 -0.004266 0.001763 -0.005108
# 3 -0.005094 -0.001551 0.013388 -0.008385 -0.005302 0.004544
# 4 0.005385 -0.004266 -0.008385 0.040574 0.011697 -0.006619
# 5 0.000142 0.001763 -0.005302 0.011697 0.030788 -0.013758
# 6 -0.000929 -0.005108 0.004544 -0.006619 -0.013758 0.034702
#
#
# Mechanical properties :
#
#
# Convention : Reuss Voigt Hill
#
# Bulk Modulus (GPa) = 64.75254 74.56679 69.65966
# Shear Modulus (GPa) = 30.20613 39.11603 34.66108
#
# Velocity S-wave (km/s) = 3.67716 4.18449 3.93900
# Velocity P-wave (km/s) = 6.85672 7.53165 7.20210
#
# Compressibility (1/GPa) = 0.01544341
#
# Stress axis : x y z
#
# Youngs Moduli (GPa) = 97.23167 89.21753 74.69618
#
# Poissons Ratio (x) = 0.27416 0.38052
# Poissons Ratio (y) = 0.29879 0.11589
# Poissons Ratio (z) = 0.49532 0.13842
#
# Static dielectric constant tensor:
#      x y z
#    x 4.438270 -0.046710 0.321790 
#    y -0.046710 4.364160 0.241940 
#    z 0.321790 0.241940 4.349420 
# 
# 
# High freq. dielectric constant tensor:
#      x y z
#    x 1.892030 -0.016550 0.008880 
#    y -0.016550 1.876190 0.029700 
#    z 0.008880 0.029700 1.890170 
# 
# From -- ./inp_files/493425.got.cif
#   From: 2010.06.25/outbox.cif.g09.slc.cpg/sg2_247_cif.got.tgz:493425.got - 2010.06.27 13:26:56.
