data_PCOD8027673
_publ_section_title
;
Structure prediction by ZEFSAII (Michael W. Deem and Ramdas Pophale) SiO2 
 PCOD8027673
Probable space group: P -1
;
_chemical_formula_sum "Si O2"
_cell_formula_units_Z 12
_cell_length_a 22.814061
_cell_length_b 5.136761
_cell_length_c 9.317409
_cell_angle_alpha 75.103742
_cell_angle_beta 148.040395
_cell_angle_gamma 122.211388
_cell_volume 440.132690
_symmetry_space_group_name_H-M "P -1"
_symmetry_group_IT_number 2
_symmetry_cell_setting 'triclinic'
loop_
_space_group_symop_operation_xyz
x,y,z
-x,-y,-z
loop_
_atom_site_type_symbol
_atom_site_label
_atom_site_fract_x
_atom_site_fract_y
_atom_site_fract_z
Si Si1 0.510405 0.219803 0.119332
Si Si2 0.695612 0.721813 0.805163
Si Si3 0.808897 0.757370 0.755320
Si Si4 0.583712 0.898360 0.766047
Si Si5 0.916758 0.139315 0.645168
Si Si6 0.875714 0.678180 0.378033
O O1 0.659210 0.384853 0.482274
O O2 0.386922 0.004425 0.015859
O O3 0.500000 0.500000 0.000000
O O4 0.500000 0.000000 0.000000
O O5 0.810092 0.923533 0.886000
O O6 0.715327 0.980330 0.934002
O O7 0.540630 0.519697 0.441769
O O8 0.735469 0.496457 0.007890
O O9 0.832301 0.004066 0.639505
O O10 0.922738 0.690565 0.007030
O O11 0.500000 0.000000 0.500000
O O12 0.905790 0.412556 0.509838
O O13 0.851694 0.809002 0.455691
O O14 0.000000 0.000000 0.500000
#
# Coordination Sequence:
#
# PCOD8027673 Si02
#       6
#     2   2   2   2   2   2
#     4  11  28  47  74 109 146 194 249 305 369 436
#     4  10  24  46  70 106 144 192 243 308 363 439
#     4  10  25  50  74 108 153 197 248 307 376 446
#     4  10  25  45  72 103 142 195 245 301 370 430
#     4  11  27  48  74 112 148 201 241 307 375 445
#     4  12  26  46  75 109 149 190 252 302 370 442
#
# _framework density 27.264503000000001
#
# number of rings (size 3 to 8) (size 9 to 14) (size 15 to 20)
#    0.000    1.333    1.667    0.500   11.667    6.667 
#    3.000    0.000    0.000    0.000    0.000    0.000 
#    0.000    0.000    0.000    0.000    0.000    0.000 
#
# Total GULP energy -148737.620642 kJ/mol
# GULP energy per Si atom -12394.801720 kJ/mol
# Density = 2.720245 g / cm^3
# Si number density = 27.264503 Si / 1000 Ang^3
#
#
#
# Elastic Constant Matrix: (Units=GPa)
#
#
# Indices 1 2 3 4 5 6 
#
# 1 272.7433 77.6992 33.8552 -22.6102 -52.0850 4.3097
# 2 77.6992 114.3445 27.7476 -30.0955 -18.0575 -16.9090
# 3 33.8552 27.7476 127.8524 -15.7949 -17.4361 -5.6936
# 4 -22.6102 -30.0955 -15.7949 41.7601 3.6114 -3.6282
# 5 -52.0850 -18.0575 -17.4361 3.6114 43.6423 -1.3124
# 6 4.3097 -16.9090 -5.6936 -3.6282 -1.3124 46.2085
#
#
#
# Elastic Compliance Matrix: (Units=1/GPa)
#
#
# Indices 1 2 3 4 5 6 
#
# 1 0.005627 -0.003143 -0.000136 0.000139 0.005304 -0.001530
# 2 -0.003143 0.014568 -0.000752 0.008935 0.001426 0.006273
# 3 -0.000136 -0.000752 0.008774 0.002552 0.002854 0.001100
# 4 0.000139 0.008935 0.002552 0.031748 0.002439 0.006133
# 5 0.005304 0.001426 0.002854 0.002439 0.030815 0.001445
# 6 -0.001530 0.006273 0.001100 0.006133 0.001445 0.024738
#
#
# Mechanical properties :
#
#
# Convention : Reuss Voigt Hill
#
# Bulk Modulus (GPa) = 47.82787 88.17159 67.99973
# Shear Modulus (GPa) = 38.08066 51.36470 44.72268
#
# Velocity S-wave (km/s) = 3.74132 4.34515 4.05449
# Velocity P-wave (km/s) = 6.02026 7.58836 6.84934
#
# Compressibility (1/GPa) = 0.02090831
#
# Stress axis : x y z
#
# Youngs Moduli (GPa) = 177.70882 68.64291 113.97100
#
# Poissons Ratio (x) = 0.21575 0.01546
# Poissons Ratio (y) = 0.55855 0.08569
# Poissons Ratio (z) = 0.02411 0.05161
#
# Static dielectric constant tensor:
#      x y z
#    x 5.592290 -0.020740 -0.338050 
#    y -0.020740 2.980230 -2.425690 
#    z -0.338050 -2.425690 1.841750 
# 
# 
# High freq. dielectric constant tensor:
#      x y z
#    x 2.122240 0.006260 -0.005160 
#    y 0.006260 2.083680 -0.009700 
#    z -0.005160 -0.009700 2.117050 
# 
# From -- ./inp_files/350543.got.cif
#   From: 2010.06.25/outbox.cif.g09.slc.cpg/sg2_176_cif.got.tgz:350543.got - 2010.06.27 13:26:56.
