data_PCOD8027055
_publ_section_title
;
Structure prediction by ZEFSAII (Michael W. Deem and Ramdas Pophale) SiO2 
 PCOD8027055
Probable space group: P -1
;
_chemical_formula_sum "Si O2"
_cell_formula_units_Z 14
_cell_length_a 6.702039
_cell_length_b 14.527874
_cell_length_c 11.223125
_cell_angle_alpha 129.713791
_cell_angle_beta 113.000775
_cell_angle_gamma 45.676731
_cell_volume 598.283042
_symmetry_space_group_name_H-M "P -1"
_symmetry_group_IT_number 2
_symmetry_cell_setting 'triclinic'
loop_
_space_group_symop_operation_xyz
x,y,z
-x,-y,-z
loop_
_atom_site_type_symbol
_atom_site_label
_atom_site_fract_x
_atom_site_fract_y
_atom_site_fract_z
Si Si1 0.082875 0.400574 0.618441
Si Si2 0.306700 0.528513 0.874005
Si Si3 0.248645 0.267285 0.299164
Si Si4 0.198770 0.666861 0.327447
Si Si5 0.851364 0.814037 0.137076
Si Si6 0.804426 0.975513 0.864423
Si Si7 0.150028 0.908675 0.669741
O O1 0.271654 0.394854 0.761771
O O2 0.253395 0.275944 0.452143
O O3 0.958826 0.568319 0.674502
O O4 0.862452 0.388785 0.614945
O O5 0.485894 0.486905 0.759818
O O6 0.500000 0.500000 0.000000
O O7 0.013409 0.702854 0.966971
O O8 0.152432 0.164426 0.170706
O O9 0.563695 0.185981 0.263201
O O10 0.184123 0.810999 0.482065
O O11 0.979382 0.718124 0.211427
O O12 0.530884 0.882880 0.101709
O O13 0.904333 0.937249 0.258374
O O14 0.904525 0.941626 0.722491
O O15 0.000000 0.000000 0.000000
#
# Coordination Sequence:
#
# PCOD8027055 Si02
#       7
#     2   2   2   2   2   2   2
#     4  11  23  42  70  97 142 172 235 281 335 409
#     4  10  24  44  67 100 139 179 225 282 343 401
#     4  10  24  44  66 104 132 179 231 288 330 408
#     4  11  23  45  73 102 134 183 229 281 344 409
#     4  10  26  44  68 104 140 177 227 285 341 412
#     4  11  26  45  71  99 137 183 230 279 351 405
#     4  11  23  44  71 102 136 179 231 280 348 403
#
# _framework density 23.400295
#
# number of rings (size 3 to 8) (size 9 to 14) (size 15 to 20)
#    0.000    1.429    2.857    0.429    4.000    9.143 
#    0.000    0.000    0.000    0.000    0.000    0.000 
#    0.000    0.000    0.000    0.000    0.000    0.000 
#
# Total GULP energy -173449.707792 kJ/mol
# GULP energy per Si atom -12389.264842 kJ/mol
# Density = 2.334704 g / cm^3
# Si number density = 23.400295 Si / 1000 Ang^3
#
#
#
# Elastic Constant Matrix: (Units=GPa)
#
#
# Indices 1 2 3 4 5 6 
#
# 1 152.6765 51.4015 53.4728 14.8487 -5.7227 -16.5680
# 2 51.4015 76.8596 20.7788 8.5403 -3.7046 -14.2989
# 3 53.4728 20.7788 131.9634 11.8182 5.9301 -11.6431
# 4 14.8487 8.5403 11.8182 28.4678 -6.3711 -1.5167
# 5 -5.7227 -3.7046 5.9301 -6.3711 48.6503 2.9417
# 6 -16.5680 -14.2989 -11.6431 -1.5167 2.9417 36.4729
#
#
#
# Elastic Compliance Matrix: (Units=1/GPa)
#
#
# Indices 1 2 3 4 5 6 
#
# 1 0.009657 -0.005185 -0.002829 -0.002073 0.000736 0.001305
# 2 -0.005185 0.017580 -0.000084 -0.002260 0.000177 0.004401
# 3 -0.002829 -0.000084 0.009209 -0.002661 -0.001911 0.001665
# 4 -0.002073 -0.002260 -0.002661 0.039057 0.005112 -0.001465
# 5 0.000736 0.000177 -0.001911 0.005112 0.021662 -0.001741
# 6 0.001305 0.004401 0.001665 -0.001465 -0.001741 0.030347
#
#
# Mechanical properties :
#
#
# Convention : Reuss Voigt Hill
#
# Bulk Modulus (GPa) = 49.38533 68.08954 58.73744
# Shear Modulus (GPa) = 33.23187 38.44129 35.83658
#
# Velocity S-wave (km/s) = 3.77257 4.05751 3.91763
# Velocity P-wave (km/s) = 6.33457 7.14927 6.75421
#
# Compressibility (1/GPa) = 0.02024893
#
# Stress axis : x y z
#
# Youngs Moduli (GPa) = 103.55140 56.88426 108.59526
#
# Poissons Ratio (x) = 0.29494 0.30721
# Poissons Ratio (y) = 0.53690 0.00915
# Poissons Ratio (z) = 0.29294 0.00479
#
# Static dielectric constant tensor:
#      x y z
#    x 4.528000 -0.215650 -0.116830 
#    y -0.215650 4.146670 0.271990 
#    z -0.116830 0.271990 4.922110 
# 
# 
# High freq. dielectric constant tensor:
#      x y z
#    x 1.935400 -0.016540 0.002740 
#    y -0.016540 1.900310 0.000960 
#    z 0.002740 0.000960 1.955380 
# 
# From -- ./inp_files/59756.got.cif
#   From: 2010.06.25/outbox.cif.g09.slc.cpg/sg2_30_cif.got.tgz:59756.got - 2010.06.27 13:26:56.
