data_PCOD8027238
_publ_section_title
;
Structure prediction by ZEFSAII (Michael W. Deem and Ramdas Pophale) SiO2 
 PCOD8027238
Probable space group: P -1
;
_chemical_formula_sum "Si O2"
_cell_formula_units_Z 12
_cell_length_a 20.095301
_cell_length_b 17.919068
_cell_length_c 14.278513
_cell_angle_alpha 20.882043
_cell_angle_beta 160.562832
_cell_angle_gamma 159.036962
_cell_volume 546.252633
_symmetry_space_group_name_H-M "P -1"
_symmetry_group_IT_number 2
_symmetry_cell_setting 'triclinic'
loop_
_space_group_symop_operation_xyz
x,y,z
-x,-y,-z
loop_
_atom_site_type_symbol
_atom_site_label
_atom_site_fract_x
_atom_site_fract_y
_atom_site_fract_z
Si Si1 0.017759 0.637751 0.769594
Si Si2 0.756485 0.871493 0.872203
Si Si3 0.600805 0.529716 0.228942
Si Si4 0.760366 0.329113 0.342500
Si Si5 0.668616 0.409669 0.918661
Si Si6 0.345495 0.119152 0.690467
O O1 0.764050 0.540338 0.514839
O O2 0.101256 0.908991 0.593938
O O3 0.162436 0.578440 0.954394
O O4 0.000000 0.500000 0.000000
O O5 0.556734 0.739938 0.687629
O O6 0.707431 0.075214 0.609448
O O7 0.750651 0.682747 0.161736
O O8 0.000000 0.000000 0.000000
O O9 0.436476 0.632959 0.920331
O O10 0.000000 0.500000 0.500000
O O11 0.754861 0.342444 0.206634
O O12 0.423766 0.207865 0.797461
O O13 0.649685 0.653298 0.623679
O O14 0.500000 0.000000 0.000000
#
# Coordination Sequence:
#
# PCOD8027238 Si02
#       6
#     2   2   2   2   2   2
#     4  11  26  43  69 102 141 181 233 292 350 418
#     4  11  24  48  71  98 143 187 231 291 353 411
#     4  11  27  44  71 105 139 184 241 287 351 420
#     4  12  26  43  74 102 138 184 235 289 358 416
#     4  10  24  44  71 100 138 185 233 287 354 415
#     4   9  22  44  70  96 136 181 235 282 352 409
#
# _framework density 21.967858
#
# number of rings (size 3 to 8) (size 9 to 14) (size 15 to 20)
#    0.000    1.333    1.667    1.500   14.000    3.333 
#    0.000    0.000    0.000    0.000    0.000    0.000 
#    0.000    0.000    0.000    0.000    0.000    0.000 
#
# Total GULP energy -148670.629565 kJ/mol
# GULP energy per Si atom -12389.219130 kJ/mol
# Density = 2.191786 g / cm^3
# Si number density = 21.967858 Si / 1000 Ang^3
#
#
#
# Elastic Constant Matrix: (Units=GPa)
#
#
# Indices 1 2 3 4 5 6 
#
# 1 76.9806 44.8446 12.1490 9.6546 -7.1098 0.9631
# 2 44.8446 197.6993 69.7102 4.5800 -8.8339 -16.9396
# 3 12.1490 69.7102 101.4540 5.8258 2.6625 -9.2173
# 4 9.6546 4.5800 5.8258 53.5510 -11.6213 1.1902
# 5 -7.1098 -8.8339 2.6625 -11.6213 42.7340 6.4455
# 6 0.9631 -16.9396 -9.2173 1.1902 6.4455 35.2562
#
#
#
# Elastic Compliance Matrix: (Units=1/GPa)
#
#
# Indices 1 2 3 4 5 6 
#
# 1 0.015565 -0.003839 0.000650 -0.002169 0.001513 -0.002303
# 2 -0.003839 0.007858 -0.004793 0.000732 0.001122 0.002397
# 3 0.000650 -0.004793 0.013389 -0.001731 -0.002442 0.001685
# 4 -0.002169 0.000732 -0.001731 0.020475 0.005735 -0.001781
# 5 0.001513 0.001122 -0.002442 0.005735 0.026374 -0.005156
# 6 -0.002303 0.002397 0.001685 -0.001781 -0.005156 0.031022
#
#
# Mechanical properties :
#
#
# Convention : Reuss Voigt Hill
#
# Bulk Modulus (GPa) = 47.97041 69.94905 58.95973
# Shear Modulus (GPa) = 36.33849 42.93690 39.63770
#
# Velocity S-wave (km/s) = 4.07156 4.42581 4.25237
# Velocity P-wave (km/s) = 6.63231 7.61759 7.14196
#
# Compressibility (1/GPa) = 0.02084618
#
# Stress axis : x y z
#
# Youngs Moduli (GPa) = 64.24737 127.26419 74.68965
#
# Poissons Ratio (x) = 0.48859 -0.04852
# Poissons Ratio (y) = 0.24666 0.35799
# Poissons Ratio (z) = -0.04174 0.60998
#
# Static dielectric constant tensor:
#      x y z
#    x 4.230200 -0.952950 -0.639730 
#    y -0.952950 6.518110 1.561140 
#    z -0.639730 1.561140 5.780200 
# 
# 
# High freq. dielectric constant tensor:
#      x y z
#    x 1.848220 -0.015410 0.004270 
#    y -0.015410 1.886750 0.001630 
#    z 0.004270 0.001630 1.877040 
# 
# From -- ./inp_files/286828.got.cif
#   From: 2010.06.25/outbox.cif.g09.slc.cpg/sg2_144_cif.got.tgz:286828.got - 2010.06.27 13:26:56.
