data_PCOD8027831
_publ_section_title
;
Structure prediction by ZEFSAII (Michael W. Deem and Ramdas Pophale) SiO2 
 PCOD8027831
Probable space group: P -1
;
_chemical_formula_sum "Si O2"
_cell_formula_units_Z 16
_cell_length_a 20.457026
_cell_length_b 14.387208
_cell_length_c 8.336353
_cell_angle_alpha 106.202175
_cell_angle_beta 63.551518
_cell_angle_gamma 159.122750
_cell_volume 706.867537
_symmetry_space_group_name_H-M "P -1"
_symmetry_group_IT_number 2
_symmetry_cell_setting 'triclinic'
loop_
_space_group_symop_operation_xyz
x,y,z
-x,-y,-z
loop_
_atom_site_type_symbol
_atom_site_label
_atom_site_fract_x
_atom_site_fract_y
_atom_site_fract_z
Si Si1 0.269181 0.733609 0.697444
Si Si2 0.434985 0.068254 0.932813
Si Si3 0.049895 0.539476 0.284145
Si Si4 0.560546 0.376583 0.700504
Si Si5 0.278342 0.272300 0.085410
Si Si6 0.860175 0.631051 0.265445
Si Si7 0.675049 0.750717 0.296567
Si Si8 0.115552 0.395025 0.131530
O O1 0.122793 0.454390 0.718544
O O2 0.144568 0.663596 0.710459
O O3 0.500000 0.000000 0.500000
O O4 0.326096 0.835174 0.865565
O O5 0.408935 0.118907 0.851863
O O6 0.687336 0.370734 0.846316
O O7 0.276160 0.881620 0.168986
O O8 0.059147 0.436652 0.195410
O O9 0.000000 0.500000 0.500000
O O10 0.733716 0.640531 0.764972
O O11 0.672065 0.456342 0.474728
O O12 0.410445 0.268611 0.728837
O O13 0.500000 0.500000 0.000000
O O14 0.275639 0.277255 0.894763
O O15 0.085330 0.965130 0.214118
O O16 0.811878 0.562268 0.095577
O O17 0.500000 0.500000 0.500000
O O18 0.903895 0.072480 0.277842
#
# Coordination Sequence:
#
# PCOD8027831 Si02
#       8
#     2   2   2   2   2   2   2   2
#     4  12  25  45  71 104 140 185 239 284 359 423
#     4  12  26  44  73 104 144 186 237 295 347 428
#     4  12  28  44  70 103 146 189 236 287 357 420
#     4  11  24  44  73 103 137 185 239 289 364 414
#     4   9  22  42  68 101 137 177 237 287 349 424
#     4  11  24  42  73  98 142 183 234 295 353 424
#     4  10  24  47  73 101 145 186 235 298 355 422
#     4  11  26  45  68 105 144 186 240 293 353 419
#
# _framework density 22.635075000000001
#
# number of rings (size 3 to 8) (size 9 to 14) (size 15 to 20)
#    0.000    1.000    2.500    2.625    7.000    5.000 
#    0.000    2.500    0.000    0.000    0.000    0.000 
#    0.000    0.000    0.000    0.000    0.000    0.000 
#
# Total GULP energy -198321.221072 kJ/mol
# GULP energy per Si atom -12395.076317 kJ/mol
# Density = 2.258356 g / cm^3
# Si number density = 22.635075 Si / 1000 Ang^3
#
#
#
# Elastic Constant Matrix: (Units=GPa)
#
#
# Indices 1 2 3 4 5 6 
#
# 1 75.7764 34.6963 42.9448 -6.6575 -1.7991 1.5431
# 2 34.6963 140.9734 59.2595 -7.5191 2.1434 -4.6512
# 3 42.9448 59.2595 146.3181 -3.3848 17.2748 -15.2700
# 4 -6.6575 -7.5191 -3.3848 45.9384 -11.2778 -1.5396
# 5 -1.7991 2.1434 17.2748 -11.2778 30.8143 -6.1035
# 6 1.5431 -4.6512 -15.2700 -1.5396 -6.1035 40.7868
#
#
#
# Elastic Compliance Matrix: (Units=1/GPa)
#
#
# Indices 1 2 3 4 5 6 
#
# 1 0.017371 -0.002205 -0.004881 0.002852 0.004562 -0.001946
# 2 -0.002205 0.009004 -0.003126 0.001304 0.001517 0.000216
# 3 -0.004881 -0.003126 0.010498 -0.001844 -0.006077 0.002779
# 4 0.002852 0.001304 -0.001844 0.024925 0.010604 0.001878
# 5 0.004562 0.001517 -0.006077 0.010604 0.040738 0.004222
# 6 -0.001946 0.000216 0.002779 0.001878 0.004222 0.026359
#
#
# Mechanical properties :
#
#
# Convention : Reuss Voigt Hill
#
# Bulk Modulus (GPa) = 60.79439 70.76324 65.77881
# Shear Modulus (GPa) = 32.29934 38.58571 35.44252
#
# Velocity S-wave (km/s) = 3.78161 4.13326 3.96134
# Velocity P-wave (km/s) = 6.78117 7.35588 7.07436
#
# Compressibility (1/GPa) = 0.01644889
#
# Stress axis : x y z
#
# Youngs Moduli (GPa) = 57.56681 111.06439 95.25668
#
# Poissons Ratio (x) = 0.24489 0.46497
# Poissons Ratio (y) = 0.12693 0.29776
# Poissons Ratio (z) = 0.28099 0.34717
#
# Static dielectric constant tensor:
#      x y z
#    x 3.241030 -0.661740 1.239000 
#    y -0.661740 4.668700 0.768280 
#    z 1.239000 0.768280 1.972590 
# 
# 
# High freq. dielectric constant tensor:
#      x y z
#    x 1.876410 -0.012410 0.001150 
#    y -0.012410 1.907660 0.000480 
#    z 0.001150 0.000480 1.909560 
# 
# From -- ./inp_files/347618.got.cif
#   From: 2010.06.25/outbox.cif.g09.slc.cpg/sg2_174_cif.got.tgz:347618.got - 2010.06.27 13:26:56.
