data_PCOD8027366
_publ_section_title
;
Structure prediction by ZEFSAII (Michael W. Deem and Ramdas Pophale) SiO2 
 PCOD8027366
Probable space group: P -1
;
_chemical_formula_sum "Si O2"
_cell_formula_units_Z 16
_cell_length_a 8.700801
_cell_length_b 19.837598
_cell_length_c 5.302526
_cell_angle_alpha 125.285009
_cell_angle_beta 56.271470
_cell_angle_gamma 118.481992
_cell_volume 604.684077
_symmetry_space_group_name_H-M "P -1"
_symmetry_group_IT_number 2
_symmetry_cell_setting 'triclinic'
loop_
_space_group_symop_operation_xyz
x,y,z
-x,-y,-z
loop_
_atom_site_type_symbol
_atom_site_label
_atom_site_fract_x
_atom_site_fract_y
_atom_site_fract_z
Si Si1 0.309753 0.501170 0.324553
Si Si2 0.714025 0.761991 0.220704
Si Si3 0.864658 0.924497 0.711861
Si Si4 0.498604 0.162652 0.827030
Si Si5 0.123554 0.438656 0.850941
Si Si6 0.832628 0.094366 0.221702
Si Si7 0.959228 0.283535 0.389516
Si Si8 0.345383 0.693310 0.670311
O O1 0.293031 0.454393 0.514487
O O2 0.288188 0.596914 0.611938
O O3 0.500000 0.500000 0.000000
O O4 0.158115 0.456471 0.154078
O O5 0.841168 0.856513 0.364706
O O6 0.575954 0.773211 0.146202
O O7 0.574242 0.716258 0.468553
O O8 0.847551 0.695811 0.910085
O O9 0.068799 0.930980 0.670135
O O10 0.676755 0.893965 0.989165
O O11 0.852534 0.020188 0.840389
O O12 0.610898 0.097488 0.456323
O O13 0.671843 0.229856 0.959568
O O14 0.001370 0.341318 0.728393
O O15 0.000000 0.500000 0.000000
O O16 0.952317 0.186271 0.240180
O O17 0.775765 0.299932 0.454005
#
# Coordination Sequence:
#
# PCOD8027366 Si02
#       8
#     2   2   2   2   2   2   2   2
#     4  12  28  49  77 109 148 197 248 311 374 446
#     4  11  24  44  67 103 136 179 233 294 351 430
#     4  10  24  45  65 101 139 180 232 288 357 423
#     4  11  23  42  67  97 137 176 231 290 348 426
#     4  12  28  49  75 110 151 195 246 313 372 440
#     4  11  23  43  70  98 138 184 230 289 356 436
#     4  12  25  45  72 101 140 186 236 295 364 430
#     4  11  26  44  71  99 137 186 237 292 360 438
#
# _framework density 26.460097999999999
#
# number of rings (size 3 to 8) (size 9 to 14) (size 15 to 20)
#    0.000    0.750    3.750    2.625    5.250    2.000 
#    2.250    0.000    0.000    0.000    0.000    0.000 
#    0.000    0.000    0.000    0.000    0.000    0.000 
#
# Total GULP energy -198213.019942 kJ/mol
# GULP energy per Si atom -12388.313746 kJ/mol
# Density = 2.639987 g / cm^3
# Si number density = 26.460098 Si / 1000 Ang^3
#
#
#
# Elastic Constant Matrix: (Units=GPa)
#
#
# Indices 1 2 3 4 5 6 
#
# 1 70.1154 -7.8953 6.1365 13.9882 -6.6961 15.7701
# 2 -7.8953 87.3781 -4.6566 36.0123 8.0959 0.3465
# 3 6.1365 -4.6566 87.8887 30.0099 -5.3103 4.6129
# 4 13.9882 36.0123 30.0099 40.5763 3.3249 6.4421
# 5 -6.6961 8.0959 -5.3103 3.3249 47.6377 2.2666
# 6 15.7701 0.3465 4.6129 6.4421 2.2666 31.4839
#
#
#
# Elastic Compliance Matrix: (Units=1/GPa)
#
#
# Indices 1 2 3 4 5 6 
#
# 1 0.021038 0.010420 0.006736 -0.020567 0.003739 -0.007700
# 2 0.010420 0.030495 0.015301 -0.042169 0.000894 0.000767
# 3 0.006736 0.015301 0.023330 -0.033368 0.003294 -0.000370
# 4 -0.020567 -0.042169 -0.033368 0.094852 -0.005906 -0.003328
# 5 0.003739 0.000894 0.003294 -0.005906 0.022276 -0.002761
# 6 -0.007700 0.000767 -0.000370 -0.003328 -0.002761 0.036545
#
#
# Mechanical properties :
#
#
# Convention : Reuss Voigt Hill
#
# Bulk Modulus (GPa) = 7.15422 25.83903 16.49663
# Shear Modulus (GPa) = 23.78515 40.72608 32.25561
#
# Velocity S-wave (km/s) = 3.00143 3.92746 3.49525
# Velocity P-wave (km/s) = 3.83681 5.50936 4.74732
#
# Compressibility (1/GPa) = 0.13977763
#
# Stress axis : x y z
#
# Youngs Moduli (GPa) = 47.53257 32.79211 42.86246
#
# Poissons Ratio (x) = -0.34171 -0.28871
# Poissons Ratio (y) = -0.49531 -0.65582
# Poissons Ratio (z) = -0.32017 -0.50174
#
# Static dielectric constant tensor:
#      x y z
#    x 4.043350 0.549920 -1.038530 
#    y 0.549920 5.074120 0.567420 
#    z -1.038530 0.567420 3.648200 
# 
# 
# High freq. dielectric constant tensor:
#      x y z
#    x 2.048800 0.022820 -0.017450 
#    y 0.022820 2.072920 0.009650 
#    z -0.017450 0.009650 2.079480 
# 
# From -- ./inp_files/49181.got.cif
#   From: 2010.06.25/outbox.cif.g09.slc.cpg/sg2_25_cif.got.tgz:49181.got - 2010.06.27 13:26:56.
