data_PCOD8027126
_publ_section_title
;
Structure prediction by ZEFSAII (Michael W. Deem and Ramdas Pophale) SiO2 
 PCOD8027126
Probable space group: P -1
;
_chemical_formula_sum "Si O2"
_cell_formula_units_Z 16
_cell_length_a 11.365916
_cell_length_b 9.228435
_cell_length_c 11.668583
_cell_angle_alpha 68.200137
_cell_angle_beta 102.939582
_cell_angle_gamma 53.420841
_cell_volume 731.995674
_symmetry_space_group_name_H-M "P -1"
_symmetry_group_IT_number 2
_symmetry_cell_setting 'triclinic'
loop_
_space_group_symop_operation_xyz
x,y,z
-x,-y,-z
loop_
_atom_site_type_symbol
_atom_site_label
_atom_site_fract_x
_atom_site_fract_y
_atom_site_fract_z
Si Si1 0.668982 0.645520 0.120598
Si Si2 0.406549 0.429692 0.469040
Si Si3 0.258965 0.096436 0.855721
Si Si4 0.230534 0.012737 0.413535
Si Si5 0.067165 0.600886 0.946142
Si Si6 0.936026 0.226782 0.874424
Si Si7 0.206245 0.674413 0.566692
Si Si8 0.107791 0.244153 0.549562
O O1 0.769563 0.690864 0.194218
O O2 0.729102 0.428629 0.260398
O O3 0.741157 0.582848 0.025432
O O4 0.451685 0.860935 0.019646
O O5 0.500000 0.500000 0.500000
O O6 0.561407 0.160970 0.534347
O O7 0.242930 0.612825 0.289987
O O8 0.325383 0.455704 0.566032
O O9 0.264230 0.058505 0.731987
O O10 0.097406 0.158405 0.862961
O O11 0.213040 0.852757 0.501407
O O12 0.090923 0.166757 0.232963
O O13 0.192442 0.177280 0.458662
O O14 0.000000 0.500000 0.000000
O O15 0.119125 0.634556 0.063353
O O16 0.000000 0.000000 0.000000
O O17 0.003457 0.808912 0.464533
O O18 0.000000 0.500000 0.500000
#
# Coordination Sequence:
#
# PCOD8027126 Si02
#       8
#     2   2   2   2   2   2   2   2
#     4  11  25  45  70 103 144 188 232 285 363 422
#     4  10  24  44  68 103 142 182 233 293 354 415
#     4  11  25  43  69 103 141 190 231 289 354 423
#     4  11  26  43  70 104 135 186 234 292 357 408
#     4  12  26  47  69  99 147 186 232 292 360 427
#     4  12  26  44  70 103 143 188 234 289 355 423
#     4  11  22  44  72  95 138 181 233 288 347 415
#     4  12  23  44  68  97 135 179 235 290 344 415
#
# _framework density 21.858053000000002
#
# number of rings (size 3 to 8) (size 9 to 14) (size 15 to 20)
#    0.000    0.750    5.000    1.875    7.000    0.000 
#    0.000    2.500    0.000    0.000    0.000    0.000 
#    0.000    0.000    0.000    0.000    0.000    0.000 
#
# Total GULP energy -198295.457607 kJ/mol
# GULP energy per Si atom -12393.466100 kJ/mol
# Density = 2.180830 g / cm^3
# Si number density = 21.858053 Si / 1000 Ang^3
#
#
#
# Elastic Constant Matrix: (Units=GPa)
#
#
# Indices 1 2 3 4 5 6 
#
# 1 80.7304 34.9196 54.0487 1.1459 1.2916 -13.5780
# 2 34.9196 124.8639 35.5544 17.7482 2.9800 -21.0728
# 3 54.0487 35.5544 108.1564 16.2146 4.4084 -2.1342
# 4 1.1459 17.7482 16.2146 43.8132 1.4357 -5.3630
# 5 1.2916 2.9800 4.4084 1.4357 40.7403 -4.0249
# 6 -13.5780 -21.0728 -2.1342 -5.3630 -4.0249 39.5067
#
#
#
# Elastic Compliance Matrix: (Units=1/GPa)
#
#
# Indices 1 2 3 4 5 6 
#
# 1 0.021630 -0.002745 -0.010608 0.005197 0.001094 0.006214
# 2 -0.002745 0.010320 -0.001482 -0.003063 0.000002 0.004066
# 3 -0.010608 -0.001482 0.015829 -0.005479 -0.001518 -0.004479
# 4 0.005197 -0.003063 -0.005479 0.026376 0.000063 0.003443
# 5 0.001094 0.000002 -0.001518 0.000063 0.024954 0.002846
# 6 0.006214 0.004066 -0.004479 0.003443 0.002846 0.030132
#
#
# Mechanical properties :
#
#
# Convention : Reuss Voigt Hill
#
# Bulk Modulus (GPa) = 55.21726 62.53290 58.87508
# Shear Modulus (GPa) = 30.31324 37.42723 33.87024
#
# Velocity S-wave (km/s) = 3.72805 4.14247 3.94071
# Velocity P-wave (km/s) = 6.62176 7.17989 6.90646
#
# Compressibility (1/GPa) = 0.01811028
#
# Stress axis : x y z
#
# Youngs Moduli (GPa) = 46.23259 96.90358 63.17610
#
# Poissons Ratio (x) = 0.26596 0.67016
# Poissons Ratio (y) = 0.12689 0.09360
# Poissons Ratio (z) = 0.49043 0.14357
#
# Static dielectric constant tensor:
#      x y z
#    x 4.007660 -0.107690 0.138910 
#    y -0.107690 3.986680 -0.052960 
#    z 0.138910 -0.052960 3.961370 
# 
# 
# High freq. dielectric constant tensor:
#      x y z
#    x 1.862460 -0.011210 -0.000620 
#    y -0.011210 1.864800 0.011620 
#    z -0.000620 0.011620 1.869060 
# 
# From -- ./inp_files/416907.got.cif
#   From: 2010.06.25/outbox.cif.g09.slc.cpg/sg2_209_cif.got.tgz:416907.got - 2010.06.27 13:26:56.
