data_PCOD8027161
_publ_section_title
;
Structure prediction by ZEFSAII (Michael W. Deem and Ramdas Pophale) SiO2 
 PCOD8027161
Probable space group: P -1
;
_chemical_formula_sum "Si O2"
_cell_formula_units_Z 14
_cell_length_a 19.370797
_cell_length_b 8.619707
_cell_length_c 7.691586
_cell_angle_alpha 114.640540
_cell_angle_beta 52.817973
_cell_angle_gamma 144.616184
_cell_volume 584.434732
_symmetry_space_group_name_H-M "P -1"
_symmetry_group_IT_number 2
_symmetry_cell_setting 'triclinic'
loop_
_space_group_symop_operation_xyz
x,y,z
-x,-y,-z
loop_
_atom_site_type_symbol
_atom_site_label
_atom_site_fract_x
_atom_site_fract_y
_atom_site_fract_z
Si Si1 0.648593 0.796682 0.951928
Si Si2 0.177008 0.442204 0.873938
Si Si3 0.119654 0.005649 0.863918
Si Si4 0.593624 0.063910 0.042147
Si Si5 0.848091 0.803716 0.712052
Si Si6 0.372205 0.184470 0.602203
Si Si7 0.334601 0.746983 0.434323
O O1 0.651410 0.859736 0.176924
O O2 0.664736 0.985121 0.885197
O O3 0.500000 0.500000 0.000000
O O4 0.768182 0.838796 0.752328
O O5 0.281714 0.615785 0.957367
O O6 0.252016 0.635725 0.685275
O O7 0.135746 0.181979 0.779754
O O8 0.031042 0.315305 0.069347
O O9 0.233758 0.044123 0.660864
O O10 0.142141 0.132448 0.073035
O O11 0.482307 0.876203 0.284043
O O12 0.500000 0.000000 0.000000
O O13 0.759824 0.493780 0.677766
O O14 0.000000 0.000000 0.500000
O O15 0.500000 0.500000 0.500000
O O16 0.380157 0.007580 0.425213
#
# Coordination Sequence:
#
# PCOD8027161 Si02
#       7
#     2   2   2   2   2   2   2
#     4  11  25  44  68 101 142 186 233 294 354 422
#     4  11  23  43  69 100 136 191 239 292 356 428
#     4  10  24  44  69 100 145 185 231 297 361 430
#     4  12  26  44  69 103 146 191 243 298 358 424
#     4  11  23  45  72 106 144 187 235 294 366 431
#     4  11  26  44  70 107 142 181 241 299 361 431
#     4  12  24  42  72 102 139 185 241 291 357 423
#
# _framework density 23.954771000000001
#
# number of rings (size 3 to 8) (size 9 to 14) (size 15 to 20)
#    0.000    0.857    4.286    2.143    6.000    1.714 
#    0.000    0.000    0.000    4.286    0.000    0.000 
#    0.000    0.000    0.000    0.000    0.000    0.000 
#
# Total GULP energy -173446.683455 kJ/mol
# GULP energy per Si atom -12389.048818 kJ/mol
# Density = 2.390025 g / cm^3
# Si number density = 23.954771 Si / 1000 Ang^3
#
#
#
# Elastic Constant Matrix: (Units=GPa)
#
#
# Indices 1 2 3 4 5 6 
#
# 1 133.1267 51.5921 41.7002 -12.5929 -28.0756 5.3524
# 2 51.5921 166.4318 43.3230 -13.2189 -20.3099 17.3956
# 3 41.7002 43.3230 79.1023 -14.3209 -32.9728 1.9581
# 4 -12.5929 -13.2189 -14.3209 40.2748 6.9177 -10.0399
# 5 -28.0756 -20.3099 -32.9728 6.9177 42.0106 -9.5774
# 6 5.3524 17.3956 1.9581 -10.0399 -9.5774 49.2905
#
#
#
# Elastic Compliance Matrix: (Units=1/GPa)
#
#
# Indices 1 2 3 4 5 6 
#
# 1 0.009893 -0.001969 -0.002384 0.001122 0.003757 0.000674
# 2 -0.001969 0.007683 -0.003450 0.000214 -0.000913 -0.002494
# 3 -0.002384 -0.003450 0.022701 0.004756 0.014779 0.004415
# 4 0.001122 0.000214 0.004756 0.028122 0.001228 0.005580
# 5 0.003757 -0.000913 0.014779 0.001228 0.038897 0.007135
# 6 0.000674 -0.002494 0.004415 0.005580 0.007135 0.023443
#
#
# Mechanical properties :
#
#
# Convention : Reuss Voigt Hill
#
# Bulk Modulus (GPa) = 40.53550 72.43239 56.48394
# Shear Modulus (GPa) = 32.34821 42.45156 37.39989
#
# Velocity S-wave (km/s) = 3.67875 4.21426 3.95558
# Velocity P-wave (km/s) = 5.91630 7.34730 6.67029
#
# Compressibility (1/GPa) = 0.02466974
#
# Stress axis : x y z
#
# Youngs Moduli (GPa) = 101.08253 130.15421 44.05173
#
# Poissons Ratio (x) = 0.25626 0.10504
# Poissons Ratio (y) = 0.19902 0.15199
# Poissons Ratio (z) = 0.24103 0.44905
#
# Static dielectric constant tensor:
#      x y z
#    x 4.445320 0.170550 -0.349940 
#    y 0.170550 4.594080 -0.099130 
#    z -0.349940 -0.099130 4.416620 
# 
# 
# High freq. dielectric constant tensor:
#      x y z
#    x 1.955100 0.009280 -0.009180 
#    y 0.009280 1.960380 -0.009570 
#    z -0.009180 -0.009570 1.944180 
# 
# From -- ./inp_files/222817.got.cif
#   From: 2010.06.25/outbox.cif.g09.slc.cpg/sg2_112_cif.got.tgz:222817.got - 2010.06.27 13:26:56.
