data_PCOD8027727
_publ_section_title
;
Structure prediction by ZEFSAII (Michael W. Deem and Ramdas Pophale) SiO2 
 PCOD8027727
Probable space group: P -1
;
_chemical_formula_sum "Si O2"
_cell_formula_units_Z 16
_cell_length_a 7.872523
_cell_length_b 17.942624
_cell_length_c 6.702098
_cell_angle_alpha 132.565986
_cell_angle_beta 92.566966
_cell_angle_gamma 100.274510
_cell_volume 667.943268
_symmetry_space_group_name_H-M "P -1"
_symmetry_group_IT_number 2
_symmetry_cell_setting 'triclinic'
loop_
_space_group_symop_operation_xyz
x,y,z
-x,-y,-z
loop_
_atom_site_type_symbol
_atom_site_label
_atom_site_fract_x
_atom_site_fract_y
_atom_site_fract_z
Si Si1 0.868958 0.883600 0.304185
Si Si2 0.566607 0.949527 0.219860
Si Si3 0.274907 0.865142 0.730961
Si Si4 0.726125 0.729545 0.349400
Si Si5 0.689848 0.504096 0.917488
Si Si6 0.153339 0.595729 0.593946
Si Si7 0.311106 0.673133 0.148535
Si Si8 0.032902 0.238251 0.238630
O O1 0.683689 0.877986 0.178607
O O2 0.832974 0.838834 0.445394
O O3 0.000000 0.000000 0.500000
O O4 0.951789 0.799133 0.051817
O O5 0.500000 0.000000 0.500000
O O6 0.683683 0.040369 0.250394
O O7 0.416186 0.876403 0.938689
O O8 0.237044 0.757825 0.409575
O O9 0.091322 0.859825 0.820686
O O10 0.520444 0.711603 0.270362
O O11 0.774391 0.735871 0.598335
O O12 0.786989 0.626617 0.094929
O O13 0.702251 0.442480 0.599695
O O14 0.778691 0.444707 0.979509
O O15 0.500000 0.500000 0.000000
O O16 0.055594 0.665955 0.588419
O O17 0.000000 0.500000 0.500000
O O18 0.268739 0.668968 0.905184
#
# Coordination Sequence:
#
# PCOD8027727 Si02
#       8
#     2   2   2   2   2   2   2   2
#     4  12  27  44  70 104 146 188 243 303 368 436
#     4  11  25  45  72 101 145 187 249 300 367 435
#     4  11  25  43  71 104 139 192 240 301 367 434
#     4  11  26  45  71 103 144 189 240 298 374 435
#     4  10  24  46  72 108 149 190 245 307 374 443
#     4  12  27  44  76 111 148 197 251 308 373 445
#     4  11  25  45  76 101 148 192 249 298 372 450
#     4  12  27  43  71 102 147 183 241 298 371 429
#
# _framework density 23.954128000000001
#
# number of rings (size 3 to 8) (size 9 to 14) (size 15 to 20)
#    0.000    0.750    1.250    4.500    8.750    9.000 
#    0.000    0.000    0.000    0.000    0.000    0.000 
#    0.000    0.000    0.000    0.000    0.000    0.000 
#
# Total GULP energy -198263.449784 kJ/mol
# GULP energy per Si atom -12391.465612 kJ/mol
# Density = 2.389961 g / cm^3
# Si number density = 23.954128 Si / 1000 Ang^3
#
#
#
# Elastic Constant Matrix: (Units=GPa)
#
#
# Indices 1 2 3 4 5 6 
#
# 1 80.1191 22.7192 29.9933 -8.3313 0.4630 -0.0683
# 2 22.7192 114.9143 26.8108 -4.7974 6.7948 -1.5358
# 3 29.9933 26.8108 117.4357 -10.4800 -8.1402 -0.7809
# 4 -8.3313 -4.7974 -10.4800 38.4741 -2.5518 0.6372
# 5 0.4630 6.7948 -8.1402 -2.5518 43.8204 -3.8241
# 6 -0.0683 -1.5358 -0.7809 0.6372 -3.8241 34.7809
#
#
#
# Elastic Compliance Matrix: (Units=1/GPa)
#
#
# Indices 1 2 3 4 5 6 
#
# 1 0.014416 -0.002037 -0.003059 0.002017 -0.000305 -0.000201
# 2 -0.002037 0.009636 -0.001788 0.000152 -0.001780 0.000183
# 3 -0.003059 -0.001788 0.010047 0.001999 0.002324 0.000359
# 4 0.002017 0.000152 0.001999 0.027121 0.001885 -0.000234
# 5 -0.000305 -0.001780 0.002324 0.001885 0.023865 0.002562
# 6 -0.000201 0.000183 0.000359 -0.000234 0.002562 0.029053
#
#
# Mechanical properties :
#
#
# Convention : Reuss Voigt Hill
#
# Bulk Modulus (GPa) = 49.18856 52.39066 50.78961
# Shear Modulus (GPa) = 37.12435 38.94479 38.03457
#
# Velocity S-wave (km/s) = 3.94103 4.03650 3.98905
# Velocity P-wave (km/s) = 6.42558 6.60630 6.51657
#
# Compressibility (1/GPa) = 0.02032993
#
# Stress axis : x y z
#
# Youngs Moduli (GPa) = 69.36937 103.77642 99.53418
#
# Poissons Ratio (x) = 0.21136 0.30450
# Poissons Ratio (y) = 0.14129 0.17800
# Poissons Ratio (z) = 0.21222 0.18559
#
# Static dielectric constant tensor:
#      x y z
#    x 4.301530 -0.018170 -0.058200 
#    y -0.018170 4.755450 0.078320 
#    z -0.058200 0.078320 4.437940 
# 
# 
# High freq. dielectric constant tensor:
#      x y z
#    x 1.946160 -0.002210 -0.003430 
#    y -0.002210 1.969100 -0.001780 
#    z -0.003430 -0.001780 1.952480 
# 
# From -- ./inp_files/49353.got.cif
#   From: 2010.06.25/outbox.cif.g09.slc.cpg/sg2_25_cif.got.tgz:49353.got - 2010.06.27 13:26:56.
