data_PCOD8027579
_publ_section_title
;
Structure prediction by ZEFSAII (Michael W. Deem and Ramdas Pophale) SiO2 
 PCOD8027579
Probable space group: P -1
;
_chemical_formula_sum "Si O2"
_cell_formula_units_Z 14
_cell_length_a 9.866295
_cell_length_b 14.762210
_cell_length_c 14.765250
_cell_angle_alpha 160.224874
_cell_angle_beta 100.343170
_cell_angle_gamma 70.194499
_cell_volume 615.518977
_symmetry_space_group_name_H-M "P -1"
_symmetry_group_IT_number 2
_symmetry_cell_setting 'triclinic'
loop_
_space_group_symop_operation_xyz
x,y,z
-x,-y,-z
loop_
_atom_site_type_symbol
_atom_site_label
_atom_site_fract_x
_atom_site_fract_y
_atom_site_fract_z
Si Si1 0.445467 0.442099 0.534096
Si Si2 0.924123 0.487995 0.215131
Si Si3 0.582838 0.756029 0.957634
Si Si4 0.086100 0.643168 0.700286
Si Si5 0.657673 0.446097 0.848395
Si Si6 0.387597 0.331185 0.756042
Si Si7 0.891564 0.175204 0.472360
O O1 0.500000 0.500000 0.500000
O O2 0.448043 0.683525 0.834540
O O3 0.270964 0.486063 0.548142
O O4 0.565454 0.078286 0.228521
O O5 0.928957 0.421892 0.258740
O O6 0.743003 0.639162 0.301912
O O7 0.964670 0.753010 0.442624
O O8 0.049362 0.163620 0.878406
O O9 0.591909 0.757803 0.071040
O O10 0.750511 0.456394 0.659750
O O11 0.000000 0.500000 0.500000
O O12 0.000000 0.000000 0.000000
O O13 0.503750 0.409369 0.789461
O O14 0.819287 0.176496 0.565056
O O15 0.703916 0.453902 0.965284
O O16 0.500000 0.000000 0.500000
#
# Coordination Sequence:
#
# PCOD8027579 Si02
#       7
#     2   2   2   2   2   2   2
#     4  12  26  45  78 103 140 194 245 292 366 431
#     4  12  27  47  73 106 144 195 236 300 376 422
#     4  10  24  45  74 102 144 184 246 294 349 436
#     4  12  29  47  72 106 149 184 239 305 362 427
#     4   9  25  44  72 102 144 189 237 298 358 420
#     4  11  26  45  75 107 150 186 247 304 359 443
#     4  10  26  45  76  99 146 191 241 293 355 439
#
# _framework density 22.745032999999999
#
# number of rings (size 3 to 8) (size 9 to 14) (size 15 to 20)
#    0.857    0.286    0.000    3.857   16.000    1.143 
#    0.000    0.000    0.000    0.000    0.000    0.000 
#    0.000    0.000    0.000    0.000    0.000    0.000 
#
# Total GULP energy -173491.021217 kJ/mol
# GULP energy per Si atom -12392.215801 kJ/mol
# Density = 2.269326 g / cm^3
# Si number density = 22.745033 Si / 1000 Ang^3
#
#
#
# Elastic Constant Matrix: (Units=GPa)
#
#
# Indices 1 2 3 4 5 6 
#
# 1 107.3223 49.2438 6.3810 -21.8019 -1.7507 8.7606
# 2 49.2438 122.6147 24.6435 -5.9656 8.4258 8.3475
# 3 6.3810 24.6435 78.9823 4.6447 5.0769 11.3280
# 4 -21.8019 -5.9656 4.6447 37.4982 -3.4797 0.3775
# 5 -1.7507 8.4258 5.0769 -3.4797 37.4821 -2.6339
# 6 8.7606 8.3475 11.3280 0.3775 -2.6339 44.7527
#
#
#
# Elastic Compliance Matrix: (Units=1/GPa)
#
#
# Indices 1 2 3 4 5 6 
#
# 1 0.013237 -0.005052 0.000175 0.007098 0.002275 -0.001619
# 2 -0.005052 0.010874 -0.002692 -0.001096 -0.002452 -0.000493
# 3 0.000175 -0.002692 0.014189 -0.002213 -0.001739 -0.003207
# 4 0.007098 -0.001096 -0.002213 0.031247 0.003732 -0.000669
# 5 0.002275 -0.002452 -0.001739 0.003732 0.028065 0.002073
# 6 -0.001619 -0.000493 -0.003207 -0.000669 0.002073 0.023693
#
#
# Mechanical properties :
#
#
# Convention : Reuss Voigt Hill
#
# Bulk Modulus (GPa) = 43.17291 52.16176 47.66733
# Shear Modulus (GPa) = 34.68296 39.19002 36.93649
#
# Velocity S-wave (km/s) = 3.90918 4.15542 4.03418
# Velocity P-wave (km/s) = 6.27679 6.78280 6.53469
#
# Compressibility (1/GPa) = 0.02316267
#
# Stress axis : x y z
#
# Youngs Moduli (GPa) = 75.54842 91.95924 70.47823
#
# Poissons Ratio (x) = 0.46458 -0.01237
# Poissons Ratio (y) = 0.38167 0.18972
# Poissons Ratio (z) = -0.01326 0.24755
#
# Static dielectric constant tensor:
#      x y z
#    x 4.472320 -0.229960 0.304080 
#    y -0.229960 4.220030 -0.255470 
#    z 0.304080 -0.255470 4.301540 
# 
# 
# High freq. dielectric constant tensor:
#      x y z
#    x 1.912480 0.002670 0.004760 
#    y 0.002670 1.903670 0.003320 
#    z 0.004760 0.003320 1.893190 
# 
# From -- ./inp_files/522046.got.cif
#   From: 2010.06.25/outbox.cif.g09.slc.cpg/sg2_262_cif.got.tgz:522046.got - 2010.06.27 13:26:56.
