data_PCOD8027787
_publ_section_title
;
Structure prediction by ZEFSAII (Michael W. Deem and Ramdas Pophale) SiO2 
 PCOD8027787
Probable space group: P -1
;
_chemical_formula_sum "Si O2"
_cell_formula_units_Z 16
_cell_length_a 14.843137
_cell_length_b 9.352135
_cell_length_c 11.659431
_cell_angle_alpha 48.153646
_cell_angle_beta 113.416279
_cell_angle_gamma 141.872140
_cell_volume 715.291010
_symmetry_space_group_name_H-M "P -1"
_symmetry_group_IT_number 2
_symmetry_cell_setting 'triclinic'
loop_
_space_group_symop_operation_xyz
x,y,z
-x,-y,-z
loop_
_atom_site_type_symbol
_atom_site_label
_atom_site_fract_x
_atom_site_fract_y
_atom_site_fract_z
Si Si1 0.247515 0.296484 0.168035
Si Si2 0.639132 0.848806 0.380344
Si Si3 0.566507 0.888872 0.080274
Si Si4 0.135991 0.350340 0.883531
Si Si5 0.069302 0.675944 0.321763
Si Si6 0.294520 0.773884 0.246073
Si Si7 0.572252 0.118934 0.348350
Si Si8 0.839995 0.815133 0.568194
O O1 0.424546 0.538105 0.163686
O O2 0.142721 0.157561 0.300894
O O3 0.194976 0.029368 0.215318
O O4 0.217347 0.445860 0.997545
O O5 0.500000 0.500000 0.500000
O O6 0.652411 0.954541 0.203262
O O7 0.790244 0.950740 0.427259
O O8 0.619814 0.982232 0.395938
O O9 0.500000 0.000000 0.000000
O O10 0.693327 0.081129 0.941138
O O11 0.271903 0.521388 0.766669
O O12 0.063234 0.449376 0.765189
O O13 0.000000 0.000000 0.000000
O O14 0.149832 0.618856 0.330598
O O15 0.000000 0.500000 0.500000
O O16 0.283592 0.530368 0.344749
O O17 0.450578 0.042205 0.248239
O O18 0.500000 0.000000 0.500000
O O19 0.000000 0.000000 0.500000
#
# Coordination Sequence:
#
# PCOD8027787 Si02
#       8
#     2   2   2   2   2   2   2   2
#     4  11  22  45  72  93 141 188 224 294 355 413
#     4  12  24  46  72 103 139 186 230 298 353 409
#     4  12  21  45  72 100 140 175 237 295 338 418
#     4  10  24  47  67  99 145 187 227 289 370 413
#     4  11  26  45  67 103 145 181 234 297 359 419
#     4  12  25  45  69 104 137 184 238 291 344 424
#     4  12  25  42  76 104 138 182 245 287 352 425
#     4  12  27  45  69 104 142 183 239 288 354 425
#
# _framework density 22.368518999999999
#
# number of rings (size 3 to 8) (size 9 to 14) (size 15 to 20)
#    0.000    0.500    6.250    1.500    5.250    2.500 
#    4.500    1.250    0.000    0.000    0.000    0.000 
#    0.000    0.000    0.000    0.000    0.000    0.000 
#
# Total GULP energy -198361.515250 kJ/mol
# GULP energy per Si atom -12397.594703 kJ/mol
# Density = 2.231761 g / cm^3
# Si number density = 22.368519 Si / 1000 Ang^3
#
#
#
# Elastic Constant Matrix: (Units=GPa)
#
#
# Indices 1 2 3 4 5 6 
#
# 1 132.4979 35.4860 73.4375 25.4028 -11.1905 11.3353
# 2 35.4860 76.4848 47.1986 9.1175 -3.8271 3.5399
# 3 73.4375 47.1986 165.3212 23.0140 -16.6784 5.5999
# 4 25.4028 9.1175 23.0140 45.6056 7.2857 -0.7062
# 5 -11.1905 -3.8271 -16.6784 7.2857 45.5777 1.6321
# 6 11.3353 3.5399 5.5999 -0.7062 1.6321 36.6498
#
#
#
# Elastic Compliance Matrix: (Units=1/GPa)
#
#
# Indices 1 2 3 4 5 6 
#
# 1 0.011391 -0.002383 -0.003430 -0.004530 0.002172 -0.002953
# 2 -0.002383 0.016437 -0.003676 -0.000022 -0.000537 -0.000265
# 3 -0.003430 -0.003676 0.009231 -0.002434 0.002622 -0.000158
# 4 -0.004530 -0.000022 -0.002434 0.026741 -0.006372 0.002574
# 5 0.002172 -0.000537 0.002622 -0.006372 0.024486 -0.002234
# 6 -0.002953 -0.000265 -0.000158 0.002574 -0.002234 0.028397
#
#
# Mechanical properties :
#
#
# Convention : Reuss Voigt Hill
#
# Bulk Modulus (GPa) = 55.30951 76.28312 65.79631
# Shear Modulus (GPa) = 35.28866 40.11210 37.70038
#
# Velocity S-wave (km/s) = 3.97621 4.23926 4.10984
# Velocity P-wave (km/s) = 6.77204 7.62487 7.21108
#
# Compressibility (1/GPa) = 0.01808007
#
# Stress axis : x y z
#
# Youngs Moduli (GPa) = 87.78697 60.83937 108.33448
#
# Poissons Ratio (x) = 0.14498 0.37159
# Poissons Ratio (y) = 0.20920 0.39826
# Poissons Ratio (z) = 0.30111 0.22366
#
# Static dielectric constant tensor:
#      x y z
#    x 4.157270 0.324800 0.334390 
#    y 0.324800 4.706550 0.418280 
#    z 0.334390 0.418280 5.005480 
# 
# 
# High freq. dielectric constant tensor:
#      x y z
#    x 1.861680 0.011580 -0.003590 
#    y 0.011580 1.889550 -0.003000 
#    z -0.003590 -0.003000 1.902640 
# 
# From -- ./inp_files/446810.got.cif
#   From: 2010.06.25/outbox.cif.g09.slc.cpg/sg2_224_cif.got.tgz:446810.got - 2010.06.27 13:26:56.
