data_PCOD8027076
_publ_section_title
;
Structure prediction by ZEFSAII (Michael W. Deem and Ramdas Pophale) SiO2 
 PCOD8027076
Probable space group: P -1
;
_chemical_formula_sum "Si O2"
_cell_formula_units_Z 16
_cell_length_a 15.751955
_cell_length_b 12.228184
_cell_length_c 14.677970
_cell_angle_alpha 58.782882
_cell_angle_beta 29.547865
_cell_angle_gamma 38.387498
_cell_volume 731.885368
_symmetry_space_group_name_H-M "P -1"
_symmetry_group_IT_number 2
_symmetry_cell_setting 'triclinic'
loop_
_space_group_symop_operation_xyz
x,y,z
-x,-y,-z
loop_
_atom_site_type_symbol
_atom_site_label
_atom_site_fract_x
_atom_site_fract_y
_atom_site_fract_z
Si Si1 0.848222 0.466335 0.617685
Si Si2 0.151092 0.874664 0.781017
Si Si3 0.489163 0.650841 0.046333
Si Si4 0.315531 0.003751 0.122169
Si Si5 0.890639 0.927863 0.527648
Si Si6 0.381460 0.679274 0.834842
Si Si7 0.039572 0.263128 0.085783
Si Si8 0.435580 0.255458 0.683673
O O1 0.643005 0.609092 0.660755
O O2 0.000000 0.500000 0.500000
O O3 0.090757 0.226674 0.464630
O O4 0.639912 0.531542 0.861491
O O5 0.371375 0.696188 0.728140
O O6 0.317146 0.877178 0.562628
O O7 0.006899 0.839174 0.881750
O O8 0.909576 0.102040 0.949445
O O9 0.581499 0.491902 0.102199
O O10 0.148073 0.852723 0.273053
O O11 0.544046 0.763921 0.978415
O O12 0.098634 0.076186 0.370057
O O13 0.138234 0.170057 0.134924
O O14 0.500000 0.000000 0.000000
O O15 0.590484 0.162291 0.677423
O O16 0.749803 0.509479 0.254180
O O17 0.263467 0.224692 0.842840
#
# Coordination Sequence:
#
# PCOD8027076 Si02
#       8
#     2   2   2   2   2   2   2   2
#     4  11  23  42  69  99 135 175 223 282 343 400
#     4  11  24  46  70  93 144 181 230 279 342 414
#     4  11  24  42  70  98 137 177 229 278 350 407
#     4  12  24  42  68 102 137 169 233 289 338 403
#     4  11  23  41  69  99 133 177 227 282 336 409
#     4  10  24  44  67 101 129 181 232 278 335 417
#     4  11  26  43  68  98 138 185 226 281 347 410
#     4  11  24  43  68  98 138 181 226 280 347 409
#
# _framework density 21.861346999999999
#
# number of rings (size 3 to 8) (size 9 to 14) (size 15 to 20)
#    0.000    1.000    1.250    6.000    7.000    0.000 
#    2.250    1.250    0.000    0.000    0.000    0.000 
#    0.000    0.000    0.000    0.000    0.000    0.000 
#
# Total GULP energy -198361.892853 kJ/mol
# GULP energy per Si atom -12397.618303 kJ/mol
# Density = 2.181159 g / cm^3
# Si number density = 21.861347 Si / 1000 Ang^3
#
#
#
# Elastic Constant Matrix: (Units=GPa)
#
#
# Indices 1 2 3 4 5 6 
#
# 1 112.2443 49.0090 22.5633 -0.0385 -8.2283 -16.7627
# 2 49.0090 118.1717 24.4188 11.6523 -8.6398 -13.1486
# 3 22.5633 24.4188 74.8312 -8.3325 -4.4483 -11.3714
# 4 -0.0385 11.6523 -8.3325 37.1141 1.8420 -4.8236
# 5 -8.2283 -8.6398 -4.4483 1.8420 37.3877 2.1345
# 6 -16.7627 -13.1486 -11.3714 -4.8236 2.1345 35.9075
#
#
#
# Elastic Compliance Matrix: (Units=1/GPa)
#
#
# Indices 1 2 3 4 5 6 
#
# 1 0.011639 -0.004203 -0.001365 0.001434 0.001152 0.003586
# 2 -0.004203 0.011366 -0.002709 -0.004168 0.001545 0.000690
# 3 -0.001365 -0.002709 0.015845 0.004904 0.000488 0.004019
# 4 0.001434 -0.004168 0.004904 0.030075 -0.001822 0.004845
# 5 0.001152 0.001545 0.000488 -0.001822 0.027541 -0.000624
# 6 0.003586 0.000690 0.004019 0.004845 -0.000624 0.031737
#
#
# Mechanical properties :
#
#
# Convention : Reuss Voigt Hill
#
# Bulk Modulus (GPa) = 44.85082 55.24772 50.04927
# Shear Modulus (GPa) = 32.85396 36.03227 34.44312
#
# Velocity S-wave (km/s) = 3.88085 4.06423 3.97360
# Velocity P-wave (km/s) = 6.37510 6.88118 6.63297
#
# Compressibility (1/GPa) = 0.02229614
#
# Stress axis : x y z
#
# Youngs Moduli (GPa) = 85.91581 87.98194 63.11281
#
# Poissons Ratio (x) = 0.36981 0.08613
# Poissons Ratio (y) = 0.36112 0.17097
# Poissons Ratio (z) = 0.11725 0.23834
#
# Static dielectric constant tensor:
#      x y z
#    x 4.280430 -0.183710 0.197270 
#    y -0.183710 4.270920 -0.027020 
#    z 0.197270 -0.027020 4.151240 
# 
# 
# High freq. dielectric constant tensor:
#      x y z
#    x 1.859040 -0.000870 -0.000130 
#    y -0.000870 1.871370 0.001130 
#    z -0.000130 0.001130 1.865440 
# 
# From -- ./inp_files/532458.got.cif
#   From: 2010.06.25/outbox.cif.g09.slc.cpg/sg2_267_cif.got.tgz:532458.got - 2010.06.27 13:26:56.
