data_PCOD8027696
_publ_section_title
;
Structure prediction by ZEFSAII (Michael W. Deem and Ramdas Pophale) SiO2 
 PCOD8027696
Probable space group: P -1
;
_chemical_formula_sum "Si O2"
_cell_formula_units_Z 14
_cell_length_a 18.777083
_cell_length_b 12.406416
_cell_length_c 10.759128
_cell_angle_alpha 35.208270
_cell_angle_beta 34.063399
_cell_angle_gamma 25.335310
_cell_volume 575.810545
_symmetry_space_group_name_H-M "P -1"
_symmetry_group_IT_number 2
_symmetry_cell_setting 'triclinic'
loop_
_space_group_symop_operation_xyz
x,y,z
-x,-y,-z
loop_
_atom_site_type_symbol
_atom_site_label
_atom_site_fract_x
_atom_site_fract_y
_atom_site_fract_z
Si Si1 0.702257 0.805978 0.849292
Si Si2 0.480368 0.604087 0.068907
Si Si3 0.804873 0.369842 0.962610
Si Si4 0.987546 0.363538 0.037807
Si Si5 0.929783 0.925415 0.360253
Si Si6 0.647036 0.889277 0.290683
Si Si7 0.167170 0.678779 0.496554
O O1 0.726699 0.655181 0.833654
O O2 0.765190 0.953982 0.594967
O O3 0.817365 0.588191 0.993179
O O4 0.500000 0.000000 0.000000
O O5 0.303317 0.706491 0.291839
O O6 0.500000 0.500000 0.000000
O O7 0.661310 0.378618 0.096339
O O8 0.454793 0.853400 0.887780
O O9 0.968397 0.241004 0.755204
O O10 0.862545 0.206504 0.162986
O O11 0.961734 0.192137 0.314269
O O12 0.000000 0.500000 0.000000
O O13 0.169685 0.189006 0.856321
O O14 0.064326 0.783520 0.415698
O O15 0.704280 0.637923 0.380316
O O16 0.500000 0.000000 0.500000
#
# Coordination Sequence:
#
# PCOD8027696 Si02
#       7
#     2   2   2   2   2   2   2
#     4  12  28  49  71 103 153 196 239 297 366 436
#     4  12  25  43  73 109 140 184 241 300 355 429
#     4  11  28  46  72 110 144 193 241 295 376 425
#     4  10  24  46  71 104 138 188 245 290 357 424
#     4  11  24  50  74 102 149 185 243 307 361 432
#     4  11  22  41  75 104 138 179 242 296 357 415
#     4  11  24  47  72 108 141 185 242 300 356 429
#
# _framework density 24.313552999999999
#
# number of rings (size 3 to 8) (size 9 to 14) (size 15 to 20)
#    0.000    0.857    5.714    0.429    8.000    1.143 
#    2.571    0.000    0.000    0.000    0.000    0.000 
#    0.000    0.000    0.000    0.000    0.000    0.000 
#
# Total GULP energy -173463.227819 kJ/mol
# GULP energy per Si atom -12390.230559 kJ/mol
# Density = 2.425821 g / cm^3
# Si number density = 24.313553 Si / 1000 Ang^3
#
#
#
# Elastic Constant Matrix: (Units=GPa)
#
#
# Indices 1 2 3 4 5 6 
#
# 1 54.4730 20.2271 20.3877 -0.9736 0.3316 -12.7132
# 2 20.2271 110.8379 50.8328 25.8320 1.5118 -11.4445
# 3 20.3877 50.8328 193.5782 33.4805 -2.1686 -16.3060
# 4 -0.9736 25.8320 33.4805 58.0236 -3.8452 -7.4749
# 5 0.3316 1.5118 -2.1686 -3.8452 36.1481 -4.7043
# 6 -12.7132 -11.4445 -16.3060 -7.4749 -4.7043 41.2726
#
#
#
# Elastic Compliance Matrix: (Units=1/GPa)
#
#
# Indices 1 2 3 4 5 6 
#
# 1 0.021647 -0.003522 -0.001472 0.003605 0.001009 0.005877
# 2 -0.003522 0.011568 -0.001926 -0.004094 -0.000936 0.000514
# 3 -0.001472 -0.001926 0.006387 -0.002691 0.000332 0.001087
# 4 0.003605 -0.004094 -0.002691 0.021239 0.002634 0.003059
# 5 0.001009 -0.000936 0.000332 0.002634 0.028503 0.003908
# 6 0.005877 0.000514 0.001087 0.003059 0.003908 0.027611
#
#
# Mechanical properties :
#
#
# Convention : Reuss Voigt Hill
#
# Bulk Modulus (GPa) = 38.81740 60.19825 49.50783
# Shear Modulus (GPa) = 35.87274 44.91828 40.39551
#
# Velocity S-wave (km/s) = 3.84529 4.30287 4.08050
# Velocity P-wave (km/s) = 5.97620 7.03556 6.52741
#
# Compressibility (1/GPa) = 0.02576164
#
# Stress axis : x y z
#
# Youngs Moduli (GPa) = 46.19683 86.44418 156.56086
#
# Poissons Ratio (x) = 0.30448 0.23045
# Poissons Ratio (y) = 0.16272 0.30153
# Poissons Ratio (z) = 0.06800 0.16649
#
# Static dielectric constant tensor:
#      x y z
#    x 4.140990 0.532440 0.025850 
#    y 0.532440 5.575550 0.555530 
#    z 0.025850 0.555530 5.875050 
# 
# 
# High freq. dielectric constant tensor:
#      x y z
#    x 1.946130 -0.001750 -0.008990 
#    y -0.001750 1.983640 0.004190 
#    z -0.008990 0.004190 1.988550 
# 
# From -- ./inp_files/471842.got.cif
#   From: 2010.06.25/outbox.cif.g09.slc.cpg/sg2_236_cif.got.tgz:471842.got - 2010.06.27 13:26:56.
