data_PCOD8027472
_publ_section_title
;
Structure prediction by ZEFSAII (Michael W. Deem and Ramdas Pophale) SiO2 
 PCOD8027472
Probable space group: P -1
;
_chemical_formula_sum "Si O2"
_cell_formula_units_Z 14
_cell_length_a 5.304987
_cell_length_b 14.354297
_cell_length_c 8.902951
_cell_angle_alpha 63.061513
_cell_angle_beta 110.924777
_cell_angle_gamma 105.718637
_cell_volume 559.664138
_symmetry_space_group_name_H-M "P -1"
_symmetry_group_IT_number 2
_symmetry_cell_setting 'triclinic'
loop_
_space_group_symop_operation_xyz
x,y,z
-x,-y,-z
loop_
_atom_site_type_symbol
_atom_site_label
_atom_site_fract_x
_atom_site_fract_y
_atom_site_fract_z
Si Si1 0.388980 0.684670 0.645975
Si Si2 0.818319 0.839050 0.503666
Si Si3 0.611417 0.536773 0.338596
Si Si4 0.695655 0.065049 0.288593
Si Si5 0.953538 0.744826 0.310302
Si Si6 0.083825 0.093972 0.063153
Si Si7 0.711408 0.432852 0.014350
O O1 0.697859 0.743427 0.660732
O O2 0.333447 0.564795 0.666545
O O3 0.278691 0.672926 0.804337
O O4 0.239061 0.757483 0.449526
O O5 0.764429 0.798179 0.350189
O O6 0.140662 0.866891 0.593096
O O7 0.667482 0.942177 0.419166
O O8 0.500000 0.500000 0.500000
O O9 0.877089 0.620018 0.360447
O O10 0.400754 0.598719 0.153403
O O11 0.395146 0.097765 0.182477
O O12 0.876490 0.082348 0.164773
O O13 0.956635 0.799119 0.109904
O O14 0.000000 0.000000 0.000000
O O15 0.500000 0.500000 0.000000
O O16 0.000000 0.500000 0.000000
#
# Coordination Sequence:
#
# PCOD8027472 Si02
#       7
#     2   2   2   2   2   2   2
#     4  11  25  46  72 103 149 195 243 298 364 441
#     4  11  26  46  73 107 144 194 245 295 369 438
#     4  11  23  45  69 107 141 190 239 304 363 422
#     4  11  28  48  75 108 149 192 239 308 365 437
#     4  12  26  42  73 105 143 193 244 301 360 433
#     4  12  26  49  76 107 148 188 246 304 370 429
#     4  10  24  45  69  96 139 189 237 292 354 422
#
# _framework density 25.015004999999999
#
# number of rings (size 3 to 8) (size 9 to 14) (size 15 to 20)
#    0.000    0.857    2.857    2.571    8.000    2.286 
#    0.000    0.000    0.000    0.000    0.000    0.000 
#    0.000    0.000    0.000    0.000    0.000    0.000 
#
# Total GULP energy -173512.799488 kJ/mol
# GULP energy per Si atom -12393.771392 kJ/mol
# Density = 2.495807 g / cm^3
# Si number density = 25.015005 Si / 1000 Ang^3
#
#
#
# Elastic Constant Matrix: (Units=GPa)
#
#
# Indices 1 2 3 4 5 6 
#
# 1 99.7367 15.3568 37.9000 -4.3715 -4.5699 21.2307
# 2 15.3568 118.9906 31.9504 -12.1158 -9.9978 20.7404
# 3 37.9000 31.9504 171.8400 -3.3017 -5.5787 15.4871
# 4 -4.3715 -12.1158 -3.3017 42.9187 4.4337 -2.8706
# 5 -4.5699 -9.9978 -5.5787 4.4337 50.3074 -1.3468
# 6 21.2307 20.7404 15.4871 -2.8706 -1.3468 32.2026
#
#
#
# Elastic Compliance Matrix: (Units=1/GPa)
#
#
# Indices 1 2 3 4 5 6 
#
# 1 0.012385 0.000365 -0.002106 0.000641 0.000712 -0.007301
# 2 0.000365 0.010089 -0.001338 0.002234 0.001537 -0.005832
# 3 -0.002106 -0.001338 0.006623 -0.000173 0.000267 -0.000939
# 4 0.000641 0.002234 -0.000173 0.024172 -0.001639 0.000309
# 5 0.000712 0.001537 0.000267 -0.001639 0.020398 -0.000881
# 6 -0.007301 -0.005832 -0.000939 0.000309 -0.000881 0.040065
#
#
# Mechanical properties :
#
#
# Convention : Reuss Voigt Hill
#
# Bulk Modulus (GPa) = 43.59487 62.33128 52.96308
# Shear Modulus (GPa) = 39.20418 45.44311 42.32364
#
# Velocity S-wave (km/s) = 3.96312 4.26682 4.11777
# Velocity P-wave (km/s) = 6.19734 7.01755 6.62016
#
# Compressibility (1/GPa) = 0.02293848
#
# Stress axis : x y z
#
# Youngs Moduli (GPa) = 80.74085 99.11547 150.99794
#
# Poissons Ratio (x) = -0.03614 0.31801
# Poissons Ratio (y) = -0.02944 0.20203
# Poissons Ratio (z) = 0.17004 0.13261
#
# Static dielectric constant tensor:
#      x y z
#    x 4.237750 0.062100 -0.087230 
#    y 0.062100 4.412280 0.144990 
#    z -0.087230 0.144990 6.268050 
# 
# 
# High freq. dielectric constant tensor:
#      x y z
#    x 1.981740 0.011790 -0.004360 
#    y 0.011790 2.005940 0.001210 
#    z -0.004360 0.001210 2.022620 
# 
# From -- ./inp_files/134864.got.cif
#   From: 2010.06.25/outbox.cif.g09.slc.cpg/sg2_68_cif.got.tgz:134864.got - 2010.06.27 13:26:56.
