data_PCOD8027490
_publ_section_title
;
Structure prediction by ZEFSAII (Michael W. Deem and Ramdas Pophale) SiO2 
 PCOD8027490
Probable space group: P -1
;
_chemical_formula_sum "Si O2"
_cell_formula_units_Z 16
_cell_length_a 17.425831
_cell_length_b 14.796779
_cell_length_c 8.997308
_cell_angle_alpha 58.761010
_cell_angle_beta 38.004551
_cell_angle_gamma 38.074018
_cell_volume 848.707974
_symmetry_space_group_name_H-M "P -1"
_symmetry_group_IT_number 2
_symmetry_cell_setting 'triclinic'
loop_
_space_group_symop_operation_xyz
x,y,z
-x,-y,-z
loop_
_atom_site_type_symbol
_atom_site_label
_atom_site_fract_x
_atom_site_fract_y
_atom_site_fract_z
Si Si1 0.746173 0.582997 0.871683
Si Si2 0.412078 0.693892 0.368844
Si Si3 0.766327 0.240196 0.918384
Si Si4 0.953351 0.257743 0.857835
Si Si5 0.554576 0.561148 0.571997
Si Si6 0.896203 0.315575 0.414602
Si Si7 0.045462 0.354455 0.401833
Si Si8 0.997029 0.099407 0.205930
O O1 0.808345 0.434505 0.984261
O O2 0.799292 0.652513 0.830212
O O3 0.852732 0.524444 0.600946
O O4 0.528702 0.708521 0.081335
O O5 0.482222 0.672160 0.448255
O O6 0.464939 0.549195 0.345918
O O7 0.198014 0.838621 0.563148
O O8 0.859681 0.219097 0.946828
O O9 0.775571 0.327839 0.709443
O O10 0.561113 0.341485 0.187299
O O11 0.855317 0.080766 0.852970
O O12 0.092731 0.232457 0.554445
O O13 0.043694 0.148750 0.955256
O O14 0.761649 0.459233 0.385607
O O15 0.013902 0.158929 0.278113
O O16 0.027391 0.318162 0.294798
#
# Coordination Sequence:
#
# PCOD8027490 Si02
#       8
#     2   2   2   2   2   2   2   2
#     4   9  15  32  55  73  98 129 171 216 235 291
#     4  10  17  30  49  80 103 124 163 214 249 289
#     4  11  19  32  48  75 107 137 162 190 256 318
#     4   9  16  31  50  71  99 126 167 204 234 296
#     4  10  18  30  50  74 106 130 162 205 260 287
#     4  10  20  32  48  77 105 128 164 215 246 289
#     4   8  18  32  53  75  96 131 174 207 247 285
#     4  11  21  30  50  79 107 134 157 200 260 303
#
# _framework density 18.852184999999999
#
# number of rings (size 3 to 8) (size 9 to 14) (size 15 to 20)
#    0.750    1.500    2.500    2.625    0.000    1.000 
#    0.000    2.500    0.000    3.000    3.250    1.750 
#    0.000    0.000    0.000    0.000    0.000    0.000 
#
# Total GULP energy -198230.963682 kJ/mol
# GULP energy per Si atom -12389.435230 kJ/mol
# Density = 1.880928 g / cm^3
# Si number density = 18.852185 Si / 1000 Ang^3
#
#
#
# Elastic Constant Matrix: (Units=GPa)
#
#
# Indices 1 2 3 4 5 6 
#
# 1 98.9812 19.6902 23.2852 -1.8179 1.0799 19.6771
# 2 19.6902 49.2777 6.9266 14.0980 -4.6442 9.8140
# 3 23.2852 6.9266 45.4079 6.3999 -5.6870 6.7774
# 4 -1.8179 14.0980 6.3999 21.0401 3.5181 3.4179
# 5 1.0799 -4.6442 -5.6870 3.5181 27.5866 -4.4607
# 6 19.6771 9.8140 6.7774 3.4179 -4.4607 20.9484
#
#
#
# Elastic Compliance Matrix: (Units=1/GPa)
#
#
# Indices 1 2 3 4 5 6 
#
# 1 0.016114 -0.006738 -0.007814 0.011520 -0.006915 -0.012803
# 2 -0.006738 0.030580 0.003639 -0.023017 0.008514 -0.003606
# 3 -0.007814 0.003639 0.028341 -0.013230 0.008519 0.000439
# 4 0.011520 -0.023017 -0.013230 0.072888 -0.018213 -0.011528
# 5 -0.006915 0.008514 0.008519 -0.018213 0.043987 0.012089
# 6 -0.012803 -0.003606 0.000439 -0.011528 0.012089 0.065765
#
#
# Mechanical properties :
#
#
# Convention : Reuss Voigt Hill
#
# Bulk Modulus (GPa) = 18.79408 32.60785 25.70097
# Shear Modulus (GPa) = 16.82160 23.49935 20.16048
#
# Velocity S-wave (km/s) = 2.99036 3.53442 3.27371
# Velocity P-wave (km/s) = 4.68122 5.83012 5.28697
#
# Compressibility (1/GPa) = 0.05320823
#
# Stress axis : x y z
#
# Youngs Moduli (GPa) = 62.05837 32.70158 35.28490
#
# Poissons Ratio (x) = 0.22034 0.27572
# Poissons Ratio (y) = 0.41815 -0.12841
# Poissons Ratio (z) = 0.48494 -0.11901
#
# Static dielectric constant tensor:
#      x y z
#    x 3.459140 0.107770 0.203380 
#    y 0.107770 3.107650 0.035540 
#    z 0.203380 0.035540 3.359920 
# 
# 
# High freq. dielectric constant tensor:
#      x y z
#    x 1.717650 0.012040 0.019490 
#    y 0.012040 1.689710 0.003310 
#    z 0.019490 0.003310 1.718180 
# 
# From -- ./inp_files/310727.got.cif
#   From: 2010.06.25/outbox.cif.g09.slc.cpg/sg2_156_cif.got.tgz:310727.got - 2010.06.27 13:26:56.
