data_PCOD8027942
_publ_section_title
;
Structure prediction by ZEFSAII (Michael W. Deem and Ramdas Pophale) SiO2 
 PCOD8027942
Probable space group: P -1
;
_chemical_formula_sum "Si O2"
_cell_formula_units_Z 14
_cell_length_a 10.810471
_cell_length_b 9.703653
_cell_length_c 8.859415
_cell_angle_alpha 70.450611
_cell_angle_beta 141.168615
_cell_angle_gamma 107.451746
_cell_volume 547.933562
_symmetry_space_group_name_H-M "P -1"
_symmetry_group_IT_number 2
_symmetry_cell_setting 'triclinic'
loop_
_space_group_symop_operation_xyz
x,y,z
-x,-y,-z
loop_
_atom_site_type_symbol
_atom_site_label
_atom_site_fract_x
_atom_site_fract_y
_atom_site_fract_z
Si Si1 0.943616 0.272914 0.933220
Si Si2 0.188790 0.459085 0.604834
Si Si3 0.649432 0.220964 0.440197
Si Si4 0.647794 0.319193 0.873345
Si Si5 0.697829 0.622471 0.950052
Si Si6 0.797062 0.783298 0.528971
Si Si7 0.700096 0.070216 0.228870
O O1 0.794468 0.164107 0.730174
O O2 0.791090 0.365908 0.851519
O O3 0.078727 0.369626 0.908042
O O4 0.086823 0.193980 0.211062
O O5 0.302407 0.606481 0.604103
O O6 0.130692 0.352096 0.449042
O O7 0.000000 0.500000 0.500000
O O8 0.310721 0.371651 0.877533
O O9 0.419584 0.235306 0.267399
O O10 0.670003 0.122483 0.351294
O O11 0.597844 0.464253 0.862388
O O12 0.437830 0.243060 0.648114
O O13 0.768690 0.206191 0.134587
O O14 0.843741 0.935309 0.424431
O O15 0.500000 0.000000 0.000000
#
# Coordination Sequence:
#
# PCOD8027942 Si02
#       7
#     2   2   2   2   2   2   2
#     4  12  28  41  67 109 144 182 227 285 344 425
#     4  12  23  44  73 106 137 175 240 291 331 409
#     4  12  25  45  72 103 140 182 230 288 346 403
#     4  11  23  45  71 102 140 184 231 287 345 405
#     4  12  23  42  72 105 140 179 231 292 349 395
#     4  11  26  47  70 102 143 185 227 284 348 406
#     4  10  24  49  75  99 134 187 236 283 340 414
#
# _framework density 25.550543000000001
#
# number of rings (size 3 to 8) (size 9 to 14) (size 15 to 20)
#    0.000    0.571    4.286    4.286    2.000    2.286 
#    0.000    9.286    0.000    0.000    0.000    0.000 
#    0.000    0.000    0.000    0.000    0.000    0.000 
#
# Total GULP energy -173471.969340 kJ/mol
# GULP energy per Si atom -12390.854953 kJ/mol
# Density = 2.549239 g / cm^3
# Si number density = 25.550543 Si / 1000 Ang^3
#
#
#
# Elastic Constant Matrix: (Units=GPa)
#
#
# Indices 1 2 3 4 5 6 
#
# 1 100.3882 12.8477 17.8621 8.1434 -9.0287 -2.1094
# 2 12.8477 87.0891 20.4884 10.1159 -9.9892 -21.7841
# 3 17.8621 20.4884 157.8905 19.5501 -21.7995 -8.9060
# 4 8.1434 10.1159 19.5501 33.2385 -8.7217 -3.5826
# 5 -9.0287 -9.9892 -21.7995 -8.7217 37.4721 6.8394
# 6 -2.1094 -21.7841 -8.9060 -3.5826 6.8394 28.7600
#
#
#
# Elastic Compliance Matrix: (Units=1/GPa)
#
#
# Indices 1 2 3 4 5 6 
#
# 1 0.010489 -0.001277 -0.000669 -0.001464 0.001635 -0.000976
# 2 -0.001277 0.014827 -0.000793 -0.002422 0.000718 0.010419
# 3 -0.000669 -0.000793 0.007346 -0.003048 0.003099 0.000509
# 4 -0.001464 -0.002422 -0.003048 0.034354 0.005196 0.000158
# 5 0.001635 0.000718 0.003099 0.005196 0.031225 -0.005155
# 6 -0.000976 0.010419 0.000509 0.000158 -0.005155 0.043994
#
#
# Mechanical properties :
#
#
# Convention : Reuss Voigt Hill
#
# Bulk Modulus (GPa) = 36.78425 49.75157 43.26791
# Shear Modulus (GPa) = 31.89305 39.50542 35.69924
#
# Velocity S-wave (km/s) = 3.53687 3.93640 3.74197
# Velocity P-wave (km/s) = 5.57738 6.33833 5.96999
#
# Compressibility (1/GPa) = 0.02718555
#
# Stress axis : x y z
#
# Youngs Moduli (GPa) = 95.33760 67.44334 136.12934
#
# Poissons Ratio (x) = 0.08609 0.09107
# Poissons Ratio (y) = 0.12170 0.10793
# Poissons Ratio (z) = 0.06378 0.05347
#
# Static dielectric constant tensor:
#      x y z
#    x 4.843800 0.068450 0.091260 
#    y 0.068450 4.520280 -0.191200 
#    z 0.091260 -0.191200 5.881330 
# 
# 
# High freq. dielectric constant tensor:
#      x y z
#    x 2.027650 -0.008450 0.010190 
#    y -0.008450 1.986030 0.005140 
#    z 0.010190 0.005140 2.049990 
# 
# From -- ./inp_files/243763.got.cif
#   From: 2010.06.25/outbox.cif.g09.slc.cpg/sg2_122_cif.got.tgz:243763.got - 2010.06.27 13:26:56.
