data_PCOD8027855
_publ_section_title
;
Structure prediction by ZEFSAII (Michael W. Deem and Ramdas Pophale) SiO2 
 PCOD8027855
Probable space group: P -1
;
_chemical_formula_sum "Si O2"
_cell_formula_units_Z 16
_cell_length_a 17.842025
_cell_length_b 5.378961
_cell_length_c 9.389500
_cell_angle_alpha 100.727182
_cell_angle_beta 136.144428
_cell_angle_gamma 80.418477
_cell_volume 612.739416
_symmetry_space_group_name_H-M "P -1"
_symmetry_group_IT_number 2
_symmetry_cell_setting 'triclinic'
loop_
_space_group_symop_operation_xyz
x,y,z
-x,-y,-z
loop_
_atom_site_type_symbol
_atom_site_label
_atom_site_fract_x
_atom_site_fract_y
_atom_site_fract_z
Si Si1 0.402890 0.086985 0.180024
Si Si2 0.714798 0.282525 0.679888
Si Si3 0.592006 0.775271 0.488977
Si Si4 0.209592 0.389852 0.605899
Si Si5 0.008656 0.084526 0.361004
Si Si6 0.437830 0.267336 0.952517
Si Si7 0.774401 0.272880 0.066436
Si Si8 0.915846 0.336457 0.786305
O O1 0.412218 0.293792 0.089752
O O2 0.279189 0.998770 0.009849
O O3 0.443484 0.219633 0.393015
O O4 0.485477 0.831122 0.248402
O O5 0.648795 0.493508 0.513746
O O6 0.835809 0.222864 0.779515
O O7 0.668880 0.005607 0.586163
O O8 0.720029 0.395754 0.861499
O O9 0.675840 0.756227 0.292354
O O10 0.121596 0.215159 0.530965
O O11 0.244150 0.583716 0.795662
O O12 0.161112 0.510226 0.411176
O O13 0.901896 0.257293 0.201304
O O14 0.012013 0.869478 0.223353
O O15 0.000000 0.000000 0.500000
O O16 0.500000 0.500000 0.000000
O O17 0.500000 0.000000 0.000000
O O18 0.000000 0.500000 0.000000
#
# Coordination Sequence:
#
# PCOD8027855 Si02
#       8
#     2   2   2   2   2   2   2   2
#     4  10  24  47  77 114 157 204 278 323 404 482
#     4  11  27  46  79 115 160 209 269 331 420 466
#     4  10  25  47  78 112 158 212 261 341 397 490
#     4  12  28  50  79 113 160 213 271 335 409 495
#     4  12  27  49  82 112 157 213 272 330 411 483
#     4  12  29  46  78 116 164 214 266 332 407 489
#     4  11  24  49  81 116 158 216 274 340 402 496
#     4  12  31  49  79 116 161 206 273 340 410 485
#
# _framework density 26.112242999999999
#
# number of rings (size 3 to 8) (size 9 to 14) (size 15 to 20)
#    0.000    0.750    1.250    3.375   12.250    7.500 
#    0.000    0.000    0.000    0.000    0.000    0.000 
#    0.000    0.000    0.000    0.000    0.000    0.000 
#
# Total GULP energy -198337.058155 kJ/mol
# GULP energy per Si atom -12396.066135 kJ/mol
# Density = 2.605281 g / cm^3
# Si number density = 26.112243 Si / 1000 Ang^3
#
#
#
# Elastic Constant Matrix: (Units=GPa)
#
#
# Indices 1 2 3 4 5 6 
#
# 1 127.6108 41.4725 27.3967 -5.6174 25.5579 20.2122
# 2 41.4725 126.4505 31.8098 -19.9634 6.0028 14.9233
# 3 27.3967 31.8098 130.0756 -18.2487 0.5189 10.2499
# 4 -5.6174 -19.9634 -18.2487 40.6766 -8.1433 3.6310
# 5 25.5579 6.0028 0.5189 -8.1433 50.4840 -6.0950
# 6 20.2122 14.9233 10.2499 3.6310 -6.0950 54.7036
#
#
#
# Elastic Compliance Matrix: (Units=1/GPa)
#
#
# Indices 1 2 3 4 5 6 
#
# 1 0.010649 -0.002647 -0.001484 -0.001324 -0.005695 -0.003481
# 2 -0.002647 0.009908 -0.001133 0.004274 0.000655 -0.001724
# 3 -0.001484 -0.001133 0.008839 0.003536 0.001258 -0.000893
# 4 -0.001324 0.004274 0.003536 0.029235 0.004506 -0.002778
# 5 -0.005695 0.000655 0.001258 0.004506 0.023816 0.004044
# 6 -0.003481 -0.001724 -0.000893 -0.002778 0.004044 0.020839
#
#
# Mechanical properties :
#
#
# Convention : Reuss Voigt Hill
#
# Bulk Modulus (GPa) = 52.99915 65.05502 59.02708
# Shear Modulus (GPa) = 41.63063 48.07002 44.85032
#
# Velocity S-wave (km/s) = 3.99719 4.29523 4.14889
# Velocity P-wave (km/s) = 6.45323 7.04033 6.75316
#
# Compressibility (1/GPa) = 0.01886823
#
# Stress axis : x y z
#
# Youngs Moduli (GPa) = 93.90629 100.92424 113.13603
#
# Poissons Ratio (x) = 0.26715 0.16792
# Poissons Ratio (y) = 0.24857 0.12816
# Poissons Ratio (z) = 0.13938 0.11432
#
# Static dielectric constant tensor:
#      x y z
#    x 5.234140 0.696090 -0.102760 
#    y 0.696090 6.253680 -0.147170 
#    z -0.102760 -0.147170 4.949740 
# 
# 
# High freq. dielectric constant tensor:
#      x y z
#    x 2.071830 0.003220 -0.003450 
#    y 0.003220 2.034040 -0.017810 
#    z -0.003450 -0.017810 2.060760 
# 
# From -- ./inp_files/126252.got.cif
#   From: 2010.06.25/outbox.cif.g09.slc.cpg/sg2_64_cif.got.tgz:126252.got - 2010.06.27 13:26:56.
