data_PCOD8027834
_publ_section_title
;
Structure prediction by ZEFSAII (Michael W. Deem and Ramdas Pophale) SiO2 
 PCOD8027834
Probable space group: P -1
;
_chemical_formula_sum "Si O2"
_cell_formula_units_Z 14
_cell_length_a 11.359828
_cell_length_b 11.967183
_cell_length_c 6.974887
_cell_angle_alpha 43.362045
_cell_angle_beta 83.295117
_cell_angle_gamma 70.792971
_cell_volume 603.743131
_symmetry_space_group_name_H-M "P -1"
_symmetry_group_IT_number 2
_symmetry_cell_setting 'triclinic'
loop_
_space_group_symop_operation_xyz
x,y,z
-x,-y,-z
loop_
_atom_site_type_symbol
_atom_site_label
_atom_site_fract_x
_atom_site_fract_y
_atom_site_fract_z
Si Si1 0.020700 0.159728 0.389789
Si Si2 0.736597 0.043715 0.203387
Si Si3 0.698306 0.616132 0.260864
Si Si4 0.505676 0.321282 0.114917
Si Si5 0.882242 0.230695 0.714779
Si Si6 0.573840 0.847364 0.315760
Si Si7 0.057707 0.319744 0.824981
O O1 0.918841 0.227520 0.491484
O O2 0.168596 0.082251 0.506683
O O3 0.995572 0.321121 0.045045
O O4 0.000000 0.000000 0.500000
O O5 0.634483 0.218953 0.099601
O O6 0.685904 0.903771 0.298100
O O7 0.816439 0.095980 0.957508
O O8 0.778773 0.418480 0.534543
O O9 0.612710 0.673796 0.395328
O O10 0.791698 0.729212 0.105539
O O11 0.614514 0.641031 0.052611
O O12 0.503341 0.183430 0.450213
O O13 0.500000 0.500000 0.000000
O O14 0.012699 0.187707 0.868614
O O15 0.500000 0.000000 0.000000
O O16 0.000000 0.500000 0.500000
#
# Coordination Sequence:
#
# PCOD8027834 Si02
#       7
#     2   2   2   2   2   2   2
#     4  12  26  42  74 108 146 191 240 298 369 421
#     4  12  26  47  78 109 154 187 249 305 367 435
#     4  11  26  47  76 103 149 193 241 298 373 426
#     4  12  29  49  74 110 146 195 249 295 368 443
#     4  11  26  47  73 111 145 194 245 300 364 443
#     4  12  27  46  74 107 147 188 243 303 365 427
#     4  10  24  47  73 105 149 186 245 294 366 433
#
# _framework density 23.188666000000001
#
# number of rings (size 3 to 8) (size 9 to 14) (size 15 to 20)
#    0.000    0.571    2.857    3.429    8.000    5.714 
#    0.000    0.000    0.000    0.000    0.000    0.000 
#    0.000    0.000    0.000    0.000    0.000    0.000 
#
# Total GULP energy -173435.948197 kJ/mol
# GULP energy per Si atom -12388.282014 kJ/mol
# Density = 2.313589 g / cm^3
# Si number density = 23.188666 Si / 1000 Ang^3
#
#
#
# Elastic Constant Matrix: (Units=GPa)
#
#
# Indices 1 2 3 4 5 6 
#
# 1 122.0765 33.7164 55.7516 12.8958 4.7637 14.9607
# 2 33.7164 126.1749 36.9527 11.7454 9.0703 -0.4573
# 3 55.7516 36.9527 170.2972 17.9101 -7.2874 -1.9094
# 4 12.8958 11.7454 17.9101 39.3588 -4.7923 5.7837
# 5 4.7637 9.0703 -7.2874 -4.7923 42.6987 -0.1875
# 6 14.9607 -0.4573 -1.9094 5.7837 -0.1875 35.6648
#
#
#
# Elastic Compliance Matrix: (Units=1/GPa)
#
#
# Indices 1 2 3 4 5 6 
#
# 1 0.010869 -0.001780 -0.003173 -0.001098 -0.001519 -0.004582
# 2 -0.001780 0.009118 -0.001267 -0.001988 -0.002173 0.001107
# 3 -0.003173 -0.001267 0.007501 -0.002095 0.001677 0.002065
# 4 -0.001098 -0.001988 -0.002095 0.028347 0.003350 -0.004256
# 5 -0.001519 -0.002173 0.001677 0.003350 0.024714 0.000286
# 6 -0.004582 0.001107 0.002065 -0.004256 0.000286 0.030777
#
#
# Mechanical properties :
#
#
# Convention : Reuss Voigt Hill
#
# Bulk Modulus (GPa) = 66.45819 74.59889 70.52854
# Shear Modulus (GPa) = 38.82500 43.01966 40.92233
#
# Velocity S-wave (km/s) = 4.09627 4.31188 4.20546
# Velocity P-wave (km/s) = 7.14805 7.55182 7.35271
#
# Compressibility (1/GPa) = 0.01504705
#
# Stress axis : x y z
#
# Youngs Moduli (GPa) = 92.00337 109.67779 133.31555
#
# Poissons Ratio (x) = 0.19527 0.42300
# Poissons Ratio (y) = 0.16380 0.16892
# Poissons Ratio (z) = 0.29192 0.13897
#
# Static dielectric constant tensor:
#      x y z
#    x 5.163530 -0.042410 -0.917740 
#    y -0.042410 4.389710 0.629710 
#    z -0.917740 0.629710 5.720840 
# 
# 
# High freq. dielectric constant tensor:
#      x y z
#    x 1.929590 0.010080 0.000630 
#    y 0.010080 1.922200 0.006360 
#    z 0.000630 0.006360 1.931170 
# 
# From -- ./inp_files/68118.got.cif
#   From: 2010.06.25/outbox.cif.g09.slc.cpg/sg2_35_cif.got.tgz:68118.got - 2010.06.27 13:26:56.
