data_PCOD8027013
_publ_section_title
;
Structure prediction by ZEFSAII (Michael W. Deem and Ramdas Pophale) SiO2 
 PCOD8027013
Probable space group: P -1
;
_chemical_formula_sum "Si O2"
_cell_formula_units_Z 14
_cell_length_a 18.221055
_cell_length_b 8.557590
_cell_length_c 7.052351
_cell_angle_alpha 104.279318
_cell_angle_beta 99.355171
_cell_angle_gamma 35.754908
_cell_volume 621.326553
_symmetry_space_group_name_H-M "P -1"
_symmetry_group_IT_number 2
_symmetry_cell_setting 'triclinic'
loop_
_space_group_symop_operation_xyz
x,y,z
-x,-y,-z
loop_
_atom_site_type_symbol
_atom_site_label
_atom_site_fract_x
_atom_site_fract_y
_atom_site_fract_z
Si Si1 0.785789 0.193091 0.638053
Si Si2 0.093584 0.185262 0.097291
Si Si3 0.334054 0.254517 0.830361
Si Si4 0.212297 0.461664 0.436402
Si Si5 0.694365 0.937747 0.937869
Si Si6 0.551941 0.675524 0.868760
Si Si7 0.032677 0.280007 0.689870
O O1 0.792143 0.365167 0.627978
O O2 0.640055 0.404526 0.695701
O O3 0.874117 0.014645 0.806295
O O4 0.832096 0.988812 0.432368
O O5 0.220622 0.054138 0.042598
O O6 0.000545 0.472124 0.253257
O O7 0.031177 0.223869 0.892065
O O8 0.264956 0.401172 0.648431
O O9 0.476522 0.931809 0.775135
O O10 0.254038 0.269784 0.933228
O O11 0.348157 0.402999 0.981409
O O12 0.301435 0.174087 0.286851
O O13 0.070289 0.643761 0.443770
O O14 0.549486 0.242099 0.017112
#
# Coordination Sequence:
#
# PCOD8027013 Si02
#       7
#     2   2   2   2   2   2   2
#     4  12  23  39  63 101 123 157 209 260 313 362
#     4  10  24  44  64  84 131 169 204 253 309 372
#     4   9  19  40  63  96 124 162 200 255 306 372
#     4  11  22  38  71  94 121 161 212 257 306 358
#     4   9  20  42  62  91 124 168 204 237 313 372
#     4   9  20  40  63  96 126 159 201 257 314 357
#     4  10  25  44  61  89 122 174 208 252 307 368
#
# _framework density 22.532436000000001
#
# number of rings (size 3 to 8) (size 9 to 14) (size 15 to 20)
#    0.857    1.143    1.429    0.857    2.000    9.143 
#    0.000    0.714    0.000    0.000    0.000    0.000 
#    0.000    0.000    0.000    0.000    0.000    0.000 
#
# Total GULP energy -173484.316264 kJ/mol
# GULP energy per Si atom -12391.736876 kJ/mol
# Density = 2.248115 g / cm^3
# Si number density = 22.532436 Si / 1000 Ang^3
#
#
#
# Elastic Constant Matrix: (Units=GPa)
#
#
# Indices 1 2 3 4 5 6 
#
# 1 62.9853 19.5168 44.5186 2.0921 3.7334 -11.4732
# 2 19.5168 78.8485 61.8051 11.2496 3.5845 -11.7136
# 3 44.5186 61.8051 107.8916 0.9226 -0.5436 -15.8611
# 4 2.0921 11.2496 0.9226 66.1625 -15.8312 -18.5418
# 5 3.7334 3.5845 -0.5436 -15.8312 26.6126 -1.4216
# 6 -11.4732 -11.7136 -15.8611 -18.5418 -1.4216 20.8234
#
#
#
# Elastic Compliance Matrix: (Units=1/GPa)
#
#
# Indices 1 2 3 4 5 6 
#
# 1 0.024045 0.004215 -0.011467 -0.000642 -0.004235 0.006024
# 2 0.004215 0.026036 -0.017117 -0.007398 -0.009024 -0.003273
# 3 -0.011467 -0.017117 0.025545 0.008735 0.010273 0.011991
# 4 -0.000642 -0.007398 0.008735 0.029508 0.020411 0.029806
# 5 -0.004235 -0.009024 0.010273 0.020411 0.052924 0.022203
# 6 0.006024 -0.003273 0.011991 0.029806 0.022203 0.086690
#
#
# Mechanical properties :
#
#
# Convention : Reuss Voigt Hill
#
# Bulk Modulus (GPa) = 37.18946 55.71181 46.45063
# Shear Modulus (GPa) = 16.53182 30.97868 23.75525
#
# Velocity S-wave (km/s) = 2.71161 3.71192 3.25047
# Velocity P-wave (km/s) = 5.13268 6.56886 5.89468
#
# Compressibility (1/GPa) = 0.02688934
#
# Stress axis : x y z
#
# Youngs Moduli (GPa) = 41.58887 38.40853 39.14625
#
# Poissons Ratio (x) = -0.16191 0.44887
# Poissons Ratio (y) = -0.17532 0.67008
# Poissons Ratio (z) = 0.47688 0.65745
#
# Static dielectric constant tensor:
#      x y z
#    x 3.706750 -0.195110 -0.191960 
#    y -0.195110 4.041290 0.160230 
#    z -0.191960 0.160230 4.061790 
# 
# 
# High freq. dielectric constant tensor:
#      x y z
#    x 1.861470 -0.009220 -0.015500 
#    y -0.009220 1.882730 0.008030 
#    z -0.015500 0.008030 1.887950 
# 
# From -- ./inp_files/116247.got.cif
#   From: 2010.06.25/outbox.cif.g09.slc.cpg/sg2_59_cif.got.tgz:116247.got - 2010.06.27 13:26:56.
