data_PCOD8027525
_publ_section_title
;
Structure prediction by ZEFSAII (Michael W. Deem and Ramdas Pophale) SiO2 
 PCOD8027525
Probable space group: P -1
;
_chemical_formula_sum "Si O2"
_cell_formula_units_Z 16
_cell_length_a 8.469798
_cell_length_b 6.811153
_cell_length_c 13.253056
_cell_angle_alpha 97.863281
_cell_angle_beta 108.686435
_cell_angle_gamma 100.469627
_cell_volume 696.411808
_symmetry_space_group_name_H-M "P -1"
_symmetry_group_IT_number 2
_symmetry_cell_setting 'triclinic'
loop_
_space_group_symop_operation_xyz
x,y,z
-x,-y,-z
loop_
_atom_site_type_symbol
_atom_site_label
_atom_site_fract_x
_atom_site_fract_y
_atom_site_fract_z
Si Si1 0.126766 0.606844 0.449487
Si Si2 0.409120 0.842636 0.167735
Si Si3 0.691524 0.980783 0.399770
Si Si4 0.840720 0.584275 0.932274
Si Si5 0.820690 0.895922 0.791958
Si Si6 0.081226 0.171621 0.715140
Si Si7 0.359435 0.302145 0.929087
Si Si8 0.657173 0.686144 0.561983
O O1 0.184807 0.417396 0.401939
O O2 0.000000 0.500000 0.500000
O O3 0.039285 0.697521 0.346735
O O4 0.280348 0.784106 0.541782
O O5 0.518736 0.912047 0.295722
O O6 0.315299 0.604416 0.142699
O O7 0.535211 0.868690 0.095417
O O8 0.263537 0.970370 0.137168
O O9 0.859219 0.962446 0.369501
O O10 0.676284 0.843564 0.485982
O O11 0.892792 0.725916 0.854855
O O12 0.775590 0.735619 0.008841
O O13 0.000000 0.500000 0.000000
O O14 0.662210 0.802640 0.677268
O O15 0.981141 0.027305 0.772268
O O16 0.248146 0.326897 0.808443
O O17 0.500000 0.500000 0.000000
O O18 0.500000 0.500000 0.500000
#
# Coordination Sequence:
#
# PCOD8027525 Si02
#       8
#     2   2   2   2   2   2   2   2
#     4  12  24  42  69  97 139 190 225 279 339 406
#     4  10  24  45  70  98 139 179 223 284 344 414
#     4  11  23  46  64 102 145 178 229 278 336 423
#     4  11  25  46  72 102 135 176 232 291 348 409
#     4  12  26  42  69 103 134 180 233 282 347 405
#     4  11  23  43  69  99 138 177 231 283 339 413
#     4   9  22  46  70  95 132 179 222 286 346 402
#     4  12  26  40  67 103 141 187 226 275 348 408
#
# _framework density 22.974913000000001
#
# number of rings (size 3 to 8) (size 9 to 14) (size 15 to 20)
#    0.000    1.000    2.500    3.375    5.250    3.500 
#    2.250    3.750    0.000    0.000    0.000    0.000 
#    0.000    0.000    0.000    0.000    0.000    0.000 
#
# Total GULP energy -198256.995552 kJ/mol
# GULP energy per Si atom -12391.062222 kJ/mol
# Density = 2.292262 g / cm^3
# Si number density = 22.974913 Si / 1000 Ang^3
#
#
#
# Elastic Constant Matrix: (Units=GPa)
#
#
# Indices 1 2 3 4 5 6 
#
# 1 90.4734 37.4301 26.3503 -14.3631 -19.7283 -0.2016
# 2 37.4301 120.3071 48.6094 -14.7184 -5.0840 7.4086
# 3 26.3503 48.6094 119.2822 1.7346 5.7667 11.1077
# 4 -14.3631 -14.7184 1.7346 42.0778 1.7838 -0.9686
# 5 -19.7283 -5.0840 5.7667 1.7838 41.3640 9.5799
# 6 -0.2016 7.4086 11.1077 -0.9686 9.5799 34.2677
#
#
#
# Elastic Compliance Matrix: (Units=1/GPa)
#
#
# Indices 1 2 3 4 5 6 
#
# 1 0.015175 -0.002883 -0.002548 0.003966 0.007148 -0.000348
# 2 -0.002883 0.011277 -0.003917 0.003061 0.000727 -0.001302
# 3 -0.002548 -0.003917 0.010898 -0.002625 -0.002631 -0.002039
# 4 0.003966 0.003061 -0.002625 0.026253 0.001369 0.000572
# 5 0.007148 0.000727 -0.002631 0.001369 0.029727 -0.007534
# 6 -0.000348 -0.001302 -0.002039 0.000572 -0.007534 0.032245
#
#
# Mechanical properties :
#
#
# Convention : Reuss Voigt Hill
#
# Bulk Modulus (GPa) = 53.60945 61.64916 57.62931
# Shear Modulus (GPa) = 33.22469 38.05342 35.63905
#
# Velocity S-wave (km/s) = 3.80693 4.07419 3.94282
# Velocity P-wave (km/s) = 6.53515 7.00168 6.77243
#
# Compressibility (1/GPa) = 0.01865343
#
# Stress axis : x y z
#
# Youngs Moduli (GPa) = 65.89582 88.67494 91.76021
#
# Poissons Ratio (x) = 0.25566 0.23383
# Poissons Ratio (y) = 0.18999 0.35944
# Poissons Ratio (z) = 0.16792 0.34735
#
# Static dielectric constant tensor:
#      x y z
#    x 4.749460 -0.077190 -0.332210 
#    y -0.077190 3.950700 0.244290 
#    z -0.332210 0.244290 4.282630 
# 
# 
# High freq. dielectric constant tensor:
#      x y z
#    x 1.924950 -0.007040 -0.001620 
#    y -0.007040 1.890900 0.018750 
#    z -0.001620 0.018750 1.922250 
# 
# From -- ./inp_files/139612.got.cif
#   From: 2010.06.25/outbox.cif.g09.slc.cpg/sg2_70_cif.got.tgz:139612.got - 2010.06.27 13:26:56.
