data_PCOD8027319
_publ_section_title
;
Structure prediction by ZEFSAII (Michael W. Deem and Ramdas Pophale) SiO2 
 PCOD8027319
Probable space group: P -1
;
_chemical_formula_sum "Si O2"
_cell_formula_units_Z 16
_cell_length_a 15.555896
_cell_length_b 6.451472
_cell_length_c 11.621492
_cell_angle_alpha 92.207360
_cell_angle_beta 124.346620
_cell_angle_gamma 121.670036
_cell_volume 720.595295
_symmetry_space_group_name_H-M "P -1"
_symmetry_group_IT_number 2
_symmetry_cell_setting 'triclinic'
loop_
_space_group_symop_operation_xyz
x,y,z
-x,-y,-z
loop_
_atom_site_type_symbol
_atom_site_label
_atom_site_fract_x
_atom_site_fract_y
_atom_site_fract_z
Si Si1 0.782872 0.712887 0.878530
Si Si2 0.320283 0.317322 0.680258
Si Si3 0.777767 0.121579 0.580082
Si Si4 0.981540 0.272374 0.901345
Si Si5 0.627239 0.858326 0.888982
Si Si6 0.124830 0.440092 0.516457
Si Si7 0.365039 0.860116 0.325003
Si Si8 0.181841 0.855089 0.747921
O O1 0.684320 0.709887 0.890127
O O2 0.689913 0.446468 0.722274
O O3 0.870406 0.981468 0.873190
O O4 0.878665 0.671131 0.015419
O O5 0.470958 0.622538 0.815260
O O6 0.191455 0.304735 0.580856
O O7 0.314590 0.180130 0.553855
O O8 0.292449 0.128829 0.761615
O O9 0.934696 0.258232 0.733986
O O10 0.783590 0.327648 0.507364
O O11 0.726058 0.102785 0.668928
O O12 0.000000 0.500000 0.000000
O O13 0.616543 0.016059 0.784299
O O14 0.737705 0.087541 0.071381
O O15 0.139319 0.583110 0.650094
O O16 0.963313 0.208736 0.349136
O O17 0.500000 0.000000 0.500000
#
# Coordination Sequence:
#
# PCOD8027319 Si02
#       8
#     2   2   2   2   2   2   2   2
#     4  11  25  40  66 100 137 186 220 275 340 397
#     4  11  25  45  68 100 129 188 226 284 345 401
#     4  11  24  39  68  98 140 171 227 275 335 418
#     4  11  23  42  64  99 141 179 227 278 331 406
#     4  12  26  43  70 100 141 180 232 279 340 411
#     4  10  24  44  73  96 134 177 224 290 353 392
#     4  12  26  43  65 101 147 183 222 272 340 416
#     4  10  25  47  67  99 131 172 240 291 334 407
#
# _framework density 22.203863999999999
#
# number of rings (size 3 to 8) (size 9 to 14) (size 15 to 20)
#    0.000    1.000    2.500    2.250    8.750    3.500 
#    0.000    0.000    0.000    0.000    0.000    0.000 
#    0.000    0.000    0.000    0.000    0.000    0.000 
#
# Total GULP energy -198336.679729 kJ/mol
# GULP energy per Si atom -12396.042483 kJ/mol
# Density = 2.215333 g / cm^3
# Si number density = 22.203864 Si / 1000 Ang^3
#
#
#
# Elastic Constant Matrix: (Units=GPa)
#
#
# Indices 1 2 3 4 5 6 
#
# 1 72.7891 30.2367 32.0962 0.9053 4.7359 4.7208
# 2 30.2367 97.9842 48.8890 9.3948 -0.2929 -9.2841
# 3 32.0962 48.8890 174.5493 2.1877 5.8915 0.9192
# 4 0.9053 9.3948 2.1877 39.8699 3.2470 6.0778
# 5 4.7359 -0.2929 5.8915 3.2470 31.5954 3.8428
# 6 4.7208 -9.2841 0.9192 6.0778 3.8428 27.4111
#
#
#
# Elastic Compliance Matrix: (Units=1/GPa)
#
#
# Indices 1 2 3 4 5 6 
#
# 1 0.016959 -0.005033 -0.001642 0.001761 -0.001892 -0.004696
# 2 -0.005033 0.014342 -0.003111 -0.004190 0.001095 0.006604
# 3 -0.001642 -0.003111 0.006934 0.000625 -0.001018 -0.000999
# 4 0.001761 -0.004190 0.000625 0.027323 -0.002318 -0.007477
# 5 -0.001892 0.001095 -0.001018 -0.002318 0.032780 -0.003351
# 6 -0.004696 0.006604 -0.000999 -0.007477 -0.003351 0.041688
#
#
# Mechanical properties :
#
#
# Convention : Reuss Voigt Hill
#
# Bulk Modulus (GPa) = 53.58313 63.08516 58.33415
# Shear Modulus (GPa) = 30.15328 35.38199 32.76763
#
# Velocity S-wave (km/s) = 3.68913 3.99620 3.84573
# Velocity P-wave (km/s) = 6.50623 7.05453 6.78592
#
# Compressibility (1/GPa) = 0.01866259
#
# Stress axis : x y z
#
# Youngs Moduli (GPa) = 58.96544 69.72590 144.21613
#
# Poissons Ratio (x) = 0.35096 0.23682
# Poissons Ratio (y) = 0.29680 0.44860
# Poissons Ratio (z) = 0.09683 0.21689
#
# Static dielectric constant tensor:
#      x y z
#    x 3.731580 -0.255930 -0.066440 
#    y -0.255930 3.694200 -0.098530 
#    z -0.066440 -0.098530 4.018890 
# 
# 
# High freq. dielectric constant tensor:
#      x y z
#    x 1.869120 -0.004280 0.012720 
#    y -0.004280 1.879160 0.002300 
#    z 0.012720 0.002300 1.889170 
# 
# From -- ./inp_files/459535.got.cif
#   From: 2010.06.25/outbox.cif.g09.slc.cpg/sg2_230_cif.got.tgz:459535.got - 2010.06.27 13:26:56.
