data_PCOD8027365
_publ_section_title
;
Structure prediction by ZEFSAII (Michael W. Deem and Ramdas Pophale) SiO2 
 PCOD8027365
Probable space group: P -1
;
_chemical_formula_sum "Si O2"
_cell_formula_units_Z 12
_cell_length_a 14.512104
_cell_length_b 11.964503
_cell_length_c 15.174212
_cell_angle_alpha 29.761202
_cell_angle_beta 30.365269
_cell_angle_gamma 29.912080
_cell_volume 583.775044
_symmetry_space_group_name_H-M "P -1"
_symmetry_group_IT_number 2
_symmetry_cell_setting 'triclinic'
loop_
_space_group_symop_operation_xyz
x,y,z
-x,-y,-z
loop_
_atom_site_type_symbol
_atom_site_label
_atom_site_fract_x
_atom_site_fract_y
_atom_site_fract_z
Si Si1 0.274322 0.873274 0.559314
Si Si2 0.535471 0.758612 0.581980
Si Si3 0.422633 0.050332 0.165229
Si Si4 0.995295 0.568327 0.557981
Si Si5 0.614504 0.529463 0.972127
Si Si6 0.221327 0.380485 0.943375
O O1 0.460261 0.849402 0.483550
O O2 0.265594 0.615031 0.757191
O O3 0.319440 0.896681 0.403661
O O4 0.074763 0.132051 0.576803
O O5 0.774413 0.564141 0.505051
O O6 0.500000 0.000000 0.500000
O O7 0.396141 0.651750 0.819094
O O8 0.492349 0.189152 0.088070
O O9 0.624546 0.847238 0.089285
O O10 0.247247 0.254658 0.104858
O O11 0.848801 0.471367 0.795277
O O12 0.000000 0.500000 0.500000
O O13 0.500000 0.500000 0.000000
O O14 0.000000 0.500000 0.000000
#
# Coordination Sequence:
#
# PCOD8027365 Si02
#       6
#     2   2   2   2   2   2
#     4  11  24  44  66  96 139 175 226 281 338 402
#     4  12  23  42  66  99 139 180 223 276 341 406
#     4  10  24  45  64  98 138 171 226 284 332 398
#     4  11  23  40  64  98 135 182 225 272 337 406
#     4  11  22  41  69  98 141 178 219 285 336 401
#     4  11  25  42  71  99 128 179 231 274 339 404
#
# _framework density 20.555864
#
# number of rings (size 3 to 8) (size 9 to 14) (size 15 to 20)
#    0.000    1.000    5.000    1.500    2.333    4.000 
#    0.000    0.000    0.000    0.000    0.000    0.000 
#    0.000    0.000    0.000    0.000    0.000    0.000 
#
# Total GULP energy -148712.139181 kJ/mol
# GULP energy per Si atom -12392.678265 kJ/mol
# Density = 2.050908 g / cm^3
# Si number density = 20.555864 Si / 1000 Ang^3
#
#
#
# Elastic Constant Matrix: (Units=GPa)
#
#
# Indices 1 2 3 4 5 6 
#
# 1 133.3988 67.7752 39.8592 0.4714 10.1934 -11.3395
# 2 67.7752 131.8180 51.5513 0.7378 1.2080 -13.2977
# 3 39.8592 51.5513 133.1093 1.4565 17.4090 -6.7091
# 4 0.4714 0.7378 1.4565 29.7414 0.5311 1.7255
# 5 10.1934 1.2080 17.4090 0.5311 35.1517 -2.3858
# 6 -11.3395 -13.2977 -6.7091 1.7255 -2.3858 40.8053
#
#
#
# Elastic Compliance Matrix: (Units=1/GPa)
#
#
# Indices 1 2 3 4 5 6 
#
# 1 0.010544 -0.004953 -0.000875 -0.000019 -0.002384 0.001034
# 2 -0.004953 0.011591 -0.003267 -0.000217 0.002797 0.002037
# 3 -0.000875 -0.003267 0.009619 -0.000299 -0.004391 0.000030
# 4 -0.000019 -0.000217 -0.000299 0.033743 -0.000456 -0.001579
# 5 -0.002384 0.002797 -0.004391 -0.000456 0.031318 0.001378
# 6 0.001034 0.002037 0.000030 -0.001579 0.001378 0.025610
#
#
# Mechanical properties :
#
#
# Convention : Reuss Voigt Hill
#
# Bulk Modulus (GPa) = 73.72082 79.63305 76.67694
# Shear Modulus (GPa) = 34.45003 37.08238 35.76620
#
# Velocity S-wave (km/s) = 4.09824 4.25194 4.17580
# Velocity P-wave (km/s) = 7.63778 7.93279 7.78668
#
# Compressibility (1/GPa) = 0.01356469
#
# Stress axis : x y z
#
# Youngs Moduli (GPa) = 94.83792 86.27045 103.96076
#
# Poissons Ratio (x) = 0.42729 0.09099
# Poissons Ratio (y) = 0.46973 0.33963
# Poissons Ratio (z) = 0.08300 0.28184
#
# Static dielectric constant tensor:
#      x y z
#    x 3.773260 0.060950 0.290840 
#    y 0.060950 4.055110 -0.065870 
#    z 0.290840 -0.065870 3.938510 
# 
# 
# High freq. dielectric constant tensor:
#      x y z
#    x 1.812670 0.014190 0.011130 
#    y 0.014190 1.811530 -0.011760 
#    z 0.011130 -0.011760 1.809710 
# 
# From -- ./inp_files/46082.got.cif
#   From: 2010.06.25/outbox.cif.g09.slc.cpg/sg2_24_cif.got.tgz:46082.got - 2010.06.27 13:26:56.
