data_PCOD8027189
_publ_section_title
;
Structure prediction by ZEFSAII (Michael W. Deem and Ramdas Pophale) SiO2 
 PCOD8027189
Probable space group: P -1
;
_chemical_formula_sum "Si O2"
_cell_formula_units_Z 16
_cell_length_a 8.208007
_cell_length_b 12.803170
_cell_length_c 9.397330
_cell_angle_alpha 94.762608
_cell_angle_beta 135.428853
_cell_angle_gamma 95.170162
_cell_volume 674.752281
_symmetry_space_group_name_H-M "P -1"
_symmetry_group_IT_number 2
_symmetry_cell_setting 'triclinic'
loop_
_space_group_symop_operation_xyz
x,y,z
-x,-y,-z
loop_
_atom_site_type_symbol
_atom_site_label
_atom_site_fract_x
_atom_site_fract_y
_atom_site_fract_z
Si Si1 0.873235 0.815623 0.479364
Si Si2 0.552755 0.822856 0.914773
Si Si3 0.575851 0.988855 0.310370
Si Si4 0.088423 0.667215 0.092635
Si Si5 0.085607 0.842288 0.319344
Si Si6 0.429352 0.378437 0.269895
Si Si7 0.213591 0.819390 0.944127
Si Si8 0.558496 0.611492 0.396362
O O1 0.754350 0.913080 0.368437
O O2 0.038196 0.798983 0.447378
O O3 0.685135 0.703945 0.378256
O O4 0.027198 0.850960 0.721291
O O5 0.473064 0.718437 0.751944
O O6 0.441399 0.793087 0.998245
O O7 0.435916 0.920434 0.803484
O O8 0.839260 0.860626 0.099525
O O9 0.310380 0.912720 0.135082
O O10 0.695171 0.051256 0.533670
O O11 0.270664 0.588783 0.200619
O O12 0.189314 0.757108 0.283814
O O13 0.085686 0.715647 0.938224
O O14 0.819243 0.612526 0.959741
O O15 0.613838 0.494209 0.380049
O O16 0.371324 0.352936 0.395952
#
# Coordination Sequence:
#
# PCOD8027189 Si02
#       8
#     2   2   2   2   2   2   2   2
#     4  12  24  41  66  98 128 171 219 260 316 389
#     4  11  23  42  65  97 130 171 216 263 320 380
#     4  12  23  41  68  92 135 174 212 261 322 382
#     4  11  23  45  66  98 132 166 213 272 322 381
#     4  11  24  40  66  97 132 171 216 261 318 386
#     4  10  24  44  69  97 129 166 215 272 321 381
#     4  12  24  40  66  97 133 172 213 265 318 380
#     4  11  22  45  70  94 130 171 211 267 329 380
#
# _framework density 23.712406000000001
#
# number of rings (size 3 to 8) (size 9 to 14) (size 15 to 20)
#    0.000    0.750    5.000    2.625    0.000    0.500 
#    2.250    9.375    0.000    0.000    0.000    0.000 
#    0.000    0.000    0.000    0.000    0.000    0.000 
#
# Total GULP energy -198211.989834 kJ/mol
# GULP energy per Si atom -12388.249365 kJ/mol
# Density = 2.365844 g / cm^3
# Si number density = 23.712406 Si / 1000 Ang^3
#
#
#
# Elastic Constant Matrix: (Units=GPa)
#
#
# Indices 1 2 3 4 5 6 
#
# 1 26.4792 29.2924 12.7222 5.2515 9.0934 -5.8416
# 2 29.2924 123.6581 37.9653 13.1601 -8.6121 -8.6178
# 3 12.7222 37.9653 111.9527 6.1189 -2.9148 -11.3598
# 4 5.2515 13.1601 6.1189 28.5635 -2.7922 0.3561
# 5 9.0934 -8.6121 -2.9148 -2.7922 31.4472 6.9071
# 6 -5.8416 -8.6178 -11.3598 0.3561 6.9071 15.8410
#
#
#
# Elastic Compliance Matrix: (Units=1/GPa)
#
#
# Indices 1 2 3 4 5 6 
#
# 1 0.080584 -0.018093 0.000299 -0.010636 -0.037201 0.036548
# 2 -0.018093 0.013679 -0.002811 -0.001347 0.009804 -0.005490
# 3 0.000299 -0.002811 0.010576 -0.001257 -0.001491 0.006844
# 4 -0.010636 -0.001347 -0.001257 0.038785 0.008234 -0.010018
# 5 -0.037201 0.009804 -0.001491 0.008234 0.053030 -0.032762
# 6 0.036548 -0.005490 0.006844 -0.010018 -0.032762 0.093036
#
#
# Mechanical properties :
#
#
# Convention : Reuss Voigt Hill
#
# Bulk Modulus (GPa) = 15.71572 46.89440 31.30506
# Shear Modulus (GPa) = 14.20013 27.31099 20.75556
#
# Velocity S-wave (km/s) = 2.44979 3.39744 2.96176
# Velocity P-wave (km/s) = 3.82675 5.93375 4.99266
#
# Compressibility (1/GPa) = 0.06363055
#
# Stress axis : x y z
#
# Youngs Moduli (GPa) = 12.40937 73.10364 94.55462
#
# Poissons Ratio (x) = 1.32264 -0.02831
# Poissons Ratio (y) = 0.22452 0.26580
# Poissons Ratio (z) = -0.00372 0.20550
#
# Static dielectric constant tensor:
#      x y z
#    x 3.887420 -0.042520 0.163530 
#    y -0.042520 4.066050 0.191960 
#    z 0.163530 0.191960 4.629430 
# 
# 
# High freq. dielectric constant tensor:
#      x y z
#    x 1.908040 -0.001890 0.013230 
#    y -0.001890 1.926660 0.009860 
#    z 0.013230 0.009860 1.970460 
# 
# From -- ./inp_files/188074.got.cif
#   From: 2010.06.25/outbox.cif.g09.slc.cpg/sg2_95_cif.got.tgz:188074.got - 2010.06.27 13:26:56.
