data_PCOD8027669
_publ_section_title
;
Structure prediction by ZEFSAII (Michael W. Deem and Ramdas Pophale) SiO2 
 PCOD8027669
Probable space group: P -1
;
_chemical_formula_sum "Si O2"
_cell_formula_units_Z 16
_cell_length_a 5.122333
_cell_length_b 25.788816
_cell_length_c 13.072687
_cell_angle_alpha 151.177159
_cell_angle_beta 124.864218
_cell_angle_gamma 64.577636
_cell_volume 671.843920
_symmetry_space_group_name_H-M "P -1"
_symmetry_group_IT_number 2
_symmetry_cell_setting 'triclinic'
loop_
_space_group_symop_operation_xyz
x,y,z
-x,-y,-z
loop_
_atom_site_type_symbol
_atom_site_label
_atom_site_fract_x
_atom_site_fract_y
_atom_site_fract_z
Si Si1 0.812352 0.087972 0.704909
Si Si2 0.077493 0.886463 0.454645
Si Si3 0.489290 0.113686 0.249283
Si Si4 0.746129 0.484381 0.298196
Si Si5 0.362326 0.626490 0.586886
Si Si6 0.289043 0.437575 0.931908
Si Si7 0.056345 0.767447 0.605237
Si Si8 0.448580 0.725135 0.980563
O O1 0.804221 0.135430 0.669922
O O2 0.500000 0.000000 0.500000
O O3 0.811876 0.194627 0.959248
O O4 0.084559 0.019073 0.680544
O O5 0.311023 0.869907 0.571257
O O6 0.741787 0.797085 0.236729
O O7 0.125533 0.133929 0.227817
O O8 0.643894 0.198776 0.345265
O O9 0.500000 0.000000 0.000000
O O10 0.612878 0.582600 0.493493
O O11 0.752363 0.385404 0.206459
O O12 0.099021 0.526328 0.401236
O O13 0.497299 0.430219 0.064949
O O14 0.566703 0.693318 0.840224
O O15 0.172213 0.707784 0.625500
O O16 0.194320 0.314976 0.660100
O O17 0.500000 0.500000 0.000000
O O18 0.000000 0.500000 0.000000
#
# Coordination Sequence:
#
# PCOD8027669 Si02
#       8
#     2   2   2   2   2   2   2   2
#     4   9  22  43  69 101 132 181 232 290 349 425
#     4  10  24  46  70 104 137 180 243 287 360 421
#     4  12  29  47  76 106 147 181 238 301 356 428
#     4  12  25  45  68 108 146 184 240 290 346 421
#     4  12  27  46  70 103 148 187 238 286 353 424
#     4  12  22  43  70 101 140 189 234 286 340 416
#     4  12  26  48  72 108 140 195 236 286 366 425
#     4  11  26  42  74  99 142 187 233 296 353 409
#
# _framework density 23.815055999999998
#
# number of rings (size 3 to 8) (size 9 to 14) (size 15 to 20)
#    0.000    0.750    2.500    3.375   10.500    3.000 
#    0.000    0.000    0.000    0.000    0.000    0.000 
#    0.000    0.000    0.000    0.000    0.000    0.000 
#
# Total GULP energy -198259.819814 kJ/mol
# GULP energy per Si atom -12391.238738 kJ/mol
# Density = 2.376085 g / cm^3
# Si number density = 23.815056 Si / 1000 Ang^3
#
#
#
# Elastic Constant Matrix: (Units=GPa)
#
#
# Indices 1 2 3 4 5 6 
#
# 1 85.1352 3.6013 -14.5400 12.1300 -10.2146 10.5355
# 2 3.6013 97.0585 24.6048 0.8225 -0.3035 11.5838
# 3 -14.5400 24.6048 71.1105 6.1045 -14.1062 -6.7514
# 4 12.1300 0.8225 6.1045 36.1439 -5.7166 -0.1112
# 5 -10.2146 -0.3035 -14.1062 -5.7166 32.7979 5.3205
# 6 10.5355 11.5838 -6.7514 -0.1112 5.3205 38.3435
#
#
#
# Elastic Compliance Matrix: (Units=1/GPa)
#
#
# Indices 1 2 3 4 5 6 
#
# 1 0.014467 -0.001227 0.004681 -0.004633 0.006295 -0.003667
# 2 -0.001227 0.012145 -0.005243 0.000732 -0.001746 -0.004011
# 3 0.004681 -0.005243 0.019062 -0.003298 0.008636 0.002446
# 4 -0.004633 0.000732 -0.003298 0.030137 0.002361 0.000231
# 5 0.006295 -0.001746 0.008636 0.002361 0.037348 -0.004857
# 6 -0.003667 -0.004011 0.002446 0.000231 -0.004857 0.029405
#
#
# Mechanical properties :
#
#
# Convention : Reuss Voigt Hill
#
# Bulk Modulus (GPa) = 23.75564 31.18183 27.46874
# Shear Modulus (GPa) = 31.21634 37.43294 34.32464
#
# Velocity S-wave (km/s) = 3.62440 3.96892 3.80056
# Velocity P-wave (km/s) = 5.24516 5.84165 5.55142
#
# Compressibility (1/GPa) = 0.04209526
#
# Stress axis : x y z
#
# Youngs Moduli (GPa) = 69.12521 82.34018 52.45943
#
# Poissons Ratio (x) = 0.10101 -0.24555
# Poissons Ratio (y) = 0.08480 0.27505
# Poissons Ratio (z) = -0.32355 0.43172
#
# Static dielectric constant tensor:
#      x y z
#    x 4.624120 -0.392650 -0.709210 
#    y -0.392650 5.684030 1.129930 
#    z -0.709210 1.129930 5.257490 
# 
# 
# High freq. dielectric constant tensor:
#      x y z
#    x 1.952050 0.011410 -0.010550 
#    y 0.011410 1.947190 0.008670 
#    z -0.010550 0.008670 1.954840 
# 
# From -- ./inp_files/371172.got.cif
#   From: 2010.06.25/outbox.cif.g09.slc.cpg/sg2_186_cif.got.tgz:371172.got - 2010.06.27 13:26:56.
