data_PCOD8027008
_publ_section_title
;
Structure prediction by ZEFSAII (Michael W. Deem and Ramdas Pophale) SiO2 
 PCOD8027008
Probable space group: P -1
;
_chemical_formula_sum "Si O2"
_cell_formula_units_Z 16
_cell_length_a 24.382480
_cell_length_b 9.851898
_cell_length_c 14.336393
_cell_angle_alpha 53.315876
_cell_angle_beta 148.184974
_cell_angle_gamma 150.013967
_cell_volume 771.657232
_symmetry_space_group_name_H-M "P -1"
_symmetry_group_IT_number 2
_symmetry_cell_setting 'triclinic'
loop_
_space_group_symop_operation_xyz
x,y,z
-x,-y,-z
loop_
_atom_site_type_symbol
_atom_site_label
_atom_site_fract_x
_atom_site_fract_y
_atom_site_fract_z
Si Si1 0.448359 0.271976 0.955089
Si Si2 0.205079 0.802737 0.949611
Si Si3 0.155053 0.272600 0.898640
Si Si4 0.584724 0.654582 0.830663
Si Si5 0.251564 0.263218 0.381078
Si Si6 0.224089 0.836496 0.460632
Si Si7 0.318282 0.692257 0.800712
Si Si8 0.638006 0.336478 0.780710
O O1 0.435992 0.325989 0.809275
O O2 0.253434 0.921219 0.862897
O O3 0.500000 0.500000 0.000000
O O4 0.614333 0.353552 0.160399
O O5 0.971232 0.464430 0.758570
O O6 0.312509 0.777378 0.144427
O O7 0.283874 0.049017 0.034614
O O8 0.154432 0.383067 0.757919
O O9 0.265987 0.248844 0.054596
O O10 0.268822 0.533105 0.035552
O O11 0.933050 0.927297 0.748198
O O12 0.447731 0.572957 0.596947
O O13 0.261805 0.379577 0.252127
O O14 0.232844 0.040599 0.422767
O O15 0.223853 0.720158 0.600156
O O16 0.404883 0.042454 0.569724
O O17 0.500000 0.000000 0.000000
#
# Coordination Sequence:
#
# PCOD8027008 Si02
#       8
#     2   2   2   2   2   2   2   2
#     4   9  19  41  62  88 135 169 194 261 327 380
#     4  11  24  42  67  97 131 171 214 266 324 386
#     4  11  23  42  65  95 130 166 213 269 320 386
#     4  10  24  44  63  97 135 164 213 273 319 381
#     4  12  26  41  70  92 126 184 216 259 327 380
#     4  12  24  39  70  99 123 173 217 263 328 376
#     4  11  20  39  65  97 131 157 209 279 313 370
#     4  12  24  45  66  93 134 168 224 267 313 386
#
# _framework density 20.734594999999999
#
# number of rings (size 3 to 8) (size 9 to 14) (size 15 to 20)
#    0.000    1.000    5.000    1.500    1.750    2.000 
#    0.000    3.125    0.000    0.000    0.000    0.000 
#    0.000    0.000    0.000    0.000    0.000    0.000 
#
# Total GULP energy -198403.620422 kJ/mol
# GULP energy per Si atom -12400.226276 kJ/mol
# Density = 2.068740 g / cm^3
# Si number density = 20.734595 Si / 1000 Ang^3
#
#
#
# Elastic Constant Matrix: (Units=GPa)
#
#
# Indices 1 2 3 4 5 6 
#
# 1 73.0636 48.0210 31.6378 5.6754 17.7170 5.5243
# 2 48.0210 92.2512 43.3521 -1.0330 8.4849 12.0681
# 3 31.6378 43.3521 86.6139 16.7620 17.1350 5.7359
# 4 5.6754 -1.0330 16.7620 37.1577 1.4150 3.2860
# 5 17.7170 8.4849 17.1350 1.4150 31.5581 7.0642
# 6 5.5243 12.0681 5.7359 3.2860 7.0642 36.3241
#
#
#
# Elastic Compliance Matrix: (Units=1/GPa)
#
#
# Indices 1 2 3 4 5 6 
#
# 1 0.024362 -0.011993 -0.000211 -0.003792 -0.010784 0.002753
# 2 -0.011993 0.021275 -0.008448 0.006494 0.006603 -0.005782
# 3 -0.000211 -0.008448 0.018964 -0.008645 -0.008008 0.002184
# 4 -0.003792 0.006494 -0.008645 0.031750 0.004542 -0.003971
# 5 -0.010784 0.006603 -0.008008 0.004542 0.041867 -0.007842
# 6 0.002753 -0.005782 0.002184 -0.003971 -0.007842 0.030572
#
#
# Mechanical properties :
#
#
# Convention : Reuss Voigt Hill
#
# Bulk Modulus (GPa) = 42.92504 55.32785 49.12644
# Shear Modulus (GPa) = 22.95076 29.60248 26.27662
#
# Velocity S-wave (km/s) = 3.33059 3.78257 3.56376
# Velocity P-wave (km/s) = 5.96134 6.76897 6.37795
#
# Compressibility (1/GPa) = 0.02329643
#
# Stress axis : x y z
#
# Youngs Moduli (GPa) = 41.04766 47.00440 52.73268
#
# Poissons Ratio (x) = 0.56373 0.01112
# Poissons Ratio (y) = 0.49229 0.44547
# Poissons Ratio (z) = 0.00866 0.39708
#
# Static dielectric constant tensor:
#      x y z
#    x 3.919650 0.191400 0.139090 
#    y 0.191400 3.923300 -0.174830 
#    z 0.139090 -0.174830 3.730650 
# 
# 
# High freq. dielectric constant tensor:
#      x y z
#    x 1.815440 0.005200 0.014920 
#    y 0.005200 1.818680 -0.011830 
#    z 0.014920 -0.011830 1.796730 
# 
# From -- ./inp_files/454416.got.cif
#   From: 2010.06.25/outbox.cif.g09.slc.cpg/sg2_228_cif.got.tgz:454416.got - 2010.06.27 13:26:56.
