data_PCOD8027823
_publ_section_title
;
Structure prediction by ZEFSAII (Michael W. Deem and Ramdas Pophale) SiO2 
 PCOD8027823
Probable space group: P -1
;
_chemical_formula_sum "Si O2"
_cell_formula_units_Z 14
_cell_length_a 5.338653
_cell_length_b 12.582320
_cell_length_c 8.898315
_cell_angle_alpha 85.478355
_cell_angle_beta 102.572875
_cell_angle_gamma 95.853343
_cell_volume 579.360000
_symmetry_space_group_name_H-M "P -1"
_symmetry_group_IT_number 2
_symmetry_cell_setting 'triclinic'
loop_
_space_group_symop_operation_xyz
x,y,z
-x,-y,-z
loop_
_atom_site_type_symbol
_atom_site_label
_atom_site_fract_x
_atom_site_fract_y
_atom_site_fract_z
Si Si1 0.925170 0.643936 0.230002
Si Si2 0.502351 0.844633 0.904900
Si Si3 0.428213 0.114111 0.419893
Si Si4 0.609778 0.613327 0.931003
Si Si5 0.143277 0.015521 0.862978
Si Si6 0.424565 0.522299 0.322567
Si Si7 0.019054 0.843683 0.420004
O O1 0.662461 0.587601 0.268085
O O2 0.960043 0.759834 0.290027
O O3 0.172193 0.583076 0.297029
O O4 0.882746 0.649962 0.043093
O O5 0.663002 0.877922 0.767583
O O6 0.440245 0.715321 0.919894
O O7 0.241927 0.902198 0.843375
O O8 0.632210 0.890425 0.073301
O O9 0.210534 0.161464 0.488314
O O10 0.709517 0.180899 0.467867
O O11 0.500000 0.000000 0.500000
O O12 0.647299 0.590203 0.761953
O O13 0.500000 0.500000 0.000000
O O14 0.979286 0.045149 0.689638
O O15 0.000000 0.000000 0.000000
O O16 0.500000 0.500000 0.500000
#
# Coordination Sequence:
#
# PCOD8027823 Si02
#       7
#     2   2   2   2   2   2   2
#     4  11  24  47  70 100 141 189 236 296 362 425
#     4  11  25  46  70 105 145 188 248 296 364 437
#     4  12  26  46  71 106 151 191 238 304 368 436
#     4  10  24  47  72 101 144 194 243 298 360 430
#     4  11  25  44  72 106 142 191 239 301 359 442
#     4  11  25  46  71 105 140 184 243 302 357 425
#     4  12  26  45  73 103 148 190 238 295 372 434
#
# _framework density 24.164596
#
# number of rings (size 3 to 8) (size 9 to 14) (size 15 to 20)
#    0.000    0.857    2.857    3.000    8.000    2.286 
#    5.143    0.000    0.000    0.000    0.000    0.000 
#    0.000    0.000    0.000    0.000    0.000    0.000 
#
# Total GULP energy -173463.991239 kJ/mol
# GULP energy per Si atom -12390.285089 kJ/mol
# Density = 2.410960 g / cm^3
# Si number density = 24.164596 Si / 1000 Ang^3
#
#
#
# Elastic Constant Matrix: (Units=GPa)
#
#
# Indices 1 2 3 4 5 6 
#
# 1 141.8033 18.2203 30.6204 -3.9706 -9.0252 -29.9107
# 2 18.2203 138.6820 24.1374 5.1504 -9.0096 -31.8911
# 3 30.6204 24.1374 145.3378 6.2873 7.3670 -22.5457
# 4 -3.9706 5.1504 6.2873 33.0450 -3.2067 -2.4982
# 5 -9.0252 -9.0096 7.3670 -3.2067 35.7914 0.2009
# 6 -29.9107 -31.8911 -22.5457 -2.4982 0.2009 34.5496
#
#
#
# Elastic Compliance Matrix: (Units=1/GPa)
#
#
# Indices 1 2 3 4 5 6 
#
# 1 0.009139 0.000999 -0.001042 0.002049 0.002907 0.008285
# 2 0.000999 0.009476 -0.000467 -0.000310 0.002654 0.009269
# 3 -0.001042 -0.000467 0.007933 -0.001489 -0.002168 0.003748
# 4 0.002049 -0.000310 -0.001489 0.031392 0.003542 0.002766
# 5 0.002907 0.002654 -0.002168 0.003542 0.030084 0.003633
# 6 0.008285 0.009269 0.003748 0.002766 0.003633 0.047297
#
#
# Mechanical properties :
#
#
# Convention : Reuss Voigt Hill
#
# Bulk Modulus (GPa) = 39.17495 63.53103 51.35299
# Shear Modulus (GPa) = 34.51800 44.20020 39.35910
#
# Velocity S-wave (km/s) = 3.78359 4.28147 4.04021
# Velocity P-wave (km/s) = 5.94427 7.12667 6.56215
#
# Compressibility (1/GPa) = 0.02552652
#
# Stress axis : x y z
#
# Youngs Moduli (GPa) = 109.42549 105.52714 126.04831
#
# Poissons Ratio (x) = -0.10538 0.13135
# Poissons Ratio (y) = -0.10928 0.05892
# Poissons Ratio (z) = 0.11403 0.04933
#
# Static dielectric constant tensor:
#      x y z
#    x 4.701850 0.069940 0.424080 
#    y 0.069940 4.658030 1.030950 
#    z 0.424080 1.030950 8.779590 
# 
# 
# High freq. dielectric constant tensor:
#      x y z
#    x 1.949070 -0.011340 0.013630 
#    y -0.011340 1.958630 0.018810 
#    z 0.013630 0.018810 1.986160 
# 
# From -- ./inp_files/82439.got.cif
#   From: 2010.06.25/outbox.cif.g09.slc.cpg/sg2_42_cif.got.tgz:82439.got - 2010.06.27 13:26:56.
