data_PCOD8027947
_publ_section_title
;
Structure prediction by ZEFSAII (Michael W. Deem and Ramdas Pophale) SiO2 
 PCOD8027947
Probable space group: P -1
;
_chemical_formula_sum "Si O2"
_cell_formula_units_Z 12
_cell_length_a 9.982065
_cell_length_b 11.805413
_cell_length_c 5.023980
_cell_angle_alpha 106.401451
_cell_angle_beta 96.721783
_cell_angle_gamma 125.978246
_cell_volume 427.993015
_symmetry_space_group_name_H-M "P -1"
_symmetry_group_IT_number 2
_symmetry_cell_setting 'triclinic'
loop_
_space_group_symop_operation_xyz
x,y,z
-x,-y,-z
loop_
_atom_site_type_symbol
_atom_site_label
_atom_site_fract_x
_atom_site_fract_y
_atom_site_fract_z
Si Si1 0.742041 0.078419 0.743765
Si Si2 0.127575 0.571579 0.827376
Si Si3 0.629653 0.178586 0.320102
Si Si4 0.633786 0.428781 0.774624
Si Si5 0.241906 0.173320 0.571721
Si Si6 0.116226 0.226192 0.075824
O O1 0.737456 0.175193 0.577043
O O2 0.574539 0.984668 0.855281
O O3 0.722444 0.945546 0.487447
O O4 0.929903 0.190867 0.017712
O O5 0.265115 0.761104 0.909041
O O6 0.000000 0.500000 0.500000
O O7 0.258103 0.536247 0.900289
O O8 0.000000 0.500000 0.000000
O O9 0.635213 0.319545 0.497153
O O10 0.432599 0.347788 0.751176
O O11 0.724501 0.589306 0.752216
O O12 0.135193 0.145781 0.265115
O O13 0.117879 0.145730 0.762307
#
# Coordination Sequence:
#
# PCOD8027947 Si02
#       6
#     2   2   2   2   2   2
#     4  10  24  49  77 108 159 199 247 310 373 463
#     4  12  25  44  73 111 149 187 241 307 378 445
#     4  10  24  50  75 118 148 199 243 314 393 441
#     4  11  26  45  80 107 153 190 252 323 368 442
#     4  11  27  48  72 108 149 203 254 301 371 439
#     4  12  26  46  75 109 147 200 256 305 366 444
#
# _framework density 28.037841
#
# number of rings (size 3 to 8) (size 9 to 14) (size 15 to 20)
#    0.000    1.000    1.667    3.000    7.000    1.333 
#    6.000    2.500    0.000    0.000    0.000    0.000 
#    0.000    0.000    0.000    0.000    0.000    0.000 
#
# Total GULP energy -148820.700669 kJ/mol
# GULP energy per Si atom -12401.725056 kJ/mol
# Density = 2.797403 g / cm^3
# Si number density = 28.037841 Si / 1000 Ang^3
#
#
#
# Elastic Constant Matrix: (Units=GPa)
#
#
# Indices 1 2 3 4 5 6 
#
# 1 135.1127 34.1800 44.2232 -29.0211 1.6906 25.2313
# 2 34.1800 151.7200 41.2976 -16.7089 -29.2715 13.4095
# 3 44.2232 41.2976 130.6153 -35.6073 10.3660 25.6618
# 4 -29.0211 -16.7089 -35.6073 62.7245 4.8839 -2.1983
# 5 1.6906 -29.2715 10.3660 4.8839 49.8188 5.9770
# 6 25.2313 13.4095 25.6618 -2.1983 5.9770 46.3026
#
#
#
# Elastic Compliance Matrix: (Units=1/GPa)
#
#
# Indices 1 2 3 4 5 6 
#
# 1 0.009556 -0.001271 -0.001069 0.003391 -0.000702 -0.003995
# 2 -0.001271 0.008828 -0.002676 -0.000259 0.005952 -0.001162
# 3 -0.001069 -0.002676 0.011508 0.005485 -0.003958 -0.004249
# 4 0.003391 -0.000259 0.005485 0.020671 -0.003022 -0.003441
# 5 -0.000702 0.005952 -0.003958 -0.003022 0.025016 -0.002520
# 6 -0.003995 -0.001162 -0.004249 -0.003441 -0.002520 0.026628
#
#
# Mechanical properties :
#
#
# Convention : Reuss Voigt Hill
#
# Bulk Modulus (GPa) = 50.34800 72.98330 61.66565
# Shear Modulus (GPa) = 42.06735 51.61900 46.84318
#
# Velocity S-wave (km/s) = 3.87767 4.29540 4.09187
# Velocity P-wave (km/s) = 6.16803 7.11951 6.66078
#
# Compressibility (1/GPa) = 0.01986176
#
# Stress axis : x y z
#
# Youngs Moduli (GPa) = 104.65085 113.27477 86.89453
#
# Poissons Ratio (x) = 0.14394 0.09285
# Poissons Ratio (y) = 0.13298 0.23251
# Poissons Ratio (z) = 0.11183 0.30310
#
# Static dielectric constant tensor:
#      x y z
#    x 5.577310 0.368910 0.079210 
#    y 0.368910 5.573230 0.424230 
#    z 0.079210 0.424230 4.570510 
# 
# 
# High freq. dielectric constant tensor:
#      x y z
#    x 2.150460 0.009420 0.000460 
#    y 0.009420 2.174180 0.017690 
#    z 0.000460 0.017690 2.136860 
# 
# From -- ./inp_files/66915.got.cif
#   From: 2010.06.25/outbox.cif.g09.slc.cpg/sg2_34_cif.got.tgz:66915.got - 2010.06.27 13:26:56.
