data_PCOD8027838
_publ_section_title
;
Structure prediction by ZEFSAII (Michael W. Deem and Ramdas Pophale) SiO2 
 PCOD8027838
Probable space group: P -1
;
_chemical_formula_sum "Si O2"
_cell_formula_units_Z 16
_cell_length_a 14.469467
_cell_length_b 14.354727
_cell_length_c 9.009040
_cell_angle_alpha 50.289447
_cell_angle_beta 46.351049
_cell_angle_gamma 30.834712
_cell_volume 688.588818
_symmetry_space_group_name_H-M "P -1"
_symmetry_group_IT_number 2
_symmetry_cell_setting 'triclinic'
loop_
_space_group_symop_operation_xyz
x,y,z
-x,-y,-z
loop_
_atom_site_type_symbol
_atom_site_label
_atom_site_fract_x
_atom_site_fract_y
_atom_site_fract_z
Si Si1 0.178440 0.532685 0.150445
Si Si2 0.952673 0.785653 0.401331
Si Si3 0.092923 0.364145 0.901904
Si Si4 0.287698 0.851437 0.537869
Si Si5 0.287756 0.458601 0.568291
Si Si6 0.383902 0.981389 0.060196
Si Si7 0.305090 0.590914 0.694699
Si Si8 0.380735 0.159713 0.345322
O O1 0.286884 0.353041 0.314933
O O2 0.039440 0.722209 0.203671
O O3 0.043151 0.550583 0.174618
O O4 0.326411 0.507321 0.914302
O O5 0.784735 0.805366 0.580200
O O6 0.139750 0.630462 0.450608
O O7 0.857300 0.980378 0.358324
O O8 0.273293 0.323538 0.701376
O O9 0.000000 0.500000 0.000000
O O10 0.168719 0.180276 0.058804
O O11 0.487774 0.669739 0.584870
O O12 0.360239 0.878214 0.289130
O O13 0.183738 0.801949 0.644552
O O14 0.216323 0.557347 0.711111
O O15 0.485810 0.884238 0.889407
O O16 0.500000 0.000000 0.000000
O O17 0.500000 0.500000 0.500000
O O18 0.500000 0.000000 0.500000
#
# Coordination Sequence:
#
# PCOD8027838 Si02
#       8
#     2   2   2   2   2   2   2   2
#     4  12  26  43  70 105 139 184 232 283 363 422
#     4  12  26  42  69 106 145 181 228 291 358 419
#     4  12  21  38  67 103 136 171 228 290 348 410
#     4  11  25  45  71 102 143 186 243 285 338 417
#     4  11  22  43  72  99 139 183 229 292 346 407
#     4  12  22  39  68 102 132 182 228 283 354 408
#     4  10  24  47  73  99 136 188 245 290 333 416
#     4  12  25  42  67 104 147 178 223 294 359 418
#
# _framework density 23.235928000000001
#
# number of rings (size 3 to 8) (size 9 to 14) (size 15 to 20)
#    0.000    0.500    5.000    4.125    3.500    1.000 
#    0.000    2.500    5.500    0.000    0.000    0.000 
#    0.000    0.000    0.000    0.000    0.000    0.000 
#
# Total GULP energy -198246.396275 kJ/mol
# GULP energy per Si atom -12390.399767 kJ/mol
# Density = 2.318304 g / cm^3
# Si number density = 23.235928 Si / 1000 Ang^3
#
#
#
# Elastic Constant Matrix: (Units=GPa)
#
#
# Indices 1 2 3 4 5 6 
#
# 1 75.9571 52.0929 50.5789 -11.7040 7.1761 12.6189
# 2 52.0929 157.2926 45.6953 -3.5186 11.0914 11.8551
# 3 50.5789 45.6953 108.6225 -3.3134 4.5955 11.3151
# 4 -11.7040 -3.5186 -3.3134 42.3386 11.7837 5.4963
# 5 7.1761 11.0914 4.5955 11.7837 34.6747 -2.6081
# 6 12.6189 11.8551 11.3151 5.4963 -2.6081 43.7913
#
#
#
# Elastic Compliance Matrix: (Units=1/GPa)
#
#
# Indices 1 2 3 4 5 6 
#
# 1 0.024641 -0.004757 -0.008482 0.007931 -0.005521 -0.004945
# 2 -0.004757 0.008438 -0.001206 -0.000193 -0.001540 -0.000669
# 3 -0.008482 -0.001206 0.013634 -0.001540 0.000819 -0.000510
# 4 0.007931 -0.000193 -0.001540 0.029828 -0.011986 -0.006293
# 5 -0.005521 -0.001540 0.000819 -0.011986 0.034844 0.005376
# 6 -0.004945 -0.000669 -0.000510 -0.006293 0.005376 0.025684
#
#
# Mechanical properties :
#
#
# Convention : Reuss Voigt Hill
#
# Bulk Modulus (GPa) = 56.10349 70.95628 63.52989
# Shear Modulus (GPa) = 29.08668 37.06127 33.07398
#
# Velocity S-wave (km/s) = 3.54191 3.99808 3.77689
# Velocity P-wave (km/s) = 6.39722 7.20531 6.81325
#
# Compressibility (1/GPa) = 0.01782420
#
# Stress axis : x y z
#
# Youngs Moduli (GPa) = 40.58231 118.51098 73.34346
#
# Poissons Ratio (x) = 0.56378 0.62210
# Poissons Ratio (y) = 0.19306 0.08842
# Poissons Ratio (z) = 0.34422 0.14287
#
# Static dielectric constant tensor:
#      x y z
#    x 4.864460 0.495980 -0.277160 
#    y 0.495980 4.766920 -0.170750 
#    z -0.277160 -0.170750 4.199550 
# 
# 
# High freq. dielectric constant tensor:
#      x y z
#    x 1.911740 0.013470 0.003310 
#    y 0.013470 1.932610 0.003960 
#    z 0.003310 0.003960 1.905660 
# 
# From -- ./inp_files/314584.got.cif
#   From: 2010.06.25/outbox.cif.g09.slc.cpg/sg2_158_cif.got.tgz:314584.got - 2010.06.27 13:26:56.
