data_PCOD8027629
_publ_section_title
;
Structure prediction by ZEFSAII (Michael W. Deem and Ramdas Pophale) SiO2 
 PCOD8027629
Probable space group: P -1
;
_chemical_formula_sum "Si O2"
_cell_formula_units_Z 12
_cell_length_a 16.344805
_cell_length_b 16.971195
_cell_length_c 10.122761
_cell_angle_alpha 150.106162
_cell_angle_beta 32.978495
_cell_angle_gamma 156.405770
_cell_volume 546.098342
_symmetry_space_group_name_H-M "P -1"
_symmetry_group_IT_number 2
_symmetry_cell_setting 'triclinic'
loop_
_space_group_symop_operation_xyz
x,y,z
-x,-y,-z
loop_
_atom_site_type_symbol
_atom_site_label
_atom_site_fract_x
_atom_site_fract_y
_atom_site_fract_z
Si Si1 0.809134 0.929232 0.942251
Si Si2 0.581464 0.735410 0.704333
Si Si3 0.965616 0.597376 0.572476
Si Si4 0.283177 0.797319 0.215181
Si Si5 0.790434 0.962693 0.482440
Si Si6 0.481056 0.239856 0.681654
O O1 0.967080 0.897507 0.673137
O O2 0.715671 0.899381 0.882366
O O3 0.939450 0.168667 0.171253
O O4 0.616483 0.750303 0.041211
O O5 0.500000 0.500000 0.500000
O O6 0.730117 0.850085 0.542452
O O7 0.383831 0.705199 0.903533
O O8 0.724977 0.452394 0.655139
O O9 0.000000 0.500000 0.500000
O O10 0.074769 0.611182 0.312248
O O11 0.228505 0.859098 0.246115
O O12 0.440607 0.019429 0.415660
O O13 0.636161 0.770263 0.302044
#
# Coordination Sequence:
#
# PCOD8027629 Si02
#       6
#     2   2   2   2   2   2
#     4  11  24  44  69 101 139 169 229 276 334 394
#     4  12  26  45  69  98 137 182 224 273 335 402
#     4  11  22  39  74 105 131 173 224 283 334 389
#     4   9  23  46  66  99 133 175 224 273 334 392
#     4  10  24  46  67  98 140 179 214 281 335 397
#     4   9  22  43  74  96 134 173 223 279 331 394
#
# _framework density 21.974065
#
# number of rings (size 3 to 8) (size 9 to 14) (size 15 to 20)
#    1.000    0.667    0.000    3.500    4.667    4.667 
#    3.000    1.667    0.000    0.000    0.000    0.000 
#    0.000    0.000    0.000    0.000    0.000    0.000 
#
# Total GULP energy -148771.091382 kJ/mol
# GULP energy per Si atom -12397.590948 kJ/mol
# Density = 2.192405 g / cm^3
# Si number density = 21.974065 Si / 1000 Ang^3
#
#
#
# Elastic Constant Matrix: (Units=GPa)
#
#
# Indices 1 2 3 4 5 6 
#
# 1 74.5962 8.0928 15.8899 -10.7313 3.0605 -6.2338
# 2 8.0928 95.8685 27.3761 -22.0416 -2.0843 1.6288
# 3 15.8899 27.3761 93.1914 -17.1639 -19.1776 -5.4101
# 4 -10.7313 -22.0416 -17.1639 28.3910 -8.4955 -5.8129
# 5 3.0605 -2.0843 -19.1776 -8.4955 48.8949 -3.4497
# 6 -6.2338 1.6288 -5.4101 -5.8129 -3.4497 41.2243
#
#
#
# Elastic Compliance Matrix: (Units=1/GPa)
#
#
# Indices 1 2 3 4 5 6 
#
# 1 0.014710 0.000379 -0.001555 0.005355 -0.000392 0.002728
# 2 0.000379 0.013219 -0.001697 0.010062 0.001684 0.000872
# 3 -0.001555 -0.001697 0.015382 0.010674 0.008198 0.004042
# 4 0.005355 0.010062 0.010674 0.058384 0.015223 0.011319
# 5 -0.000392 0.001684 0.008198 0.015223 0.026785 0.005338
# 6 0.002728 0.000872 0.004042 0.011319 0.005338 0.027209
#
#
# Mechanical properties :
#
#
# Convention : Reuss Voigt Hill
#
# Bulk Modulus (GPa) = 26.62213 40.70819 33.66516
# Shear Modulus (GPa) = 28.74246 37.85521 33.29884
#
# Velocity S-wave (km/s) = 3.62058 4.15507 3.89700
# Velocity P-wave (km/s) = 5.44239 6.44866 5.96678
#
# Compressibility (1/GPa) = 0.03756274
#
# Stress axis : x y z
#
# Youngs Moduli (GPa) = 67.98038 75.64932 65.01063
#
# Poissons Ratio (x) = -0.02865 0.10112
# Poissons Ratio (y) = -0.02575 0.11035
# Poissons Ratio (z) = 0.10574 0.12841
#
# Static dielectric constant tensor:
#      x y z
#    x 4.437290 -0.634430 -0.021410 
#    y -0.634430 4.736170 -0.179150 
#    z -0.021410 -0.179150 3.857830 
# 
# 
# High freq. dielectric constant tensor:
#      x y z
#    x 1.867150 -0.003470 -0.007650 
#    y -0.003470 1.862520 -0.017740 
#    z -0.007650 -0.017740 1.858430 
# 
# From -- ./inp_files/310469.got.cif
#   From: 2010.06.25/outbox.cif.g09.slc.cpg/sg2_156_cif.got.tgz:310469.got - 2010.06.27 13:26:56.
