data_PCOD8027990
_publ_section_title
;
Structure prediction by ZEFSAII (Michael W. Deem and Ramdas Pophale) SiO2 
 PCOD8027990
Probable space group: P -1
;
_chemical_formula_sum "Si O2"
_cell_formula_units_Z 16
_cell_length_a 25.194108
_cell_length_b 11.239331
_cell_length_c 26.105197
_cell_angle_alpha 33.403292
_cell_angle_beta 168.818225
_cell_angle_gamma 148.799454
_cell_volume 741.915033
_symmetry_space_group_name_H-M "P -1"
_symmetry_group_IT_number 2
_symmetry_cell_setting 'triclinic'
loop_
_space_group_symop_operation_xyz
x,y,z
-x,-y,-z
loop_
_atom_site_type_symbol
_atom_site_label
_atom_site_fract_x
_atom_site_fract_y
_atom_site_fract_z
Si Si1 0.525129 0.356623 0.247440
Si Si2 0.669651 0.845932 0.238543
Si Si3 0.307443 0.662437 0.303647
Si Si4 0.742204 0.399535 0.976358
Si Si5 0.557396 0.996400 0.329936
Si Si6 0.101582 0.733380 0.277315
Si Si7 0.231091 0.233440 0.208986
Si Si8 0.049968 0.831368 0.834032
O O1 0.642712 0.632231 0.252021
O O2 0.651890 0.300028 0.441102
O O3 0.627283 0.235221 0.340825
O O4 0.175050 0.268917 0.949487
O O5 0.540281 0.752161 0.205445
O O6 0.000000 0.000000 0.500000
O O7 0.500000 0.000000 0.000000
O O8 0.442842 0.777496 0.337516
O O9 0.566567 0.673834 0.583667
O O10 0.114501 0.397644 0.206613
O O11 0.102621 0.794473 0.084904
O O12 0.647887 0.584430 0.787666
O O13 0.005192 0.534148 0.215167
O O14 0.860403 0.236631 0.112024
O O15 0.847248 0.986960 0.579926
O O16 0.330384 0.986310 0.074327
O O17 0.233367 0.982365 0.285209
#
# Coordination Sequence:
#
# PCOD8027990 Si02
#       8
#     2   2   2   2   2   2   2   2
#     4  11  23  40  68  96 122 165 216 257 311 367
#     4  11  25  47  73  94 117 154 206 280 332 378
#     4  11  21  36  55  88 132 180 227 238 284 355
#     4  10  25  41  63  95 128 164 214 252 327 387
#     4  12  21  39  60  87 133 172 221 250 285 365
#     4  11  20  39  61  92 132 168 205 257 304 374
#     4  11  20  36  59  92 133 170 202 260 307 363
#     4  11  24  36  58  89 131 181 206 256 298 354
#
# _framework density 21.565811
#
# number of rings (size 3 to 8) (size 9 to 14) (size 15 to 20)
#    0.000    1.000    2.500    5.625    0.000    9.000 
#    0.000    6.250    0.000    4.500    0.000    0.000 
#    0.000    0.000    0.000    0.000    0.000    0.000 
#
# Total GULP energy -198440.517260 kJ/mol
# GULP energy per Si atom -12402.532329 kJ/mol
# Density = 2.151673 g / cm^3
# Si number density = 21.565811 Si / 1000 Ang^3
#
#
#
# Elastic Constant Matrix: (Units=GPa)
#
#
# Indices 1 2 3 4 5 6 
#
# 1 101.7196 56.1965 35.1296 4.6422 10.2149 -21.0583
# 2 56.1965 120.7416 41.0987 -10.6413 13.4883 -18.3187
# 3 35.1296 41.0987 119.7093 4.9814 1.2283 -2.9133
# 4 4.6422 -10.6413 4.9814 28.9562 -4.5256 -0.2042
# 5 10.2149 13.4883 1.2283 -4.5256 27.2422 0.8048
# 6 -21.0583 -18.3187 -2.9133 -0.2042 0.8048 42.1056
#
#
#
# Elastic Compliance Matrix: (Units=1/GPa)
#
#
# Indices 1 2 3 4 5 6 
#
# 1 0.015352 -0.005596 -0.002224 -0.004695 -0.003818 0.005140
# 2 -0.005596 0.013248 -0.003042 0.005770 -0.003450 0.002849
# 3 -0.002224 -0.003042 0.010086 -0.002265 0.001562 -0.001779
# 4 -0.004695 0.005770 -0.002265 0.038646 0.005423 0.000089
# 5 -0.003818 -0.003450 0.001562 0.005423 0.040798 -0.004056
# 6 0.005140 0.002849 -0.001779 0.000089 -0.004056 0.027515
#
#
# Mechanical properties :
#
#
# Convention : Reuss Voigt Hill
#
# Bulk Modulus (GPa) = 58.95450 67.44667 63.20059
# Shear Modulus (GPa) = 28.89814 33.64387 31.27100
#
# Velocity S-wave (km/s) = 3.66457 3.95404 3.81205
# Velocity P-wave (km/s) = 6.73066 7.22417 6.98178
#
# Compressibility (1/GPa) = 0.01696223
#
# Stress axis : x y z
#
# Youngs Moduli (GPa) = 65.13643 75.48344 99.15215
#
# Poissons Ratio (x) = 0.42239 0.22056
# Poissons Ratio (y) = 0.36449 0.30158
# Poissons Ratio (z) = 0.14489 0.22959
#
# Static dielectric constant tensor:
#      x y z
#    x 3.774540 -0.175730 0.096800 
#    y -0.175730 3.952740 -0.074540 
#    z 0.096800 -0.074540 4.065990 
# 
# 
# High freq. dielectric constant tensor:
#      x y z
#    x 1.822920 -0.028320 0.007950 
#    y -0.028320 1.831600 -0.000790 
#    z 0.007950 -0.000790 1.870220 
# 
# From -- ./inp_files/621251.got.cif
#   From: 2010.06.25/outbox.cif.g09.slc.cpg/sg2_311_cif.got.tgz:621251.got - 2010.06.27 13:26:56.
