data_PCOD8027995
_publ_section_title
;
Structure prediction by ZEFSAII (Michael W. Deem and Ramdas Pophale) SiO2 
 PCOD8027995
Probable space group: P -1
;
_chemical_formula_sum "Si O2"
_cell_formula_units_Z 16
_cell_length_a 14.888620
_cell_length_b 8.910958
_cell_length_c 12.004572
_cell_angle_alpha 38.990914
_cell_angle_beta 50.365076
_cell_angle_gamma 71.715736
_cell_volume 715.194710
_symmetry_space_group_name_H-M "P -1"
_symmetry_group_IT_number 2
_symmetry_cell_setting 'triclinic'
loop_
_space_group_symop_operation_xyz
x,y,z
-x,-y,-z
loop_
_atom_site_type_symbol
_atom_site_label
_atom_site_fract_x
_atom_site_fract_y
_atom_site_fract_z
Si Si1 0.211467 0.637844 0.212696
Si Si2 0.144105 0.829312 0.494695
Si Si3 0.860067 0.907406 0.041942
Si Si4 0.863422 0.622742 0.800504
Si Si5 0.372775 0.452202 0.693611
Si Si6 0.634821 0.037137 0.915976
Si Si7 0.859788 0.893995 0.306951
Si Si8 0.223210 0.732917 0.720252
O O1 0.130931 0.819470 0.173857
O O2 0.224654 0.571253 0.111169
O O3 0.343379 0.813412 0.067741
O O4 0.147162 0.377316 0.483199
O O5 0.253803 0.797294 0.350857
O O6 0.143797 0.698503 0.689488
O O7 0.011197 0.692783 0.615234
O O8 0.170986 0.127824 0.319784
O O9 0.996851 0.897564 0.916116
O O10 0.752416 0.665287 0.213504
O O11 0.822319 0.876231 0.218816
O O12 0.844283 0.502972 0.007272
O O13 0.500000 0.500000 0.500000
O O14 0.361468 0.716148 0.596952
O O15 0.363397 0.248273 0.914860
O O16 0.500000 0.000000 0.000000
O O17 0.764863 0.997518 0.388129
#
# Coordination Sequence:
#
# PCOD8027995 Si02
#       8
#     2   2   2   2   2   2   2   2
#     4  11  24  42  70  96 143 176 225 280 335 409
#     4  11  25  40  69 100 141 182 221 278 340 406
#     4  10  25  41  65 100 141 175 228 274 334 411
#     4  11  24  42  64 107 140 175 224 276 348 407
#     4  11  26  45  70  96 134 184 234 282 335 403
#     4  11  26  47  70  97 132 184 237 279 335 408
#     4  11  24  39  67 105 135 181 214 278 354 397
#     4  12  24  42  70 100 145 175 225 281 342 412
#
# _framework density 22.371531000000001
#
# number of rings (size 3 to 8) (size 9 to 14) (size 15 to 20)
#    0.000    1.000    3.750    1.500   12.250    0.000 
#    0.000    1.250    5.500    0.000    0.000    0.000 
#    0.000    0.000    0.000    0.000    0.000    0.000 
#
# Total GULP energy -198295.323763 kJ/mol
# GULP energy per Si atom -12393.457735 kJ/mol
# Density = 2.232061 g / cm^3
# Si number density = 22.371531 Si / 1000 Ang^3
#
#
#
# Elastic Constant Matrix: (Units=GPa)
#
#
# Indices 1 2 3 4 5 6 
#
# 1 131.6755 51.8916 40.8001 11.5460 15.6048 9.8679
# 2 51.8916 123.5797 41.3503 6.2053 4.6775 -12.0832
# 3 40.8001 41.3503 85.6988 7.6640 19.9253 -3.9568
# 4 11.5460 6.2053 7.6640 33.4068 -9.6750 0.8504
# 5 15.6048 4.6775 19.9253 -9.6750 37.3702 3.2355
# 6 9.8679 -12.0832 -3.9568 0.8504 3.2355 28.0647
#
#
#
# Elastic Compliance Matrix: (Units=1/GPa)
#
#
# Indices 1 2 3 4 5 6 
#
# 1 0.011045 -0.004045 -0.002550 -0.003240 -0.003106 -0.005528
# 2 -0.004045 0.011537 -0.003897 0.000583 0.001990 0.005593
# 3 -0.002550 -0.003897 0.017555 -0.005223 -0.009414 0.002937
# 4 -0.003240 0.000583 -0.005223 0.036132 0.013593 -0.002008
# 5 -0.003106 0.001990 -0.009414 0.013593 0.036694 -0.004020
# 6 -0.005528 0.005593 0.002937 -0.002008 -0.004020 0.040922
#
#
# Mechanical properties :
#
#
# Convention : Reuss Voigt Hill
#
# Bulk Modulus (GPa) = 52.21359 67.67088 59.94223
# Shear Modulus (GPa) = 27.58572 33.56249 30.57410
#
# Velocity S-wave (km/s) = 3.51532 3.87748 3.70084
# Velocity P-wave (km/s) = 6.31400 7.09654 6.71668
#
# Compressibility (1/GPa) = 0.01915210
#
# Stress axis : x y z
#
# Youngs Moduli (GPa) = 90.53748 86.67936 56.96451
#
# Poissons Ratio (x) = 0.35061 0.14526
# Poissons Ratio (y) = 0.36622 0.22201
# Poissons Ratio (z) = 0.23087 0.33782
#
# Static dielectric constant tensor:
#      x y z
#    x 4.145290 -0.065260 0.342010 
#    y -0.065260 4.233780 -0.070060 
#    z 0.342010 -0.070060 3.939330 
# 
# 
# High freq. dielectric constant tensor:
#      x y z
#    x 1.882680 -0.006300 0.036020 
#    y -0.006300 1.885710 -0.008620 
#    z 0.036020 -0.008620 1.867690 
# 
# From -- ./inp_files/272760.got.cif
#   From: 2010.06.25/outbox.cif.g09.slc.cpg/sg2_137_cif.got.tgz:272760.got - 2010.06.27 13:26:56.
