data_PCOD8027356
_publ_section_title
;
Structure prediction by ZEFSAII (Michael W. Deem and Ramdas Pophale) SiO2 
 PCOD8027356
Probable space group: P -1
;
_chemical_formula_sum "Si O2"
_cell_formula_units_Z 16
_cell_length_a 9.311463
_cell_length_b 9.194567
_cell_length_c 12.427397
_cell_angle_alpha 109.371801
_cell_angle_beta 49.033703
_cell_angle_gamma 96.666830
_cell_volume 750.201904
_symmetry_space_group_name_H-M "P -1"
_symmetry_group_IT_number 2
_symmetry_cell_setting 'triclinic'
loop_
_space_group_symop_operation_xyz
x,y,z
-x,-y,-z
loop_
_atom_site_type_symbol
_atom_site_label
_atom_site_fract_x
_atom_site_fract_y
_atom_site_fract_z
Si Si1 0.702497 0.404021 0.851058
Si Si2 0.474379 0.945160 0.647734
Si Si3 0.767207 0.096686 0.863618
Si Si4 0.431319 0.161259 0.198097
Si Si5 0.043268 0.479384 0.846489
Si Si6 0.319841 0.627638 0.604164
Si Si7 0.803240 0.867482 0.309026
Si Si8 0.779853 0.494525 0.599298
O O1 0.724991 0.218964 0.816511
O O2 0.723494 0.415644 0.716323
O O3 0.852094 0.481829 0.870024
O O4 0.500000 0.500000 0.000000
O O5 0.522565 0.948870 0.749348
O O6 0.377843 0.796133 0.626921
O O7 0.673467 0.953701 0.489117
O O8 0.313820 0.092703 0.734825
O O9 0.989589 0.073732 0.783169
O O10 0.713035 0.925637 0.823628
O O11 0.632750 0.174025 0.044717
O O12 0.335878 0.333254 0.319118
O O13 0.159933 0.609077 0.770308
O O14 0.177215 0.315515 0.724865
O O15 0.000000 0.500000 0.000000
O O16 0.500000 0.500000 0.500000
O O17 0.245914 0.613200 0.515978
O O18 0.000000 0.500000 0.500000
#
# Coordination Sequence:
#
# PCOD8027356 Si02
#       8
#     2   2   2   2   2   2   2   2
#     4  11  24  43  67  98 129 172 217 269 327 385
#     4  11  25  43  67  95 132 171 221 269 326 389
#     4  10  25  44  66  94 133 171 217 267 328 389
#     4  11  24  45  65  96 132 173 215 272 324 388
#     4  11  25  43  67  99 133 171 219 271 326 393
#     4  12  24  43  67  98 130 175 219 271 330 379
#     4  10  24  45  63  96 130 171 219 266 327 388
#     4  12  25  44  68  98 134 170 224 272 321 393
#
# _framework density 21.327593
#
# number of rings (size 3 to 8) (size 9 to 14) (size 15 to 20)
#    0.000    1.000    5.000    0.000    8.750    4.000 
#    0.000    0.000    0.000    0.000    0.000    0.000 
#    0.000    0.000    0.000    0.000    0.000    0.000 
#
# Total GULP energy -198395.842785 kJ/mol
# GULP energy per Si atom -12399.740174 kJ/mol
# Density = 2.127905 g / cm^3
# Si number density = 21.327593 Si / 1000 Ang^3
#
#
#
# Elastic Constant Matrix: (Units=GPa)
#
#
# Indices 1 2 3 4 5 6 
#
# 1 97.0524 7.7387 49.2556 -5.8212 -10.8484 -14.5832
# 2 7.7387 42.6226 17.2247 -7.2932 -16.1475 -8.1445
# 3 49.2556 17.2247 120.2978 -26.7444 -9.2593 -5.9051
# 4 -5.8212 -7.2932 -26.7444 37.4900 -5.7108 3.0109
# 5 -10.8484 -16.1475 -9.2593 -5.7108 47.1075 -2.8612
# 6 -14.5832 -8.1445 -5.9051 3.0109 -2.8612 45.5305
#
#
#
# Elastic Compliance Matrix: (Units=1/GPa)
#
#
# Indices 1 2 3 4 5 6 
#
# 1 0.014016 0.001330 -0.005908 -0.001728 0.002570 0.004237
# 2 0.001330 0.030632 -0.002516 0.005625 0.011353 0.005921
# 3 -0.005908 -0.002516 0.012931 0.008096 0.001232 -0.001123
# 4 -0.001728 0.005625 0.008096 0.034409 0.007274 -0.000316
# 5 0.002570 0.011353 0.001232 0.007274 0.027093 0.004236
# 6 0.004237 0.005921 -0.001123 -0.000316 0.004236 0.024521
#
#
# Mechanical properties :
#
#
# Convention : Reuss Voigt Hill
#
# Bulk Modulus (GPa) = 23.04493 45.37898 34.21195
# Shear Modulus (GPa) = 29.02714 38.40919 33.71816
#
# Velocity S-wave (km/s) = 3.69319 4.24832 3.98045
# Velocity P-wave (km/s) = 5.38655 6.73704 6.09929
#
# Compressibility (1/GPa) = 0.04339350
#
# Stress axis : x y z
#
# Youngs Moduli (GPa) = 71.34599 32.64569 77.33085
#
# Poissons Ratio (x) = -0.04343 0.45685
# Poissons Ratio (y) = -0.09491 0.19454
# Poissons Ratio (z) = 0.42149 0.08213
#
# Static dielectric constant tensor:
#      x y z
#    x 3.861500 0.049000 -0.204580 
#    y 0.049000 3.247930 -0.063560 
#    z -0.204580 -0.063560 3.792610 
# 
# 
# High freq. dielectric constant tensor:
#      x y z
#    x 1.846880 -0.008850 -0.009390 
#    y -0.008850 1.838810 -0.013690 
#    z -0.009390 -0.013690 1.843570 
# 
# From -- ./inp_files/190704.got.cif
#   From: 2010.06.25/outbox.cif.g09.slc.cpg/sg2_96_cif.got.tgz:190704.got - 2010.06.27 13:26:56.
