data_PCOD8027389
_publ_section_title
;
Structure prediction by ZEFSAII (Michael W. Deem and Ramdas Pophale) SiO2 
 PCOD8027389
Probable space group: P -1
;
_chemical_formula_sum "Si O2"
_cell_formula_units_Z 14
_cell_length_a 9.520321
_cell_length_b 5.271309
_cell_length_c 21.344642
_cell_angle_alpha 115.957724
_cell_angle_beta 37.691096
_cell_angle_gamma 125.094183
_cell_volume 535.541373
_symmetry_space_group_name_H-M "P -1"
_symmetry_group_IT_number 2
_symmetry_cell_setting 'triclinic'
loop_
_space_group_symop_operation_xyz
x,y,z
-x,-y,-z
loop_
_atom_site_type_symbol
_atom_site_label
_atom_site_fract_x
_atom_site_fract_y
_atom_site_fract_z
Si Si1 0.740574 0.160491 0.090377
Si Si2 0.908522 0.769758 0.367339
Si Si3 0.579345 0.456633 0.557099
Si Si4 0.504912 0.078771 0.664842
Si Si5 0.317129 0.371107 0.259184
Si Si6 0.991285 0.062780 0.114279
Si Si7 0.271461 0.524057 0.160954
O O1 0.886386 0.190917 0.107113
O O2 0.541046 0.808433 0.107125
O O3 0.598325 0.384030 0.168733
O O4 0.937093 0.216989 0.967974
O O5 0.830961 0.569947 0.437497
O O6 0.657702 0.774283 0.424988
O O7 0.041965 0.630007 0.256012
O O8 0.109290 0.118441 0.349869
O O9 0.617188 0.269201 0.582086
O O10 0.533812 0.759632 0.624759
O O11 0.657880 0.288765 0.692526
O O12 0.215204 0.038076 0.768268
O O13 0.233963 0.294396 0.208328
O O14 0.241979 0.337443 0.086067
#
# Coordination Sequence:
#
# PCOD8027389 Si02
#       7
#     2   2   2   2   2   2   2
#     4  10  24  45  67 106 139 190 242 298 356 444
#     4  10  25  43  71  99 145 185 244 297 360 431
#     4  11  26  46  72 106 138 195 246 295 363 434
#     4  12  25  45  71 104 144 188 242 295 363 427
#     4  11  25  43  68 102 148 183 243 302 361 429
#     4  11  22  45  73  98 145 189 242 295 367 424
#     4  11  22  44  68 104 140 190 233 307 354 436
#
# _framework density 26.141774999999999
#
# number of rings (size 3 to 8) (size 9 to 14) (size 15 to 20)
#    0.000    1.143    2.857    2.143    4.000    3.429 
#    2.571    0.000    0.000    0.000    0.000    0.000 
#    0.000    0.000    0.000    0.000    0.000    0.000 
#
# Total GULP energy -173567.604176 kJ/mol
# GULP energy per Si atom -12397.686013 kJ/mol
# Density = 2.608227 g / cm^3
# Si number density = 26.141775 Si / 1000 Ang^3
#
#
#
# Elastic Constant Matrix: (Units=GPa)
#
#
# Indices 1 2 3 4 5 6 
#
# 1 103.7986 2.1859 2.1909 -1.8397 14.2034 20.4490
# 2 2.1859 54.0621 10.0663 2.6975 4.3677 14.9413
# 3 2.1909 10.0663 58.6068 -6.1127 12.0241 12.8328
# 4 -1.8397 2.6975 -6.1127 44.0651 4.0172 5.6011
# 5 14.2034 4.3677 12.0241 4.0172 36.7490 3.4599
# 6 20.4490 14.9413 12.8328 5.6011 3.4599 39.4761
#
#
#
# Elastic Compliance Matrix: (Units=1/GPa)
#
#
# Indices 1 2 3 4 5 6 
#
# 1 0.011672 0.001399 0.002105 0.002047 -0.004920 -0.007119
# 2 0.001399 0.021104 -0.001597 -0.000279 -0.001743 -0.008001
# 3 0.002105 -0.001597 0.020830 0.004663 -0.007263 -0.007282
# 4 0.002047 -0.000279 0.004663 0.024556 -0.004444 -0.005565
# 5 -0.004920 -0.001743 -0.007263 -0.004444 0.031862 0.003407
# 6 -0.007119 -0.008001 -0.007282 -0.005565 0.003407 0.034906
#
#
# Mechanical properties :
#
#
# Convention : Reuss Voigt Hill
#
# Bulk Modulus (GPa) = 17.41538 27.26153 22.33845
# Shear Modulus (GPa) = 31.20033 37.52633 34.36333
#
# Velocity S-wave (km/s) = 3.45846 3.79290 3.62953
# Velocity P-wave (km/s) = 4.75650 5.44357 5.11159
#
# Compressibility (1/GPa) = 0.05742052
#
# Stress axis : x y z
#
# Youngs Moduli (GPa) = 85.67353 47.38445 48.00882
#
# Poissons Ratio (x) = -0.06629 -0.10107
# Poissons Ratio (y) = -0.11986 0.07666
# Poissons Ratio (z) = -0.18036 0.07566
#
# Static dielectric constant tensor:
#      x y z
#    x 4.348640 0.267940 0.036540 
#    y 0.267940 4.777010 -0.225690 
#    z 0.036540 -0.225690 5.057720 
# 
# 
# High freq. dielectric constant tensor:
#      x y z
#    x 2.032700 0.020160 -0.002450 
#    y 0.020160 2.051150 -0.007350 
#    z -0.002450 -0.007350 2.061610 
# 
# From -- ./inp_files/98436.got.cif
#   From: 2010.06.25/outbox.cif.g09.slc.cpg/sg2_50_cif.got.tgz:98436.got - 2010.06.27 13:26:56.
