data_PCOD8027334
_publ_section_title
;
Structure prediction by ZEFSAII (Michael W. Deem and Ramdas Pophale) SiO2 
 PCOD8027334
Probable space group: P -1
;
_chemical_formula_sum "Si O2"
_cell_formula_units_Z 16
_cell_length_a 12.450821
_cell_length_b 11.691067
_cell_length_c 12.084679
_cell_angle_alpha 82.846313
_cell_angle_beta 44.973553
_cell_angle_gamma 119.296765
_cell_volume 700.030983
_symmetry_space_group_name_H-M "P -1"
_symmetry_group_IT_number 2
_symmetry_cell_setting 'triclinic'
loop_
_space_group_symop_operation_xyz
x,y,z
-x,-y,-z
loop_
_atom_site_type_symbol
_atom_site_label
_atom_site_fract_x
_atom_site_fract_y
_atom_site_fract_z
Si Si1 0.468817 0.570683 0.610211
Si Si2 0.165613 0.756435 0.683152
Si Si3 0.100855 0.714746 0.982416
Si Si4 0.387951 0.326408 0.869433
Si Si5 0.304326 0.655930 0.239988
Si Si6 0.645288 0.322456 0.053881
Si Si7 0.425899 0.117976 0.776236
Si Si8 0.194083 0.033184 0.583353
O O1 0.500000 0.500000 0.500000
O O2 0.432065 0.478208 0.764154
O O3 0.710248 0.812963 0.414126
O O4 0.215221 0.492086 0.778107
O O5 0.322255 0.760675 0.496424
O O6 0.279099 0.955580 0.558143
O O7 0.224224 0.763036 0.767109
O O8 0.850725 0.555842 0.901146
O O9 0.210918 0.697158 0.994465
O O10 0.166248 0.884660 0.956417
O O11 0.639037 0.442180 0.749847
O O12 0.360885 0.214241 0.802556
O O13 0.127271 0.160598 0.160030
O O14 0.490725 0.853910 0.158650
O O15 0.000000 0.500000 0.500000
O O16 0.393463 0.726667 0.040710
O O17 0.350100 0.161791 0.339726
#
# Coordination Sequence:
#
# PCOD8027334 Si02
#       8
#     2   2   2   2   2   2   2   2
#     4  12  28  43  73 109 151 195 236 296 367 448
#     4  12  24  45  72 109 150 183 238 303 366 424
#     4  12  25  41  71 113 147 183 240 297 364 439
#     4  10  25  50  70 104 146 191 238 298 365 417
#     4  10  24  49  77 100 147 192 249 301 352 430
#     4  12  25  44  74 110 138 199 248 291 360 425
#     4  10  24  44  75 105 138 198 234 299 363 414
#     4  12  25  47  71 109 147 190 240 294 371 428
#
# _framework density 22.856131999999999
#
# number of rings (size 3 to 8) (size 9 to 14) (size 15 to 20)
#    0.750    0.000    5.000    1.500    5.250    2.000 
#    0.000    3.750    0.000    0.000    0.000    0.000 
#    0.000    0.000    0.000    0.000    0.000    0.000 
#
# Total GULP energy -198255.021251 kJ/mol
# GULP energy per Si atom -12390.938828 kJ/mol
# Density = 2.280411 g / cm^3
# Si number density = 22.856132 Si / 1000 Ang^3
#
#
#
# Elastic Constant Matrix: (Units=GPa)
#
#
# Indices 1 2 3 4 5 6 
#
# 1 77.3173 18.5438 30.5913 11.6446 -0.7405 12.4500
# 2 18.5438 91.7310 19.0846 9.2047 19.7387 -0.9093
# 3 30.5913 19.0846 104.9458 4.0676 0.6192 -10.2599
# 4 11.6446 9.2047 4.0676 43.8508 3.3862 2.2429
# 5 -0.7405 19.7387 0.6192 3.3862 34.4513 8.0045
# 6 12.4500 -0.9093 -10.2599 2.2429 8.0045 36.0478
#
#
#
# Elastic Compliance Matrix: (Units=1/GPa)
#
#
# Indices 1 2 3 4 5 6 
#
# 1 0.017752 -0.003219 -0.005317 -0.003467 0.004647 -0.008542
# 2 -0.003219 0.013807 -0.001162 -0.001435 -0.008542 0.003115
# 3 -0.005317 -0.001162 0.011805 0.000360 -0.000940 0.005353
# 4 -0.003467 -0.001435 0.000360 0.024115 -0.001659 0.000132
# 5 0.004647 -0.008542 -0.000940 -0.001659 0.036547 -0.010100
# 6 -0.008542 0.003115 0.005353 0.000132 -0.010100 0.034528
#
#
# Mechanical properties :
#
#
# Convention : Reuss Voigt Hill
#
# Bulk Modulus (GPa) = 41.72382 45.60374 43.66378
# Shear Modulus (GPa) = 30.13172 36.58828 33.36000
#
# Velocity S-wave (km/s) = 3.63481 4.00535 3.82457
# Velocity P-wave (km/s) = 5.99253 6.43322 6.21678
#
# Compressibility (1/GPa) = 0.02396713
#
# Stress axis : x y z
#
# Youngs Moduli (GPa) = 56.33275 72.42814 84.71017
#
# Poissons Ratio (x) = 0.23315 0.45043
# Poissons Ratio (y) = 0.18134 0.09842
# Poissons Ratio (z) = 0.29954 0.08415
#
# Static dielectric constant tensor:
#      x y z
#    x 3.905840 -0.049810 -0.025420 
#    y -0.049810 4.312110 0.041700 
#    z -0.025420 0.041700 4.332560 
# 
# 
# High freq. dielectric constant tensor:
#      x y z
#    x 1.881670 -0.007600 -0.005520 
#    y -0.007600 1.908680 0.012580 
#    z -0.005520 0.012580 1.909060 
# 
# From -- ./inp_files/428093.got.cif
#   From: 2010.06.25/outbox.cif.g09.slc.cpg/sg2_215_cif.got.tgz:428093.got - 2010.06.27 13:26:56.
