data_PCOD8027538
_publ_section_title
;
Structure prediction by ZEFSAII (Michael W. Deem and Ramdas Pophale) SiO2 
 PCOD8027538
Probable space group: P -1
;
_chemical_formula_sum "Si O2"
_cell_formula_units_Z 14
_cell_length_a 16.732857
_cell_length_b 9.374967
_cell_length_c 15.888836
_cell_angle_alpha 31.866002
_cell_angle_beta 144.826864
_cell_angle_gamma 150.245007
_cell_volume 621.785635
_symmetry_space_group_name_H-M "P -1"
_symmetry_group_IT_number 2
_symmetry_cell_setting 'triclinic'
loop_
_space_group_symop_operation_xyz
x,y,z
-x,-y,-z
loop_
_atom_site_type_symbol
_atom_site_label
_atom_site_fract_x
_atom_site_fract_y
_atom_site_fract_z
Si Si1 0.932166 0.639319 0.309483
Si Si2 0.567351 0.344003 0.196333
Si Si3 0.550590 0.368384 0.357103
Si Si4 0.016888 0.335007 0.845266
Si Si5 0.343630 0.647501 0.069820
Si Si6 0.119437 0.374750 0.164596
Si Si7 0.734561 0.384034 0.657884
O O1 0.731461 0.418664 0.253795
O O2 0.981969 0.571747 0.296513
O O3 0.000000 0.500000 0.500000
O O4 0.014819 0.022290 0.205973
O O5 0.618554 0.513856 0.248803
O O6 0.433004 0.953346 0.284671
O O7 0.500000 0.500000 0.000000
O O8 0.389162 0.381364 0.228593
O O9 0.689871 0.550782 0.461161
O O10 0.500000 0.000000 0.500000
O O11 0.861524 0.298450 0.777004
O O12 0.192759 0.599250 0.908474
O O13 0.000000 0.000000 0.000000
O O14 0.289128 0.624063 0.131812
O O15 0.500000 0.000000 0.000000
O O16 0.179080 0.362964 0.316329
O O17 0.000000 0.500000 0.000000
#
# Coordination Sequence:
#
# PCOD8027538 Si02
#       7
#     2   2   2   2   2   2   2
#     4  12  28  44  74 108 143 182 243 297 351 422
#     4  11  23  42  73 104 139 183 246 281 347 429
#     4  10  24  45  71 104 142 185 234 293 355 418
#     4  12  22  48  72 101 139 196 239 287 352 429
#     4  12  28  44  75 105 144 185 244 291 356 426
#     4  12  26  49  70 106 149 190 233 296 362 424
#     4  11  25  44  73 100 146 190 229 298 364 412
#
# _framework density 22.515798
#
# number of rings (size 3 to 8) (size 9 to 14) (size 15 to 20)
#    0.000    0.571    2.857    5.143   10.000    1.714 
#    0.000    2.143    0.000    0.000    0.000    0.000 
#    0.000    0.000    0.000    0.000    0.000    0.000 
#
# Total GULP energy -173584.537741 kJ/mol
# GULP energy per Si atom -12398.895553 kJ/mol
# Density = 2.246455 g / cm^3
# Si number density = 22.515798 Si / 1000 Ang^3
#
#
#
# Elastic Constant Matrix: (Units=GPa)
#
#
# Indices 1 2 3 4 5 6 
#
# 1 134.8518 38.2208 29.4209 0.1385 -16.6555 5.5710
# 2 38.2208 93.4378 19.6947 12.7723 -3.0111 17.5697
# 3 29.4209 19.6947 124.6554 11.5846 -18.8547 -1.4456
# 4 0.1385 12.7723 11.5846 34.0559 -10.0901 -8.9917
# 5 -16.6555 -3.0111 -18.8547 -10.0901 53.0738 12.9410
# 6 5.5710 17.5697 -1.4456 -8.9917 12.9410 41.0622
#
#
#
# Elastic Compliance Matrix: (Units=1/GPa)
#
#
# Indices 1 2 3 4 5 6 
#
# 1 0.009093 -0.003706 -0.001406 0.002623 0.002631 0.000048
# 2 -0.003706 0.014775 -0.000907 -0.007228 -0.000226 -0.007363
# 3 -0.001406 -0.000907 0.009052 -0.002106 0.002401 -0.000320
# 4 0.002623 -0.007228 -0.002106 0.036520 0.004342 0.009291
# 5 0.002631 -0.000226 0.002401 0.004342 0.022904 -0.006443
# 6 0.000048 -0.007363 -0.000320 0.009291 -0.006443 0.031551
#
#
# Mechanical properties :
#
#
# Convention : Reuss Voigt Hill
#
# Bulk Modulus (GPa) = 47.88926 58.62420 53.25673
# Shear Modulus (GPa) = 34.99096 43.34562 39.16829
#
# Velocity S-wave (km/s) = 3.94644 4.39238 4.17537
# Velocity P-wave (km/s) = 6.48700 7.19843 6.85196
#
# Compressibility (1/GPa) = 0.02088151
#
# Stress axis : x y z
#
# Youngs Moduli (GPa) = 109.97587 67.68339 110.46684
#
# Poissons Ratio (x) = 0.25083 0.15530
# Poissons Ratio (y) = 0.40756 0.10025
# Poissons Ratio (z) = 0.15461 0.06142
#
# Static dielectric constant tensor:
#      x y z
#    x 4.568490 0.330830 0.305000 
#    y 0.330830 3.699980 0.278840 
#    z 0.305000 0.278840 4.724420 
# 
# 
# High freq. dielectric constant tensor:
#      x y z
#    x 1.907810 0.004890 -0.011520 
#    y 0.004890 1.873600 0.020470 
#    z -0.011520 0.020470 1.901490 
# 
# From -- ./inp_files/529316.got.cif
#   From: 2010.06.25/outbox.cif.g09.slc.cpg/sg2_265_cif.got.tgz:529316.got - 2010.06.27 13:26:56.
