data_PCOD8027548
_publ_section_title
;
Structure prediction by ZEFSAII (Michael W. Deem and Ramdas Pophale) SiO2 
 PCOD8027548
Probable space group: P -1
;
_chemical_formula_sum "Si O2"
_cell_formula_units_Z 16
_cell_length_a 13.106035
_cell_length_b 18.362682
_cell_length_c 9.029494
_cell_angle_alpha 149.912190
_cell_angle_beta 51.247491
_cell_angle_gamma 135.198864
_cell_volume 767.207785
_symmetry_space_group_name_H-M "P -1"
_symmetry_group_IT_number 2
_symmetry_cell_setting 'triclinic'
loop_
_space_group_symop_operation_xyz
x,y,z
-x,-y,-z
loop_
_atom_site_type_symbol
_atom_site_label
_atom_site_fract_x
_atom_site_fract_y
_atom_site_fract_z
Si Si1 0.640693 0.382103 0.739630
Si Si2 0.629411 0.695718 0.341753
Si Si3 0.097546 0.667930 0.129727
Si Si4 0.872967 0.351634 0.276602
Si Si5 0.874675 0.013898 0.725337
Si Si6 0.407439 0.322948 0.321708
Si Si7 0.407979 0.811709 0.254748
Si Si8 0.918967 0.868570 0.719524
O O1 0.481549 0.344730 0.762485
O O2 0.724463 0.345245 0.464610
O O3 0.630273 0.271488 0.695484
O O4 0.709459 0.574070 0.054567
O O5 0.733576 0.880924 0.541018
O O6 0.563722 0.685829 0.546332
O O7 0.255402 0.756251 0.213081
O O8 0.018417 0.785643 0.422201
O O9 0.116929 0.626933 0.870834
O O10 0.000000 0.500000 0.000000
O O11 0.000000 0.500000 0.500000
O O12 0.880848 0.188394 0.024911
O O13 0.881886 0.970332 0.810909
O O14 0.000000 0.000000 0.500000
O O15 0.500000 0.500000 0.500000
O O16 0.238980 0.267893 0.329342
O O17 0.474782 0.223407 0.999773
O O18 0.500000 0.000000 0.500000
O O19 0.000000 0.000000 0.000000
#
# Coordination Sequence:
#
# PCOD8027548 Si02
#       8
#     2   2   2   2   2   2   2   2
#     4  11  25  45  70 103 141 179 240 290 350 427
#     4  10  24  45  71  98 135 186 235 291 350 418
#     4  12  27  48  72 104 145 188 232 296 357 426
#     4  12  27  45  72 103 141 188 237 292 358 417
#     4  11  24  45  71  96 139 184 234 290 349 418
#     4  11  22  45  70  98 137 183 231 284 348 416
#     4  12  27  43  71 106 144 184 235 293 355 423
#     4  11  26  44  71 105 138 183 236 285 353 421
#
# _framework density 20.854845000000001
#
# number of rings (size 3 to 8) (size 9 to 14) (size 15 to 20)
#    0.000    0.750    2.500    3.750   12.250    1.500 
#    0.000    0.000    0.000    0.000    0.000    0.000 
#    0.000    0.000    0.000    0.000    0.000    0.000 
#
# Total GULP energy -198322.745470 kJ/mol
# GULP energy per Si atom -12395.171592 kJ/mol
# Density = 2.080738 g / cm^3
# Si number density = 20.854845 Si / 1000 Ang^3
#
#
#
# Elastic Constant Matrix: (Units=GPa)
#
#
# Indices 1 2 3 4 5 6 
#
# 1 128.9452 60.4226 49.2056 6.2694 13.1231 8.1476
# 2 60.4226 138.3657 77.2579 10.5833 3.8134 3.5993
# 3 49.2056 77.2579 170.4774 2.6600 -0.2521 -0.0095
# 4 6.2694 10.5833 2.6600 55.8765 5.0825 2.4483
# 5 13.1231 3.8134 -0.2521 5.0825 34.7181 0.4979
# 6 8.1476 3.5993 -0.0095 2.4483 0.4979 36.8923
#
#
#
# Elastic Compliance Matrix: (Units=1/GPa)
#
#
# Indices 1 2 3 4 5 6 
#
# 1 0.010475 -0.003662 -0.001369 -0.000011 -0.003538 -0.001908
# 2 -0.003662 0.011159 -0.003975 -0.001538 0.000357 -0.000184
# 3 -0.001369 -0.003975 0.008058 0.000409 0.000943 0.000652
# 4 -0.000011 -0.001538 0.000409 0.018443 -0.002509 -0.001037
# 5 -0.003538 0.000357 0.000943 -0.002509 0.030468 0.000502
# 6 -0.001908 -0.000184 0.000652 -0.001037 0.000502 0.027607
#
#
# Mechanical properties :
#
#
# Convention : Reuss Voigt Hill
#
# Bulk Modulus (GPa) = 85.62814 90.17338 87.90076
# Shear Modulus (GPa) = 39.02721 42.22419 40.62570
#
# Velocity S-wave (km/s) = 4.33063 4.50452 4.41843
# Velocity P-wave (km/s) = 8.13351 8.38968 8.26259
#
# Compressibility (1/GPa) = 0.01167840
#
# Stress axis : x y z
#
# Youngs Moduli (GPa) = 95.46802 89.61716 124.10439
#
# Poissons Ratio (x) = 0.32816 0.16991
# Poissons Ratio (y) = 0.34958 0.49338
# Poissons Ratio (z) = 0.13070 0.35627
#
# Static dielectric constant tensor:
#      x y z
#    x 3.829070 0.082710 0.064820 
#    y 0.082710 4.138570 0.003950 
#    z 0.064820 0.003950 3.997370 
# 
# 
# High freq. dielectric constant tensor:
#      x y z
#    x 1.821720 0.003450 0.003600 
#    y 0.003450 1.832780 0.002460 
#    z 0.003600 0.002460 1.840670 
# 
# From -- ./inp_files/260300.got.cif
#   From: 2010.06.25/outbox.cif.g09.slc.cpg/sg2_131_cif.got.tgz:260300.got - 2010.06.27 13:26:56.
