data_PCOD8027776
_publ_section_title
;
Structure prediction by ZEFSAII (Michael W. Deem and Ramdas Pophale) SiO2 
 PCOD8027776
Probable space group: P -1
;
_chemical_formula_sum "Si O2"
_cell_formula_units_Z 14
_cell_length_a 8.783247
_cell_length_b 8.687828
_cell_length_c 10.069039
_cell_angle_alpha 104.057223
_cell_angle_beta 113.663335
_cell_angle_gamma 114.980963
_cell_volume 553.643354
_symmetry_space_group_name_H-M "P -1"
_symmetry_group_IT_number 2
_symmetry_cell_setting 'triclinic'
loop_
_space_group_symop_operation_xyz
x,y,z
-x,-y,-z
loop_
_atom_site_type_symbol
_atom_site_label
_atom_site_fract_x
_atom_site_fract_y
_atom_site_fract_z
Si Si1 0.873330 0.072027 0.602875
Si Si2 0.187204 0.748162 0.917598
Si Si3 0.312860 0.357186 0.582342
Si Si4 0.640918 0.911612 0.749527
Si Si5 0.715497 0.550091 0.132390
Si Si6 0.196908 0.719810 0.611894
Si Si7 0.752603 0.620308 0.726559
O O1 0.707009 0.012177 0.648585
O O2 0.845631 0.166842 0.485986
O O3 0.095817 0.224281 0.783825
O O4 0.841872 0.875543 0.495925
O O5 0.245528 0.600857 0.946802
O O6 0.226997 0.809417 0.789372
O O7 0.951250 0.644065 0.858233
O O8 0.323575 0.941177 0.092215
O O9 0.291181 0.474518 0.715572
O O10 0.548600 0.426393 0.675866
O O11 0.249919 0.410684 0.438013
O O12 0.398380 0.741215 0.633241
O O13 0.757756 0.811669 0.799720
O O14 0.500000 0.500000 0.000000
O O15 0.000000 0.500000 0.500000
#
# Coordination Sequence:
#
# PCOD8027776 Si02
#       7
#     2   2   2   2   2   2   2
#     4  11  26  49  81 109 151 202 259 308 378 449
#     4  12  27  48  80 109 155 203 249 314 387 450
#     4  10  24  47  78 109 149 203 251 314 372 451
#     4  11  27  50  75 118 153 199 250 317 381 453
#     4  12  28  48  72 112 156 195 252 315 382 444
#     4  12  26  49  79 113 151 198 259 308 378 454
#     4  10  24  46  81 110 152 194 259 310 380 447
#
# _framework density 25.287037000000002
#
# number of rings (size 3 to 8) (size 9 to 14) (size 15 to 20)
#    0.000    0.857    1.429    3.429   10.000    2.857 
#    5.143    0.000    0.000    0.000    0.000    0.000 
#    0.000    0.000    0.000    0.000    0.000    0.000 
#
# Total GULP energy -173588.856346 kJ/mol
# GULP energy per Si atom -12399.204025 kJ/mol
# Density = 2.522948 g / cm^3
# Si number density = 25.287037 Si / 1000 Ang^3
#
#
#
# Elastic Constant Matrix: (Units=GPa)
#
#
# Indices 1 2 3 4 5 6 
#
# 1 94.4150 42.9038 42.2180 4.8320 25.3323 -34.1577
# 2 42.9038 111.4384 45.2497 20.5499 5.9874 -0.8974
# 3 42.2180 45.2497 103.6531 19.8883 -6.4017 -18.8154
# 4 4.8320 20.5499 19.8883 35.2876 4.0438 -2.8111
# 5 25.3323 5.9874 -6.4017 4.0438 66.1671 4.4407
# 6 -34.1577 -0.8974 -18.8154 -2.8111 4.4407 48.6121
#
#
#
# Elastic Compliance Matrix: (Units=1/GPa)
#
#
# Indices 1 2 3 4 5 6 
#
# 1 0.025782 -0.008096 -0.005937 0.007189 -0.011301 0.017116
# 2 -0.008096 0.014237 -0.002826 -0.006433 0.002408 -0.007112
# 3 -0.005937 -0.002826 0.014936 -0.006390 0.004311 0.000794
# 4 0.007189 -0.006433 -0.006390 0.035709 -0.005307 0.005009
# 5 -0.011301 0.002408 0.004311 -0.005307 0.020528 -0.008409
# 6 0.017116 -0.007112 0.000794 0.005009 -0.008409 0.033832
#
#
# Mechanical properties :
#
#
# Convention : Reuss Voigt Hill
#
# Bulk Modulus (GPa) = 47.08650 63.36105 55.22378
# Shear Modulus (GPa) = 26.90779 41.95569 34.43174
#
# Velocity S-wave (km/s) = 3.26558 4.07772 3.69404
# Velocity P-wave (km/s) = 5.73410 6.87616 6.33094
#
# Compressibility (1/GPa) = 0.02123751
#
# Stress axis : x y z
#
# Youngs Moduli (GPa) = 38.78717 70.23717 66.95358
#
# Poissons Ratio (x) = 0.56864 0.39750
# Poissons Ratio (y) = 0.31402 0.18920
# Poissons Ratio (z) = 0.23028 0.19848
#
# Static dielectric constant tensor:
#      x y z
#    x 4.983450 0.325180 0.074890 
#    y 0.325180 4.513080 0.111090 
#    z 0.074890 0.111090 4.852280 
# 
# 
# High freq. dielectric constant tensor:
#      x y z
#    x 2.037240 0.013720 -0.001790 
#    y 0.013720 2.000830 0.017770 
#    z -0.001790 0.017770 2.010560 
# 
# From -- ./inp_files/383034.got.cif
#   From: 2010.06.25/outbox.cif.g09.slc.cpg/sg2_192_cif.got.tgz:383034.got - 2010.06.27 13:26:56.
