data_PCOD8027531
_publ_section_title
;
Structure prediction by ZEFSAII (Michael W. Deem and Ramdas Pophale) SiO2 
 PCOD8027531
Probable space group: P -1
;
_chemical_formula_sum "Si O2"
_cell_formula_units_Z 16
_cell_length_a 9.259898
_cell_length_b 15.483177
_cell_length_c 15.036031
_cell_angle_alpha 30.279818
_cell_angle_beta 101.456719
_cell_angle_gamma 80.035089
_cell_volume 763.633949
_symmetry_space_group_name_H-M "P -1"
_symmetry_group_IT_number 2
_symmetry_cell_setting 'triclinic'
loop_
_space_group_symop_operation_xyz
x,y,z
-x,-y,-z
loop_
_atom_site_type_symbol
_atom_site_label
_atom_site_fract_x
_atom_site_fract_y
_atom_site_fract_z
Si Si1 0.755961 0.499673 0.019812
Si Si2 0.632261 0.313443 0.304335
Si Si3 0.420445 0.836309 0.125693
Si Si4 0.114535 0.236301 0.161798
Si Si5 0.858745 0.041198 0.869511
Si Si6 0.509545 0.472364 0.337681
Si Si7 0.192999 0.345490 0.597230
Si Si8 0.126966 0.570886 0.214593
O O1 0.759724 0.355006 0.228416
O O2 0.973884 0.312591 0.162630
O O3 0.561921 0.605724 0.842747
O O4 0.735399 0.718392 0.850751
O O5 0.555008 0.479456 0.234270
O O6 0.764573 0.039669 0.593667
O O7 0.300690 0.944314 0.108190
O O8 0.374486 0.721801 0.152484
O O9 0.660637 0.624921 0.370759
O O10 0.345618 0.061542 0.862751
O O11 0.967017 0.408743 0.908662
O O12 0.726740 0.283594 0.582300
O O13 0.000000 0.000000 0.000000
O O14 0.993371 0.836899 0.995661
O O15 0.368190 0.417558 0.369119
O O16 0.110984 0.436627 0.406228
O O17 0.000000 0.500000 0.500000
#
# Coordination Sequence:
#
# PCOD8027531 Si02
#       8
#     2   2   2   2   2   2   2   2
#     4  10  24  45  71 100 129 174 217 272 348 412
#     4  11  23  45  70 100 137 169 218 281 334 407
#     4  11  24  40  61  91 127 175 222 268 325 389
#     4  11  23  45  70  99 133 172 220 273 345 403
#     4  12  22  39  67  89 125 174 219 267 322 385
#     4  12  24  41  64  97 131 168 228 270 328 402
#     4  11  24  41  59  88 133 175 220 275 327 384
#     4  12  23  41  64  93 129 172 221 273 329 396
#
# _framework density 20.952446999999999
#
# number of rings (size 3 to 8) (size 9 to 14) (size 15 to 20)
#    0.000    0.750    6.250    1.875    0.000    1.000 
#    4.500    1.250    0.000    0.000    0.000    0.000 
#    0.000    0.000    0.000    0.000    0.000    0.000 
#
# Total GULP energy -198228.216989 kJ/mol
# GULP energy per Si atom -12389.263562 kJ/mol
# Density = 2.090476 g / cm^3
# Si number density = 20.952447 Si / 1000 Ang^3
#
#
#
# Elastic Constant Matrix: (Units=GPa)
#
#
# Indices 1 2 3 4 5 6 
#
# 1 116.2673 33.2327 25.1581 15.4104 1.1417 -7.4941
# 2 33.2327 100.5800 25.2865 17.8914 -6.4436 -8.5177
# 3 25.1581 25.2865 90.4101 19.6134 -2.8827 -0.8861
# 4 15.4104 17.8914 19.6134 36.3401 -2.2561 -0.3565
# 5 1.1417 -6.4436 -2.8827 -2.2561 35.5551 2.5325
# 6 -7.4941 -8.5177 -0.8861 -0.3565 2.5325 33.8867
#
#
#
# Elastic Compliance Matrix: (Units=1/GPa)
#
#
# Indices 1 2 3 4 5 6 
#
# 1 0.010071 -0.002452 -0.001655 -0.002227 -0.001159 0.001631
# 2 -0.002452 0.012201 -0.001816 -0.003857 0.001734 0.002307
# 3 -0.001655 -0.001816 0.013237 -0.005524 0.000487 -0.000571
# 4 -0.002227 -0.003857 -0.005524 0.033400 0.001139 -0.001340
# 5 -0.001159 0.001734 0.000487 0.001139 0.028727 -0.001943
# 6 0.001631 0.002307 -0.000571 -0.001340 -0.001943 0.030567
#
#
# Mechanical properties :
#
#
# Convention : Reuss Voigt Hill
#
# Bulk Modulus (GPa) = 42.25496 52.73470 47.49483
# Shear Modulus (GPa) = 33.79816 36.06173 34.92994
#
# Velocity S-wave (km/s) = 4.02068 4.15314 4.08745
# Velocity P-wave (km/s) = 6.46262 6.94417 6.70772
#
# Compressibility (1/GPa) = 0.02366586
#
# Stress axis : x y z
#
# Youngs Moduli (GPa) = 99.29160 81.95728 75.54396
#
# Poissons Ratio (x) = 0.20094 0.12500
# Poissons Ratio (y) = 0.24344 0.13716
# Poissons Ratio (z) = 0.16430 0.14881
#
# Static dielectric constant tensor:
#      x y z
#    x -4.804190 -4.525930 -7.560050 
#    y -4.525930 1.225490 -3.981750 
#    z -7.560050 -3.981750 -2.873040 
# 
# 
# High freq. dielectric constant tensor:
#      x y z
#    x 1.824340 -0.007450 0.010960 
#    y -0.007450 1.822680 0.006930 
#    z 0.010960 0.006930 1.822650 
# 
# From -- ./inp_files/38517.got.cif
#   From: 2010.06.25/outbox.cif.g09.slc.cpg/sg2_20_cif.got.tgz:38517.got - 2010.06.27 13:26:56.
