data_PCOD8027495
_publ_section_title
;
Structure prediction by ZEFSAII (Michael W. Deem and Ramdas Pophale) SiO2 
 PCOD8027495
Probable space group: P -1
;
_chemical_formula_sum "Si O2"
_cell_formula_units_Z 12
_cell_length_a 17.533502
_cell_length_b 8.760861
_cell_length_c 5.454410
_cell_angle_alpha 103.045070
_cell_angle_beta 129.393317
_cell_angle_gamma 53.377061
_cell_volume 503.631168
_symmetry_space_group_name_H-M "P -1"
_symmetry_group_IT_number 2
_symmetry_cell_setting 'triclinic'
loop_
_space_group_symop_operation_xyz
x,y,z
-x,-y,-z
loop_
_atom_site_type_symbol
_atom_site_label
_atom_site_fract_x
_atom_site_fract_y
_atom_site_fract_z
Si Si1 0.010326 0.854094 0.657944
Si Si2 0.825958 0.071416 0.742848
Si Si3 0.844640 0.736218 0.884069
Si Si4 0.137711 0.423118 0.641413
Si Si5 0.569912 0.473960 0.380692
Si Si6 0.373345 0.216708 0.330666
O O1 0.081736 0.648403 0.594964
O O2 0.102193 0.833465 0.047216
O O3 0.000000 0.000000 0.500000
O O4 0.877874 0.940863 0.549233
O O5 0.683454 0.247191 0.505968
O O6 0.844139 0.926484 0.947697
O O7 0.905334 0.615695 0.713759
O O8 0.707493 0.790893 0.625440
O O9 0.917159 0.616996 0.241372
O O10 0.288266 0.286707 0.934306
O O11 0.500000 0.500000 0.500000
O O12 0.603862 0.624355 0.500617
O O13 0.500000 0.500000 0.000000
O O14 0.500000 0.000000 0.500000
#
# Coordination Sequence:
#
# PCOD8027495 Si02
#       6
#     2   2   2   2   2   2
#     4  11  27  45  79  99 151 192 240 303 354 436
#     4  11  26  48  69 112 141 192 247 294 364 428
#     4  10  25  43  73  96 148 180 242 289 360 417
#     4  10  25  46  68 105 138 189 231 299 351 426
#     4  12  29  45  76 106 147 189 242 300 361 430
#     4  10  24  45  70 101 145 186 241 288 360 420
#
# _framework density 23.826961000000001
#
# number of rings (size 3 to 8) (size 9 to 14) (size 15 to 20)
#    1.000    0.333    1.667    1.000   16.333    2.000 
#    0.000    0.000    0.000    0.000    0.000    0.000 
#    0.000    0.000    0.000    0.000    0.000    0.000 
#
# Total GULP energy -148710.765383 kJ/mol
# GULP energy per Si atom -12392.563782 kJ/mol
# Density = 2.377273 g / cm^3
# Si number density = 23.826961 Si / 1000 Ang^3
#
#
#
# Elastic Constant Matrix: (Units=GPa)
#
#
# Indices 1 2 3 4 5 6 
#
# 1 144.1498 54.8868 44.0379 -4.0042 -10.9370 -2.0726
# 2 54.8868 169.3162 63.6430 -20.8726 -10.0620 2.2225
# 3 44.0379 63.6430 145.3334 -1.6991 -18.3208 -9.3261
# 4 -4.0042 -20.8726 -1.6991 52.7539 6.0099 4.0716
# 5 -10.9370 -10.0620 -18.3208 6.0099 35.3311 4.8713
# 6 -2.0726 2.2225 -9.3261 4.0716 4.8713 53.7536
#
#
#
# Elastic Compliance Matrix: (Units=1/GPa)
#
#
# Indices 1 2 3 4 5 6 
#
# 1 0.008264 -0.002123 -0.001413 -0.000410 0.001280 0.000076
# 2 -0.002123 0.008087 -0.002968 0.003060 -0.000256 -0.001140
# 3 -0.001413 -0.002968 0.009126 -0.001498 0.003505 0.001447
# 4 -0.000410 0.003060 -0.001498 0.020592 -0.003306 -0.001663
# 5 0.001280 -0.000256 0.003505 -0.003306 0.031271 -0.001915
# 6 0.000076 -0.001140 0.001447 -0.001663 -0.001915 0.019204
#
#
# Mechanical properties :
#
#
# Convention : Reuss Voigt Hill
#
# Bulk Modulus (GPa) = 80.19901 87.10389 83.65145
# Shear Modulus (GPa) = 43.97240 48.11649 46.04444
#
# Velocity S-wave (km/s) = 4.30058 4.49866 4.40073
# Velocity P-wave (km/s) = 7.64146 7.97623 7.81064
#
# Compressibility (1/GPa) = 0.01246898
#
# Stress axis : x y z
#
# Youngs Moduli (GPa) = 121.00397 123.65724 109.58237
#
# Poissons Ratio (x) = 0.26258 0.15482
# Poissons Ratio (y) = 0.25694 0.32520
# Poissons Ratio (z) = 0.17096 0.36696
#
# Static dielectric constant tensor:
#      x y z
#    x 4.647020 0.250700 0.350390 
#    y 0.250700 4.492070 0.229810 
#    z 0.350390 0.229810 4.583140 
# 
# 
# High freq. dielectric constant tensor:
#      x y z
#    x 1.957260 0.004690 0.007370 
#    y 0.004690 1.960190 -0.001850 
#    z 0.007370 -0.001850 1.955020 
# 
# From -- ./inp_files/95699.got.cif
#   From: 2010.06.25/outbox.cif.g09.slc.cpg/sg2_48_cif.got.tgz:95699.got - 2010.06.27 13:26:56.
