data_PCOD8027735
_publ_section_title
;
Structure prediction by ZEFSAII (Michael W. Deem and Ramdas Pophale) SiO2 
 PCOD8027735
Probable space group: P -1
;
_chemical_formula_sum "Si O2"
_cell_formula_units_Z 14
_cell_length_a 21.347975
_cell_length_b 8.678717
_cell_length_c 8.900828
_cell_angle_alpha 100.286028
_cell_angle_beta 44.406723
_cell_angle_gamma 136.510903
_cell_volume 562.864780
_symmetry_space_group_name_H-M "P -1"
_symmetry_group_IT_number 2
_symmetry_cell_setting 'triclinic'
loop_
_space_group_symop_operation_xyz
x,y,z
-x,-y,-z
loop_
_atom_site_type_symbol
_atom_site_label
_atom_site_fract_x
_atom_site_fract_y
_atom_site_fract_z
Si Si1 0.432017 0.352101 0.751248
Si Si2 0.033303 0.369395 0.121912
Si Si3 0.642413 0.216140 0.533024
Si Si4 0.104499 0.044790 0.213059
Si Si5 0.214527 0.240570 0.717679
Si Si6 0.285008 0.809174 0.004904
Si Si7 0.820686 0.344612 0.515824
O O1 0.500000 0.500000 0.500000
O O2 0.619706 0.630996 0.571385
O O3 0.344578 0.046920 0.845379
O O4 0.281409 0.252182 0.039130
O O5 0.902169 0.312425 0.294925
O O6 0.956054 0.089481 0.138513
O O7 0.230630 0.703051 0.769929
O O8 0.091595 0.447088 0.212419
O O9 0.722353 0.511450 0.436743
O O10 0.658233 0.172624 0.667052
O O11 0.436866 0.901408 0.767538
O O12 0.166948 0.207247 0.969793
O O13 0.000000 0.000000 0.500000
O O14 0.979812 0.709665 0.327137
O O15 0.261934 0.835377 0.217401
#
# Coordination Sequence:
#
# PCOD8027735 Si02
#       7
#     2   2   2   2   2   2   2
#     4   9  21  46  70 101 138 185 239 278 344 423
#     4  12  24  45  74 103 143 183 234 291 343 418
#     4  11  25  46  70 102 143 189 235 280 343 426
#     4  11  24  43  72 106 144 186 235 289 349 418
#     4  10  24  46  73 102 140 189 239 282 345 419
#     4  11  25  46  70 103 144 182 233 290 350 410
#     4  12  26  44  71 106 145 181 232 291 358 403
#
# _framework density 24.872758000000001
#
# number of rings (size 3 to 8) (size 9 to 14) (size 15 to 20)
#    0.000    1.143    2.857    2.143    2.000    0.000 
#    7.714    1.429    0.000    0.000    0.000    0.000 
#    0.000    0.000    0.000    0.000    0.000    0.000 
#
# Total GULP energy -173433.171362 kJ/mol
# GULP energy per Si atom -12388.083669 kJ/mol
# Density = 2.481615 g / cm^3
# Si number density = 24.872758 Si / 1000 Ang^3
#
#
#
# Elastic Constant Matrix: (Units=GPa)
#
#
# Indices 1 2 3 4 5 6 
#
# 1 175.8588 39.1100 55.0239 4.6597 -20.0063 10.7085
# 2 39.1100 77.7964 17.8808 9.5040 3.4766 4.0135
# 3 55.0239 17.8808 91.2320 14.8416 -24.4383 -3.9079
# 4 4.6597 9.5040 14.8416 33.5639 -3.9922 -6.1539
# 5 -20.0063 3.4766 -24.4383 -3.9922 54.6056 -5.1746
# 6 10.7085 4.0135 -3.9079 -6.1539 -5.1746 25.2457
#
#
#
# Elastic Compliance Matrix: (Units=1/GPa)
#
#
# Indices 1 2 3 4 5 6 
#
# 1 0.007970 -0.003061 -0.004265 0.001206 0.001005 -0.003054
# 2 -0.003061 0.015594 -0.001567 -0.004287 -0.003430 -0.003171
# 3 -0.004265 -0.001567 0.016399 -0.004644 0.005982 0.004691
# 4 0.001206 -0.004287 -0.004644 0.034648 0.001956 0.008298
# 5 0.001005 -0.003430 0.005982 0.001956 0.022297 0.006092
# 6 -0.003054 -0.003171 0.004691 0.008298 0.006092 0.045408
#
#
# Mechanical properties :
#
#
# Convention : Reuss Voigt Hill
#
# Bulk Modulus (GPa) = 45.09207 63.21294 54.15251
# Shear Modulus (GPa) = 29.85194 38.20787 34.02991
#
# Velocity S-wave (km/s) = 3.46813 3.92361 3.70288
# Velocity P-wave (km/s) = 5.84856 6.78203 6.33252
#
# Compressibility (1/GPa) = 0.02217685
#
# Stress axis : x y z
#
# Youngs Moduli (GPa) = 125.47306 64.12842 60.97942
#
# Poissons Ratio (x) = 0.19630 0.26005
# Poissons Ratio (y) = 0.38408 0.09557
# Poissons Ratio (z) = 0.53509 0.10050
#
# Static dielectric constant tensor:
#      x y z
#    x 6.057950 0.265420 -1.331070 
#    y 0.265420 4.147190 -0.136960 
#    z -1.331070 -0.136960 5.784010 
# 
# 
# High freq. dielectric constant tensor:
#      x y z
#    x 2.016020 -0.002680 -0.019860 
#    y -0.002680 1.959720 -0.005280 
#    z -0.019860 -0.005280 1.997120 
# 
# From -- ./inp_files/342743.got.cif
#   From: 2010.06.25/outbox.cif.g09.slc.cpg/sg2_172_cif.got.tgz:342743.got - 2010.06.27 13:26:56.
