data_PCOD8027023
_publ_section_title
;
Structure prediction by ZEFSAII (Michael W. Deem and Ramdas Pophale) SiO2 
 PCOD8027023
Probable space group: P -1
;
_chemical_formula_sum "Si O2"
_cell_formula_units_Z 14
_cell_length_a 13.780096
_cell_length_b 14.498556
_cell_length_c 8.617267
_cell_angle_alpha 86.718729
_cell_angle_beta 108.190593
_cell_angle_gamma 32.875832
_cell_volume 697.023182
_symmetry_space_group_name_H-M "P -1"
_symmetry_group_IT_number 2
_symmetry_cell_setting 'triclinic'
loop_
_space_group_symop_operation_xyz
x,y,z
-x,-y,-z
loop_
_atom_site_type_symbol
_atom_site_label
_atom_site_fract_x
_atom_site_fract_y
_atom_site_fract_z
Si Si1 0.870253 0.750725 0.915908
Si Si2 0.012455 0.499824 0.756187
Si Si3 0.430017 0.400780 0.818912
Si Si4 0.633742 0.366067 0.424352
Si Si5 0.768648 0.400935 0.987883
Si Si6 0.628580 0.749958 0.295975
Si Si7 0.932433 0.067714 0.137728
O O1 0.893343 0.686667 0.762008
O O2 0.053100 0.687363 0.024476
O O3 0.605642 0.000520 0.802115
O O4 0.946087 0.613680 0.089888
O O5 0.827010 0.611745 0.531759
O O6 0.266032 0.314061 0.816535
O O7 0.322268 0.576541 0.656243
O O8 0.281776 0.499788 0.891005
O O9 0.428833 0.312296 0.716491
O O10 0.693964 0.205106 0.032711
O O11 0.500000 0.500000 0.500000
O O12 0.474690 0.423542 0.242923
O O13 0.883284 0.116518 0.621884
O O14 0.896243 0.205057 0.133338
O O15 0.000000 0.000000 0.000000
#
# Coordination Sequence:
#
# PCOD8027023 Si02
#       7
#     2   2   2   2   2   2   2
#     4  11  23  42  68  92 126 166 207 259 318 370
#     4  10  24  44  64  96 124 160 214 264 310 372
#     4  11  24  40  61  93 129 162 207 260 309 371
#     4  11  23  39  62  91 124 165 211 252 303 376
#     4  11  24  40  61  93 129 162 207 260 309 371
#     4  11  23  42  68  92 126 166 207 259 318 370
#     4  11  21  39  62  89 122 163 207 250 308 366
#
# _framework density 20.085415000000001
#
# number of rings (size 3 to 8) (size 9 to 14) (size 15 to 20)
#    0.000    1.143    4.286    3.429    2.000    2.286 
#    0.000    0.000    0.000    0.000    0.000    0.000 
#    0.000    0.000    0.000    0.000    0.000    0.000 
#
# Total GULP energy -173573.677788 kJ/mol
# GULP energy per Si atom -12398.119842 kJ/mol
# Density = 2.003970 g / cm^3
# Si number density = 20.085415 Si / 1000 Ang^3
#
#
#
# Elastic Constant Matrix: (Units=GPa)
#
#
# Indices 1 2 3 4 5 6 
#
# 1 117.3485 47.3013 53.3470 -8.9952 15.3433 -0.4846
# 2 47.3013 139.7355 48.2491 -1.8112 4.3080 -4.4006
# 3 53.3470 48.2491 113.2737 -17.0696 -10.1389 12.1488
# 4 -8.9952 -1.8112 -17.0696 39.9934 0.1427 -2.1122
# 5 15.3433 4.3080 -10.1389 0.1427 23.0870 7.6022
# 6 -0.4846 -4.4006 12.1488 -2.1122 7.6022 36.7955
#
#
#
# Elastic Compliance Matrix: (Units=1/GPa)
#
#
# Indices 1 2 3 4 5 6 
#
# 1 0.014997 -0.001505 -0.008425 0.000079 -0.015354 0.005976
# 2 -0.001505 0.009275 -0.004118 -0.001500 -0.003549 0.003096
# 3 -0.008425 -0.004118 0.017918 0.004984 0.017445 -0.009837
# 4 0.000079 -0.001500 0.004984 0.027031 0.002509 -0.000791
# 5 -0.015354 -0.003549 0.017445 0.002509 0.068545 -0.020404
# 6 0.005976 0.003096 -0.009837 -0.000791 -0.020404 0.035044
#
#
# Mechanical properties :
#
#
# Convention : Reuss Voigt Hill
#
# Bulk Modulus (GPa) = 70.95247 74.23917 72.59582
# Shear Modulus (GPa) = 24.31875 34.73919 29.52897
#
# Velocity S-wave (km/s) = 3.48338 4.16333 3.83844
# Velocity P-wave (km/s) = 7.18197 7.75584 7.47441
#
# Compressibility (1/GPa) = 0.01409394
#
# Stress axis : x y z
#
# Youngs Moduli (GPa) = 66.68223 107.81582 55.81108
#
# Poissons Ratio (x) = 0.16224 0.47021
# Poissons Ratio (y) = 0.10034 0.22982
# Poissons Ratio (z) = 0.56180 0.44397
#
# Static dielectric constant tensor:
#      x y z
#    x 3.671960 -0.300090 0.146720 
#    y -0.300090 4.827010 0.106720 
#    z 0.146720 0.106720 3.218880 
# 
# 
# High freq. dielectric constant tensor:
#      x y z
#    x 1.791190 -0.005240 0.002870 
#    y -0.005240 1.801560 0.007800 
#    z 0.002870 0.007800 1.779280 
# 
# From -- ./inp_files/176952.got.cif
#   From: 2010.06.25/outbox.cif.g09.slc.cpg/sg2_89_cif.got.tgz:176952.got - 2010.06.27 13:26:56.
