data_PCOD8027308
_publ_section_title
;
Structure prediction by ZEFSAII (Michael W. Deem and Ramdas Pophale) SiO2 
 PCOD8027308
Probable space group: P -1
;
_chemical_formula_sum "Si O2"
_cell_formula_units_Z 16
_cell_length_a 9.685576
_cell_length_b 12.867699
_cell_length_c 11.330655
_cell_angle_alpha 90.315331
_cell_angle_beta 58.608362
_cell_angle_gamma 47.201160
_cell_volume 724.383920
_symmetry_space_group_name_H-M "P -1"
_symmetry_group_IT_number 2
_symmetry_cell_setting 'triclinic'
loop_
_space_group_symop_operation_xyz
x,y,z
-x,-y,-z
loop_
_atom_site_type_symbol
_atom_site_label
_atom_site_fract_x
_atom_site_fract_y
_atom_site_fract_z
Si Si1 0.346017 0.035069 0.725821
Si Si2 0.511891 0.477180 0.650810
Si Si3 0.069077 0.926689 0.102233
Si Si4 0.995597 0.078237 0.387436
Si Si5 0.825599 0.462958 0.360956
Si Si6 0.176407 0.293180 0.642626
Si Si7 0.646082 0.916334 0.812727
Si Si8 0.427373 0.458941 0.131829
O O1 0.624489 0.854717 0.543845
O O2 0.406072 0.999871 0.837040
O O3 0.099474 0.090094 0.799239
O O4 0.255308 0.197494 0.729543
O O5 0.719539 0.281394 0.520140
O O6 0.591351 0.546159 0.555650
O O7 0.221113 0.582786 0.737158
O O8 0.498845 0.504598 0.793011
O O9 0.007959 0.026057 0.247501
O O10 0.386805 0.738694 0.958587
O O11 0.000000 0.000000 0.000000
O O12 0.244204 0.030591 0.286541
O O13 0.000000 0.000000 0.500000
O O14 0.788471 0.602879 0.353067
O O15 0.117122 0.290337 0.284788
O O16 0.878427 0.421076 0.730630
O O17 0.500000 0.000000 0.000000
O O18 0.500000 0.500000 0.000000
#
# Coordination Sequence:
#
# PCOD8027308 Si02
#       8
#     2   2   2   2   2   2   2   2
#     4  11  26  46  71 101 143 183 236 292 358 438
#     4  10  24  44  73 100 137 182 239 288 349 439
#     4  12  28  45  76 109 146 186 240 307 369 419
#     4  11  25  46  75 102 141 197 241 285 363 448
#     4  10  24  44  72  99 134 182 237 287 352 432
#     4  11  25  45  72 102 137 187 239 290 355 432
#     4  11  26  44  66 102 144 179 232 301 357 421
#     4  12  26  47  68 103 145 184 235 303 359 418
#
# _framework density 22.087734999999999
#
# number of rings (size 3 to 8) (size 9 to 14) (size 15 to 20)
#    0.000    1.000    1.250    3.750   17.500    1.000 
#    0.000    1.250    0.000    0.000    0.000    0.000 
#    0.000    0.000    0.000    0.000    0.000    0.000 
#
# Total GULP energy -198297.362507 kJ/mol
# GULP energy per Si atom -12393.585157 kJ/mol
# Density = 2.203746 g / cm^3
# Si number density = 22.087735 Si / 1000 Ang^3
#
#
#
# Elastic Constant Matrix: (Units=GPa)
#
#
# Indices 1 2 3 4 5 6 
#
# 1 83.5025 25.8278 4.8297 -6.8060 10.4404 0.3380
# 2 25.8278 115.4192 33.5308 -6.5522 1.3125 11.7880
# 3 4.8297 33.5308 67.8097 -9.5281 13.1237 3.7552
# 4 -6.8060 -6.5522 -9.5281 30.5514 -4.0340 0.3854
# 5 10.4404 1.3125 13.1237 -4.0340 49.4027 -6.9724
# 6 0.3380 11.7880 3.7552 0.3854 -6.9724 40.6504
#
#
#
# Elastic Compliance Matrix: (Units=1/GPa)
#
#
# Indices 1 2 3 4 5 6 
#
# 1 0.013477 -0.003324 0.001583 0.002390 -0.002960 0.000175
# 2 -0.003324 0.011237 -0.005449 0.000202 0.001519 -0.002469
# 3 0.001583 -0.005449 0.018988 0.004456 -0.005024 -0.001091
# 4 0.002390 0.000202 0.004456 0.034845 0.001061 -0.000638
# 5 -0.002960 0.001519 -0.005024 0.001061 0.022806 0.003950
# 6 0.000175 -0.002469 -0.001091 -0.000638 0.003950 0.026099
#
#
# Mechanical properties :
#
#
# Convention : Reuss Voigt Hill
#
# Bulk Modulus (GPa) = 34.10496 43.90090 39.00293
# Shear Modulus (GPa) = 32.98043 37.62378 35.30211
#
# Velocity S-wave (km/s) = 3.86833 4.13168 4.00217
# Velocity P-wave (km/s) = 5.95199 6.53298 6.24924
#
# Compressibility (1/GPa) = 0.02932125
#
# Stress axis : x y z
#
# Youngs Moduli (GPa) = 74.20321 88.98999 52.66583
#
# Poissons Ratio (x) = 0.29581 -0.08336
# Poissons Ratio (y) = 0.24666 0.28697
# Poissons Ratio (z) = -0.11746 0.48489
#
# Static dielectric constant tensor:
#      x y z
#    x 4.589740 -0.343490 0.011110 
#    y -0.343490 4.300240 -0.089030 
#    z 0.011110 -0.089030 4.206100 
# 
# 
# High freq. dielectric constant tensor:
#      x y z
#    x 1.878950 -0.010010 -0.004230 
#    y -0.010010 1.883580 -0.003770 
#    z -0.004230 -0.003770 1.871960 
# 
# From -- ./inp_files/392576.got.cif
#   From: 2010.06.25/outbox.cif.g09.slc.cpg/sg2_197_cif.got.tgz:392576.got - 2010.06.27 13:26:56.
