data_PCOD8027379
_publ_section_title
;
Structure prediction by ZEFSAII (Michael W. Deem and Ramdas Pophale) SiO2 
 PCOD8027379
Probable space group: P -1
;
_chemical_formula_sum "Si O2"
_cell_formula_units_Z 16
_cell_length_a 19.915091
_cell_length_b 11.944923
_cell_length_c 9.032599
_cell_angle_alpha 49.946199
_cell_angle_beta 141.886242
_cell_angle_gamma 149.755889
_cell_volume 663.465739
_symmetry_space_group_name_H-M "P -1"
_symmetry_group_IT_number 2
_symmetry_cell_setting 'triclinic'
loop_
_space_group_symop_operation_xyz
x,y,z
-x,-y,-z
loop_
_atom_site_type_symbol
_atom_site_label
_atom_site_fract_x
_atom_site_fract_y
_atom_site_fract_z
Si Si1 0.728693 0.453334 0.335940
Si Si2 0.949254 0.031947 0.532974
Si Si3 0.808218 0.169458 0.080681
Si Si4 0.612489 0.573192 0.850226
Si Si5 0.615778 0.250122 0.635798
Si Si6 0.927345 0.412313 0.609744
Si Si7 0.751471 0.012836 0.803073
Si Si8 0.281441 0.382420 0.324283
O O1 0.703856 0.394885 0.514799
O O2 0.757089 0.333266 0.396303
O O3 0.889646 0.715648 0.353062
O O4 0.582220 0.404235 0.052345
O O5 0.798280 0.999779 0.285775
O O6 0.890577 0.856347 0.704922
O O7 0.000000 0.000000 0.500000
O O8 0.951435 0.412281 0.197554
O O9 0.642944 0.104410 0.843941
O O10 0.851565 0.168538 0.988408
O O11 0.722041 0.809620 0.921370
O O12 0.432845 0.450488 0.604601
O O13 0.714441 0.627627 0.835958
O O14 0.421184 0.074860 0.431727
O O15 0.698326 0.426336 0.762388
O O16 0.000000 0.500000 0.500000
O O17 0.870649 0.185957 0.727196
#
# Coordination Sequence:
#
# PCOD8027379 Si02
#       8
#     2   2   2   2   2   2   2   2
#     4  11  24  42  64  97 134 168 228 272 323 394
#     4  11  23  40  65  98 129 172 224 266 327 395
#     4  11  25  43  69  97 132 177 216 279 329 391
#     4  10  25  44  66  98 132 180 218 278 329 389
#     4  11  24  43  68 103 130 175 229 272 325 394
#     4  11  27  45  64  98 137 173 219 273 336 404
#     4  11  24  43  70  96 133 174 226 271 329 396
#     4  10  24  45  66  93 138 175 223 270 336 392
#
# _framework density 24.115791000000002
#
# number of rings (size 3 to 8) (size 9 to 14) (size 15 to 20)
#    0.000    1.250    2.500    1.500    8.750    2.500 
#    0.000    0.625    0.000    0.000    0.000    0.000 
#    0.000    0.000    0.000    0.000    0.000    0.000 
#
# Total GULP energy -198283.020123 kJ/mol
# GULP energy per Si atom -12392.688758 kJ/mol
# Density = 2.406090 g / cm^3
# Si number density = 24.115791 Si / 1000 Ang^3
#
#
#
# Elastic Constant Matrix: (Units=GPa)
#
#
# Indices 1 2 3 4 5 6 
#
# 1 110.3106 18.6390 19.0366 -3.9020 -10.2980 -15.5641
# 2 18.6390 66.5239 4.2689 -4.4958 -17.7678 -6.6159
# 3 19.0366 4.2689 77.0475 -13.6399 -0.0045 -23.0194
# 4 -3.9020 -4.4958 -13.6399 29.1114 -12.4559 4.4255
# 5 -10.2980 -17.7678 -0.0045 -12.4559 25.2985 -5.2136
# 6 -15.5641 -6.6159 -23.0194 4.4255 -5.2136 35.7412
#
#
#
# Elastic Compliance Matrix: (Units=1/GPa)
#
#
# Indices 1 2 3 4 5 6 
#
# 1 0.010637 -0.000557 -0.000664 0.003062 0.006406 0.004657
# 2 -0.000557 0.023650 0.004088 0.015142 0.025618 0.008630
# 3 -0.000664 0.004088 0.018908 0.012290 0.011287 0.012770
# 4 0.003062 0.015142 0.012290 0.059848 0.043617 0.011003
# 5 0.006406 0.025618 0.011287 0.043617 0.086131 0.021964
# 6 0.004657 0.008630 0.012770 0.011003 0.021964 0.041671
#
#
# Mechanical properties :
#
#
# Convention : Reuss Voigt Hill
#
# Bulk Modulus (GPa) = 16.96929 37.53013 27.24971
# Shear Modulus (GPa) = 19.62682 32.15938 25.89310
#
# Velocity S-wave (km/s) = 2.85591 3.65573 3.28029
# Velocity P-wave (km/s) = 4.23401 5.78060 5.06667
#
# Compressibility (1/GPa) = 0.05892997
#
# Stress axis : x y z
#
# Youngs Moduli (GPa) = 94.00838 42.28402 52.88726
#
# Poissons Ratio (x) = 0.02354 0.03509
# Poissons Ratio (y) = 0.05234 -0.21619
# Poissons Ratio (z) = 0.06238 -0.17284
#
# Static dielectric constant tensor:
#      x y z
#    x 4.393400 -0.285240 0.370890 
#    y -0.285240 4.394660 -0.292090 
#    z 0.370890 -0.292090 4.715300 
# 
# 
# High freq. dielectric constant tensor:
#      x y z
#    x 1.951530 -0.012340 0.016240 
#    y -0.012340 1.958840 -0.008840 
#    z 0.016240 -0.008840 1.962070 
# 
# From -- ./inp_files/345988.got.cif
#   From: 2010.06.25/outbox.cif.g09.slc.cpg/sg2_173_cif.got.tgz:345988.got - 2010.06.27 13:26:56.
