data_PCOD8027574
_publ_section_title
;
Structure prediction by ZEFSAII (Michael W. Deem and Ramdas Pophale) SiO2 
 PCOD8027574
Probable space group: P -1
;
_chemical_formula_sum "Si O2"
_cell_formula_units_Z 12
_cell_length_a 27.503781
_cell_length_b 6.991912
_cell_length_c 5.411167
_cell_angle_alpha 133.721886
_cell_angle_beta 118.488999
_cell_angle_gamma 44.035853
_cell_volume 522.337487
_symmetry_space_group_name_H-M "P -1"
_symmetry_group_IT_number 2
_symmetry_cell_setting 'triclinic'
loop_
_space_group_symop_operation_xyz
x,y,z
-x,-y,-z
loop_
_atom_site_type_symbol
_atom_site_label
_atom_site_fract_x
_atom_site_fract_y
_atom_site_fract_z
Si Si1 0.641716 0.601736 0.205091
Si Si2 0.306293 0.358538 0.142027
Si Si3 0.907330 0.688159 0.188835
Si Si4 0.958020 0.937817 0.154818
Si Si5 0.846091 0.366094 0.913316
Si Si6 0.577435 0.254981 0.867787
O O1 0.693604 0.459158 0.444612
O O2 0.584022 0.004142 0.454460
O O3 0.684497 0.503215 0.965106
O O4 0.599128 0.457043 0.962280
O O5 0.233849 0.413387 0.998799
O O6 0.369838 0.961196 0.968577
O O7 0.918588 0.801675 0.057833
O O8 0.873194 0.999263 0.567995
O O9 0.855258 0.584837 0.939602
O O10 0.984070 0.348021 0.153308
O O11 0.000000 0.000000 0.500000
O O12 0.897310 0.291535 0.198083
O O13 0.500000 0.500000 0.000000
#
# Coordination Sequence:
#
# PCOD8027574 Si02
#       6
#     2   2   2   2   2   2
#     4  10  25  44  70 101 142 178 234 275 343 402
#     4  10  28  44  70 101 141 183 230 280 343 407
#     4  11  26  43  63  96 125 172 219 277 341 401
#     4  11  25  43  69  96 128 170 226 281 342 400
#     4  12  27  41  68  91 136 172 223 278 340 401
#     4  10  24  45  73 105 141 182 229 282 337 405
#
# _framework density 22.973652000000001
#
# number of rings (size 3 to 8) (size 9 to 14) (size 15 to 20)
#    1.000    0.333    1.667    1.500   11.667    1.333 
#    0.000    0.000    0.000    0.000    0.000    0.000 
#    0.000    0.000    0.000    0.000    0.000    0.000 
#
# Total GULP energy -148672.170475 kJ/mol
# GULP energy per Si atom -12389.347540 kJ/mol
# Density = 2.292136 g / cm^3
# Si number density = 22.973652 Si / 1000 Ang^3
#
#
#
# Elastic Constant Matrix: (Units=GPa)
#
#
# Indices 1 2 3 4 5 6 
#
# 1 203.5894 55.9281 36.4347 -9.8253 6.5637 1.1840
# 2 55.9281 98.2768 37.5444 -4.9182 2.8181 -18.8586
# 3 36.4347 37.5444 78.1926 2.2139 -0.2431 12.6408
# 4 -9.8253 -4.9182 2.2139 22.5207 12.8400 6.9806
# 5 6.5637 2.8181 -0.2431 12.8400 40.5671 6.6293
# 6 1.1840 -18.8586 12.6408 6.9806 6.6293 32.8880
#
#
#
# Elastic Compliance Matrix: (Units=1/GPa)
#
#
# Indices 1 2 3 4 5 6 
#
# 1 0.006266 -0.003350 -0.001065 0.003700 -0.001599 -0.002200
# 2 -0.003350 0.019091 -0.010152 0.001009 -0.003697 0.015501
# 3 -0.001065 -0.010152 0.020500 -0.002746 0.004143 -0.013914
# 4 0.003700 0.001009 -0.002746 0.059180 -0.018209 -0.007390
# 5 -0.001599 -0.003697 0.004143 -0.018209 0.031973 -0.006235
# 6 -0.002200 0.015501 -0.013914 -0.007390 -0.006235 0.047547
#
#
# Mechanical properties :
#
#
# Convention : Reuss Voigt Hill
#
# Bulk Modulus (GPa) = 59.79818 71.09701 65.44760
# Shear Modulus (GPa) = 22.80352 35.87195 29.33773
#
# Velocity S-wave (km/s) = 3.15396 3.95579 3.57741
# Velocity P-wave (km/s) = 6.27287 7.20269 6.75380
#
# Compressibility (1/GPa) = 0.01672292
#
# Stress axis : x y z
#
# Youngs Moduli (GPa) = 159.60000 52.38101 48.78158
#
# Poissons Ratio (x) = 0.17548 0.05196
# Poissons Ratio (y) = 0.53466 0.49521
# Poissons Ratio (z) = 0.16999 0.53175
#
# Static dielectric constant tensor:
#      x y z
#    x 4.407780 0.027550 0.056020 
#    y 0.027550 4.111940 0.157210 
#    z 0.056020 0.157210 3.878470 
# 
# 
# High freq. dielectric constant tensor:
#      x y z
#    x 1.924740 0.004540 0.006700 
#    y 0.004540 1.890110 0.016040 
#    z 0.006700 0.016040 1.888750 
# 
# From -- ./inp_files/5427.got.cif
#   From: 2010.06.25/outbox.cif.g09.slc.cpg/sg2_3_cif.got.tgz:5427.got - 2010.06.27 13:26:56.
