data_PCOD8027333
_publ_section_title
;
Structure prediction by ZEFSAII (Michael W. Deem and Ramdas Pophale) SiO2 
 PCOD8027333
Probable space group: P -1
;
_chemical_formula_sum "Si O2"
_cell_formula_units_Z 12
_cell_length_a 18.387974
_cell_length_b 10.242257
_cell_length_c 9.736549
_cell_angle_alpha 28.825635
_cell_angle_beta 36.463115
_cell_angle_gamma 33.265101
_cell_volume 466.788992
_symmetry_space_group_name_H-M "P -1"
_symmetry_group_IT_number 2
_symmetry_cell_setting 'triclinic'
loop_
_space_group_symop_operation_xyz
x,y,z
-x,-y,-z
loop_
_atom_site_type_symbol
_atom_site_label
_atom_site_fract_x
_atom_site_fract_y
_atom_site_fract_z
Si Si1 0.606891 0.801453 0.296034
Si Si2 0.320550 0.723661 0.127712
Si Si3 0.929524 0.875562 0.020432
Si Si4 0.339051 0.772591 0.749844
Si Si5 0.924040 0.726164 0.529936
Si Si6 0.652652 0.738599 0.990881
O O1 0.612481 0.115363 0.026684
O O2 0.443493 0.904839 0.424055
O O3 0.695318 0.631065 0.183669
O O4 0.670302 0.574783 0.537056
O O5 0.392334 0.626804 0.957018
O O6 0.159002 0.967304 0.125834
O O7 0.041557 0.994174 0.769832
O O8 0.821006 0.969796 0.229807
O O9 0.012148 0.508983 0.220105
O O10 0.346510 0.525494 0.858959
O O11 0.000000 0.500000 0.500000
O O12 0.757374 0.859040 0.658432
O O13 0.500000 0.000000 0.000000
#
# Coordination Sequence:
#
# PCOD8027333 Si02
#       6
#     2   2   2   2   2   2
#     4  12  24  44  69 111 150 187 231 308 367 418
#     4  10  24  45  73 107 142 195 246 288 351 442
#     4  10  25  42  78 101 135 187 257 289 335 426
#     4  10  24  44  75 104 147 191 251 285 358 431
#     4  12  24  48  72 106 142 195 244 289 358 438
#     4  12  29  46  74 111 153 184 237 312 371 416
#
# _framework density 25.707547000000002
#
# number of rings (size 3 to 8) (size 9 to 14) (size 15 to 20)
#    1.000    0.000    1.667    4.000    2.333    5.333 
#    0.000    5.000    0.000    0.000    0.000    0.000 
#    0.000    0.000    0.000    0.000    0.000    0.000 
#
# Total GULP energy -148802.686642 kJ/mol
# GULP energy per Si atom -12400.223887 kJ/mol
# Density = 2.564904 g / cm^3
# Si number density = 25.707547 Si / 1000 Ang^3
#
#
#
# Elastic Constant Matrix: (Units=GPa)
#
#
# Indices 1 2 3 4 5 6 
#
# 1 97.7304 48.2661 17.4400 15.8620 -24.7757 10.7021
# 2 48.2661 106.8912 22.9270 17.2073 -2.7240 -6.0391
# 3 17.4400 22.9270 83.3627 16.9502 -13.2099 -3.5542
# 4 15.8620 17.2073 16.9502 47.1822 -5.1451 -5.5814
# 5 -24.7757 -2.7240 -13.2099 -5.1451 37.9158 4.1133
# 6 10.7021 -6.0391 -3.5542 -5.5814 4.1133 59.4225
#
#
#
# Elastic Compliance Matrix: (Units=1/GPa)
#
#
# Indices 1 2 3 4 5 6 
#
# 1 0.017854 -0.007733 0.000550 -0.002722 0.011478 -0.005019
# 2 -0.007733 0.013694 -0.002544 -0.001743 -0.005501 0.002849
# 3 0.000550 -0.002544 0.014079 -0.003838 0.004582 -0.000193
# 4 -0.002722 -0.001743 -0.003838 0.024386 -0.000191 0.002387
# 5 0.011478 -0.005501 0.004582 -0.000191 0.035574 -0.004833
# 6 -0.005019 0.002849 -0.000193 0.002387 -0.004833 0.018569
#
#
# Mechanical properties :
#
#
# Convention : Reuss Voigt Hill
#
# Bulk Modulus (GPa) = 38.20820 51.69452 44.95136
# Shear Modulus (GPa) = 32.82254 42.19418 37.50836
#
# Velocity S-wave (km/s) = 3.57706 4.05571 3.82388
# Velocity P-wave (km/s) = 5.65291 6.48722 6.08438
#
# Compressibility (1/GPa) = 0.02617239
#
# Stress axis : x y z
#
# Youngs Moduli (GPa) = 56.00927 73.02382 71.02950
#
# Poissons Ratio (x) = 0.56468 -0.03905
# Poissons Ratio (y) = 0.43311 0.18072
# Poissons Ratio (z) = -0.03079 0.18579
#
# Static dielectric constant tensor:
#      x y z
#    x 5.182040 0.701410 0.584110 
#    y 0.701410 13.188480 1.103210 
#    z 0.584110 1.103210 4.975010 
# 
# 
# High freq. dielectric constant tensor:
#      x y z
#    x 2.051280 -0.022850 0.017000 
#    y -0.022850 2.015220 0.003420 
#    z 0.017000 0.003420 2.035620 
# 
# From -- ./inp_files/474725.got.cif
#   From: 2010.06.25/outbox.cif.g09.slc.cpg/sg2_238_cif.got.tgz:474725.got - 2010.06.27 13:26:56.
