data_PCOD8027808
_publ_section_title
;
Structure prediction by ZEFSAII (Michael W. Deem and Ramdas Pophale) SiO2 
 PCOD8027808
Probable space group: P -1
;
_chemical_formula_sum "Si O2"
_cell_formula_units_Z 14
_cell_length_a 15.631812
_cell_length_b 14.484285
_cell_length_c 5.268107
_cell_angle_alpha 81.562581
_cell_angle_beta 99.623918
_cell_angle_gamma 150.446038
_cell_volume 580.049245
_symmetry_space_group_name_H-M "P -1"
_symmetry_group_IT_number 2
_symmetry_cell_setting 'triclinic'
loop_
_space_group_symop_operation_xyz
x,y,z
-x,-y,-z
loop_
_atom_site_type_symbol
_atom_site_label
_atom_site_fract_x
_atom_site_fract_y
_atom_site_fract_z
Si Si1 0.854662 0.499853 0.858431
Si Si2 0.199280 0.733675 0.806824
Si Si3 0.463108 0.404805 0.273627
Si Si4 0.323540 0.940404 0.307136
Si Si5 0.016381 0.268772 0.761884
Si Si6 0.374096 0.645707 0.581122
Si Si7 0.937900 0.992628 0.725219
O O1 0.815979 0.390894 0.109831
O O2 0.660759 0.349483 0.724323
O O3 0.947697 0.681248 0.940007
O O4 0.003878 0.591725 0.716022
O O5 0.675783 0.134959 0.431113
O O6 0.289401 0.862010 0.050815
O O7 0.500000 0.500000 0.500000
O O8 0.575460 0.415223 0.333130
O O9 0.267173 0.187735 0.283940
O O10 0.500000 0.500000 0.000000
O O11 0.497324 0.164578 0.286817
O O12 0.172381 0.869754 0.348669
O O13 0.173478 0.472237 0.632087
O O14 0.031735 0.178749 0.707480
O O15 0.000000 0.000000 0.500000
O O16 0.000000 0.000000 0.000000
#
# Coordination Sequence:
#
# PCOD8027808 Si02
#       7
#     2   2   2   2   2   2   2
#     4  10  25  43  76 101 147 191 240 294 361 417
#     4  10  24  47  70 105 145 192 240 295 354 428
#     4  12  28  50  73 110 145 187 242 305 361 437
#     4  11  25  45  72 100 146 189 241 292 359 418
#     4  11  25  47  69 106 144 189 237 293 361 430
#     4  12  26  45  74 107 142 191 240 298 359 425
#     4  12  27  49  76 105 143 193 237 300 370 436
#
# _framework density 24.135884000000001
#
# number of rings (size 3 to 8) (size 9 to 14) (size 15 to 20)
#    0.000    0.857    2.857    2.571   10.000    2.857 
#    0.000    0.000    0.000    0.000    0.000    0.000 
#    0.000    0.000    0.000    0.000    0.000    0.000 
#
# Total GULP energy -173451.483261 kJ/mol
# GULP energy per Si atom -12389.391661 kJ/mol
# Density = 2.408095 g / cm^3
# Si number density = 24.135884 Si / 1000 Ang^3
#
#
#
# Elastic Constant Matrix: (Units=GPa)
#
#
# Indices 1 2 3 4 5 6 
#
# 1 97.6326 34.4411 49.5390 7.2038 -0.7116 -16.6627
# 2 34.4411 148.4386 37.5024 13.8312 3.8372 -2.5718
# 3 49.5390 37.5024 138.8656 6.0601 7.4392 -3.6780
# 4 7.2038 13.8312 6.0601 43.1223 3.5922 -4.8523
# 5 -0.7116 3.8372 7.4392 3.5922 29.6172 1.6986
# 6 -16.6627 -2.5718 -3.6780 -4.8523 1.6986 37.1842
#
#
#
# Elastic Compliance Matrix: (Units=1/GPa)
#
#
# Indices 1 2 3 4 5 6 
#
# 1 0.014236 -0.002072 -0.004423 -0.000578 0.001467 0.005656
# 2 -0.002072 0.007719 -0.001254 -0.002002 -0.000449 -0.000759
# 3 -0.004423 -0.001254 0.009210 -0.000092 -0.002185 -0.001070
# 4 -0.000578 -0.002002 -0.000092 0.024509 -0.002872 0.002923
# 5 0.001467 -0.000449 -0.002185 -0.002872 0.034844 -0.001556
# 6 0.005656 -0.000759 -0.001070 0.002923 -0.001556 0.029722
#
#
# Mechanical properties :
#
#
# Convention : Reuss Voigt Hill
#
# Bulk Modulus (GPa) = 63.82335 69.76688 66.79511
# Shear Modulus (GPa) = 35.47074 39.54836 37.50955
#
# Velocity S-wave (km/s) = 3.83773 4.05232 3.94648
# Velocity P-wave (km/s) = 6.79252 7.13188 6.96427
#
# Compressibility (1/GPa) = 0.01566825
#
# Stress axis : x y z
#
# Youngs Moduli (GPa) = 70.24427 129.54457 108.57301
#
# Poissons Ratio (x) = 0.26839 0.48018
# Poissons Ratio (y) = 0.14553 0.13619
# Poissons Ratio (z) = 0.31066 0.16249
#
# Static dielectric constant tensor:
#      x y z
#    x 4.414240 0.001280 0.248920 
#    y 0.001280 4.618250 0.295280 
#    z 0.248920 0.295280 5.592320 
# 
# 
# High freq. dielectric constant tensor:
#      x y z
#    x 1.965990 -0.000110 0.002920 
#    y -0.000110 1.971950 0.009290 
#    z 0.002920 0.009290 1.965860 
# 
# From -- ./inp_files/97996.got.cif
#   From: 2010.06.25/outbox.cif.g09.slc.cpg/sg2_49_cif.got.tgz:97996.got - 2010.06.27 13:26:56.
