data_PCOD8027497
_publ_section_title
;
Structure prediction by ZEFSAII (Michael W. Deem and Ramdas Pophale) SiO2 
 PCOD8027497
Probable space group: P -1
;
_chemical_formula_sum "Si O2"
_cell_formula_units_Z 16
_cell_length_a 13.717515
_cell_length_b 10.955412
_cell_length_c 9.725581
_cell_angle_alpha 114.232100
_cell_angle_beta 101.179553
_cell_angle_gamma 32.722767
_cell_volume 685.644602
_symmetry_space_group_name_H-M "P -1"
_symmetry_group_IT_number 2
_symmetry_cell_setting 'triclinic'
loop_
_space_group_symop_operation_xyz
x,y,z
-x,-y,-z
loop_
_atom_site_type_symbol
_atom_site_label
_atom_site_fract_x
_atom_site_fract_y
_atom_site_fract_z
Si Si1 0.778873 0.552006 0.207792
Si Si2 0.936210 0.818877 0.387283
Si Si3 0.388027 0.988794 0.703261
Si Si4 0.209948 0.828957 0.272701
Si Si5 0.428323 0.766583 0.870136
Si Si6 0.384413 0.891837 0.221511
Si Si7 0.226098 0.354839 0.452360
Si Si8 0.036550 0.108492 0.866698
O O1 0.600204 0.657479 0.225560
O O2 0.856105 0.510994 0.358848
O O3 0.718739 0.747555 0.188400
O O4 0.950932 0.284564 0.053929
O O5 0.086241 0.556385 0.386469
O O6 0.016502 0.756768 0.228850
O O7 0.736856 0.970731 0.399580
O O8 0.894904 0.005261 0.540318
O O9 0.434520 0.878928 0.814576
O O10 0.576654 0.793925 0.577067
O O11 0.372293 0.537021 0.218306
O O12 0.297249 0.852406 0.226534
O O13 0.050063 0.941789 0.185250
O O14 0.389433 0.886978 0.056374
O O15 0.263623 0.847306 0.826989
O O16 0.254981 0.161905 0.365495
#
# Coordination Sequence:
#
# PCOD8027497 Si02
#       8
#     2   2   2   2   2   2   2   2
#     4  11  24  45  71 105 141 171 228 285 341 404
#     4  11  26  45  74 102 134 181 228 281 339 406
#     4  10  24  45  70 102 137 177 226 287 334 403
#     4  12  25  48  67  96 145 180 232 276 329 410
#     4  11  26  44  70 102 135 187 223 279 346 395
#     4  11  25  45  72 100 139 183 227 278 341 407
#     4  11  25  45  73 105 134 178 226 282 348 394
#     4  11  27  44  70 105 136 180 230 278 336 409
#
# _framework density 23.335702999999999
#
# number of rings (size 3 to 8) (size 9 to 14) (size 15 to 20)
#    0.000    1.000    1.250    4.500    5.250    7.500 
#    0.000    0.000    0.000    0.000    0.000    0.000 
#    0.000    0.000    0.000    0.000    0.000    0.000 
#
# Total GULP energy -198489.471088 kJ/mol
# GULP energy per Si atom -12405.591943 kJ/mol
# Density = 2.328259 g / cm^3
# Si number density = 23.335703 Si / 1000 Ang^3
#
#
#
# Elastic Constant Matrix: (Units=GPa)
#
#
# Indices 1 2 3 4 5 6 
#
# 1 95.4689 9.7361 -2.5543 0.6975 -3.6398 -0.0541
# 2 9.7361 45.0372 6.7376 -9.3392 4.5243 -8.0353
# 3 -2.5543 6.7376 82.0533 1.8465 -1.3509 8.4275
# 4 0.6975 -9.3392 1.8465 32.3799 0.3605 -3.8168
# 5 -3.6398 4.5243 -1.3509 0.3605 23.5820 -7.3283
# 6 -0.0541 -8.0353 8.4275 -3.8168 -7.3283 27.4902
#
#
#
# Elastic Compliance Matrix: (Units=1/GPa)
#
#
# Indices 1 2 3 4 5 6 
#
# 1 0.010896 -0.003066 0.000727 -0.001268 0.002110 -0.000711
# 2 -0.003066 0.027352 -0.003584 0.009320 -0.003099 0.009555
# 3 0.000727 -0.003584 0.013115 -0.002436 -0.000100 -0.005431
# 4 -0.001268 0.009320 -0.002436 0.034713 -0.000086 0.008265
# 5 0.002110 -0.003099 -0.000100 -0.000086 0.046935 0.011629
# 6 -0.000711 0.009555 -0.005431 0.008265 0.011629 0.045081
#
#
# Mechanical properties :
#
#
# Convention : Reuss Voigt Hill
#
# Bulk Modulus (GPa) = 25.30483 27.82204 26.56344
# Shear Modulus (GPa) = 24.61736 30.59975 27.60855
#
# Velocity S-wave (km/s) = 3.25148 3.62510 3.44336
# Velocity P-wave (km/s) = 4.99635 5.42864 5.21698
#
# Compressibility (1/GPa) = 0.03951815
#
# Stress axis : x y z
#
# Youngs Moduli (GPa) = 91.77624 36.56091 76.24788
#
# Poissons Ratio (x) = 0.11210 -0.05545
# Poissons Ratio (y) = 0.28139 0.27324
# Poissons Ratio (z) = -0.06675 0.13102
#
# Static dielectric constant tensor:
#      x y z
#    x 4.397350 -0.185680 0.024280 
#    y -0.185680 4.201100 -0.085780 
#    z 0.024280 -0.085780 4.231990 
# 
# 
# High freq. dielectric constant tensor:
#      x y z
#    x 1.938320 -0.013360 -0.001620 
#    y -0.013360 1.922320 -0.008300 
#    z -0.001620 -0.008300 1.930860 
# 
# From -- ./inp_files/308081.got.cif
#   From: 2010.06.25/outbox.cif.g09.slc.cpg/sg2_155_cif.got.tgz:308081.got - 2010.06.27 13:26:56.
