data_PCOD8027663
_publ_section_title
;
Structure prediction by ZEFSAII (Michael W. Deem and Ramdas Pophale) SiO2 
 PCOD8027663
Probable space group: P -1
;
_chemical_formula_sum "Si O2"
_cell_formula_units_Z 12
_cell_length_a 11.402890
_cell_length_b 9.272531
_cell_length_c 8.991270
_cell_angle_alpha 118.090360
_cell_angle_beta 36.811488
_cell_angle_gamma 107.558561
_cell_volume 497.408421
_symmetry_space_group_name_H-M "P -1"
_symmetry_group_IT_number 2
_symmetry_cell_setting 'triclinic'
loop_
_space_group_symop_operation_xyz
x,y,z
-x,-y,-z
loop_
_atom_site_type_symbol
_atom_site_label
_atom_site_fract_x
_atom_site_fract_y
_atom_site_fract_z
Si Si1 0.828577 0.190396 0.020372
Si Si2 0.080537 0.262819 0.547542
Si Si3 0.830826 0.189425 0.517342
Si Si4 0.266585 0.042821 0.743180
Si Si5 0.475237 0.810982 0.920441
Si Si6 0.014761 0.630437 0.806046
O O1 0.622888 0.221776 0.154387
O O2 0.859068 0.352511 0.163217
O O3 0.839015 0.039133 0.053233
O O4 0.010650 0.154927 0.701334
O O5 0.307210 0.290671 0.343187
O O6 0.955795 0.447492 0.765944
O O7 0.035291 0.167094 0.395785
O O8 0.844053 0.337276 0.459726
O O9 0.799156 0.024165 0.380802
O O10 0.651598 0.243199 0.839911
O O11 0.500000 0.000000 0.500000
O O12 0.188442 0.238113 0.923058
O O13 0.500000 0.000000 0.000000
#
# Coordination Sequence:
#
# PCOD8027663 Si02
#       6
#     2   2   2   2   2   2
#     4  10  24  46  69  99 134 180 225 276 334 406
#     4  11  26  46  70 100 142 176 223 281 347 392
#     4  10  24  46  69  99 134 180 225 276 334 406
#     4  11  25  45  75  99 132 180 236 276 332 406
#     4  11  26  40  71 103 137 179 228 272 335 414
#     4  11  25  46  70  99 139 178 223 291 334 391
#
# _framework density 24.125041
#
# number of rings (size 3 to 8) (size 9 to 14) (size 15 to 20)
#    0.000    1.333    0.000    4.000   14.000    2.667 
#   12.000    0.000    0.000    0.000    0.000    0.000 
#    0.000    0.000    0.000    0.000    0.000    0.000 
#
# Total GULP energy -148790.627275 kJ/mol
# GULP energy per Si atom -12399.218940 kJ/mol
# Density = 2.407013 g / cm^3
# Si number density = 24.125041 Si / 1000 Ang^3
#
#
#
# Elastic Constant Matrix: (Units=GPa)
#
#
# Indices 1 2 3 4 5 6 
#
# 1 203.8277 33.3730 79.3711 -4.9068 6.4469 3.3042
# 2 33.3730 82.0327 26.6315 20.0269 2.7713 2.7650
# 3 79.3711 26.6315 89.2133 4.7883 -8.6731 -1.9498
# 4 -4.9068 20.0269 4.7883 33.3383 -4.7454 -0.5053
# 5 6.4469 2.7713 -8.6731 -4.7454 54.0197 -8.2583
# 6 3.3042 2.7650 -1.9498 -0.5053 -8.2583 26.1319
#
#
#
# Elastic Compliance Matrix: (Units=1/GPa)
#
#
# Indices 1 2 3 4 5 6 
#
# 1 0.008110 -0.001522 -0.007159 0.002807 -0.002100 -0.002008
# 2 -0.001522 0.016535 -0.003347 -0.010077 -0.002517 -0.002797
# 3 -0.007159 -0.003347 0.019177 -0.001074 0.004643 0.004137
# 4 0.002807 -0.010077 -0.001074 0.037175 0.003658 0.002506
# 5 -0.002100 -0.002517 0.004643 0.003658 0.021124 0.007625
# 6 -0.002008 -0.002797 0.004137 0.002506 0.007625 0.041584
#
#
# Mechanical properties :
#
#
# Convention : Reuss Voigt Hill
#
# Bulk Modulus (GPa) = 50.59255 72.64721 61.61988
# Shear Modulus (GPa) = 28.67786 38.41118 33.54452
#
# Velocity S-wave (km/s) = 3.45152 3.99453 3.73291
# Velocity P-wave (km/s) = 6.07458 7.17309 6.64656
#
# Compressibility (1/GPa) = 0.01976576
#
# Stress axis : x y z
#
# Youngs Moduli (GPa) = 123.30999 60.47633 52.14478
#
# Poissons Ratio (x) = 0.09201 0.37333
# Poissons Ratio (y) = 0.18762 0.17455
# Poissons Ratio (z) = 0.88283 0.20244
#
# Static dielectric constant tensor:
#      x y z
#    x 4.836000 0.051870 0.031570 
#    y 0.051870 4.028810 -0.343920 
#    z 0.031570 -0.343920 4.620130 
# 
# 
# High freq. dielectric constant tensor:
#      x y z
#    x 1.979600 0.001330 0.017150 
#    y 0.001330 1.946960 -0.018990 
#    z 0.017150 -0.018990 1.953450 
# 
# From -- ./inp_files/240083.got.cif
#   From: 2010.06.25/outbox.cif.g09.slc.cpg/sg2_121_cif.got.tgz:240083.got - 2010.06.27 13:26:56.
