data_PCOD8027911
_publ_section_title
;
Structure prediction by ZEFSAII (Michael W. Deem and Ramdas Pophale) SiO2 
 PCOD8027911
Probable space group: P -1
;
_chemical_formula_sum "Si O2"
_cell_formula_units_Z 12
_cell_length_a 11.263631
_cell_length_b 10.564093
_cell_length_c 4.760429
_cell_angle_alpha 100.373971
_cell_angle_beta 47.088905
_cell_angle_gamma 96.849830
_cell_volume 408.083513
_symmetry_space_group_name_H-M "P -1"
_symmetry_group_IT_number 2
_symmetry_cell_setting 'triclinic'
loop_
_space_group_symop_operation_xyz
x,y,z
-x,-y,-z
loop_
_atom_site_type_symbol
_atom_site_label
_atom_site_fract_x
_atom_site_fract_y
_atom_site_fract_z
Si Si1 0.521826 0.693888 0.050201
Si Si2 0.018534 0.201458 0.489221
Si Si3 0.438840 0.133990 0.451633
Si Si4 0.200464 0.440775 0.165402
Si Si5 0.824665 0.388046 0.249192
Si Si6 0.237021 0.986121 0.320169
O O1 0.580358 0.820515 0.179532
O O2 0.331607 0.677655 0.389589
O O3 0.555507 0.733635 0.689470
O O4 0.630681 0.573308 0.932586
O O5 0.120516 0.302219 0.176826
O O6 0.136558 0.090869 0.355089
O O7 0.874812 0.140712 0.506795
O O8 0.946031 0.278196 0.903816
O O9 0.288629 0.043367 0.562864
O O10 0.604661 0.052584 0.129693
O O11 0.089226 0.527990 0.600355
O O12 0.238775 0.517420 0.854550
#
# Coordination Sequence:
#
# PCOD8027911 Si02
#       6
#     2   2   2   2   2   2
#     4  12  24  48  77 108 149 190 254 296 364 436
#     4  11  24  50  74 114 148 195 240 306 374 433
#     4  11  24  49  75 112 145 195 242 307 358 439
#     4  12  26  48  75 107 149 195 244 301 363 437
#     4  12  26  48  75 107 149 195 244 301 363 437
#     4  10  24  48  77 108 150 193 245 302 368 439
#
# _framework density 29.405743999999999
#
# number of rings (size 3 to 8) (size 9 to 14) (size 15 to 20)
#    0.000    0.667    3.333    4.000    0.000    2.667 
#    0.000    1.667    0.000    0.000    0.000    0.000 
#    0.000    0.000    0.000    0.000    0.000    0.000 
#
# Total GULP energy -148876.031421 kJ/mol
# GULP energy per Si atom -12406.335952 kJ/mol
# Density = 2.933882 g / cm^3
# Si number density = 29.405744 Si / 1000 Ang^3
#
#
#
# Elastic Constant Matrix: (Units=GPa)
#
#
# Indices 1 2 3 4 5 6 
#
# 1 87.3456 43.6594 -4.2418 -8.2332 -1.5518 10.5911
# 2 43.6594 77.3178 5.9028 -11.0180 -2.2991 20.5956
# 3 -4.2418 5.9028 33.1252 -12.7717 -9.0954 -2.0142
# 4 -8.2332 -11.0180 -12.7717 34.7917 4.7025 5.7281
# 5 -1.5518 -2.2991 -9.0954 4.7025 55.7381 0.4805
# 6 10.5911 20.5956 -2.0142 5.7281 0.4805 39.5929
#
#
#
# Elastic Compliance Matrix: (Units=1/GPa)
#
#
# Indices 1 2 3 4 5 6 
#
# 1 0.016654 -0.009485 0.005047 0.002642 0.000670 0.000345
# 2 -0.009485 0.021871 -0.003907 0.004896 -0.000329 -0.009743
# 3 0.005047 -0.003907 0.038022 0.013121 0.005071 0.000657
# 4 0.002642 0.004896 0.013121 0.037131 -0.000648 -0.007950
# 5 0.000670 -0.000329 0.005071 -0.000648 0.018827 0.000115
# 6 0.000345 -0.009743 0.000657 -0.007950 0.000115 0.031415
#
#
# Mechanical properties :
#
#
# Convention : Reuss Voigt Hill
#
# Bulk Modulus (GPa) = 16.70651 32.04771 24.37711
# Shear Modulus (GPa) = 24.92981 36.18909 30.55945
#
# Velocity S-wave (km/s) = 2.91484 3.51191 3.22721
# Velocity P-wave (km/s) = 4.12578 5.23133 4.71110
#
# Compressibility (1/GPa) = 0.05985689
#
# Stress axis : x y z
#
# Youngs Moduli (GPa) = 60.04592 45.72288 26.30042
#
# Poissons Ratio (x) = 0.43367 -0.13273
# Poissons Ratio (y) = 0.56952 0.10275
# Poissons Ratio (z) = -0.30303 0.17863
#
# Static dielectric constant tensor:
#      x y z
#    x 5.723040 0.413620 -0.358990 
#    y 0.413620 5.930340 0.271180 
#    z -0.358990 0.271180 5.450480 
# 
# 
# High freq. dielectric constant tensor:
#      x y z
#    x 2.208760 -0.000250 -0.018450 
#    y -0.000250 2.222560 0.011480 
#    z -0.018450 0.011480 2.199640 
# 
# From -- ./inp_files/64791.got.cif
#   From: 2010.06.25/outbox.cif.g09.slc.cpg/sg2_33_cif.got.tgz:64791.got - 2010.06.27 13:26:56.
