data_PCOD8027118
_publ_section_title
;
Structure prediction by ZEFSAII (Michael W. Deem and Ramdas Pophale) SiO2 
 PCOD8027118
Probable space group: P -1
;
_chemical_formula_sum "Si O2"
_cell_formula_units_Z 16
_cell_length_a 15.157208
_cell_length_b 8.858320
_cell_length_c 12.169498
_cell_angle_alpha 61.501173
_cell_angle_beta 55.372793
_cell_angle_gamma 107.994624
_cell_volume 705.623954
_symmetry_space_group_name_H-M "P -1"
_symmetry_group_IT_number 2
_symmetry_cell_setting 'triclinic'
loop_
_space_group_symop_operation_xyz
x,y,z
-x,-y,-z
loop_
_atom_site_type_symbol
_atom_site_label
_atom_site_fract_x
_atom_site_fract_y
_atom_site_fract_z
Si Si1 0.233979 0.302981 0.116349
Si Si2 0.858562 0.178255 0.033803
Si Si3 0.576544 0.113775 0.285193
Si Si4 0.763132 0.385646 0.451337
Si Si5 0.810104 0.348016 0.673700
Si Si6 0.826915 0.760999 0.578360
Si Si7 0.678421 0.875680 0.050224
Si Si8 0.284261 0.304998 0.554125
O O1 0.276369 0.320012 0.208631
O O2 0.362998 0.614015 0.869106
O O3 0.262432 0.167525 0.075840
O O4 0.027469 0.095183 0.322907
O O5 0.747790 0.210859 0.113670
O O6 0.825772 0.053014 0.980502
O O7 0.805129 0.979567 0.236507
O O8 0.073454 0.486686 0.779956
O O9 0.500000 0.000000 0.500000
O O10 0.422551 0.868415 0.393207
O O11 0.746010 0.268125 0.620825
O O12 0.811208 0.648394 0.345909
O O13 0.825221 0.553400 0.644852
O O14 0.000000 0.500000 0.500000
O O15 0.664065 0.050556 0.950139
O O16 0.725498 0.716653 0.563599
O O17 0.493852 0.581536 0.339789
#
# Coordination Sequence:
#
# PCOD8027118 Si02
#       8
#     2   2   2   2   2   2   2   2
#     4  11  25  45  66 100 149 178 230 290 353 408
#     4  12  25  49  76  99 140 188 236 288 345 418
#     4  12  29  48  69 104 147 187 230 292 352 418
#     4  11  26  44  75 105 135 189 235 292 344 418
#     4  11  21  44  73 105 133 182 246 281 351 414
#     4  10  24  44  68 101 139 189 223 294 348 410
#     4  12  23  42  75 101 137 184 228 295 343 413
#     4  11  25  43  73 105 135 179 246 285 343 413
#
# _framework density 22.674969000000001
#
# number of rings (size 3 to 8) (size 9 to 14) (size 15 to 20)
#    0.000    0.750    3.750    3.000    5.250    2.000 
#    4.500    0.000    0.000    0.000    0.000    0.000 
#    0.000    0.000    0.000    0.000    0.000    0.000 
#
# Total GULP energy -198486.679141 kJ/mol
# GULP energy per Si atom -12405.417446 kJ/mol
# Density = 2.262336 g / cm^3
# Si number density = 22.674969 Si / 1000 Ang^3
#
#
#
# Elastic Constant Matrix: (Units=GPa)
#
#
# Indices 1 2 3 4 5 6 
#
# 1 84.9441 25.2535 12.3829 7.1601 13.2308 4.5169
# 2 25.2535 99.1410 15.5759 17.6278 14.8373 6.9551
# 3 12.3829 15.5759 95.1619 5.8301 12.5054 -0.7564
# 4 7.1601 17.6278 5.8301 35.7816 -5.0221 -0.9358
# 5 13.2308 14.8373 12.5054 -5.0221 45.5430 6.2779
# 6 4.5169 6.9551 -0.7564 -0.9358 6.2779 23.6643
#
#
#
# Elastic Compliance Matrix: (Units=1/GPa)
#
#
# Indices 1 2 3 4 5 6 
#
# 1 0.013274 -0.002425 -0.000856 -0.001755 -0.002865 -0.001158
# 2 -0.002425 0.012649 -0.000942 -0.006149 -0.003477 -0.002606
# 3 -0.000856 -0.000942 0.011266 -0.001571 -0.002920 0.001513
# 4 -0.001755 -0.006149 -0.001571 0.032512 0.006294 0.001708
# 5 -0.002865 -0.003477 -0.002920 0.006294 0.026136 -0.005209
# 6 -0.001158 -0.002606 0.001513 0.001708 -0.005209 0.044742
#
#
# Mechanical properties :
#
#
# Convention : Reuss Voigt Hill
#
# Bulk Modulus (GPa) = 34.79004 42.85240 38.82122
# Shear Modulus (GPa) = 31.52506 36.06676 33.79591
#
# Velocity S-wave (km/s) = 3.73272 3.99256 3.86482
# Velocity P-wave (km/s) = 5.82699 6.33984 6.08882
#
# Compressibility (1/GPa) = 0.02874386
#
# Stress axis : x y z
#
# Youngs Moduli (GPa) = 75.33651 79.05989 88.76395
#
# Poissons Ratio (x) = 0.19170 0.07594
# Poissons Ratio (y) = 0.18267 0.08361
# Poissons Ratio (z) = 0.06445 0.07447
#
# Static dielectric constant tensor:
#      x y z
#    x 4.110080 0.104510 0.084690 
#    y 0.104510 4.137650 0.005400 
#    z 0.084690 0.005400 4.281340 
# 
# 
# High freq. dielectric constant tensor:
#      x y z
#    x 1.894230 0.007550 0.004230 
#    y 0.007550 1.893640 0.004120 
#    z 0.004230 0.004120 1.906960 
# 
# From -- ./inp_files/263061.got.cif
#   From: 2010.06.25/outbox.cif.g09.slc.cpg/sg2_132_cif.got.tgz:263061.got - 2010.06.27 13:26:56.
