data_PCOD8027133
_publ_section_title
;
Structure prediction by ZEFSAII (Michael W. Deem and Ramdas Pophale) SiO2 
 PCOD8027133
Probable space group: P -1
;
_chemical_formula_sum "Si O2"
_cell_formula_units_Z 16
_cell_length_a 13.190099
_cell_length_b 15.429698
_cell_length_c 22.925757
_cell_angle_alpha 24.279425
_cell_angle_beta 22.742020
_cell_angle_gamma 34.390736
_cell_volume 738.146031
_symmetry_space_group_name_H-M "P -1"
_symmetry_group_IT_number 2
_symmetry_cell_setting 'triclinic'
loop_
_space_group_symop_operation_xyz
x,y,z
-x,-y,-z
loop_
_atom_site_type_symbol
_atom_site_label
_atom_site_fract_x
_atom_site_fract_y
_atom_site_fract_z
Si Si1 0.821651 0.043134 0.650218
Si Si2 0.946421 0.356454 0.560788
Si Si3 0.780513 0.325087 0.201072
Si Si4 0.120122 0.690006 0.655930
Si Si5 0.836743 0.255977 0.080060
Si Si6 0.298313 0.049697 0.999722
Si Si7 0.516996 0.501337 0.330448
Si Si8 0.739981 0.864992 0.552012
O O1 0.760433 0.175941 0.544124
O O2 0.556065 0.019634 0.843398
O O3 0.067790 0.171924 0.473466
O O4 0.906680 0.813026 0.728873
O O5 0.793415 0.468522 0.520581
O O6 0.000000 0.500000 0.500000
O O7 0.215673 0.297377 0.424878
O O8 0.753641 0.147021 0.808673
O O9 0.751442 0.320715 0.150350
O O10 0.525915 0.399991 0.322952
O O11 0.832077 0.095138 0.337259
O O12 0.000000 0.500000 0.000000
O O13 0.372635 0.653652 0.585003
O O14 0.974070 0.467932 0.846811
O O15 0.565494 0.168920 0.244957
O O16 0.036342 0.071090 0.085763
O O17 0.316661 0.268493 0.892650
#
# Coordination Sequence:
#
# PCOD8027133 Si02
#       8
#     2   2   2   2   2   2   2   2
#     4  11  24  44  69  90 123 166 228 270 304 375
#     4  12  26  38  61 100 138 164 202 261 326 386
#     4  12  20  37  64  94 126 168 208 256 314 393
#     4  10  24  44  68  91 119 173 223 264 315 372
#     4  11  24  40  64  95 132 168 208 257 327 383
#     4  11  24  41  63  95 128 165 212 263 312 374
#     4  11  22  38  65  94 124 165 212 260 312 376
#     4  12  24  41  64  96 133 171 203 261 329 380
#
# _framework density 21.675927000000001
#
# number of rings (size 3 to 8) (size 9 to 14) (size 15 to 20)
#    0.000    0.750    6.250    1.500    7.000    2.500 
#    0.000    0.000    0.000    2.250    0.000    0.000 
#    0.000    0.000    0.000    0.000    0.000    0.000 
#
# Total GULP energy -198297.615068 kJ/mol
# GULP energy per Si atom -12393.600942 kJ/mol
# Density = 2.162659 g / cm^3
# Si number density = 21.675927 Si / 1000 Ang^3
#
#
#
# Elastic Constant Matrix: (Units=GPa)
#
#
# Indices 1 2 3 4 5 6 
#
# 1 61.8728 34.7263 22.5622 2.2815 -3.4922 -18.0591
# 2 34.7263 118.0428 29.1615 7.8638 -0.9206 -20.5943
# 3 22.5622 29.1615 51.6274 8.4117 -4.3643 -23.9531
# 4 2.2815 7.8638 8.4117 40.9319 -6.7252 -5.3558
# 5 -3.4922 -0.9206 -4.3643 -6.7252 29.3352 2.6381
# 6 -18.0591 -20.5943 -23.9531 -5.3558 2.6381 38.1165
#
#
#
# Elastic Compliance Matrix: (Units=1/GPa)
#
#
# Indices 1 2 3 4 5 6 
#
# 1 0.021945 -0.004471 -0.004838 0.001563 0.001657 0.005046
# 2 -0.004471 0.010974 -0.003421 -0.001130 -0.001098 0.001578
# 3 -0.004838 -0.003421 0.030920 -0.003197 0.001861 0.014712
# 4 0.001563 -0.001130 -0.003197 0.026322 0.005581 0.001433
# 5 0.001657 -0.001098 0.001861 0.005581 0.035838 -0.000335
# 6 0.005046 0.001578 0.014712 0.001433 -0.000335 0.038949
#
#
# Mechanical properties :
#
#
# Convention : Reuss Voigt Hill
#
# Bulk Modulus (GPa) = 26.05668 44.93812 35.49740
# Shear Modulus (GPa) = 24.60609 31.34958 27.97783
#
# Velocity S-wave (km/s) = 3.37290 3.80713 3.59657
# Velocity P-wave (km/s) = 5.21687 6.33265 5.80165
#
# Compressibility (1/GPa) = 0.03837788
#
# Stress axis : x y z
#
# Youngs Moduli (GPa) = 45.56925 91.12342 32.34117
#
# Poissons Ratio (x) = 0.40745 0.15647
# Poissons Ratio (y) = 0.20376 0.11064
# Poissons Ratio (z) = 0.22047 0.31174
#
# Static dielectric constant tensor:
#      x y z
#    x 3.583470 -0.218520 0.105360 
#    y -0.218520 4.352550 0.207640 
#    z 0.105360 0.207640 3.518660 
# 
# 
# High freq. dielectric constant tensor:
#      x y z
#    x 1.831650 -0.011580 -0.014140 
#    y -0.011580 1.879440 -0.002700 
#    z -0.014140 -0.002700 1.826680 
# 
# From -- ./inp_files/186940.got.cif
#   From: 2010.06.25/outbox.cif.g09.slc.cpg/sg2_94_cif.got.tgz:186940.got - 2010.06.27 13:26:56.
