data_PCOD8027677
_publ_section_title
;
Structure prediction by ZEFSAII (Michael W. Deem and Ramdas Pophale) SiO2 
 PCOD8027677
Probable space group: P -1
;
_chemical_formula_sum "Si O2"
_cell_formula_units_Z 14
_cell_length_a 17.520214
_cell_length_b 9.827895
_cell_length_c 14.251556
_cell_angle_alpha 131.446461
_cell_angle_beta 159.167635
_cell_angle_gamma 49.895001
_cell_volume 651.146195
_symmetry_space_group_name_H-M "P -1"
_symmetry_group_IT_number 2
_symmetry_cell_setting 'triclinic'
loop_
_space_group_symop_operation_xyz
x,y,z
-x,-y,-z
loop_
_atom_site_type_symbol
_atom_site_label
_atom_site_fract_x
_atom_site_fract_y
_atom_site_fract_z
Si Si1 0.852479 0.915808 0.059103
Si Si2 0.413506 0.407189 0.449342
Si Si3 0.507698 0.781553 0.187389
Si Si4 0.471919 0.397790 0.064399
Si Si5 0.933205 0.919469 0.788859
Si Si6 0.870915 0.352670 0.626995
Si Si7 0.184343 0.556794 0.954782
O O1 0.680398 0.777705 0.771337
O O2 0.725886 0.105900 0.032957
O O3 0.006587 0.838099 0.285156
O O4 0.999841 0.946684 0.153392
O O5 0.500000 0.500000 0.500000
O O6 0.228848 0.540681 0.348203
O O7 0.611508 0.358909 0.725576
O O8 0.502444 0.604076 0.164233
O O9 0.677168 0.908890 0.484381
O O10 0.579696 0.725794 0.139066
O O11 0.689399 0.310302 0.324473
O O12 0.271249 0.402732 0.908385
O O13 0.046609 0.715913 0.813007
O O14 0.000000 0.000000 0.000000
O O15 0.044051 0.471938 0.833918
#
# Coordination Sequence:
#
# PCOD8027677 Si02
#       7
#     2   2   2   2   2   2   2
#     4  12  26  41  67 103 136 172 223 278 337 390
#     4  11  24  40  68  97 138 177 218 269 336 405
#     4  11  25  45  68 101 133 177 227 281 325 392
#     4  10  24  46  70  95 135 178 231 272 329 399
#     4  12  26  40  68 102 137 170 220 280 338 394
#     4  11  24  43  68  99 132 178 219 273 338 398
#     4  11  22  42  67  97 131 182 218 272 334 397
#
# _framework density 21.500547000000001
#
# number of rings (size 3 to 8) (size 9 to 14) (size 15 to 20)
#    0.000    0.857    4.286    2.143    6.000    3.429 
#    0.000    1.429    0.000    0.000    0.000    0.000 
#    0.000    0.000    0.000    0.000    0.000    0.000 
#
# Total GULP energy -173678.810669 kJ/mol
# GULP energy per Si atom -12405.629333 kJ/mol
# Density = 2.145161 g / cm^3
# Si number density = 21.500547 Si / 1000 Ang^3
#
#
#
# Elastic Constant Matrix: (Units=GPa)
#
#
# Indices 1 2 3 4 5 6 
#
# 1 126.5348 32.8477 42.7326 2.0361 7.1397 4.0685
# 2 32.8477 84.7751 38.1127 -18.6281 -3.6150 14.8396
# 3 42.7326 38.1127 91.9588 -15.3240 0.0892 0.2782
# 4 2.0361 -18.6281 -15.3240 41.6055 4.9903 -0.5343
# 5 7.1397 -3.6150 0.0892 4.9903 36.7831 1.2690
# 6 4.0685 14.8396 0.2782 -0.5343 1.2690 36.8759
#
#
#
# Elastic Compliance Matrix: (Units=1/GPa)
#
#
# Indices 1 2 3 4 5 6 
#
# 1 0.010165 -0.002891 -0.004033 -0.003056 -0.001836 0.000091
# 2 -0.002891 0.017722 -0.004992 0.005942 0.001742 -0.006749
# 3 -0.004033 -0.004992 0.015430 0.003716 -0.000332 0.002403
# 4 -0.003056 0.005942 0.003716 0.028511 -0.002645 -0.001578
# 5 -0.001836 0.001742 -0.000332 -0.002645 0.028125 -0.001502
# 6 0.000091 -0.006749 0.002403 -0.001578 -0.001502 0.029834
#
#
# Mechanical properties :
#
#
# Convention : Reuss Voigt Hill
#
# Bulk Modulus (GPa) = 51.32595 58.96165 55.14380
# Shear Modulus (GPa) = 31.22715 35.69127 33.45921
#
# Velocity S-wave (km/s) = 3.81516 4.07875 3.94915
# Velocity P-wave (km/s) = 6.58263 7.04730 6.81892
#
# Compressibility (1/GPa) = 0.01948332
#
# Stress axis : x y z
#
# Youngs Moduli (GPa) = 98.37211 56.42707 64.80841
#
# Poissons Ratio (x) = 0.16315 0.26139
# Poissons Ratio (y) = 0.28443 0.32356
# Poissons Ratio (z) = 0.39676 0.28171
#
# Static dielectric constant tensor:
#      x y z
#    x 4.074990 0.094460 0.092320 
#    y 0.094460 3.865220 -0.247980 
#    z 0.092320 -0.247980 3.936920 
# 
# 
# High freq. dielectric constant tensor:
#      x y z
#    x 1.857480 0.005710 0.006670 
#    y 0.005710 1.836440 -0.018950 
#    z 0.006670 -0.018950 1.848130 
# 
# From -- ./inp_files/27237.got.cif
#   From: 2010.06.25/outbox.cif.g09.slc.cpg/sg2_14_cif.got.tgz:27237.got - 2010.06.27 13:26:56.
