data_PCOD8027275
_publ_section_title
;
Structure prediction by ZEFSAII (Michael W. Deem and Ramdas Pophale) SiO2 
 PCOD8027275
Probable space group: P -1
;
_chemical_formula_sum "Si O2"
_cell_formula_units_Z 16
_cell_length_a 9.532579
_cell_length_b 9.217494
_cell_length_c 14.180600
_cell_angle_alpha 84.078216
_cell_angle_beta 69.416351
_cell_angle_gamma 134.120393
_cell_volume 716.420149
_symmetry_space_group_name_H-M "P -1"
_symmetry_group_IT_number 2
_symmetry_cell_setting 'triclinic'
loop_
_space_group_symop_operation_xyz
x,y,z
-x,-y,-z
loop_
_atom_site_type_symbol
_atom_site_label
_atom_site_fract_x
_atom_site_fract_y
_atom_site_fract_z
Si Si1 0.737524 0.302675 0.033801
Si Si2 0.913938 0.876603 0.151610
Si Si3 0.993499 0.048338 0.314920
Si Si4 0.176779 0.497533 0.203687
Si Si5 0.303759 0.064702 0.920987
Si Si6 0.575842 0.843657 0.538022
Si Si7 0.486121 0.654316 0.769220
Si Si8 0.148301 0.646161 0.550303
O O1 0.565695 0.277417 0.136206
O O2 0.638163 0.062622 0.081994
O O3 0.764979 0.376689 0.915756
O O4 0.000000 0.500000 0.000000
O O5 0.874295 0.013334 0.114849
O O6 0.706807 0.623633 0.166336
O O7 0.911327 0.872305 0.265384
O O8 0.178363 0.017337 0.051831
O O9 0.026873 0.232883 0.246292
O O10 0.237865 0.187866 0.299641
O O11 0.772263 0.876580 0.452943
O O12 0.438947 0.658581 0.173910
O O13 0.034088 0.495338 0.308291
O O14 0.449458 0.703660 0.674490
O O15 0.364514 0.697162 0.518341
O O16 0.723650 0.101877 0.508488
O O17 0.000000 0.500000 0.500000
#
# Coordination Sequence:
#
# PCOD8027275 Si02
#       8
#     2   2   2   2   2   2   2   2
#     4  12  24  41  68 100 141 179 223 292 344 401
#     4  11  25  43  69  99 137 187 230 274 347 415
#     4  11  25  44  70  96 140 185 229 288 340 401
#     4  11  24  42  68 101 137 176 235 277 349 413
#     4  11  24  43  65 100 138 176 229 280 341 416
#     4  10  25  45  67 103 137 177 235 283 339 408
#     4  12  25  45  70 102 141 183 231 282 342 411
#     4  10  24  44  71  99 138 181 226 286 348 407
#
# _framework density 22.333264
#
# number of rings (size 3 to 8) (size 9 to 14) (size 15 to 20)
#    0.000    1.000    2.500    3.000    5.250    3.500 
#    0.000    0.000    0.000    0.000    0.000    0.000 
#    0.000    0.000    0.000    0.000    0.000    0.000 
#
# Total GULP energy -198366.530695 kJ/mol
# GULP energy per Si atom -12397.908168 kJ/mol
# Density = 2.228243 g / cm^3
# Si number density = 22.333264 Si / 1000 Ang^3
#
#
#
# Elastic Constant Matrix: (Units=GPa)
#
#
# Indices 1 2 3 4 5 6 
#
# 1 91.9476 38.1634 39.3495 5.0851 -17.6800 9.2675
# 2 38.1634 86.0299 36.1342 16.2363 -4.5280 13.0585
# 3 39.3495 36.1342 130.4970 11.4426 -14.2485 2.7294
# 4 5.0851 16.2363 11.4426 30.4599 2.7494 -0.4284
# 5 -17.6800 -4.5280 -14.2485 2.7494 47.1380 -6.0381
# 6 9.2675 13.0585 2.7294 -0.4284 -6.0381 33.8946
#
#
#
# Elastic Compliance Matrix: (Units=1/GPa)
#
#
# Indices 1 2 3 4 5 6 
#
# 1 0.015105 -0.005374 -0.002675 0.000958 0.004145 -0.001094
# 2 -0.005374 0.017171 -0.002540 -0.007251 -0.001387 -0.005281
# 3 -0.002675 -0.002540 0.009524 -0.001932 0.001905 0.001258
# 4 0.000958 -0.007251 -0.001932 0.037548 -0.002769 0.002668
# 5 0.004145 -0.001387 0.001905 -0.002769 0.023816 0.003455
# 6 -0.001094 -0.005281 0.001258 0.002668 0.003455 0.032385
#
#
# Mechanical properties :
#
#
# Convention : Reuss Voigt Hill
#
# Bulk Modulus (GPa) = 48.48892 59.52987 54.00939
# Shear Modulus (GPa) = 30.56213 35.28700 32.92457
#
# Velocity S-wave (km/s) = 3.70328 3.97926 3.84375
# Velocity P-wave (km/s) = 6.32806 6.91562 6.62835
#
# Compressibility (1/GPa) = 0.02062327
#
# Stress axis : x y z
#
# Youngs Moduli (GPa) = 66.20182 58.23666 104.99748
#
# Poissons Ratio (x) = 0.31295 0.28091
# Poissons Ratio (y) = 0.35575 0.26664
# Poissons Ratio (z) = 0.17712 0.14789
#
# Static dielectric constant tensor:
#      x y z
#    x 2.724250 0.712440 -0.045630 
#    y 0.712440 3.130870 -0.222170 
#    z -0.045630 -0.222170 4.044890 
# 
# 
# High freq. dielectric constant tensor:
#      x y z
#    x 1.887900 0.008480 -0.009420 
#    y 0.008480 1.874010 -0.003850 
#    z -0.009420 -0.003850 1.887290 
# 
# From -- ./inp_files/242180.got.cif
#   From: 2010.06.25/outbox.cif.g09.slc.cpg/sg2_122_cif.got.tgz:242180.got - 2010.06.27 13:26:56.
