data_PCOD8027851
_publ_section_title
;
Structure prediction by ZEFSAII (Michael W. Deem and Ramdas Pophale) SiO2 
 PCOD8027851
Probable space group: P -1
;
_chemical_formula_sum "Si O2"
_cell_formula_units_Z 16
_cell_length_a 5.430500
_cell_length_b 8.798009
_cell_length_c 15.284061
_cell_angle_alpha 98.822131
_cell_angle_beta 72.591410
_cell_angle_gamma 66.485472
_cell_volume 607.091739
_symmetry_space_group_name_H-M "P -1"
_symmetry_group_IT_number 2
_symmetry_cell_setting 'triclinic'
loop_
_space_group_symop_operation_xyz
x,y,z
-x,-y,-z
loop_
_atom_site_type_symbol
_atom_site_label
_atom_site_fract_x
_atom_site_fract_y
_atom_site_fract_z
Si Si1 0.813336 0.422018 0.136918
Si Si2 0.715581 0.241738 0.826072
Si Si3 0.601123 0.221485 0.482329
Si Si4 0.738348 0.614729 0.762228
Si Si5 0.026694 0.146679 0.954848
Si Si6 0.244263 0.521773 0.427804
Si Si7 0.430665 0.019861 0.245372
Si Si8 0.783676 0.861535 0.359985
O O1 0.623054 0.622131 0.144837
O O2 0.580210 0.345530 0.163680
O O3 0.003635 0.429196 0.198795
O O4 0.040450 0.292780 0.029455
O O5 0.758438 0.251448 0.925793
O O6 0.790824 0.045776 0.773993
O O7 0.938521 0.274858 0.741923
O O8 0.535573 0.350214 0.416128
O O9 0.759330 0.293335 0.539220
O O10 0.309191 0.235276 0.563662
O O11 0.819370 0.021353 0.414674
O O12 0.810348 0.465555 0.669133
O O13 0.725284 0.773369 0.720887
O O14 0.309615 0.052270 0.858002
O O15 0.000000 0.000000 0.000000
O O16 0.000000 0.500000 0.500000
O O17 0.514138 0.955831 0.329703
#
# Coordination Sequence:
#
# PCOD8027851 Si02
#       8
#     2   2   2   2   2   2   2   2
#     4  12  30  49  80 113 160 203 261 320 393 467
#     4  11  28  45  78 113 156 200 262 323 387 465
#     4  10  24  47  75 110 154 205 259 327 389 470
#     4  12  29  49  77 113 157 208 258 320 394 470
#     4  11  24  50  78 113 153 206 255 320 391 470
#     4  11  27  42  74 111 156 196 262 322 393 461
#     4  11  25  44  76 111 156 202 259 319 385 475
#     4  10  24  47  75 111 154 207 259 318 398 457
#
# _framework density 26.355160000000001
#
# number of rings (size 3 to 8) (size 9 to 14) (size 15 to 20)
#    0.000    1.000    2.500    1.125   15.750    1.500 
#    0.000    2.500    0.000    0.750    0.000    0.000 
#    0.000    0.000    0.000    0.000    0.000    0.000 
#
# Total GULP energy -198285.233316 kJ/mol
# GULP energy per Si atom -12392.827082 kJ/mol
# Density = 2.629517 g / cm^3
# Si number density = 26.355160 Si / 1000 Ang^3
#
#
#
# Elastic Constant Matrix: (Units=GPa)
#
#
# Indices 1 2 3 4 5 6 
#
# 1 114.3822 34.3678 44.2546 0.9431 34.8403 5.0993
# 2 34.3678 99.7687 50.3110 -14.1987 21.8213 12.3043
# 3 44.2546 50.3110 152.4449 -0.1442 35.4471 -2.8441
# 4 0.9431 -14.1987 -0.1442 48.3314 2.3345 5.9538
# 5 34.8403 21.8213 35.4471 2.3345 50.9648 2.2185
# 6 5.0993 12.3043 -2.8441 5.9538 2.2185 46.3552
#
#
#
# Elastic Compliance Matrix: (Units=1/GPa)
#
#
# Indices 1 2 3 4 5 6 
#
# 1 0.011786 -0.002048 -0.001306 -0.000476 -0.006229 -0.000474
# 2 -0.002048 0.014292 -0.003689 0.004865 -0.002188 -0.004315
# 3 -0.001306 -0.003689 0.009098 -0.001090 -0.003893 0.002008
# 4 -0.000476 0.004865 -0.001090 0.022725 -0.001860 -0.004136
# 5 -0.006229 -0.002188 -0.003893 -0.001860 0.027612 -0.000055
# 6 -0.000474 -0.004315 0.002008 -0.004136 -0.000055 0.023427
#
#
# Mechanical properties :
#
#
# Convention : Reuss Voigt Hill
#
# Bulk Modulus (GPa) = 47.41908 69.38474 58.40191
# Shear Modulus (GPa) = 38.44469 44.97445 41.70957
#
# Velocity S-wave (km/s) = 3.82346 4.13543 3.98250
# Velocity P-wave (km/s) = 6.12562 7.01330 6.58443
#
# Compressibility (1/GPa) = 0.02108856
#
# Stress axis : x y z
#
# Youngs Moduli (GPa) = 84.84780 69.96786 109.91269
#
# Poissons Ratio (x) = 0.14330 0.14359
# Poissons Ratio (y) = 0.17378 0.40550
# Poissons Ratio (z) = 0.11084 0.25813
#
# Static dielectric constant tensor:
#      x y z
#    x 4.937070 -0.155690 0.377560 
#    y -0.155690 5.891030 -0.715950 
#    z 0.377560 -0.715950 5.327050 
# 
# 
# High freq. dielectric constant tensor:
#      x y z
#    x 2.047710 0.007010 0.009700 
#    y 0.007010 2.080840 -0.004410 
#    z 0.009700 -0.004410 2.068160 
# 
# From -- ./inp_files/116076.got.cif
#   From: 2010.06.25/outbox.cif.g09.slc.cpg/sg2_59_cif.got.tgz:116076.got - 2010.06.27 13:26:56.
