data_PCOD8027354
_publ_section_title
;
Structure prediction by ZEFSAII (Michael W. Deem and Ramdas Pophale) SiO2 
 PCOD8027354
Probable space group: P -1
;
_chemical_formula_sum "Si O2"
_cell_formula_units_Z 16
_cell_length_a 11.467139
_cell_length_b 10.202103
_cell_length_c 14.719839
_cell_angle_alpha 64.989523
_cell_angle_beta 29.176355
_cell_angle_gamma 72.598900
_cell_volume 751.148880
_symmetry_space_group_name_H-M "P -1"
_symmetry_group_IT_number 2
_symmetry_cell_setting 'triclinic'
loop_
_space_group_symop_operation_xyz
x,y,z
-x,-y,-z
loop_
_atom_site_type_symbol
_atom_site_label
_atom_site_fract_x
_atom_site_fract_y
_atom_site_fract_z
Si Si1 0.740874 0.547376 0.267143
Si Si2 0.506568 0.954292 0.318293
Si Si3 0.678380 0.760975 0.102640
Si Si4 0.102575 0.115880 0.470967
Si Si5 0.207835 0.752683 0.929231
Si Si6 0.626535 0.167107 0.868948
Si Si7 0.511770 0.336523 0.068620
Si Si8 0.791175 0.240422 0.277731
O O1 0.500000 0.500000 0.500000
O O2 0.669343 0.601686 0.200730
O O3 0.870069 0.404708 0.214884
O O4 0.922112 0.683436 0.149398
O O5 0.550790 0.863407 0.226091
O O6 0.428240 0.849956 0.488635
O O7 0.289099 0.046106 0.426406
O O8 0.751139 0.071780 0.132222
O O9 0.521498 0.740425 0.123894
O O10 0.960130 0.830466 0.869371
O O11 0.234904 0.260110 0.288133
O O12 0.902195 0.171781 0.652259
O O13 0.000000 0.000000 0.500000
O O14 0.348326 0.665170 0.930603
O O15 0.306382 0.739655 0.763430
O O16 0.637489 0.241951 0.937982
O O17 0.500000 0.000000 0.000000
O O18 0.500000 0.500000 0.000000
#
# Coordination Sequence:
#
# PCOD8027354 Si02
#       8
#     2   2   2   2   2   2   2   2
#     4  11  24  45  67  95 127 177 218 270 332 396
#     4  11  22  42  67 102 130 169 217 279 335 380
#     4  11  23  39  69  99 128 171 226 267 323 404
#     4  11  22  43  68  99 136 175 229 272 321 411
#     4  10  24  45  62  95 141 159 219 280 320 393
#     4  12  23  42  71 100 136 181 224 272 335 397
#     4  11  27  43  66 101 138 180 221 279 339 385
#     4  11  24  42  69  94 128 177 220 265 339 390
#
# _framework density 21.300705000000001
#
# number of rings (size 3 to 8) (size 9 to 14) (size 15 to 20)
#    0.000    1.000    3.750    3.375    3.500    3.500 
#    6.750    0.000    0.000    0.000    0.000    0.000 
#    0.000    0.000    0.000    0.000    0.000    0.000 
#
# Total GULP energy -198357.682406 kJ/mol
# GULP energy per Si atom -12397.355150 kJ/mol
# Density = 2.125222 g / cm^3
# Si number density = 21.300705 Si / 1000 Ang^3
#
#
#
# Elastic Constant Matrix: (Units=GPa)
#
#
# Indices 1 2 3 4 5 6 
#
# 1 112.5041 31.0485 39.0932 -3.1115 0.6093 -3.8268
# 2 31.0485 99.4802 55.2949 -5.8996 0.7279 -6.3068
# 3 39.0932 55.2949 147.0533 -8.9112 2.9666 -1.4086
# 4 -3.1115 -5.8996 -8.9112 48.3453 -0.5926 4.1356
# 5 0.6093 0.7279 2.9666 -0.5926 27.4849 0.1699
# 6 -3.8268 -6.3068 -1.4086 4.1356 0.1699 33.4495
#
#
#
# Elastic Compliance Matrix: (Units=1/GPa)
#
#
# Indices 1 2 3 4 5 6 
#
# 1 0.010146 -0.002057 -0.001918 -0.000011 0.000032 0.000693
# 2 -0.002057 0.013302 -0.004408 0.000507 0.000168 0.002023
# 3 -0.001918 -0.004408 0.009040 0.001064 -0.000789 -0.000797
# 4 -0.000011 0.000507 0.001064 0.021158 0.000343 -0.002478
# 5 0.000032 0.000168 -0.000789 0.000343 0.036472 -0.000226
# 6 0.000693 0.002023 -0.000797 -0.002478 -0.000226 0.030631
#
#
# Mechanical properties :
#
#
# Convention : Reuss Voigt Hill
#
# Bulk Modulus (GPa) = 63.60975 67.76787 65.68881
# Shear Modulus (GPa) = 35.02465 37.42935 36.22700
#
# Velocity S-wave (km/s) = 4.05939 4.19643 4.12848
# Velocity P-wave (km/s) = 7.20410 7.44070 7.32336
#
# Compressibility (1/GPa) = 0.01572086
#
# Stress axis : x y z
#
# Youngs Moduli (GPa) = 98.56074 75.17886 110.61396
#
# Poissons Ratio (x) = 0.15466 0.21219
# Poissons Ratio (y) = 0.20277 0.48759
# Poissons Ratio (z) = 0.18907 0.33139
#
# Static dielectric constant tensor:
#      x y z
#    x 3.905460 -0.000280 0.067380 
#    y -0.000280 3.970150 -0.126720 
#    z 0.067380 -0.126720 4.138970 
# 
# 
# High freq. dielectric constant tensor:
#      x y z
#    x 1.833810 -0.005290 0.009980 
#    y -0.005290 1.833720 -0.002920 
#    z 0.009980 -0.002920 1.847370 
# 
# From -- ./inp_files/515288.got.cif
#   From: 2010.06.25/outbox.cif.g09.slc.cpg/sg2_258_cif.got.tgz:515288.got - 2010.06.27 13:26:56.
