data_PCOD8027954
_publ_section_title
;
Structure prediction by ZEFSAII (Michael W. Deem and Ramdas Pophale) SiO2 
 PCOD8027954
Probable space group: P -1
;
_chemical_formula_sum "Si O2"
_cell_formula_units_Z 14
_cell_length_a 6.517998
_cell_length_b 11.888404
_cell_length_c 11.603922
_cell_angle_alpha 79.821876
_cell_angle_beta 54.051484
_cell_angle_gamma 57.825071
_cell_volume 603.890522
_symmetry_space_group_name_H-M "P -1"
_symmetry_group_IT_number 2
_symmetry_cell_setting 'triclinic'
loop_
_space_group_symop_operation_xyz
x,y,z
-x,-y,-z
loop_
_atom_site_type_symbol
_atom_site_label
_atom_site_fract_x
_atom_site_fract_y
_atom_site_fract_z
Si Si1 0.090149 0.797232 0.491053
Si Si2 0.232796 0.779786 0.814005
Si Si3 0.204899 0.343927 0.476227
Si Si4 0.218239 0.365746 0.718510
Si Si5 0.393816 0.394194 0.068979
Si Si6 0.067298 0.999499 0.287394
Si Si7 0.309890 0.231617 0.941492
O O1 0.437979 0.671216 0.385045
O O2 0.881693 0.736838 0.566362
O O3 0.011656 0.878494 0.621092
O O4 0.999852 0.897514 0.392721
O O5 0.469993 0.683716 0.656824
O O6 0.388320 0.732381 0.896282
O O7 0.129972 0.932819 0.777279
O O8 0.939627 0.771672 0.900145
O O9 0.187983 0.303113 0.620658
O O10 0.000000 0.500000 0.500000
O O11 0.158460 0.296235 0.857062
O O12 0.951538 0.525526 0.783793
O O13 0.500000 0.500000 0.000000
O O14 0.407508 0.326139 0.954361
O O15 0.412610 0.919515 0.147234
#
# Coordination Sequence:
#
# PCOD8027954 Si02
#       7
#     2   2   2   2   2   2   2
#     4  10  25  48  73 105 148 187 238 296 357 426
#     4  12  26  45  69 110 143 183 246 293 357 418
#     4  12  27  44  73 114 142 184 242 299 363 425
#     4  11  24  45  74 103 141 192 231 295 365 422
#     4  12  27  45  72 112 143 190 239 291 372 422
#     4  10  24  50  71 102 143 200 238 284 360 423
#     4  11  27  47  74  99 150 192 234 300 352 429
#
# _framework density 23.183009999999999
#
# number of rings (size 3 to 8) (size 9 to 14) (size 15 to 20)
#    0.000    0.857    4.286    0.857    8.000    1.714 
#    2.571    0.000    0.000    0.000    0.000    0.000 
#    0.000    0.000    0.000    0.000    0.000    0.000 
#
# Total GULP energy -173472.392615 kJ/mol
# GULP energy per Si atom -12390.885187 kJ/mol
# Density = 2.313024 g / cm^3
# Si number density = 23.183010 Si / 1000 Ang^3
#
#
#
# Elastic Constant Matrix: (Units=GPa)
#
#
# Indices 1 2 3 4 5 6 
#
# 1 83.2247 66.2664 56.7012 -2.1282 0.6910 -11.7607
# 2 66.2664 114.5879 56.1319 1.6576 -8.2876 -23.3945
# 3 56.7012 56.1319 137.8970 14.9810 -10.9901 -2.2607
# 4 -2.1282 1.6576 14.9810 37.4306 -11.0146 2.4956
# 5 0.6910 -8.2876 -10.9901 -11.0146 36.6366 0.4174
# 6 -11.7607 -23.3945 -2.2607 2.4956 0.4174 42.8821
#
#
#
# Elastic Compliance Matrix: (Units=1/GPa)
#
#
# Indices 1 2 3 4 5 6 
#
# 1 0.026556 -0.012525 -0.006534 0.003429 -0.004263 -0.000053
# 2 -0.012525 0.018553 -0.001988 -0.000074 0.003740 0.006550
# 3 -0.006534 -0.001988 0.011310 -0.004129 0.001848 -0.002058
# 4 0.003429 -0.000074 -0.004129 0.031006 0.008015 -0.001200
# 5 -0.004263 0.003740 0.001848 0.008015 0.031183 0.000199
# 6 -0.000053 0.006550 -0.002058 -0.001200 0.000199 0.026838
#
#
# Mechanical properties :
#
#
# Convention : Reuss Voigt Hill
#
# Bulk Modulus (GPa) = 69.81497 77.10096 73.45797
# Shear Modulus (GPa) = 25.99883 33.83052 29.91467
#
# Velocity S-wave (km/s) = 3.35245 3.82420 3.59607
# Velocity P-wave (km/s) = 6.72052 7.26836 6.99980
#
# Compressibility (1/GPa) = 0.01432358
#
# Stress axis : x y z
#
# Youngs Moduli (GPa) = 37.65620 53.89926 88.41689
#
# Poissons Ratio (x) = 0.67510 0.57772
# Poissons Ratio (y) = 0.47165 0.17582
# Poissons Ratio (z) = 0.24605 0.10718
#
# Static dielectric constant tensor:
#      x y z
#    x 9.340050 -6.469990 -5.045820 
#    y -6.469990 11.194150 6.208920 
#    z -5.045820 6.208920 9.970520 
# 
# 
# High freq. dielectric constant tensor:
#      x y z
#    x 1.895400 -0.039380 0.001730 
#    y -0.039380 1.915690 0.003740 
#    z 0.001730 0.003740 1.939330 
# 
# From -- ./inp_files/364210.got.cif
#   From: 2010.06.25/outbox.cif.g09.slc.cpg/sg2_183_cif.got.tgz:364210.got - 2010.06.27 13:26:56.
