data_PCOD8027229
_publ_section_title
;
Structure prediction by ZEFSAII (Michael W. Deem and Ramdas Pophale) SiO2 
 PCOD8027229
Probable space group: P -1
;
_chemical_formula_sum "Si O2"
_cell_formula_units_Z 16
_cell_length_a 22.427160
_cell_length_b 8.421679
_cell_length_c 9.128610
_cell_angle_alpha 127.321514
_cell_angle_beta 125.069979
_cell_angle_gamma 98.043546
_cell_volume 742.010386
_symmetry_space_group_name_H-M "P -1"
_symmetry_group_IT_number 2
_symmetry_cell_setting 'triclinic'
loop_
_space_group_symop_operation_xyz
x,y,z
-x,-y,-z
loop_
_atom_site_type_symbol
_atom_site_label
_atom_site_fract_x
_atom_site_fract_y
_atom_site_fract_z
Si Si1 0.911148 0.643848 0.669583
Si Si2 0.510853 0.958621 0.825472
Si Si3 0.714787 0.158113 0.318323
Si Si4 0.066040 0.714972 0.077085
Si Si5 0.623287 0.534138 0.856310
Si Si6 0.462861 0.229415 0.714502
Si Si7 0.767674 0.283747 0.780132
Si Si8 0.188748 0.349381 0.720487
O O1 0.834492 0.472410 0.609134
O O2 0.830575 0.505092 0.338782
O O3 0.985105 0.592883 0.755307
O O4 0.000000 0.000000 0.000000
O O5 0.411833 0.609376 0.436539
O O6 0.517244 0.156153 0.834891
O O7 0.500000 0.000000 0.000000
O O8 0.624469 0.070450 0.037402
O O9 0.706948 0.225359 0.511822
O O10 0.699927 0.886924 0.147800
O O11 0.160825 0.764915 0.179974
O O12 0.109995 0.012113 0.370660
O O13 0.000000 0.500000 0.000000
O O14 0.510925 0.339965 0.679961
O O15 0.688130 0.488869 0.005963
O O16 0.329404 0.954682 0.370711
O O17 0.500000 0.500000 0.000000
O O18 0.839470 0.611462 0.136808
#
# Coordination Sequence:
#
# PCOD8027229 Si02
#       8
#     2   2   2   2   2   2   2   2
#     4  10  24  44  70  97 129 176 224 290 346 395
#     4  12  24  41  65 103 141 179 234 277 334 413
#     4  12  23  44  67 100 136 179 229 275 341 411
#     4  11  22  46  71  94 132 175 227 290 344 401
#     4  12  23  43  69  98 141 192 214 280 349 408
#     4  12  23  41  64  98 139 181 229 267 339 416
#     4  12  24  41  70  96 134 179 226 274 341 409
#     4  11  23  43  70  99 132 176 226 277 350 404
#
# _framework density 21.563037999999999
#
# number of rings (size 3 to 8) (size 9 to 14) (size 15 to 20)
#    0.000    0.500    6.250    1.500    1.750    2.000 
#    0.000    0.000    5.500    0.000    0.000    0.000 
#    0.000    0.000    0.000    0.000    0.000    0.000 
#
# Total GULP energy -198239.274224 kJ/mol
# GULP energy per Si atom -12389.954639 kJ/mol
# Density = 2.151396 g / cm^3
# Si number density = 21.563038 Si / 1000 Ang^3
#
#
#
# Elastic Constant Matrix: (Units=GPa)
#
#
# Indices 1 2 3 4 5 6 
#
# 1 103.2138 61.2459 69.9436 -2.2960 -5.3160 -11.1012
# 2 61.2459 97.7780 49.2447 -6.8119 11.3513 -5.9859
# 3 69.9436 49.2447 113.0362 -14.7639 -2.2353 2.5958
# 4 -2.2960 -6.8119 -14.7639 41.3702 -5.5783 12.8082
# 5 -5.3160 11.3513 -2.2353 -5.5783 51.7496 -5.2944
# 6 -11.1012 -5.9859 2.5958 12.8082 -5.2944 39.7344
#
#
#
# Elastic Compliance Matrix: (Units=1/GPa)
#
#
# Indices 1 2 3 4 5 6 
#
# 1 0.024699 -0.009865 -0.011980 -0.006707 0.004375 0.008942
# 2 -0.009865 0.017778 -0.001514 0.001524 -0.004929 -0.001127
# 3 -0.011980 -0.001514 0.018104 0.007796 -0.000020 -0.007273
# 4 -0.006707 0.001524 0.007796 0.030695 0.001409 -0.011860
# 5 0.004375 -0.004929 -0.000020 0.001409 0.021299 0.002865
# 6 0.008942 -0.001127 -0.007273 -0.011860 0.002865 0.032176
#
#
# Mechanical properties :
#
#
# Convention : Reuss Voigt Hill
#
# Bulk Modulus (GPa) = 72.13099 74.98848 73.55974
# Shear Modulus (GPa) = 25.49883 35.47707 30.48795
#
# Velocity S-wave (km/s) = 3.44252 4.06060 3.76426
# Velocity P-wave (km/s) = 7.02318 7.53900 7.28566
#
# Compressibility (1/GPa) = 0.01386367
#
# Stress axis : x y z
#
# Youngs Moduli (GPa) = 40.48820 56.24907 55.23684
#
# Poissons Ratio (x) = 0.55489 0.66174
# Poissons Ratio (y) = 0.39941 0.08361
# Poissons Ratio (z) = 0.48505 0.08514
#
# Static dielectric constant tensor:
#      x y z
#    x 4.397480 -0.260830 0.410080 
#    y -0.260830 4.211190 -0.429460 
#    z 0.410080 -0.429460 4.609490 
# 
# 
# High freq. dielectric constant tensor:
#      x y z
#    x 1.844060 -0.016410 0.006000 
#    y -0.016410 1.844070 -0.014060 
#    z 0.006000 -0.014060 1.858760 
# 
# From -- ./inp_files/343878.got.cif
#   From: 2010.06.25/outbox.cif.g09.slc.cpg/sg2_172_cif.got.tgz:343878.got - 2010.06.27 13:26:56.
