data_PCOD8027785
_publ_section_title
;
Structure prediction by ZEFSAII (Michael W. Deem and Ramdas Pophale) SiO2 
 PCOD8027785
Probable space group: P -1
;
_chemical_formula_sum "Si O2"
_cell_formula_units_Z 14
_cell_length_a 6.618138
_cell_length_b 14.371425
_cell_length_c 14.590622
_cell_angle_alpha 148.738827
_cell_angle_beta 106.045670
_cell_angle_gamma 86.669761
_cell_volume 646.420528
_symmetry_space_group_name_H-M "P -1"
_symmetry_group_IT_number 2
_symmetry_cell_setting 'triclinic'
loop_
_space_group_symop_operation_xyz
x,y,z
-x,-y,-z
loop_
_atom_site_type_symbol
_atom_site_label
_atom_site_fract_x
_atom_site_fract_y
_atom_site_fract_z
Si Si1 0.760563 0.126085 0.515588
Si Si2 0.097988 0.887448 0.986082
Si Si3 0.574102 0.068934 0.246083
Si Si4 0.750770 0.343489 0.331038
Si Si5 0.245873 0.253035 0.742522
Si Si6 0.352825 0.306592 0.134018
Si Si7 0.356991 0.530567 0.143854
O O1 0.685143 0.148644 0.423211
O O2 0.719376 0.285981 0.709023
O O3 0.022798 0.157522 0.574941
O O4 0.642388 0.907086 0.353167
O O5 0.304818 0.023936 0.188896
O O6 0.239192 0.796935 0.865535
O O7 0.896628 0.738569 0.893049
O O8 0.000000 0.000000 0.000000
O O9 0.679976 0.240713 0.332339
O O10 0.639094 0.888677 0.072016
O O11 0.543891 0.404756 0.318972
O O12 0.000000 0.500000 0.500000
O O13 0.404592 0.412090 0.828446
O O14 0.193575 0.354405 0.913479
O O15 0.383189 0.463956 0.192947
#
# Coordination Sequence:
#
# PCOD8027785 Si02
#       7
#     2   2   2   2   2   2   2
#     4  11  24  43  68 100 125 173 216 269 331 390
#     4  11  21  42  64  85 128 180 214 252 316 387
#     4  11  23  42  64  94 132 172 216 263 321 384
#     4  11  25  39  63  95 135 167 212 272 315 380
#     4  10  24  47  67  91 137 164 215 280 327 382
#     4  11  23  43  63  94 129 174 217 260 325 385
#     4  11  24  43  69  97 126 172 217 267 329 395
#
# _framework density 21.657727000000001
#
# number of rings (size 3 to 8) (size 9 to 14) (size 15 to 20)
#    0.000    1.143    4.286    1.714    4.000    4.000 
#    2.571    0.000    0.000    0.000    0.000    0.000 
#    0.000    0.000    0.000    0.000    0.000    0.000 
#
# Total GULP energy -173521.293105 kJ/mol
# GULP energy per Si atom -12394.378079 kJ/mol
# Density = 2.160843 g / cm^3
# Si number density = 21.657727 Si / 1000 Ang^3
#
#
#
# Elastic Constant Matrix: (Units=GPa)
#
#
# Indices 1 2 3 4 5 6 
#
# 1 106.2981 61.1006 32.0323 -6.7958 24.1099 1.5934
# 2 61.1006 155.6464 52.5895 -6.4603 15.7171 6.1362
# 3 32.0323 52.5895 95.1944 -0.7993 9.5769 -12.4622
# 4 -6.7958 -6.4603 -0.7993 28.0302 -5.9944 8.6935
# 5 24.1099 15.7171 9.5769 -5.9944 42.1759 4.4430
# 6 1.5934 6.1362 -12.4622 8.6935 4.4430 29.9110
#
#
#
# Elastic Compliance Matrix: (Units=1/GPa)
#
#
# Indices 1 2 3 4 5 6 
#
# 1 0.013691 -0.004163 -0.001732 0.001110 -0.005717 -0.000070
# 2 -0.004163 0.009881 -0.004709 0.002714 0.000643 -0.004651
# 3 -0.001732 -0.004709 0.015043 -0.004315 -0.002223 0.008910
# 4 0.001110 0.002714 -0.004315 0.042913 0.007113 -0.015943
# 5 -0.005717 0.000643 -0.002223 0.007113 0.029005 -0.007129
# 6 -0.000070 -0.004651 0.008910 -0.015943 -0.007129 0.043795
#
#
# Mechanical properties :
#
#
# Convention : Reuss Voigt Hill
#
# Bulk Modulus (GPa) = 57.44642 72.06488 64.75565
# Shear Modulus (GPa) = 27.57268 34.11783 30.84526
#
# Velocity S-wave (km/s) = 3.57194 3.97333 3.77797
# Velocity P-wave (km/s) = 6.60257 7.37540 6.99966
#
# Compressibility (1/GPa) = 0.01740753
#
# Stress axis : x y z
#
# Youngs Moduli (GPa) = 73.04021 101.20143 66.47783
#
# Poissons Ratio (x) = 0.42134 0.11512
# Poissons Ratio (y) = 0.30410 0.31302
# Poissons Ratio (z) = 0.12648 0.47652
#
# Static dielectric constant tensor:
#      x y z
#    x 4.198520 0.001990 0.112240 
#    y 0.001990 3.894350 -0.019120 
#    z 0.112240 -0.019120 4.101580 
# 
# 
# High freq. dielectric constant tensor:
#      x y z
#    x 1.850470 -0.004270 0.007720 
#    y -0.004270 1.854960 -0.001650 
#    z 0.007720 -0.001650 1.854420 
# 
# From -- ./inp_files/37083.got.cif
#   From: 2010.06.25/outbox.cif.g09.slc.cpg/sg2_19_cif.got.tgz:37083.got - 2010.06.27 13:26:56.
