data_PCOD8027251
_publ_section_title
;
Structure prediction by ZEFSAII (Michael W. Deem and Ramdas Pophale) SiO2 
 PCOD8027251
Probable space group: P -1
;
_chemical_formula_sum "Si O2"
_cell_formula_units_Z 14
_cell_length_a 12.015749
_cell_length_b 11.449909
_cell_length_c 20.955742
_cell_angle_alpha 157.192608
_cell_angle_beta 35.139431
_cell_angle_gamma 132.970517
_cell_volume 608.636834
_symmetry_space_group_name_H-M "P -1"
_symmetry_group_IT_number 2
_symmetry_cell_setting 'triclinic'
loop_
_space_group_symop_operation_xyz
x,y,z
-x,-y,-z
loop_
_atom_site_type_symbol
_atom_site_label
_atom_site_fract_x
_atom_site_fract_y
_atom_site_fract_z
Si Si1 0.326329 0.155884 0.998281
Si Si2 0.122676 0.682254 0.902997
Si Si3 0.979908 0.370437 0.700229
Si Si4 0.246628 0.380023 0.815600
Si Si5 0.642683 0.581458 0.525785
Si Si6 0.583299 0.659329 0.818755
Si Si7 0.239056 0.813867 0.605667
O O1 0.298661 0.344556 0.172490
O O2 0.241135 0.410206 0.110124
O O3 0.230800 0.864662 0.897438
O O4 0.561322 0.957290 0.772179
O O5 0.006235 0.483290 0.816613
O O6 0.280974 0.420949 0.743642
O O7 0.981672 0.956986 0.153827
O O8 0.132443 0.469431 0.631462
O O9 0.000000 0.000000 0.500000
O O10 0.379179 0.568665 0.883425
O O11 0.345195 0.029267 0.623471
O O12 0.000000 0.500000 0.000000
O O13 0.500000 0.500000 0.500000
O O14 0.643459 0.353333 0.470396
O O15 0.754928 0.451457 0.584004
O O16 0.500000 0.000000 0.000000
#
# Coordination Sequence:
#
# PCOD8027251 Si02
#       7
#     2   2   2   2   2   2   2
#     4  12  25  46  74 104 148 186 241 295 351 439
#     4  11  22  48  71 103 145 192 234 291 365 424
#     4  12  29  48  73 108 143 186 245 304 352 421
#     4  10  24  44  71 103 143 187 232 297 354 426
#     4  12  24  44  78 100 138 196 239 285 361 424
#     4  12  24  43  70 110 143 182 242 290 360 423
#     4  11  24  43  72 104 140 190 236 289 361 422
#
# _framework density 23.002222
#
# number of rings (size 3 to 8) (size 9 to 14) (size 15 to 20)
#    0.000    0.571    5.714    1.714    2.000    4.571 
#    2.571    0.000    0.000    0.000    0.000    0.000 
#    0.000    0.000    0.000    0.000    0.000    0.000 
#
# Total GULP energy -173452.007898 kJ/mol
# GULP energy per Si atom -12389.429136 kJ/mol
# Density = 2.294987 g / cm^3
# Si number density = 23.002222 Si / 1000 Ang^3
#
#
#
# Elastic Constant Matrix: (Units=GPa)
#
#
# Indices 1 2 3 4 5 6 
#
# 1 140.1599 23.2782 41.7314 28.5198 5.4235 -22.7591
# 2 23.2782 81.5597 28.5333 19.2307 -7.4591 -11.9284
# 3 41.7314 28.5333 131.0761 15.1544 7.8154 -15.3435
# 4 28.5198 19.2307 15.1544 46.1329 -11.5159 -7.6118
# 5 5.4235 -7.4591 7.8154 -11.5159 45.6300 12.0505
# 6 -22.7591 -11.9284 -15.3435 -7.6118 12.0505 39.8794
#
#
#
# Elastic Compliance Matrix: (Units=1/GPa)
#
#
# Indices 1 2 3 4 5 6 
#
# 1 0.009711 -0.000586 -0.001565 -0.005348 -0.003608 0.004834
# 2 -0.000586 0.014676 -0.002354 -0.004347 0.001263 0.001938
# 3 -0.001565 -0.002354 0.009265 -0.001374 -0.002807 0.002553
# 4 -0.005348 -0.004347 -0.001374 0.028935 0.007926 -0.001753
# 5 -0.003608 0.001263 -0.002807 0.007926 0.027561 -0.009577
# 6 0.004834 0.001938 0.002553 -0.001753 -0.009577 0.031956
#
#
# Mechanical properties :
#
#
# Convention : Reuss Voigt Hill
#
# Bulk Modulus (GPa) = 40.58160 59.98684 50.28422
# Shear Modulus (GPa) = 35.88678 43.61199 39.74938
#
# Velocity S-wave (km/s) = 3.95415 4.35902 4.16151
# Velocity P-wave (km/s) = 6.20708 7.17427 6.70813
#
# Compressibility (1/GPa) = 0.02464171
#
# Stress axis : x y z
#
# Youngs Moduli (GPa) = 102.97862 68.13990 107.93443
#
# Poissons Ratio (x) = 0.03994 0.16889
# Poissons Ratio (y) = 0.06036 0.25407
# Poissons Ratio (z) = 0.16113 0.16040
#
# Static dielectric constant tensor:
#      x y z
#    x 4.010820 -0.289860 -0.275720 
#    y -0.289860 4.534910 -0.037230 
#    z -0.275720 -0.037230 4.091150 
# 
# 
# High freq. dielectric constant tensor:
#      x y z
#    x 1.909000 -0.018090 -0.009390 
#    y -0.018090 1.908200 0.000870 
#    z -0.009390 0.000870 1.922170 
# 
# From -- ./inp_files/398054.got.cif
#   From: 2010.06.25/outbox.cif.g09.slc.cpg/sg2_200_cif.got.tgz:398054.got - 2010.06.27 13:26:56.
