data_PCOD8027460
_publ_section_title
;
Structure prediction by ZEFSAII (Michael W. Deem and Ramdas Pophale) SiO2 
 PCOD8027460
Probable space group: P -1
;
_chemical_formula_sum "Si O2"
_cell_formula_units_Z 16
_cell_length_a 16.647779
_cell_length_b 6.801760
_cell_length_c 8.475808
_cell_angle_alpha 108.602093
_cell_angle_beta 82.312774
_cell_angle_gamma 130.718408
_cell_volume 685.715936
_symmetry_space_group_name_H-M "P -1"
_symmetry_group_IT_number 2
_symmetry_cell_setting 'triclinic'
loop_
_space_group_symop_operation_xyz
x,y,z
-x,-y,-z
loop_
_atom_site_type_symbol
_atom_site_label
_atom_site_fract_x
_atom_site_fract_y
_atom_site_fract_z
Si Si1 0.518143 0.305621 0.374718
Si Si2 0.018133 0.367104 0.660173
Si Si3 0.913369 0.932757 0.330332
Si Si4 0.410584 0.481783 0.931844
Si Si5 0.321269 0.707748 0.221707
Si Si6 0.813354 0.047576 0.148267
Si Si7 0.814312 0.153586 0.816044
Si Si8 0.734395 0.617863 0.553545
O O1 0.500000 0.500000 0.500000
O O2 0.537764 0.341705 0.192455
O O3 0.619104 0.373455 0.451544
O O4 0.416859 0.992849 0.350445
O O5 0.019180 0.167082 0.726112
O O6 0.132679 0.669796 0.702295
O O7 0.928854 0.370878 0.757765
O O8 0.986120 0.241353 0.459642
O O9 0.822336 0.719674 0.425414
O O10 0.865061 0.920597 0.171862
O O11 0.312489 0.164387 0.835153
O O12 0.500000 0.500000 0.000000
O O13 0.367590 0.596355 0.079433
O O14 0.247382 0.729940 0.136428
O O15 0.247726 0.497204 0.327941
O O16 0.834716 0.103223 0.972686
O O17 0.740988 0.869870 0.667307
#
# Coordination Sequence:
#
# PCOD8027460 Si02
#       8
#     2   2   2   2   2   2   2   2
#     4  12  24  45  72 105 140 188 243 292 360 429
#     4  10  25  44  70 104 143 186 239 296 352 428
#     4  10  24  45  69 107 142 183 240 296 359 418
#     4  12  27  48  72 110 145 186 240 298 357 434
#     4  12  26  47  73 101 149 192 235 300 362 417
#     4  12  24  45  73 100 144 184 235 289 361 425
#     4  11  25  45  69 105 143 184 242 292 354 429
#     4  11  23  44  68 104 140 189 240 296 349 430
#
# _framework density 23.333278
#
# number of rings (size 3 to 8) (size 9 to 14) (size 15 to 20)
#    0.000    0.750    3.750    3.000    1.750    7.500 
#    0.000    0.000    0.000    0.000    0.000    0.000 
#    0.000    0.000    0.000    0.000    0.000    0.000 
#
# Total GULP energy -198448.525890 kJ/mol
# GULP energy per Si atom -12403.032868 kJ/mol
# Density = 2.328017 g / cm^3
# Si number density = 23.333278 Si / 1000 Ang^3
#
#
#
# Elastic Constant Matrix: (Units=GPa)
#
#
# Indices 1 2 3 4 5 6 
#
# 1 132.7398 31.9468 49.6974 7.1630 15.1087 -9.1017
# 2 31.9468 106.5557 31.3164 13.1790 1.6503 9.3470
# 3 49.6974 31.3164 87.8599 -12.7024 13.7997 -11.4241
# 4 7.1630 13.1790 -12.7024 44.2195 -2.7182 15.7874
# 5 15.1087 1.6503 13.7997 -2.7182 43.9326 0.7707
# 6 -9.1017 9.3470 -11.4241 15.7874 0.7707 32.1976
#
#
#
# Elastic Compliance Matrix: (Units=1/GPa)
#
#
# Indices 1 2 3 4 5 6 
#
# 1 0.010580 -0.001380 -0.005279 -0.004266 -0.002257 0.003664
# 2 -0.001380 0.011878 -0.004639 -0.003147 0.001360 -0.003974
# 3 -0.005279 -0.004639 0.017836 0.005967 -0.003302 0.003336
# 4 -0.004266 -0.003147 0.005967 0.030833 0.001853 -0.013338
# 5 -0.002257 0.001360 -0.003302 0.001853 0.024704 -0.003704
# 6 0.003664 -0.003974 0.003336 -0.013338 -0.003704 0.041060
#
#
# Mechanical properties :
#
#
# Convention : Reuss Voigt Hill
#
# Bulk Modulus (GPa) = 56.49539 61.45297 58.97418
# Shear Modulus (GPa) = 30.23209 38.34958 34.29084
#
# Velocity S-wave (km/s) = 3.60344 4.05848 3.83771
# Velocity P-wave (km/s) = 6.44810 6.95384 6.70574
#
# Compressibility (1/GPa) = 0.01770056
#
# Stress axis : x y z
#
# Youngs Moduli (GPa) = 94.51571 84.18604 56.06528
#
# Poissons Ratio (x) = 0.11613 0.29596
# Poissons Ratio (y) = 0.13038 0.26008
# Poissons Ratio (z) = 0.49893 0.39053
#
# Static dielectric constant tensor:
#      x y z
#    x 4.228000 0.092860 0.218780 
#    y 0.092860 4.400810 0.118560 
#    z 0.218780 0.118560 4.115260 
# 
# 
# High freq. dielectric constant tensor:
#      x y z
#    x 1.926590 0.003320 0.017880 
#    y 0.003320 1.934040 0.001610 
#    z 0.017880 0.001610 1.918130 
# 
# From -- ./inp_files/323886.got.cif
#   From: 2010.06.25/outbox.cif.g09.slc.cpg/sg2_162_cif.got.tgz:323886.got - 2010.06.27 13:26:56.
