data_PCOD8027609
_publ_section_title
;
Structure prediction by ZEFSAII (Michael W. Deem and Ramdas Pophale) SiO2 
 PCOD8027609
Probable space group: P -1
;
_chemical_formula_sum "Si O2"
_cell_formula_units_Z 12
_cell_length_a 12.704890
_cell_length_b 9.568135
_cell_length_c 7.695505
_cell_angle_alpha 51.561881
_cell_angle_beta 49.733651
_cell_angle_gamma 63.774363
_cell_volume 557.859415
_symmetry_space_group_name_H-M "P -1"
_symmetry_group_IT_number 2
_symmetry_cell_setting 'triclinic'
loop_
_space_group_symop_operation_xyz
x,y,z
-x,-y,-z
loop_
_atom_site_type_symbol
_atom_site_label
_atom_site_fract_x
_atom_site_fract_y
_atom_site_fract_z
Si Si1 0.353824 0.781945 0.508988
Si Si2 0.962512 0.343326 0.537488
Si Si3 0.646176 0.855243 0.216635
Si Si4 0.297415 0.786224 0.955145
Si Si5 0.859030 0.925698 0.640970
Si Si6 0.297415 0.538785 0.450024
O O1 0.500000 0.869982 0.260037
O O2 0.340515 0.717478 0.771515
O O3 0.349802 0.609053 0.524165
O O4 0.228636 0.923441 0.487921
O O5 0.869755 0.426554 0.411521
O O6 0.000000 0.500000 0.500000
O O7 0.102753 0.241361 0.397247
O O8 0.869755 0.207830 0.848968
O O9 0.659485 0.670491 0.452546
O O10 0.650197 0.016980 0.223769
O O11 0.771364 0.860003 0.945192
O O12 0.364985 0.647021 0.135016
O O13 0.000000 0.000000 0.500000
#
# Coordination Sequence:
#
# PCOD8027609 Si02
#       6
#     2   2   2   2   2   2
#     4  12  25  46  74 104 141 188 231 288 353 415
#     4  10  24  46  65 107 138 182 235 287 346 410
#     4  12  25  46  74 104 141 188 231 288 353 415
#     4  10  25  47  68 105 141 179 240 285 343 418
#     4  12  23  46  75  99 143 187 231 292 347 417
#     4  10  25  47  68 105 141 179 240 285 343 418
#
# _framework density 21.510797
#
# number of rings (size 3 to 8) (size 9 to 14) (size 15 to 20)
#    1.000    0.000    5.000    1.500    4.667    3.333 
#    0.000    0.000    0.000    0.000    0.000    0.000 
#    0.000    0.000    0.000    0.000    0.000    0.000 
#
# Total GULP energy -148770.521063 kJ/mol
# GULP energy per Si atom -12397.543422 kJ/mol
# Density = 2.146184 g / cm^3
# Si number density = 21.510797 Si / 1000 Ang^3
#
#
#
# Elastic Constant Matrix: (Units=GPa)
#
#
# Indices 1 2 3 4 5 6 
#
# 1 121.5304 56.5671 60.0217 -3.8772 -11.4205 9.2876
# 2 56.5671 90.5736 62.8691 -21.9890 13.6201 15.1008
# 3 60.0217 62.8691 114.6687 -0.4108 10.7326 8.5972
# 4 -3.8772 -21.9890 -0.4108 39.9173 -1.8394 -1.0166
# 5 -11.4205 13.6201 10.7326 -1.8394 42.1292 5.3166
# 6 9.2876 15.1008 8.5972 -1.0166 5.3166 45.8803
#
#
#
# Elastic Compliance Matrix: (Units=1/GPa)
#
#
# Indices 1 2 3 4 5 6 
#
# 1 0.014575 -0.008178 -0.003823 -0.002795 0.007507 -0.000474
# 2 -0.008178 0.028819 -0.010401 0.014502 -0.007661 -0.004672
# 3 -0.003823 -0.010401 0.016526 -0.006005 -0.002302 0.001234
# 4 -0.002795 0.014502 -0.006005 0.032551 -0.002230 -0.002103
# 5 0.007507 -0.007661 -0.002302 -0.002230 0.028987 -0.001975
# 6 -0.000474 -0.004672 0.001234 -0.002103 -0.001975 0.023381
#
#
# Mechanical properties :
#
#
# Convention : Reuss Voigt Hill
#
# Bulk Modulus (GPa) = 66.14785 76.18760 71.16773
# Shear Modulus (GPa) = 25.68325 35.40635 30.54480
#
# Velocity S-wave (km/s) = 3.45914 4.06147 3.77234
# Velocity P-wave (km/s) = 6.83900 7.58217 7.22015
#
# Compressibility (1/GPa) = 0.01511765
#
# Stress axis : x y z
#
# Youngs Moduli (GPa) = 68.60989 34.69909 60.51225
#
# Poissons Ratio (x) = 0.28375 0.23132
# Poissons Ratio (y) = 0.56106 0.62938
# Poissons Ratio (z) = 0.26228 0.36090
#
# Static dielectric constant tensor:
#      x y z
#    x 3.966830 -0.042390 -0.182640 
#    y -0.042390 3.907410 0.071170 
#    z -0.182640 0.071170 3.776110 
# 
# 
# High freq. dielectric constant tensor:
#      x y z
#    x 1.847840 0.006230 -0.008580 
#    y 0.006230 1.848650 -0.000110 
#    z -0.008580 -0.000110 1.835480 
# 
# From -- ./inp_files/293857.got.cif
#   From: 2010.06.25/outbox.cif.g09.slc.cpg/sg2_147_cif.got.tgz:293857.got - 2010.06.27 13:26:56.
