data_PCOD8027462
_publ_section_title
;
Structure prediction by ZEFSAII (Michael W. Deem and Ramdas Pophale) SiO2 
 PCOD8027462
Probable space group: P -1
;
_chemical_formula_sum "Si O2"
_cell_formula_units_Z 16
_cell_length_a 5.337696
_cell_length_b 17.684441
_cell_length_c 13.784011
_cell_angle_alpha 42.869175
_cell_angle_beta 55.915999
_cell_angle_gamma 52.465692
_cell_volume 686.127969
_symmetry_space_group_name_H-M "P -1"
_symmetry_group_IT_number 2
_symmetry_cell_setting 'triclinic'
loop_
_space_group_symop_operation_xyz
x,y,z
-x,-y,-z
loop_
_atom_site_type_symbol
_atom_site_label
_atom_site_fract_x
_atom_site_fract_y
_atom_site_fract_z
Si Si1 0.681806 0.273913 0.480174
Si Si2 0.739115 0.647299 0.694727
Si Si3 0.779731 0.229716 0.170627
Si Si4 0.339808 0.737327 0.053125
Si Si5 0.986627 0.567488 0.040009
Si Si6 0.875989 0.984553 0.436652
Si Si7 0.659055 0.819798 0.207297
Si Si8 0.624879 0.060722 0.039243
O O1 0.443676 0.333083 0.386835
O O2 0.467707 0.271797 0.622991
O O3 0.898651 0.350712 0.392530
O O4 0.914556 0.141660 0.531913
O O5 0.554429 0.747632 0.719779
O O6 0.765613 0.519071 0.854736
O O7 0.955709 0.087664 0.262355
O O8 0.759461 0.272753 0.025305
O O9 0.940723 0.312799 0.114870
O O10 0.632577 0.613665 0.124538
O O11 0.456104 0.852730 0.930639
O O12 0.048877 0.756273 0.174854
O O13 0.000000 0.500000 0.000000
O O14 0.500000 0.000000 0.500000
O O15 0.000000 0.000000 0.500000
O O16 0.531238 0.848717 0.099213
O O17 0.518037 0.945908 0.178267
O O18 0.000000 0.000000 0.000000
#
# Coordination Sequence:
#
# PCOD8027462 Si02
#       8
#     2   2   2   2   2   2   2   2
#     4  12  27  47  75 104 160 195 240 304 374 468
#     4  12  27  49  72 110 145 202 249 299 379 441
#     4  12  26  45  75 110 146 190 248 314 379 434
#     4  11  25  43  74 107 143 184 255 311 365 434
#     4  12  27  47  78 105 148 194 257 319 365 431
#     4  12  26  45  69 112 154 190 242 296 382 467
#     4  10  24  45  69 108 144 202 241 302 375 441
#     4   9  21  42  69 102 146 187 251 298 362 440
#
# _framework density 23.319267
#
# number of rings (size 3 to 8) (size 9 to 14) (size 15 to 20)
#    0.000    0.750    3.750    1.875   14.000    0.000 
#    0.000    1.250    0.000    0.000    0.000    0.000 
#    0.000    0.000    0.000    0.000    0.000    0.000 
#
# Total GULP energy -198270.007070 kJ/mol
# GULP energy per Si atom -12391.875442 kJ/mol
# Density = 2.326619 g / cm^3
# Si number density = 23.319267 Si / 1000 Ang^3
#
#
#
# Elastic Constant Matrix: (Units=GPa)
#
#
# Indices 1 2 3 4 5 6 
#
# 1 120.4149 27.1871 33.3876 -9.8734 -5.1004 -5.8467
# 2 27.1871 98.2246 11.8745 -4.6280 -5.2645 -11.3755
# 3 33.3876 11.8745 107.8070 -9.1314 -8.2870 -8.1807
# 4 -9.8734 -4.6280 -9.1314 37.1268 -3.5768 0.9299
# 5 -5.1004 -5.2645 -8.2870 -3.5768 31.5652 -13.4542
# 6 -5.8467 -11.3755 -8.1807 0.9299 -13.4542 37.4204
#
#
#
# Elastic Compliance Matrix: (Units=1/GPa)
#
#
# Indices 1 2 3 4 5 6 
#
# 1 0.009706 -0.002173 -0.002488 0.001781 0.001026 0.000636
# 2 -0.002173 0.011534 0.000117 0.001127 0.003637 0.004472
# 3 -0.002488 0.000117 0.010816 0.002331 0.004197 0.003462
# 4 0.001781 0.001127 0.002331 0.028576 0.005320 0.002333
# 5 0.001026 0.003637 0.004197 0.005320 0.041372 0.016926
# 6 0.000636 0.004472 0.003462 0.002333 0.016926 0.034967
#
#
# Mechanical properties :
#
#
# Convention : Reuss Voigt Hill
#
# Bulk Modulus (GPa) = 43.54077 52.37167 47.95622
# Shear Modulus (GPa) = 32.52755 38.15564 35.34159
#
# Velocity S-wave (km/s) = 3.73886 4.04942 3.89723
# Velocity P-wave (km/s) = 6.11154 6.66116 6.39226
#
# Compressibility (1/GPa) = 0.02296698
#
# Stress axis : x y z
#
# Youngs Moduli (GPa) = 103.03352 86.70023 92.45207
#
# Poissons Ratio (x) = 0.18839 0.23006
# Poissons Ratio (y) = 0.22389 -0.01081
# Poissons Ratio (z) = 0.25640 -0.01014
#
# Static dielectric constant tensor:
#      x y z
#    x 4.206060 -0.130910 -0.051380 
#    y -0.130910 4.000430 0.047810 
#    z -0.051380 0.047810 3.911380 
# 
# 
# High freq. dielectric constant tensor:
#      x y z
#    x 1.932300 -0.009520 -0.010370 
#    y -0.009520 1.928360 -0.006890 
#    z -0.010370 -0.006890 1.905190 
# 
# From -- ./inp_files/485192.got.cif
#   From: 2010.06.25/outbox.cif.g09.slc.cpg/sg2_243_cif.got.tgz:485192.got - 2010.06.27 13:26:56.
