data_PCOD8027814
_publ_section_title
;
Structure prediction by ZEFSAII (Michael W. Deem and Ramdas Pophale) SiO2 
 PCOD8027814
Probable space group: P -1
;
_chemical_formula_sum "Si O2"
_cell_formula_units_Z 16
_cell_length_a 12.134652
_cell_length_b 11.580805
_cell_length_c 18.952760
_cell_angle_alpha 31.299639
_cell_angle_beta 45.390203
_cell_angle_gamma 34.002611
_cell_volume 773.626417
_symmetry_space_group_name_H-M "P -1"
_symmetry_group_IT_number 2
_symmetry_cell_setting 'triclinic'
loop_
_space_group_symop_operation_xyz
x,y,z
-x,-y,-z
loop_
_atom_site_type_symbol
_atom_site_label
_atom_site_fract_x
_atom_site_fract_y
_atom_site_fract_z
Si Si1 0.638079 0.970451 0.308494
Si Si2 0.263232 0.205270 0.281978
Si Si3 0.551271 0.301909 0.448775
Si Si4 0.658959 0.305976 0.238696
Si Si5 0.635292 0.063954 0.007584
Si Si6 0.904483 0.844508 0.130775
Si Si7 0.063123 0.195195 0.116421
Si Si8 0.377540 0.901261 0.241198
O O1 0.632599 0.709031 0.462167
O O2 0.830808 0.868984 0.230743
O O3 0.438392 0.211010 0.228808
O O4 0.643789 0.084609 0.321746
O O5 0.058058 0.514865 0.214490
O O6 0.261597 0.984159 0.447717
O O7 0.305494 0.094515 0.241208
O O8 0.602178 0.327645 0.333734
O O9 0.495055 0.570744 0.378765
O O10 0.879023 0.198572 0.189339
O O11 0.511873 0.601971 0.111017
O O12 0.716105 0.992648 0.087881
O O13 0.518115 0.938444 0.112695
O O14 0.819705 0.919844 0.948774
O O15 0.000000 0.000000 0.000000
O O16 0.193689 0.992414 0.228386
O O17 0.000000 0.500000 0.000000
#
# Coordination Sequence:
#
# PCOD8027814 Si02
#       8
#     2   2   2   2   2   2   2   2
#     4  10  25  46  69  99 141 178 228 281 341 408
#     4  10  25  45  70  99 135 181 227 276 342 407
#     4  10  24  47  70  98 139 189 223 279 342 411
#     4  12  24  45  70 102 137 185 226 286 343 402
#     4  12  24  41  69 102 141 172 229 285 344 400
#     4  12  25  43  71 107 135 178 230 282 347 407
#     4  12  24  39  65 105 138 175 226 280 341 411
#     4  12  22  46  70 100 143 177 231 284 345 402
#
# _framework density 20.681819000000001
#
# number of rings (size 3 to 8) (size 9 to 14) (size 15 to 20)
#    0.750    0.000    3.750    4.125    1.750    2.000 
#    0.000    3.125    0.000    0.000    0.000    0.000 
#    0.000    0.000    0.000    0.000    0.000    0.000 
#
# Total GULP energy -198411.300183 kJ/mol
# GULP energy per Si atom -12400.706261 kJ/mol
# Density = 2.063475 g / cm^3
# Si number density = 20.681819 Si / 1000 Ang^3
#
#
#
# Elastic Constant Matrix: (Units=GPa)
#
#
# Indices 1 2 3 4 5 6 
#
# 1 60.2096 33.8775 14.4898 0.1864 6.2478 3.0525
# 2 33.8775 100.9813 44.9971 1.5468 1.0858 -8.0867
# 3 14.4898 44.9971 112.7062 -9.6389 -2.1272 -7.0046
# 4 0.1864 1.5468 -9.6389 32.7300 -4.4635 0.4433
# 5 6.2478 1.0858 -2.1272 -4.4635 34.0503 -1.5497
# 6 3.0525 -8.0867 -7.0046 0.4433 -1.5497 26.3949
#
#
#
# Elastic Compliance Matrix: (Units=1/GPa)
#
#
# Indices 1 2 3 4 5 6 
#
# 1 0.021549 -0.007502 -0.000191 -0.000301 -0.003997 -0.005071
# 2 -0.007502 0.014978 -0.004924 -0.002103 0.000508 0.004215
# 3 -0.000191 -0.004924 0.011306 0.003742 0.001459 0.001537
# 4 -0.000301 -0.002103 0.003742 0.032383 0.004606 0.000110
# 5 -0.003997 0.000508 0.001459 0.004606 0.030905 0.002742
# 6 -0.005071 0.004215 0.001537 0.000110 0.002742 0.040331
#
#
# Mechanical properties :
#
#
# Convention : Reuss Voigt Hill
#
# Bulk Modulus (GPa) = 44.25208 51.18065 47.71637
# Shear Modulus (GPa) = 27.14155 30.67054 28.90604
#
# Velocity S-wave (km/s) = 3.62655 3.85511 3.74258
# Velocity P-wave (km/s) = 6.24331 6.67954 6.46511
#
# Compressibility (1/GPa) = 0.02259781
#
# Stress axis : x y z
#
# Youngs Moduli (GPa) = 46.40621 66.76440 88.44869
#
# Poissons Ratio (x) = 0.50090 0.01693
# Poissons Ratio (y) = 0.34816 0.43549
# Poissons Ratio (z) = 0.00888 0.32872
#
# Static dielectric constant tensor:
#      x y z
#    x 3.760090 -0.110400 -0.005270 
#    y -0.110400 3.768100 -0.016650 
#    z -0.005270 -0.016650 3.763440 
# 
# 
# High freq. dielectric constant tensor:
#      x y z
#    x 1.816060 0.007010 0.000750 
#    y 0.007010 1.810270 0.001220 
#    z 0.000750 0.001220 1.812810 
# 
# From -- ./inp_files/595045.got.cif
#   From: 2010.06.25/outbox.cif.g09.slc.cpg/sg2_298_cif.got.tgz:595045.got - 2010.06.27 13:26:56.
