data_PCOD8027066
_publ_section_title
;
Structure prediction by ZEFSAII (Michael W. Deem and Ramdas Pophale) SiO2 
 PCOD8027066
Probable space group: P -1
;
_chemical_formula_sum "Si O2"
_cell_formula_units_Z 14
_cell_length_a 6.778723
_cell_length_b 14.836953
_cell_length_c 8.831299
_cell_angle_alpha 88.742196
_cell_angle_beta 123.828788
_cell_angle_gamma 69.864202
_cell_volume 666.260200
_symmetry_space_group_name_H-M "P -1"
_symmetry_group_IT_number 2
_symmetry_cell_setting 'triclinic'
loop_
_space_group_symop_operation_xyz
x,y,z
-x,-y,-z
loop_
_atom_site_type_symbol
_atom_site_label
_atom_site_fract_x
_atom_site_fract_y
_atom_site_fract_z
Si Si1 0.858896 0.862189 0.183380
Si Si2 0.446016 0.009858 0.222645
Si Si3 0.576930 0.394290 0.112899
Si Si4 0.167823 0.302669 0.289640
Si Si5 0.638596 0.106540 0.545740
Si Si6 0.847022 0.674248 0.062442
Si Si7 0.668766 0.530397 0.682859
O O1 0.906588 0.746966 0.197660
O O2 0.122041 0.863302 0.360117
O O3 0.628712 0.917220 0.201836
O O4 0.782411 0.911542 0.982788
O O5 0.616769 0.060205 0.375557
O O6 0.306697 0.973740 0.294554
O O7 0.523633 0.408990 0.267566
O O8 0.878437 0.320001 0.216376
O O9 0.500000 0.500000 0.000000
O O10 0.398572 0.341845 0.972921
O O11 0.371959 0.204558 0.466412
O O12 0.218016 0.398770 0.353036
O O13 0.213917 0.278827 0.132201
O O14 0.092296 0.567760 0.149348
O O15 0.500000 0.500000 0.500000
#
# Coordination Sequence:
#
# PCOD8027066 Si02
#       7
#     2   2   2   2   2   2   2
#     4  11  23  44  68  96 131 165 213 267 323 377
#     4  10  24  44  66  98 125 169 215 263 325 379
#     4  11  21  42  65  86 127 172 213 253 309 385
#     4  11  22  41  64  93 127 171 209 260 319 378
#     4  11  23  43  68  95 130 167 215 264 320 379
#     4  11  22  40  65  93 128 168 210 261 324 369
#     4  11  23  39  62  93 129 162 209 267 317 374
#
# _framework density 21.012810999999999
#
# number of rings (size 3 to 8) (size 9 to 14) (size 15 to 20)
#    0.000    1.143    4.286    2.571    0.000    5.143 
#   12.857    0.000    0.000    0.000    0.000    0.000 
#    0.000    0.000    0.000    0.000    0.000    0.000 
#
# Total GULP energy -173655.291931 kJ/mol
# GULP energy per Si atom -12403.949424 kJ/mol
# Density = 2.096498 g / cm^3
# Si number density = 21.012811 Si / 1000 Ang^3
#
#
#
# Elastic Constant Matrix: (Units=GPa)
#
#
# Indices 1 2 3 4 5 6 
#
# 1 88.4509 21.4159 13.5502 7.7785 17.1587 7.8175
# 2 21.4159 111.0381 19.4488 17.4273 7.0042 8.9396
# 3 13.5502 19.4488 68.0359 11.5556 6.0811 8.9193
# 4 7.7785 17.4273 11.5556 41.3763 6.7797 11.7074
# 5 17.1587 7.0042 6.0811 6.7797 31.4075 4.0385
# 6 7.8175 8.9396 8.9193 11.7074 4.0385 30.4220
#
#
#
# Elastic Compliance Matrix: (Units=1/GPa)
#
#
# Indices 1 2 3 4 5 6 
#
# 1 0.013339 -0.001818 -0.001368 0.000177 -0.006436 -0.001706
# 2 -0.001818 0.010265 -0.001918 -0.003217 -0.000136 -0.000731
# 3 -0.001368 -0.001918 0.016414 -0.002556 -0.001095 -0.002768
# 4 0.000177 -0.003217 -0.002556 0.029459 -0.004067 -0.009147
# 5 -0.006436 -0.000136 -0.001095 -0.004067 0.036641 -0.001284
# 6 -0.001706 -0.000731 -0.002768 -0.009147 -0.001284 0.038026
#
#
# Mechanical properties :
#
#
# Convention : Reuss Voigt Hill
#
# Bulk Modulus (GPa) = 33.54544 41.81718 37.68131
# Shear Modulus (GPa) = 30.43435 34.84853 32.64144
#
# Velocity S-wave (km/s) = 3.80988 4.07682 3.94560
# Velocity P-wave (km/s) = 5.94580 6.48880 6.22322
#
# Compressibility (1/GPa) = 0.02981031
#
# Stress axis : x y z
#
# Youngs Moduli (GPa) = 74.96730 97.42093 60.92428
#
# Poissons Ratio (x) = 0.17707 0.08336
# Poissons Ratio (y) = 0.13626 0.11685
# Poissons Ratio (z) = 0.10257 0.18684
#
# Static dielectric constant tensor:
#      x y z
#    x 3.757250 0.064770 0.170170 
#    y 0.064770 4.152090 -0.123620 
#    z 0.170170 -0.123620 3.912520 
# 
# 
# High freq. dielectric constant tensor:
#      x y z
#    x 1.815360 0.007460 0.008450 
#    y 0.007460 1.835830 0.000910 
#    z 0.008450 0.000910 1.823400 
# 
# From -- ./inp_files/32242.got.cif
#   From: 2010.06.25/outbox.cif.g09.slc.cpg/sg2_17_cif.got.tgz:32242.got - 2010.06.27 13:26:56.
