data_PCOD8027320
_publ_section_title
;
Structure prediction by ZEFSAII (Michael W. Deem and Ramdas Pophale) SiO2 
 PCOD8027320
Probable space group: P -1
;
_chemical_formula_sum "Si O2"
_cell_formula_units_Z 14
_cell_length_a 8.560981
_cell_length_b 14.287591
_cell_length_c 13.914709
_cell_angle_alpha 27.252528
_cell_angle_beta 108.870561
_cell_angle_gamma 125.824770
_cell_volume 535.728012
_symmetry_space_group_name_H-M "P -1"
_symmetry_group_IT_number 2
_symmetry_cell_setting 'triclinic'
loop_
_space_group_symop_operation_xyz
x,y,z
-x,-y,-z
loop_
_atom_site_type_symbol
_atom_site_label
_atom_site_fract_x
_atom_site_fract_y
_atom_site_fract_z
Si Si1 0.778952 0.574359 0.185535
Si Si2 0.539241 0.764398 0.737361
Si Si3 0.047415 0.171163 0.447029
Si Si4 0.748022 0.307995 0.088274
Si Si5 0.703025 0.330788 0.601928
Si Si6 0.223083 0.992345 0.783094
Si Si7 0.896872 0.075943 0.836164
O O1 0.570684 0.313406 0.319128
O O2 0.767789 0.452225 0.395694
O O3 0.773503 0.822309 0.965394
O O4 0.019578 0.716750 0.053632
O O5 0.417798 0.812425 0.744151
O O6 0.800814 0.058556 0.523545
O O7 0.500000 0.500000 0.000000
O O8 0.137376 0.131798 0.594805
O O9 0.000000 0.000000 0.500000
O O10 0.248265 0.498051 0.161589
O O11 0.681400 0.055683 0.243945
O O12 0.000000 0.500000 0.000000
O O13 0.453171 0.199997 0.703750
O O14 0.723192 0.098805 0.824918
O O15 0.889676 0.608588 0.451793
O O16 0.000000 0.000000 0.000000
#
# Coordination Sequence:
#
# PCOD8027320 Si02
#       7
#     2   2   2   2   2   2   2
#     4  11  23  42  66  98 134 170 223 265 325 392
#     4  12  23  40  66  94 138 188 220 266 318 381
#     4  12  23  41  61  89 138 181 224 267 317 377
#     4  12  25  42  58  92 137 176 231 271 308 380
#     4  10  24  44  73  97 126 169 214 277 342 387
#     4  12  26  41  63 100 133 173 223 270 319 396
#     4   9  22  48  72  97 127 162 216 279 338 403
#
# _framework density 26.132664999999999
#
# number of rings (size 3 to 8) (size 9 to 14) (size 15 to 20)
#    0.000    0.857    5.714    0.857    2.000    4.571 
#    0.000    6.429    0.000    0.000    0.000    0.000 
#    0.000    0.000    0.000    0.000    0.000    0.000 
#
# Total GULP energy -173476.167072 kJ/mol
# GULP energy per Si atom -12391.154791 kJ/mol
# Density = 2.607319 g / cm^3
# Si number density = 26.132665 Si / 1000 Ang^3
#
#
#
# Elastic Constant Matrix: (Units=GPa)
#
#
# Indices 1 2 3 4 5 6 
#
# 1 137.5407 30.3593 36.3908 -11.2330 -6.2174 12.9746
# 2 30.3593 40.4980 25.1912 -9.5350 1.0126 8.0467
# 3 36.3908 25.1912 74.6807 0.1868 4.6103 2.9873
# 4 -11.2330 -9.5350 0.1868 38.5240 1.2844 -3.4965
# 5 -6.2174 1.0126 4.6103 1.2844 49.4564 -7.2209
# 6 12.9746 8.0467 2.9873 -3.4965 -7.2209 50.5128
#
#
#
# Elastic Compliance Matrix: (Units=1/GPa)
#
#
# Indices 1 2 3 4 5 6 
#
# 1 0.009387 -0.004577 -0.003069 0.001465 0.001346 -0.001207
# 2 -0.004577 0.036905 -0.010017 0.007546 -0.001141 -0.003752
# 3 -0.003069 -0.010017 0.018344 -0.003332 -0.001683 0.000828
# 4 0.001465 0.007546 -0.003332 0.028328 -0.000317 0.000534
# 5 0.001346 -0.001141 -0.001683 -0.000317 0.021003 0.002916
# 6 -0.001207 -0.003752 0.000828 0.000534 0.002916 0.021110
#
#
# Mechanical properties :
#
#
# Convention : Reuss Voigt Hill
#
# Bulk Modulus (GPa) = 34.11726 48.51131 41.31429
# Shear Modulus (GPa) = 27.75123 38.41718 33.08420
#
# Velocity S-wave (km/s) = 3.26227 3.83833 3.56196
# Velocity P-wave (km/s) = 5.22242 6.18445 5.72368
#
# Compressibility (1/GPa) = 0.02931068
#
# Stress axis : x y z
#
# Youngs Moduli (GPa) = 106.52913 27.09640 54.51477
#
# Poissons Ratio (x) = 0.12403 0.16729
# Poissons Ratio (y) = 0.48761 0.54606
# Poissons Ratio (z) = 0.32690 0.27142
#
# Static dielectric constant tensor:
#      x y z
#    x 6.429430 -0.464070 -1.482790 
#    y -0.464070 5.286730 0.155380 
#    z -1.482790 0.155380 7.972320 
# 
# 
# High freq. dielectric constant tensor:
#      x y z
#    x 2.051120 0.014400 0.004340 
#    y 0.014400 2.030940 -0.009250 
#    z 0.004340 -0.009250 2.056180 
# 
# From -- ./inp_files/503659.got.cif
#   From: 2010.06.25/outbox.cif.g09.slc.cpg/sg2_252_cif.got.tgz:503659.got - 2010.06.27 13:26:56.
