data_PCOD8027488
_publ_section_title
;
Structure prediction by ZEFSAII (Michael W. Deem and Ramdas Pophale) SiO2 
 PCOD8027488
Probable space group: P -1
;
_chemical_formula_sum "Si O2"
_cell_formula_units_Z 16
_cell_length_a 20.404976
_cell_length_b 11.566810
_cell_length_c 11.387602
_cell_angle_alpha 41.332795
_cell_angle_beta 149.039859
_cell_angle_gamma 149.906084
_cell_volume 692.878547
_symmetry_space_group_name_H-M "P -1"
_symmetry_group_IT_number 2
_symmetry_cell_setting 'triclinic'
loop_
_space_group_symop_operation_xyz
x,y,z
-x,-y,-z
loop_
_atom_site_type_symbol
_atom_site_label
_atom_site_fract_x
_atom_site_fract_y
_atom_site_fract_z
Si Si1 0.855238 0.256135 0.621201
Si Si2 0.356273 0.362565 0.978762
Si Si3 0.969791 0.725856 0.458554
Si Si4 0.753241 0.896117 0.563709
Si Si5 0.213884 0.463752 0.043193
Si Si6 0.679908 0.072494 0.729505
Si Si7 0.249178 0.811640 0.985682
Si Si8 0.515167 0.265434 0.919304
O O1 0.898689 0.489324 0.462325
O O2 0.790950 0.243130 0.663292
O O3 0.725632 0.029839 0.513884
O O4 0.019230 0.282094 0.851733
O O5 0.420200 0.511740 0.079606
O O6 0.324950 0.137229 0.137692
O O7 0.500000 0.500000 0.000000
O O8 0.185624 0.297564 0.714932
O O9 0.096388 0.785065 0.713111
O O10 0.064707 0.924449 0.354402
O O11 0.726613 0.682688 0.742866
O O12 0.615163 0.787365 0.335955
O O13 0.322406 0.661614 0.957937
O O14 0.238196 0.598048 0.096959
O O15 0.500000 0.000000 0.500000
O O16 0.766813 0.193187 0.895183
O O17 0.431072 0.049265 0.042558
#
# Coordination Sequence:
#
# PCOD8027488 Si02
#       8
#     2   2   2   2   2   2   2   2
#     4  11  24  44  67 101 134 184 223 277 341 396
#     4  12  24  45  69 100 134 180 224 276 341 402
#     4  10  24  45  70 100 137 176 229 281 337 406
#     4  11  23  42  69 104 137 176 225 283 339 401
#     4  11  23  41  70 100 141 174 226 282 335 403
#     4  12  27  45  70 100 142 178 230 276 336 411
#     4  10  25  46  67 105 134 185 222 278 342 396
#     4  11  24  42  68 104 133 177 227 278 341 399
#
# _framework density 23.092068999999999
#
# number of rings (size 3 to 8) (size 9 to 14) (size 15 to 20)
#    0.000    1.000    1.250    4.500    3.500    4.500 
#    2.250    0.000    0.000    0.000    0.000    0.000 
#    0.000    0.000    0.000    0.000    0.000    0.000 
#
# Total GULP energy -198405.108913 kJ/mol
# GULP energy per Si atom -12400.319307 kJ/mol
# Density = 2.303951 g / cm^3
# Si number density = 23.092069 Si / 1000 Ang^3
#
#
#
# Elastic Constant Matrix: (Units=GPa)
#
#
# Indices 1 2 3 4 5 6 
#
# 1 127.8586 35.8273 48.0408 26.3882 0.6672 1.5839
# 2 35.8273 101.4654 34.3071 4.2504 2.6563 -13.4020
# 3 48.0408 34.3071 95.4399 5.6522 9.0388 -5.7887
# 4 26.3882 4.2504 5.6522 27.5155 -2.6935 5.7613
# 5 0.6672 2.6563 9.0388 -2.6935 34.3856 6.0053
# 6 1.5839 -13.4020 -5.7887 5.7613 6.0053 51.7754
#
#
#
# Elastic Compliance Matrix: (Units=1/GPa)
#
#
# Indices 1 2 3 4 5 6 
#
# 1 0.012487 -0.002392 -0.004878 -0.010465 0.000481 -0.000438
# 2 -0.002392 0.012072 -0.002925 0.000364 -0.000595 0.002900
# 3 -0.004878 -0.002925 0.014299 0.001592 -0.003527 0.001223
# 4 -0.010465 0.000364 0.001592 0.047515 0.004387 -0.005204
# 5 0.000481 -0.000595 -0.003527 0.004387 0.031205 -0.004671
# 6 -0.000438 0.002900 0.001223 -0.005204 -0.004671 0.021336
#
#
# Mechanical properties :
#
#
# Convention : Reuss Voigt Hill
#
# Bulk Modulus (GPa) = 54.14715 62.34603 58.24659
# Shear Modulus (GPa) = 30.21882 36.50786 33.36334
#
# Velocity S-wave (km/s) = 3.62141 3.98045 3.80517
# Velocity P-wave (km/s) = 6.40199 6.94139 6.67714
#
# Compressibility (1/GPa) = 0.01846819
#
# Stress axis : x y z
#
# Youngs Moduli (GPa) = 80.08355 82.83349 69.93701
#
# Poissons Ratio (x) = 0.19812 0.34116
# Poissons Ratio (y) = 0.19155 0.20456
# Poissons Ratio (z) = 0.39065 0.24229
#
# Static dielectric constant tensor:
#      x y z
#    x 4.435320 0.110590 0.102290 
#    y 0.110590 4.419320 0.097060 
#    z 0.102290 0.097060 4.157470 
# 
# 
# High freq. dielectric constant tensor:
#      x y z
#    x 1.916600 0.001740 0.001560 
#    y 0.001740 1.929220 0.007250 
#    z 0.001560 0.007250 1.910060 
# 
# From -- ./inp_files/471144.got.cif
#   From: 2010.06.25/outbox.cif.g09.slc.cpg/sg2_236_cif.got.tgz:471144.got - 2010.06.27 13:26:56.
