data_PCOD8027245
_publ_section_title
;
Structure prediction by ZEFSAII (Michael W. Deem and Ramdas Pophale) SiO2 
 PCOD8027245
Probable space group: P -1
;
_chemical_formula_sum "Si O2"
_cell_formula_units_Z 14
_cell_length_a 12.503080
_cell_length_b 26.133337
_cell_length_c 4.906016
_cell_angle_alpha 100.163058
_cell_angle_beta 112.239672
_cell_angle_gamma 25.645036
_cell_volume 585.350769
_symmetry_space_group_name_H-M "P -1"
_symmetry_group_IT_number 2
_symmetry_cell_setting 'triclinic'
loop_
_space_group_symop_operation_xyz
x,y,z
-x,-y,-z
loop_
_atom_site_type_symbol
_atom_site_label
_atom_site_fract_x
_atom_site_fract_y
_atom_site_fract_z
Si Si1 0.087667 0.277925 0.504486
Si Si2 0.289245 0.984359 0.274027
Si Si3 0.727171 0.267136 0.790438
Si Si4 0.374276 0.379148 0.068844
Si Si5 0.165825 0.352916 0.916094
Si Si6 0.735697 0.071641 0.304145
Si Si7 0.781282 0.363302 0.785781
O O1 0.383116 0.129940 0.535717
O O2 0.095197 0.337312 0.610940
O O3 0.041314 0.267847 0.738096
O O4 0.836536 0.369430 0.131503
O O5 0.212118 0.999858 0.522010
O O6 0.283500 0.935621 0.036224
O O7 0.051480 0.122342 0.066519
O O8 0.621166 0.274782 0.443760
O O9 0.730459 0.324055 0.745494
O O10 0.500037 0.352471 0.893137
O O11 0.112737 0.523821 0.048462
O O12 0.257703 0.369350 0.876793
O O13 0.434103 0.223289 0.241085
O O14 0.000000 0.000000 0.500000
O O15 0.500000 0.500000 0.500000
#
# Coordination Sequence:
#
# PCOD8027245 Si02
#       7
#     2   2   2   2   2   2   2
#     4  11  25  45  71 102 134 175 229 278 334 401
#     4  11  24  41  66  97 133 177 221 278 335 390
#     4  12  26  46  68 100 139 178 228 276 336 404
#     4  11  26  44  69 101 139 180 221 278 341 399
#     4  10  24  44  71 102 138 178 224 279 337 401
#     4  11  22  39  66  98 136 179 224 270 329 402
#     4  12  27  46  72  99 134 181 225 280 336 398
#
# _framework density 23.917282
#
# number of rings (size 3 to 8) (size 9 to 14) (size 15 to 20)
#    0.000    0.857    0.000    6.857    0.000   14.857 
#    0.000    0.000    0.000    0.000    0.000    0.000 
#    0.000    0.000    0.000    0.000    0.000    0.000 
#
# Total GULP energy -173609.885765 kJ/mol
# GULP energy per Si atom -12400.706126 kJ/mol
# Density = 2.386284 g / cm^3
# Si number density = 23.917282 Si / 1000 Ang^3
#
#
#
# Elastic Constant Matrix: (Units=GPa)
#
#
# Indices 1 2 3 4 5 6 
#
# 1 140.5257 55.2491 47.3457 1.0367 -0.4175 1.2234
# 2 55.2491 91.2633 24.3994 -16.9017 -0.1948 -1.1786
# 3 47.3457 24.3994 101.9427 -2.2054 3.2774 3.2986
# 4 1.0367 -16.9017 -2.2054 49.5238 1.5508 -4.8832
# 5 -0.4175 -0.1948 3.2774 1.5508 38.5233 1.8032
# 6 1.2234 -1.1786 3.2986 -4.8832 1.8032 31.6336
#
#
#
# Elastic Compliance Matrix: (Units=1/GPa)
#
#
# Indices 1 2 3 4 5 6 
#
# 1 0.010709 -0.005997 -0.003587 -0.002514 0.000524 -0.000682
# 2 -0.005997 0.015922 -0.000954 0.005703 -0.000218 0.001817
# 3 -0.003587 -0.000954 0.011774 0.000203 -0.001005 -0.001036
# 4 -0.002514 0.005703 0.000203 0.022614 -0.001106 0.003842
# 5 0.000524 -0.000218 -0.001005 -0.001106 0.026167 -0.001586
# 6 -0.000682 0.001817 -0.001036 0.003842 -0.001586 0.032498
#
#
# Mechanical properties :
#
#
# Convention : Reuss Voigt Hill
#
# Bulk Modulus (GPa) = 57.71002 65.30221 61.50612
# Shear Modulus (GPa) = 34.12134 37.71865 35.92000
#
# Velocity S-wave (km/s) = 3.78119 3.97551 3.87957
# Velocity P-wave (km/s) = 6.57606 6.95957 6.77053
#
# Compressibility (1/GPa) = 0.01732801
#
# Stress axis : x y z
#
# Youngs Moduli (GPa) = 93.38315 62.80602 84.93250
#
# Poissons Ratio (x) = 0.37665 0.30468
# Poissons Ratio (y) = 0.56002 0.08103
# Poissons Ratio (z) = 0.33499 0.05992
#
# Static dielectric constant tensor:
#      x y z
#    x 4.805170 -0.186980 -0.501440 
#    y -0.186980 4.430450 -0.327070 
#    z -0.501440 -0.327070 5.794610 
# 
# 
# High freq. dielectric constant tensor:
#      x y z
#    x 1.950940 -0.016340 0.006830 
#    y -0.016340 1.947340 -0.010010 
#    z 0.006830 -0.010010 1.964480 
# 
# From -- ./inp_files/84372.got.cif
#   From: 2010.06.25/outbox.cif.g09.slc.cpg/sg2_43_cif.got.tgz:84372.got - 2010.06.27 13:26:56.
