data_PCOD8027960
_publ_section_title
;
Structure prediction by ZEFSAII (Michael W. Deem and Ramdas Pophale) SiO2 
 PCOD8027960
Probable space group: P -1
;
_chemical_formula_sum "Si O2"
_cell_formula_units_Z 16
_cell_length_a 6.795647
_cell_length_b 19.995561
_cell_length_c 8.198629
_cell_angle_alpha 49.560321
_cell_angle_beta 79.336591
_cell_angle_gamma 53.143107
_cell_volume 639.219371
_symmetry_space_group_name_H-M "P -1"
_symmetry_group_IT_number 2
_symmetry_cell_setting 'triclinic'
loop_
_space_group_symop_operation_xyz
x,y,z
-x,-y,-z
loop_
_atom_site_type_symbol
_atom_site_label
_atom_site_fract_x
_atom_site_fract_y
_atom_site_fract_z
Si Si1 0.080965 0.152678 0.815518
Si Si2 0.975424 0.711546 0.867095
Si Si3 0.417317 0.895223 0.606304
Si Si4 0.826461 0.201384 0.090133
Si Si5 0.598653 0.534229 0.287436
Si Si6 0.916777 0.514008 0.801236
Si Si7 0.647723 0.364173 0.345061
Si Si8 0.505782 0.038771 0.173033
O O1 0.924139 0.139214 0.996605
O O2 0.857944 0.281225 0.583476
O O3 0.210236 0.062917 0.788991
O O4 0.322848 0.130816 0.912208
O O5 0.710262 0.783485 0.688230
O O6 0.214385 0.683023 0.773439
O O7 0.954783 0.789921 0.891732
O O8 0.036658 0.596989 0.099855
O O9 0.427889 0.914229 0.766828
O O10 0.350336 0.995457 0.339825
O O11 0.215199 0.870052 0.667040
O O12 0.556070 0.330999 0.910425
O O13 0.500000 0.500000 0.500000
O O14 0.565103 0.488834 0.195522
O O15 0.905357 0.471647 0.358217
O O16 0.612144 0.623598 0.642693
O O17 0.000000 0.500000 0.000000
#
# Coordination Sequence:
#
# PCOD8027960 Si02
#       8
#     2   2   2   2   2   2   2   2
#     4  11  24  47  72 103 149 186 234 304 367 424
#     4  12  23  44  71 107 144 186 245 298 348 434
#     4  11  24  46  78 104 136 191 244 302 360 423
#     4  12  25  44  73 109 142 188 240 296 362 433
#     4  12  25  44  70 109 154 185 233 293 364 442
#     4  12  25  44  74 106 143 201 244 283 357 437
#     4  12  25  44  72 107 154 191 234 298 359 433
#     4  10  24  50  76 103 141 190 246 306 365 428
#
# _framework density 25.030529999999999
#
# number of rings (size 3 to 8) (size 9 to 14) (size 15 to 20)
#    0.000    0.500    7.500    1.125    0.000    1.500 
#    4.500    1.250    0.000    0.000    0.000    0.000 
#    0.000    0.000    0.000    0.000    0.000    0.000 
#
# Total GULP energy -198254.113933 kJ/mol
# GULP energy per Si atom -12390.882121 kJ/mol
# Density = 2.497356 g / cm^3
# Si number density = 25.030530 Si / 1000 Ang^3
#
#
#
# Elastic Constant Matrix: (Units=GPa)
#
#
# Indices 1 2 3 4 5 6 
#
# 1 131.9284 32.0747 37.5929 3.2055 -14.5595 -11.5356
# 2 32.0747 89.5000 18.6425 7.0894 -3.6126 -7.8639
# 3 37.5929 18.6425 91.3785 -7.9255 1.1364 -5.7637
# 4 3.2055 7.0894 -7.9255 28.2288 -7.8169 -4.4745
# 5 -14.5595 -3.6126 1.1364 -7.8169 48.4876 3.8250
# 6 -11.5356 -7.8639 -5.7637 -4.4745 3.8250 33.1367
#
#
#
# Elastic Compliance Matrix: (Units=1/GPa)
#
#
# Indices 1 2 3 4 5 6 
#
# 1 0.009594 -0.002431 -0.003406 -0.000437 0.002566 0.001815
# 2 -0.002431 0.012796 -0.001800 -0.003316 -0.000385 0.001474
# 3 -0.003406 -0.001800 0.013204 0.004533 -0.000846 0.001393
# 4 -0.000437 -0.003316 0.004533 0.039852 0.005578 0.004587
# 5 0.002566 -0.000385 -0.000846 0.005578 0.022377 -0.001175
# 6 0.001815 0.001474 0.001393 0.004587 -0.001175 0.032157
#
#
# Mechanical properties :
#
#
# Convention : Reuss Voigt Hill
#
# Bulk Modulus (GPa) = 49.21643 54.38079 51.79861
# Shear Modulus (GPa) = 32.88870 36.93708 34.91289
#
# Velocity S-wave (km/s) = 3.62877 3.84563 3.73877
# Velocity P-wave (km/s) = 6.10430 6.44138 6.27511
#
# Compressibility (1/GPa) = 0.02031842
#
# Stress axis : x y z
#
# Youngs Moduli (GPa) = 104.23117 78.14915 75.73663
#
# Poissons Ratio (x) = 0.18999 0.25798
# Poissons Ratio (y) = 0.25339 0.13635
# Poissons Ratio (z) = 0.35504 0.14069
#
# Static dielectric constant tensor:
#      x y z
#    x 4.459140 -0.376870 0.074780 
#    y -0.376870 4.979220 -0.035020 
#    z 0.074780 -0.035020 4.231590 
# 
# 
# High freq. dielectric constant tensor:
#      x y z
#    x 1.989350 -0.030260 0.014730 
#    y -0.030260 2.021010 -0.002280 
#    z 0.014730 -0.002280 1.976210 
# 
# From -- ./inp_files/141131.got.cif
#   From: 2010.06.25/outbox.cif.g09.slc.cpg/sg2_71_cif.got.tgz:141131.got - 2010.06.27 13:26:56.
