data_PCOD8027323
_publ_section_title
;
Structure prediction by ZEFSAII (Michael W. Deem and Ramdas Pophale) SiO2 
 PCOD8027323
Probable space group: P -1
;
_chemical_formula_sum "Si O2"
_cell_formula_units_Z 14
_cell_length_a 8.445226
_cell_length_b 9.019734
_cell_length_c 11.226094
_cell_angle_alpha 72.055681
_cell_angle_beta 119.459451
_cell_angle_gamma 127.354582
_cell_volume 591.795769
_symmetry_space_group_name_H-M "P -1"
_symmetry_group_IT_number 2
_symmetry_cell_setting 'triclinic'
loop_
_space_group_symop_operation_xyz
x,y,z
-x,-y,-z
loop_
_atom_site_type_symbol
_atom_site_label
_atom_site_fract_x
_atom_site_fract_y
_atom_site_fract_z
Si Si1 0.821722 0.302395 0.047137
Si Si2 0.295225 0.374600 0.535802
Si Si3 0.660938 0.903153 0.003099
Si Si4 0.869611 0.738708 0.262429
Si Si5 0.949788 0.444383 0.312850
Si Si6 0.734188 0.945702 0.529332
Si Si7 0.484001 0.857968 0.688265
O O1 0.565704 0.232825 0.974187
O O2 0.907341 0.328821 0.205754
O O3 0.000000 0.500000 0.000000
O O4 0.807665 0.122996 0.033234
O O5 0.500000 0.500000 0.500000
O O6 0.337172 0.382685 0.693275
O O7 0.198081 0.167458 0.499444
O O8 0.152082 0.462017 0.446045
O O9 0.618579 0.889488 0.850544
O O10 0.814765 0.831965 0.113874
O O11 0.973584 0.641284 0.253850
O O12 0.043288 0.867586 0.396080
O O13 0.743070 0.337774 0.348682
O O14 0.616686 0.842184 0.634222
O O15 0.569124 0.982659 0.387040
#
# Coordination Sequence:
#
# PCOD8027323 Si02
#       7
#     2   2   2   2   2   2   2
#     4  10  24  44  74 102 145 185 240 288 359 421
#     4  12  27  42  72 102 139 186 243 289 351 425
#     4  10  25  46  72 106 144 190 230 302 354 427
#     4  12  26  45  72 104 144 183 237 290 363 417
#     4  11  25  47  67 101 141 186 234 301 343 428
#     4  11  25  43  73 102 134 189 230 294 351 429
#     4  10  24  46  72  98 145 179 237 286 367 416
#
# _framework density 23.65681
#
# number of rings (size 3 to 8) (size 9 to 14) (size 15 to 20)
#    0.000    1.143    1.429    2.571   14.000    2.857 
#    5.143    0.000    0.000    0.000    0.000    0.000 
#    0.000    0.000    0.000    0.000    0.000    0.000 
#
# Total GULP energy -173442.943530 kJ/mol
# GULP energy per Si atom -12388.781681 kJ/mol
# Density = 2.360297 g / cm^3
# Si number density = 23.656810 Si / 1000 Ang^3
#
#
#
# Elastic Constant Matrix: (Units=GPa)
#
#
# Indices 1 2 3 4 5 6 
#
# 1 85.1151 36.8531 61.0095 -10.5260 0.6932 -14.0684
# 2 36.8531 103.4206 36.9956 -8.6585 10.7230 -0.8453
# 3 61.0095 36.9956 155.3193 -18.7154 11.0708 -18.6703
# 4 -10.5260 -8.6585 -18.7154 31.8895 -3.6828 0.4425
# 5 0.6932 10.7230 11.0708 -3.6828 30.6015 -13.2851
# 6 -14.0684 -0.8453 -18.6703 0.4425 -13.2851 47.9288
#
#
#
# Elastic Compliance Matrix: (Units=1/GPa)
#
#
# Indices 1 2 3 4 5 6 
#
# 1 0.019218 -0.005127 -0.005910 0.002092 0.005858 0.004853
# 2 -0.005127 0.012364 -0.000858 0.000608 -0.005160 -0.003057
# 3 -0.005910 -0.000858 0.009671 0.003235 -0.002060 0.001417
# 4 0.002092 0.000608 0.003235 0.034523 0.003870 0.002639
# 5 0.005858 -0.005160 -0.002060 0.003870 0.040819 0.012105
# 6 0.004853 -0.003057 0.001417 0.002639 0.012105 0.026117
#
#
# Mechanical properties :
#
#
# Convention : Reuss Voigt Hill
#
# Bulk Modulus (GPa) = 57.25897 68.17462 62.71679
# Shear Modulus (GPa) = 29.01565 36.01708 32.51636
#
# Velocity S-wave (km/s) = 3.50598 3.90613 3.71145
# Velocity P-wave (km/s) = 6.37540 7.01602 6.70337
#
# Compressibility (1/GPa) = 0.01746451
#
# Stress axis : x y z
#
# Youngs Moduli (GPa) = 52.03559 80.88169 103.40399
#
# Poissons Ratio (x) = 0.41464 0.61108
# Poissons Ratio (y) = 0.26676 0.08868
# Poissons Ratio (z) = 0.30751 0.06936
#
# Static dielectric constant tensor:
#      x y z
#    x 3.274790 0.744690 -0.308200 
#    y 0.744690 4.167330 0.042590 
#    z -0.308200 0.042590 4.093700 
# 
# 
# High freq. dielectric constant tensor:
#      x y z
#    x 1.944970 0.002040 -0.012790 
#    y 0.002040 1.943780 -0.002910 
#    z -0.012790 -0.002910 1.932860 
# 
# From -- ./inp_files/242271.got.cif
#   From: 2010.06.25/outbox.cif.g09.slc.cpg/sg2_122_cif.got.tgz:242271.got - 2010.06.27 13:26:56.
