data_PCOD8027870
_publ_section_title
;
Structure prediction by ZEFSAII (Michael W. Deem and Ramdas Pophale) SiO2 
 PCOD8027870
Probable space group: P -1
;
_chemical_formula_sum "Si O2"
_cell_formula_units_Z 16
_cell_length_a 28.932947
_cell_length_b 6.974764
_cell_length_c 12.582895
_cell_angle_alpha 43.406527
_cell_angle_beta 24.822992
_cell_angle_gamma 41.420125
_cell_volume 695.549941
_symmetry_space_group_name_H-M "P -1"
_symmetry_group_IT_number 2
_symmetry_cell_setting 'triclinic'
loop_
_space_group_symop_operation_xyz
x,y,z
-x,-y,-z
loop_
_atom_site_type_symbol
_atom_site_label
_atom_site_fract_x
_atom_site_fract_y
_atom_site_fract_z
Si Si1 0.871758 0.153478 0.444565
Si Si2 0.400270 0.487833 0.633611
Si Si3 0.266987 0.569749 0.581257
Si Si4 0.475935 0.688474 0.175184
Si Si5 0.670226 0.089186 0.015089
Si Si6 0.950299 0.214665 0.922267
Si Si7 0.997000 0.744408 0.685999
Si Si8 0.260647 0.979999 0.860383
O O1 0.813468 0.346078 0.388150
O O2 0.901831 0.342633 0.400977
O O3 0.783181 0.994062 0.741513
O O4 0.000483 0.937267 0.231353
O O5 0.500000 0.500000 0.500000
O O6 0.427234 0.618797 0.415687
O O7 0.285349 0.705072 0.839812
O O8 0.392674 0.160558 0.764094
O O9 0.369799 0.716579 0.303191
O O10 0.328451 0.215402 0.596865
O O11 0.189483 0.659965 0.817327
O O12 0.587836 0.413578 0.020414
O O13 0.500000 0.000000 0.000000
O O14 0.710075 0.124783 0.037513
O O15 0.014025 0.461346 0.692704
O O16 0.000000 0.000000 0.000000
O O17 0.000000 0.000000 0.500000
O O18 0.870772 0.832522 0.965954
#
# Coordination Sequence:
#
# PCOD8027870 Si02
#       8
#     2   2   2   2   2   2   2   2
#     4  11  26  43  74 102 145 186 228 287 351 408
#     4  12  26  46  76  98 138 193 230 285 361 410
#     4  10  24  48  68 103 147 184 234 292 344 417
#     4  12  28  47  73 106 140 181 239 295 344 416
#     4  12  26  47  71 106 148 177 232 296 342 420
#     4   9  23  45  68  99 142 183 228 280 345 407
#     4  11  24  42  69 105 141 176 236 285 334 419
#     4  11  24  45  71 105 140 185 232 283 355 413
#
# _framework density 23.00338
#
# number of rings (size 3 to 8) (size 9 to 14) (size 15 to 20)
#    0.000    1.000    3.750    1.125    7.000    7.500 
#    0.000    0.000    0.000    0.000    0.000    0.000 
#    0.000    0.000    0.000    0.000    0.000    0.000 
#
# Total GULP energy -198257.568986 kJ/mol
# GULP energy per Si atom -12391.098062 kJ/mol
# Density = 2.295102 g / cm^3
# Si number density = 23.003380 Si / 1000 Ang^3
#
#
#
# Elastic Constant Matrix: (Units=GPa)
#
#
# Indices 1 2 3 4 5 6 
#
# 1 76.3268 11.1141 19.7882 2.8363 -13.7707 -3.2162
# 2 11.1141 122.8776 41.2018 -16.0336 1.0614 1.5113
# 3 19.7882 41.2018 105.8004 -13.7224 -2.4544 3.2620
# 4 2.8363 -16.0336 -13.7224 43.3250 3.2347 3.6573
# 5 -13.7707 1.0614 -2.4544 3.2347 37.8777 3.0394
# 6 -3.2162 1.5113 3.2620 3.6573 3.0394 26.5997
#
#
#
# Elastic Compliance Matrix: (Units=1/GPa)
#
#
# Indices 1 2 3 4 5 6 
#
# 1 0.015112 -0.000865 -0.002783 -0.002762 0.005415 0.001979
# 2 -0.000865 0.009680 -0.003262 0.002723 -0.000988 -0.000516
# 3 -0.002783 -0.003262 0.011667 0.002853 -0.000252 -0.001945
# 4 -0.002762 0.002723 0.002853 0.025723 -0.002767 -0.004059
# 5 0.005415 -0.000988 -0.000252 -0.002767 0.028791 -0.002168
# 6 0.001979 -0.000516 -0.001945 -0.004059 -0.002168 0.038907
#
#
# Mechanical properties :
#
#
# Convention : Reuss Voigt Hill
#
# Bulk Modulus (GPa) = 44.17180 49.91254 47.04217
# Shear Modulus (GPa) = 33.05839 37.08718 35.07278
#
# Velocity S-wave (km/s) = 3.79504 4.01964 3.90895
# Velocity P-wave (km/s) = 6.20057 6.57939 6.39278
#
# Compressibility (1/GPa) = 0.02263888
#
# Stress axis : x y z
#
# Youngs Moduli (GPa) = 66.17203 103.30164 85.71349
#
# Poissons Ratio (x) = 0.08938 0.23856
# Poissons Ratio (y) = 0.05725 0.27958
# Poissons Ratio (z) = 0.18417 0.33695
#
# Static dielectric constant tensor:
#      x y z
#    x 3.755730 -0.113930 0.193430 
#    y -0.113930 4.393450 0.414860 
#    z 0.193430 0.414860 4.281370 
# 
# 
# High freq. dielectric constant tensor:
#      x y z
#    x 1.910370 -0.000120 -0.004780 
#    y -0.000120 1.907700 0.001850 
#    z -0.004780 0.001850 1.915270 
# 
# From -- ./inp_files/475957.got.cif
#   From: 2010.06.25/outbox.cif.g09.slc.cpg/sg2_238_cif.got.tgz:475957.got - 2010.06.27 13:26:56.
