data_PCOD8027687
_publ_section_title
;
Structure prediction by ZEFSAII (Michael W. Deem and Ramdas Pophale) SiO2 
 PCOD8027687
Probable space group: P -1
;
_chemical_formula_sum "Si O2"
_cell_formula_units_Z 16
_cell_length_a 8.640068
_cell_length_b 13.338619
_cell_length_c 15.905445
_cell_angle_alpha 153.873129
_cell_angle_beta 80.420526
_cell_angle_gamma 108.998798
_cell_volume 727.520559
_symmetry_space_group_name_H-M "P -1"
_symmetry_group_IT_number 2
_symmetry_cell_setting 'triclinic'
loop_
_space_group_symop_operation_xyz
x,y,z
-x,-y,-z
loop_
_atom_site_type_symbol
_atom_site_label
_atom_site_fract_x
_atom_site_fract_y
_atom_site_fract_z
Si Si1 0.680694 0.989260 0.994677
Si Si2 0.403490 0.074098 0.414767
Si Si3 0.799051 0.094284 0.248170
Si Si4 0.184468 0.194727 0.656739
Si Si5 0.729940 0.505511 0.650061
Si Si6 0.002339 0.209674 0.023200
Si Si7 0.882803 0.350806 0.974669
Si Si8 0.380978 0.214084 0.809214
O O1 0.700514 0.731534 0.778581
O O2 0.500000 0.000000 0.000000
O O3 0.702712 0.058757 0.142288
O O4 0.831161 0.183061 0.068907
O O5 0.330929 0.173331 0.572090
O O6 0.537414 0.305417 0.526953
O O7 0.256646 0.914391 0.241825
O O8 0.498550 0.919217 0.332507
O O9 0.833707 0.372740 0.487345
O O10 0.681525 0.874297 0.156857
O O11 0.974714 0.052876 0.185299
O O12 0.212864 0.138635 0.708916
O O13 0.209176 0.477997 0.853525
O O14 0.000000 0.000000 0.500000
O O15 0.831920 0.594828 0.795580
O O16 0.000984 0.315321 0.010080
O O17 0.000000 0.500000 0.000000
O O18 0.500000 0.500000 0.000000
#
# Coordination Sequence:
#
# PCOD8027687 Si02
#       8
#     2   2   2   2   2   2   2   2
#     4  11  27  48  73 106 141 178 234 301 359 413
#     4  11  26  42  68 102 142 183 241 279 355 410
#     4  10  24  46  71 100 140 182 240 280 354 412
#     4  12  26  41  67  99 147 186 235 282 345 415
#     4  10  25  47  74 104 134 186 239 288 351 427
#     4  11  27  45  76  99 141 186 234 291 354 415
#     4  12  26  44  67 107 147 179 230 292 347 412
#     4  11  24  42  69 100 141 190 225 289 346 415
#
# _framework density 21.992505999999999
#
# number of rings (size 3 to 8) (size 9 to 14) (size 15 to 20)
#    0.000    1.000    2.500    2.625   12.250    2.500 
#    0.000    0.000    0.000    0.000    0.000    0.000 
#    0.000    0.000    0.000    0.000    0.000    0.000 
#
# Total GULP energy -198352.151007 kJ/mol
# GULP energy per Si atom -12397.009438 kJ/mol
# Density = 2.194245 g / cm^3
# Si number density = 21.992506 Si / 1000 Ang^3
#
#
#
# Elastic Constant Matrix: (Units=GPa)
#
#
# Indices 1 2 3 4 5 6 
#
# 1 143.5450 57.2455 45.5228 -13.5994 -2.5201 -14.8269
# 2 57.2455 104.7938 46.3577 -17.2929 5.4992 -16.9293
# 3 45.5228 46.3577 119.2366 -6.8651 -8.4726 -6.1163
# 4 -13.5994 -17.2929 -6.8651 29.3792 3.5688 0.3496
# 5 -2.5201 5.4992 -8.4726 3.5688 48.7693 0.9323
# 6 -14.8269 -16.9293 -6.1163 0.3496 0.9323 47.0845
#
#
#
# Elastic Compliance Matrix: (Units=1/GPa)
#
#
# Indices 1 2 3 4 5 6 
#
# 1 0.009394 -0.003843 -0.001903 0.001572 0.000448 0.001309
# 2 -0.003843 0.015354 -0.004154 0.006633 -0.003209 0.003785
# 3 -0.001903 -0.004154 0.010795 -0.001079 0.002338 -0.000729
# 4 0.001572 0.006633 -0.001079 0.038842 -0.003745 0.002525
# 5 0.000448 -0.003209 0.002338 -0.003745 0.021591 -0.001109
# 6 0.001309 0.003785 -0.000729 0.002525 -0.001109 0.022920
#
#
# Mechanical properties :
#
#
# Convention : Reuss Voigt Hill
#
# Bulk Modulus (GPa) = 63.52001 73.98084 68.75042
# Shear Modulus (GPa) = 34.73554 39.60989 37.17271
#
# Velocity S-wave (km/s) = 3.97851 4.24850 4.11572
# Velocity P-wave (km/s) = 7.07460 7.60121 7.34263
#
# Compressibility (1/GPa) = 0.01574307
#
# Stress axis : x y z
#
# Youngs Moduli (GPa) = 106.44576 65.13042 92.63465
#
# Poissons Ratio (x) = 0.25027 0.17630
# Poissons Ratio (y) = 0.40903 0.38483
# Poissons Ratio (z) = 0.20259 0.27057
#
# Static dielectric constant tensor:
#      x y z
#    x 4.141130 0.048600 -0.215200 
#    y 0.048600 4.461360 -0.221870 
#    z -0.215200 -0.221870 4.069520 
# 
# 
# High freq. dielectric constant tensor:
#      x y z
#    x 1.879060 0.000860 -0.014720 
#    y 0.000860 1.861350 -0.007150 
#    z -0.014720 -0.007150 1.873020 
# 
# From -- ./inp_files/501163.got.cif
#   From: 2010.06.25/outbox.cif.g09.slc.cpg/sg2_251_cif.got.tgz:501163.got - 2010.06.27 13:26:56.
