data_PCOD8027279
_publ_section_title
;
Structure prediction by ZEFSAII (Michael W. Deem and Ramdas Pophale) SiO2 
 PCOD8027279
Probable space group: P -1
;
_chemical_formula_sum "Si O2"
_cell_formula_units_Z 14
_cell_length_a 8.199016
_cell_length_b 14.037961
_cell_length_c 9.329151
_cell_angle_alpha 39.585078
_cell_angle_beta 98.691405
_cell_angle_gamma 113.865546
_cell_volume 601.460847
_symmetry_space_group_name_H-M "P -1"
_symmetry_group_IT_number 2
_symmetry_cell_setting 'triclinic'
loop_
_space_group_symop_operation_xyz
x,y,z
-x,-y,-z
loop_
_atom_site_type_symbol
_atom_site_label
_atom_site_fract_x
_atom_site_fract_y
_atom_site_fract_z
Si Si1 0.050742 0.350352 0.677087
Si Si2 0.647907 0.478365 0.255090
Si Si3 0.704189 0.018109 0.982637
Si Si4 0.838462 0.763468 0.751601
Si Si5 0.751852 0.716452 0.473729
Si Si6 0.754060 0.054985 0.392220
Si Si7 0.620656 0.127045 0.575082
O O1 0.208637 0.387496 0.771893
O O2 0.129335 0.346128 0.534591
O O3 0.000000 0.500000 0.500000
O O4 0.870063 0.178407 0.893634
O O5 0.446226 0.437516 0.334816
O O6 0.668656 0.309398 0.434065
O O7 0.690498 0.576298 0.995092
O O8 0.725443 0.046829 0.779014
O O9 0.500000 0.000000 0.000000
O O10 0.721117 0.854672 0.219306
O O11 0.860650 0.784853 0.557536
O O12 0.765957 0.893213 0.648237
O O13 0.042086 0.810063 0.790117
O O14 0.605548 0.990224 0.315812
O O15 0.685201 0.142525 0.401976
#
# Coordination Sequence:
#
# PCOD8027279 Si02
#       7
#     2   2   2   2   2   2   2
#     4  12  27  48  70 109 142 185 239 290 360 415
#     4  12  26  45  69 105 149 181 231 289 355 420
#     4  12  24  45  76  98 144 184 238 290 344 420
#     4  11  25  45  72 103 138 183 239 287 351 414
#     4  12  26  49  71 105 143 191 231 292 352 419
#     4  10  24  44  72 100 138 185 241 283 344 422
#     4  11  23  46  67 105 138 186 233 289 348 412
#
# _framework density 23.276661000000001
#
# number of rings (size 3 to 8) (size 9 to 14) (size 15 to 20)
#    0.000    0.571    4.286    2.143    8.000    0.571 
#    0.000    0.000    0.000    0.000    0.000    0.000 
#    0.000    0.000    0.000    0.000    0.000    0.000 
#
# Total GULP energy -173605.525561 kJ/mol
# GULP energy per Si atom -12400.394683 kJ/mol
# Density = 2.322368 g / cm^3
# Si number density = 23.276661 Si / 1000 Ang^3
#
#
#
# Elastic Constant Matrix: (Units=GPa)
#
#
# Indices 1 2 3 4 5 6 
#
# 1 110.8726 47.8713 39.2942 -16.4426 -10.5125 -1.6658
# 2 47.8713 120.8099 32.4019 -11.3287 -14.9441 15.6818
# 3 39.2942 32.4019 121.1105 -14.7076 -9.5582 2.2500
# 4 -16.4426 -11.3287 -14.7076 25.8992 10.2733 -6.7540
# 5 -10.5125 -14.9441 -9.5582 10.2733 27.9127 -1.3354
# 6 -1.6658 15.6818 2.2500 -6.7540 -1.3354 53.4723
#
#
#
# Elastic Compliance Matrix: (Units=1/GPa)
#
#
# Indices 1 2 3 4 5 6 
#
# 1 0.012460 -0.004135 -0.002332 0.005489 -0.000226 0.002387
# 2 -0.004135 0.011137 -0.001376 -0.001065 0.004165 -0.003368
# 3 -0.002332 -0.001376 0.009827 0.003385 0.000521 0.000358
# 4 0.005489 -0.001065 0.003385 0.051592 -0.016024 0.006457
# 5 -0.000226 0.004165 0.000521 -0.016024 0.043943 -0.002177
# 6 0.002387 -0.003368 0.000358 0.006457 -0.002177 0.020509
#
#
# Mechanical properties :
#
#
# Convention : Reuss Voigt Hill
#
# Bulk Modulus (GPa) = 56.37412 65.76974 61.07193
# Shear Modulus (GPa) = 29.22820 37.00520 33.11670
#
# Velocity S-wave (km/s) = 3.54741 3.99155 3.77602
# Velocity P-wave (km/s) = 6.40707 7.03991 6.73093
#
# Compressibility (1/GPa) = 0.01773864
#
# Stress axis : x y z
#
# Youngs Moduli (GPa) = 80.25976 89.78682 101.75789
#
# Poissons Ratio (x) = 0.37124 0.23728
# Poissons Ratio (y) = 0.33185 0.14005
# Poissons Ratio (z) = 0.18715 0.12357
#
# Static dielectric constant tensor:
#      x y z
#    x 4.537810 0.339050 -0.074880 
#    y 0.339050 4.519630 0.110970 
#    z -0.074880 0.110970 4.139200 
# 
# 
# High freq. dielectric constant tensor:
#      x y z
#    x 1.928000 0.018350 -0.010290 
#    y 0.018350 1.933890 0.004570 
#    z -0.010290 0.004570 1.911420 
# 
# From -- ./inp_files/205350.got.cif
#   From: 2010.06.25/outbox.cif.g09.slc.cpg/sg2_103_cif.got.tgz:205350.got - 2010.06.27 13:26:56.
