data_PCOD8027604
_publ_section_title
;
Structure prediction by ZEFSAII (Michael W. Deem and Ramdas Pophale) SiO2 
 PCOD8027604
Probable space group: P -1
;
_chemical_formula_sum "Si O2"
_cell_formula_units_Z 14
_cell_length_a 15.860891
_cell_length_b 5.042897
_cell_length_c 19.319386
_cell_angle_alpha 97.180404
_cell_angle_beta 157.488642
_cell_angle_gamma 80.905456
_cell_volume 583.285969
_symmetry_space_group_name_H-M "P -1"
_symmetry_group_IT_number 2
_symmetry_cell_setting 'triclinic'
loop_
_space_group_symop_operation_xyz
x,y,z
-x,-y,-z
loop_
_atom_site_type_symbol
_atom_site_label
_atom_site_fract_x
_atom_site_fract_y
_atom_site_fract_z
Si Si1 0.249523 0.608480 0.822863
Si Si2 0.080465 0.130270 0.996193
Si Si3 0.076796 0.540503 0.832732
Si Si4 0.967858 0.905732 0.395781
Si Si5 0.720244 0.997482 0.621641
Si Si6 0.671323 0.426239 0.846053
Si Si7 0.261032 0.767202 0.497798
O O1 0.092481 0.399593 0.663980
O O2 0.187225 0.684951 0.857770
O O3 0.500000 0.500000 0.000000
O O4 0.228954 0.887802 0.775999
O O5 0.276916 0.895415 0.115610
O O6 0.180956 0.415623 0.091579
O O7 0.882966 0.183301 0.791239
O O8 0.000000 0.000000 0.000000
O O9 0.975908 0.287815 0.715198
O O10 0.269828 0.444201 0.031198
O O11 0.868099 0.711668 0.718004
O O12 0.191574 0.937634 0.520191
O O13 0.000000 0.000000 0.500000
O O14 0.631874 0.086256 0.480470
O O15 0.500000 0.000000 0.500000
O O16 0.418230 0.500198 0.632737
#
# Coordination Sequence:
#
# PCOD8027604 Si02
#       7
#     2   2   2   2   2   2   2
#     4  11  24  45  75 102 143 182 228 287 361 416
#     4  11  24  44  62  99 134 170 238 290 329 411
#     4  10  24  46  64 103 140 177 236 287 337 422
#     4  11  25  46  70 109 143 176 235 289 347 432
#     4  11  23  42  69  94 139 188 229 286 343 402
#     4  11  25  41  68  95 133 180 226 279 351 397
#     4  11  24  44  70  98 141 184 229 286 349 407
#
# _framework density 24.001947999999999
#
# number of rings (size 3 to 8) (size 9 to 14) (size 15 to 20)
#    0.000    1.143    2.857    2.143    6.000    1.714 
#    5.143    0.000    0.000    0.000    0.000    0.000 
#    0.000    0.000    0.000    0.000    0.000    0.000 
#
# Total GULP energy -173453.364427 kJ/mol
# GULP energy per Si atom -12389.526031 kJ/mol
# Density = 2.394732 g / cm^3
# Si number density = 24.001948 Si / 1000 Ang^3
#
#
#
# Elastic Constant Matrix: (Units=GPa)
#
#
# Indices 1 2 3 4 5 6 
#
# 1 156.7053 -9.8897 32.9263 -6.6780 -1.9231 -1.4634
# 2 -9.8897 38.1065 -10.8137 -11.9367 5.0823 9.1045
# 3 32.9263 -10.8137 106.2101 -21.0754 -7.2490 -0.1116
# 4 -6.6780 -11.9367 -21.0754 37.2892 -2.3450 -2.2806
# 5 -1.9231 5.0823 -7.2490 -2.3450 41.9606 -6.6386
# 6 -1.4634 9.1045 -0.1116 -2.2806 -6.6386 25.3140
#
#
#
# Elastic Compliance Matrix: (Units=1/GPa)
#
#
# Indices 1 2 3 4 5 6 
#
# 1 0.006893 0.001520 -0.001866 0.000646 -0.000177 -0.000145
# 2 0.001520 0.036347 0.005688 0.014043 -0.004607 -0.012903
# 3 -0.001866 0.005688 0.012382 0.008538 0.001702 -0.000884
# 4 0.000646 0.014043 0.008538 0.036278 0.001629 -0.001280
# 5 -0.000177 -0.004607 0.001702 0.001629 0.026136 0.008655
# 6 -0.000145 -0.012903 -0.000884 -0.001280 0.008655 0.046287
#
#
# Mechanical properties :
#
#
# Convention : Reuss Voigt Hill
#
# Bulk Modulus (GPa) = 15.08143 36.16307 25.62225
# Shear Modulus (GPa) = 28.45077 40.16603 34.30840
#
# Velocity S-wave (km/s) = 3.44663 4.09522 3.78484
# Velocity P-wave (km/s) = 4.70490 6.12050 5.45878
#
# Compressibility (1/GPa) = 0.06630673
#
# Stress axis : x y z
#
# Youngs Moduli (GPa) = 145.06429 27.51260 80.75958
#
# Poissons Ratio (x) = -0.04182 0.15072
# Poissons Ratio (y) = -0.22052 -0.45936
# Poissons Ratio (z) = 0.27073 -0.15649
#
# Static dielectric constant tensor:
#      x y z
#    x 4.639950 -0.105840 -0.305830 
#    y -0.105840 4.342370 -0.205490 
#    z -0.305830 -0.205490 4.380240 
# 
# 
# High freq. dielectric constant tensor:
#      x y z
#    x 1.958630 0.000540 -0.012410 
#    y 0.000540 1.938220 -0.009430 
#    z -0.012410 -0.009430 1.953480 
# 
# From -- ./inp_files/571673.got.cif
#   From: 2010.06.25/outbox.cif.g09.slc.cpg/sg2_286_cif.got.tgz:571673.got - 2010.06.27 13:26:56.
