data_PCOD8027905
_publ_section_title
;
Structure prediction by ZEFSAII (Michael W. Deem and Ramdas Pophale) SiO2 
 PCOD8027905
Probable space group: P -1
;
_chemical_formula_sum "Si O2"
_cell_formula_units_Z 16
_cell_length_a 16.809239
_cell_length_b 20.332296
_cell_length_c 6.355865
_cell_angle_alpha 73.209235
_cell_angle_beta 108.901319
_cell_angle_gamma 160.077886
_cell_volume 699.436317
_symmetry_space_group_name_H-M "P -1"
_symmetry_group_IT_number 2
_symmetry_cell_setting 'triclinic'
loop_
_space_group_symop_operation_xyz
x,y,z
-x,-y,-z
loop_
_atom_site_type_symbol
_atom_site_label
_atom_site_fract_x
_atom_site_fract_y
_atom_site_fract_z
Si Si1 0.228730 0.695884 0.638998
Si Si2 0.326323 0.627057 0.960649
Si Si3 0.459625 0.874280 0.267345
Si Si4 0.456964 0.415506 0.853141
Si Si5 0.141155 0.726199 0.889397
Si Si6 0.341051 0.114552 0.647086
Si Si7 0.804493 0.676777 0.528236
Si Si8 0.447924 0.622639 0.720523
O O1 0.318047 0.703041 0.860048
O O2 0.447988 0.881609 0.499847
O O3 0.150187 0.704463 0.682376
O O4 0.000000 0.500000 0.500000
O O5 0.298716 0.566837 0.769619
O O6 0.577908 0.799667 0.128639
O O7 0.113595 0.439903 0.105221
O O8 0.466676 0.797241 0.326811
O O9 0.677655 0.071796 0.139416
O O10 0.217241 0.721562 0.110526
O O11 0.679746 0.573512 0.743160
O O12 0.248208 0.287438 0.647474
O O13 0.500000 0.500000 0.000000
O O14 0.406182 0.306405 0.037002
O O15 0.361553 0.194957 0.433936
O O16 0.081489 0.884132 0.621629
O O17 0.724725 0.557131 0.403265
#
# Coordination Sequence:
#
# PCOD8027905 Si02
#       8
#     2   2   2   2   2   2   2   2
#     4  12  22  42  66  88 127 182 235 282 341 402
#     4  12  25  42  66  99 139 180 229 291 345 399
#     4  11  24  43  62  97 128 180 234 284 343 402
#     4   9  21  48  77 104 135 181 223 269 342 414
#     4  11  25  43  64  89 136 183 232 287 340 402
#     4  12  26  43  66 107 140 175 229 289 346 404
#     4  10  24  48  76 102 142 178 221 279 339 418
#     4  11  25  45  70 104 139 182 228 277 346 406
#
# _framework density 22.875563
#
# number of rings (size 3 to 8) (size 9 to 14) (size 15 to 20)
#    0.000    1.000    3.750    2.250    3.500    2.500 
#    4.500    8.750    0.000    0.000    0.000    0.000 
#    0.000    0.000    0.000    0.000    0.000    0.000 
#
# Total GULP energy -198290.091394 kJ/mol
# GULP energy per Si atom -12393.130712 kJ/mol
# Density = 2.282350 g / cm^3
# Si number density = 22.875563 Si / 1000 Ang^3
#
#
#
# Elastic Constant Matrix: (Units=GPa)
#
#
# Indices 1 2 3 4 5 6 
#
# 1 85.8817 28.7446 30.3166 1.9020 -13.3112 -5.1772
# 2 28.7446 88.9871 35.7044 7.5544 -6.7481 2.4808
# 3 30.3166 35.7044 124.0176 -5.0463 -0.5588 0.7872
# 4 1.9020 7.5544 -5.0463 28.6505 -2.0917 -0.0095
# 5 -13.3112 -6.7481 -0.5588 -2.0917 50.3613 -2.5332
# 6 -5.1772 2.4808 0.7872 -0.0095 -2.5332 25.6472
#
#
#
# Elastic Compliance Matrix: (Units=1/GPa)
#
#
# Indices 1 2 3 4 5 6 
#
# 1 0.014479 -0.003466 -0.002559 -0.000240 0.003509 0.003683
# 2 -0.003466 0.014162 -0.003379 -0.004050 0.000680 -0.001900
# 3 -0.002559 -0.003379 0.009772 0.002713 -0.000937 -0.000581
# 4 -0.000240 -0.004050 0.002713 0.036535 0.000960 0.000368
# 5 0.003509 0.000680 -0.000937 0.000960 0.021043 0.002750
# 6 0.003683 -0.001900 -0.000581 0.000368 0.002750 0.040207
#
#
# Mechanical properties :
#
#
# Convention : Reuss Voigt Hill
#
# Bulk Modulus (GPa) = 51.01300 54.26862 52.64081
# Shear Modulus (GPa) = 30.95186 34.53984 32.74585
#
# Velocity S-wave (km/s) = 3.68238 3.88996 3.78759
# Velocity P-wave (km/s) = 6.35834 6.62953 6.49535
#
# Compressibility (1/GPa) = 0.01960285
#
# Stress axis : x y z
#
# Youngs Moduli (GPa) = 69.06718 70.61359 102.33668
#
# Poissons Ratio (x) = 0.24477 0.26185
# Poissons Ratio (y) = 0.23941 0.34584
# Poissons Ratio (z) = 0.17673 0.23863
#
# Static dielectric constant tensor:
#      x y z
#    x 4.438460 -0.082560 0.149870 
#    y -0.082560 3.669740 -0.117600 
#    z 0.149870 -0.117600 4.599910 
# 
# 
# High freq. dielectric constant tensor:
#      x y z
#    x 1.907180 -0.009490 -0.000090 
#    y -0.009490 1.870270 -0.007620 
#    z -0.000090 -0.007620 1.927200 
# 
# From -- ./inp_files/46989.got.cif
#   From: 2010.06.25/outbox.cif.g09.slc.cpg/sg2_24_cif.got.tgz:46989.got - 2010.06.27 13:26:56.
