data_PCOD8027515
_publ_section_title
;
Structure prediction by ZEFSAII (Michael W. Deem and Ramdas Pophale) SiO2 
 PCOD8027515
Probable space group: P -1
;
_chemical_formula_sum "Si O2"
_cell_formula_units_Z 14
_cell_length_a 12.925320
_cell_length_b 20.892515
_cell_length_c 22.215409
_cell_angle_alpha 18.297394
_cell_angle_beta 159.600001
_cell_angle_gamma 150.507520
_cell_volume 646.028754
_symmetry_space_group_name_H-M "P -1"
_symmetry_group_IT_number 2
_symmetry_cell_setting 'triclinic'
loop_
_space_group_symop_operation_xyz
x,y,z
-x,-y,-z
loop_
_atom_site_type_symbol
_atom_site_label
_atom_site_fract_x
_atom_site_fract_y
_atom_site_fract_z
Si Si1 0.161117 0.730509 0.987912
Si Si2 0.288555 0.893194 0.789190
Si Si3 0.602427 0.567312 0.786229
Si Si4 0.809351 0.479342 0.589023
Si Si5 0.729075 0.152151 0.745961
Si Si6 0.291486 0.735784 0.584857
Si Si7 0.109254 0.189558 0.107071
O O1 0.467407 0.592798 0.300127
O O2 0.214450 0.891566 0.821334
O O3 0.946489 0.577074 0.982714
O O4 0.003451 0.858450 0.844581
O O5 0.552885 0.024366 0.809109
O O6 0.411808 0.661222 0.040653
O O7 0.000000 0.000000 0.500000
O O8 0.503896 0.735929 0.530387
O O9 0.375960 0.618998 0.672442
O O10 0.874583 0.320147 0.711675
O O11 0.035841 0.639852 0.564514
O O12 0.863165 0.359096 0.788820
O O13 0.000000 0.000000 0.000000
O O14 0.581356 0.719131 0.801242
O O15 0.163556 0.978688 0.286263
#
# Coordination Sequence:
#
# PCOD8027515 Si02
#       7
#     2   2   2   2   2   2   2
#     4  11  24  44  67  97 135 171 217 275 319 394
#     4  12  24  44  68  98 134 177 215 264 337 389
#     4  11  23  46  65  98 136 171 218 273 324 394
#     4  12  24  42  67  98 131 171 221 270 326 384
#     4  12  26  40  68 100 135 172 219 269 331 387
#     4  10  24  45  70  93 130 173 221 274 321 387
#     4  10  24  47  66  94 132 172 223 266 328 386
#
# _framework density 21.670862
#
# number of rings (size 3 to 8) (size 9 to 14) (size 15 to 20)
#    0.000    0.857    2.857    3.857    4.000    1.714 
#   10.286    0.000    0.000    0.000    0.000    0.000 
#    0.000    0.000    0.000    0.000    0.000    0.000 
#
# Total GULP energy -173683.494183 kJ/mol
# GULP energy per Si atom -12405.963870 kJ/mol
# Density = 2.162154 g / cm^3
# Si number density = 21.670862 Si / 1000 Ang^3
#
#
#
# Elastic Constant Matrix: (Units=GPa)
#
#
# Indices 1 2 3 4 5 6 
#
# 1 88.5364 36.5711 42.6514 8.2611 -3.2181 7.0796
# 2 36.5711 95.3143 48.7325 9.2297 9.7188 9.0134
# 3 42.6514 48.7325 139.6910 8.0430 -13.7600 6.9934
# 4 8.2611 9.2297 8.0430 24.7128 -4.9331 1.9570
# 5 -3.2181 9.7188 -13.7600 -4.9331 34.9157 -5.6770
# 6 7.0796 9.0134 6.9934 1.9570 -5.6770 26.8307
#
#
#
# Elastic Compliance Matrix: (Units=1/GPa)
#
#
# Indices 1 2 3 4 5 6 
#
# 1 0.014617 -0.003878 -0.002832 -0.002248 0.000750 -0.001493
# 2 -0.003878 0.016080 -0.004739 -0.004418 -0.008061 -0.004527
# 3 -0.002832 -0.004739 0.010130 0.000403 0.005233 0.000777
# 4 -0.002248 -0.004418 0.000403 0.044202 0.007480 0.000331
# 5 0.000750 -0.008061 0.005233 0.007480 0.035388 0.008088
# 6 -0.001493 -0.004527 0.000777 0.000331 0.008088 0.040670
#
#
# Mechanical properties :
#
#
# Convention : Reuss Voigt Hill
#
# Bulk Modulus (GPa) = 55.77305 64.38353 60.07829
# Shear Modulus (GPa) = 26.32105 30.33095 28.32600
#
# Velocity S-wave (km/s) = 3.48887 3.74521 3.61931
# Velocity P-wave (km/s) = 6.48243 6.96249 6.72675
#
# Compressibility (1/GPa) = 0.01792981
#
# Stress axis : x y z
#
# Youngs Moduli (GPa) = 68.41116 62.18812 98.71750
#
# Poissons Ratio (x) = 0.24118 0.27958
# Poissons Ratio (y) = 0.26531 0.46779
# Poissons Ratio (z) = 0.19375 0.29469
#
# Static dielectric constant tensor:
#      x y z
#    x 3.995450 -0.018110 -0.160110 
#    y -0.018110 3.966090 0.086640 
#    z -0.160110 0.086640 4.336260 
# 
# 
# High freq. dielectric constant tensor:
#      x y z
#    x 1.855420 0.000900 0.001280 
#    y 0.000900 1.853760 0.008010 
#    z 0.001280 0.008010 1.862570 
# 
# From -- ./inp_files/23623.got.cif
#   From: 2010.06.25/outbox.cif.g09.slc.cpg/sg2_12_cif.got.tgz:23623.got - 2010.06.27 13:26:56.
