data_PCOD8027020
_publ_section_title
;
Structure prediction by ZEFSAII (Michael W. Deem and Ramdas Pophale) SiO2 
 PCOD8027020
Probable space group: P -1
;
_chemical_formula_sum "Si O2"
_cell_formula_units_Z 16
_cell_length_a 14.142146
_cell_length_b 10.104941
_cell_length_c 14.465553
_cell_angle_alpha 136.585599
_cell_angle_beta 31.503920
_cell_angle_gamma 126.694509
_cell_volume 741.045188
_symmetry_space_group_name_H-M "P -1"
_symmetry_group_IT_number 2
_symmetry_cell_setting 'triclinic'
loop_
_space_group_symop_operation_xyz
x,y,z
-x,-y,-z
loop_
_atom_site_type_symbol
_atom_site_label
_atom_site_fract_x
_atom_site_fract_y
_atom_site_fract_z
Si Si1 0.997387 0.300014 0.958401
Si Si2 0.613474 0.348310 0.268583
Si Si3 0.561103 0.331234 0.752200
Si Si4 0.261928 0.488423 0.946136
Si Si5 0.276757 0.293140 0.118239
Si Si6 0.922190 0.131095 0.375486
Si Si7 0.118763 0.827078 0.361276
Si Si8 0.494215 0.980520 0.103244
O O1 0.132146 0.315096 0.941504
O O2 0.787610 0.281632 0.152522
O O3 0.050455 0.101636 0.759359
O O4 0.000000 0.500000 0.000000
O O5 0.500000 0.500000 0.500000
O O6 0.681469 0.414482 0.146213
O O7 0.485793 0.177347 0.267211
O O8 0.452784 0.415967 0.796495
O O9 0.680992 0.488466 0.782632
O O10 0.722062 0.169376 0.515303
O O11 0.405227 0.238589 0.896084
O O12 0.132138 0.632412 0.190262
O O13 0.066357 0.247086 0.252222
O O14 0.327198 0.151971 0.089813
O O15 0.947807 0.212438 0.499762
O O16 0.323812 0.877026 0.228729
O O17 0.000000 0.000000 0.500000
O O18 0.500000 0.000000 0.000000
#
# Coordination Sequence:
#
# PCOD8027020 Si02
#       8
#     2   2   2   2   2   2   2   2
#     4  10  24  44  64  94 136 175 221 275 338 414
#     4  11  24  42  67  97 135 177 219 281 351 401
#     4  11  23  44  69  96 139 182 224 280 336 403
#     4  11  24  45  62  97 140 174 225 281 331 405
#     4  11  22  43  66 102 139 172 230 280 337 403
#     4  12  24  43  71 100 134 185 224 276 347 401
#     4  12  23  37  67 102 134 173 224 284 347 391
#     4  12  21  40  67  99 136 167 225 292 334 395
#
# _framework density 21.591128000000001
#
# number of rings (size 3 to 8) (size 9 to 14) (size 15 to 20)
#    0.000    0.750    5.000    3.375    5.250    0.500 
#    2.250    0.625    0.000    0.000    0.000    0.000 
#    0.000    0.000    0.000    0.000    0.000    0.000 
#
# Total GULP energy -198237.951236 kJ/mol
# GULP energy per Si atom -12389.871952 kJ/mol
# Density = 2.154199 g / cm^3
# Si number density = 21.591128 Si / 1000 Ang^3
#
#
#
# Elastic Constant Matrix: (Units=GPa)
#
#
# Indices 1 2 3 4 5 6 
#
# 1 82.5602 24.1466 37.0063 0.6439 -17.6170 11.3787
# 2 24.1466 92.1448 41.7870 -1.2617 13.4858 15.5340
# 3 37.0063 41.7870 133.4541 7.3465 -7.6431 8.7219
# 4 0.6439 -1.2617 7.3465 38.6870 2.8996 -3.7587
# 5 -17.6170 13.4858 -7.6431 2.8996 35.7487 6.3715
# 6 11.3787 15.5340 8.7219 -3.7587 6.3715 36.3940
#
#
#
# Elastic Compliance Matrix: (Units=1/GPa)
#
#
# Indices 1 2 3 4 5 6 
#
# 1 0.017428 -0.004135 -0.002532 -0.001231 0.010609 -0.005062
# 2 -0.004135 0.015512 -0.004112 0.001726 -0.008429 -0.002688
# 3 -0.002532 -0.004112 0.009789 -0.002198 0.002663 -0.000492
# 4 -0.001231 0.001726 -0.002198 0.027054 -0.004595 0.003773
# 5 0.010609 -0.008429 0.002663 -0.004595 0.038678 -0.007603
# 6 -0.005062 -0.002688 -0.000492 0.003773 -0.007603 0.032046
#
#
# Mechanical properties :
#
#
# Convention : Reuss Voigt Hill
#
# Bulk Modulus (GPa) = 47.23803 57.11543 52.17673
# Shear Modulus (GPa) = 29.56483 35.84722 32.70602
#
# Velocity S-wave (km/s) = 3.70443 4.07907 3.89625
# Velocity P-wave (km/s) = 6.34216 6.97823 6.66778
#
# Compressibility (1/GPa) = 0.02116938
#
# Stress axis : x y z
#
# Youngs Moduli (GPa) = 57.38052 64.46802 102.15990
#
# Poissons Ratio (x) = 0.26658 0.25864
# Poissons Ratio (y) = 0.23727 0.42012
# Poissons Ratio (z) = 0.14527 0.26512
#
# Static dielectric constant tensor:
#      x y z
#    x 5.805840 0.967860 -2.795100 
#    y 0.967860 4.440160 -1.449380 
#    z -2.795100 -1.449380 9.759890 
# 
# 
# High freq. dielectric constant tensor:
#      x y z
#    x 1.843690 0.009610 -0.022570 
#    y 0.009610 1.847490 0.000270 
#    z -0.022570 0.000270 1.848620 
# 
# From -- ./inp_files/532708.got.cif
#   From: 2010.06.25/outbox.cif.g09.slc.cpg/sg2_267_cif.got.tgz:532708.got - 2010.06.27 13:26:56.
