data_PCOD8027984
_publ_section_title
;
Structure prediction by ZEFSAII (Michael W. Deem and Ramdas Pophale) SiO2 
 PCOD8027984
Probable space group: P -1
;
_chemical_formula_sum "Si O2"
_cell_formula_units_Z 14
_cell_length_a 10.988491
_cell_length_b 7.346949
_cell_length_c 8.580332
_cell_angle_alpha 122.909200
_cell_angle_beta 102.296515
_cell_angle_gamma 58.711753
_cell_volume 494.655405
_symmetry_space_group_name_H-M "P -1"
_symmetry_group_IT_number 2
_symmetry_cell_setting 'triclinic'
loop_
_space_group_symop_operation_xyz
x,y,z
-x,-y,-z
loop_
_atom_site_type_symbol
_atom_site_label
_atom_site_fract_x
_atom_site_fract_y
_atom_site_fract_z
Si Si1 0.994225 0.186880 0.221603
Si Si2 0.315576 0.580897 0.644029
Si Si3 0.912815 0.544717 0.838469
Si Si4 0.372656 0.947839 0.968955
Si Si5 0.441939 0.887592 0.565678
Si Si6 0.400931 0.352458 0.895618
Si Si7 0.779481 0.231884 0.716960
O O1 0.993311 0.430931 0.263984
O O2 0.853660 0.303301 0.346222
O O3 0.126934 0.033494 0.300362
O O4 0.000000 0.000000 0.000000
O O5 0.352093 0.806783 0.746248
O O6 0.409974 0.358224 0.444089
O O7 0.384701 0.462126 0.773165
O O8 0.877702 0.321254 0.687723
O O9 0.000000 0.500000 0.000000
O O10 0.774281 0.816508 0.918871
O O11 0.432853 0.757772 0.050559
O O12 0.500000 0.000000 0.000000
O O13 0.330564 0.794690 0.439333
O O14 0.500000 0.000000 0.500000
O O15 0.369883 0.115027 0.776546
O O16 0.288000 0.545909 0.074228
#
# Coordination Sequence:
#
# PCOD8027984 Si02
#       7
#     2   2   2   2   2   2   2
#     4  12  23  38  75 104 131 199 230 272 361 416
#     4  11  21  42  63 101 138 172 233 284 336 417
#     4  12  23  40  68 109 135 181 241 279 344 427
#     4  12  22  36  69 102 129 179 228 284 351 405
#     4  10  25  40  72 104 135 184 230 292 350 408
#     4  11  22  41  72  99 136 177 228 287 353 400
#     4  12  23  47  72 102 144 177 234 295 343 413
#
# _framework density 28.302530000000001
#
# number of rings (size 3 to 8) (size 9 to 14) (size 15 to 20)
#    0.000    0.571    7.143    0.429    6.000    0.000 
#    0.000    5.714    6.286    7.714    0.000    0.000 
#    0.000    0.000    0.000    0.000    0.000    0.000 
#
# Total GULP energy -173493.580845 kJ/mol
# GULP energy per Si atom -12392.398632 kJ/mol
# Density = 2.823811 g / cm^3
# Si number density = 28.302530 Si / 1000 Ang^3
#
#
#
# Elastic Constant Matrix: (Units=GPa)
#
#
# Indices 1 2 3 4 5 6 
#
# 1 127.1290 18.7269 49.8347 6.9114 33.5754 -8.8129
# 2 18.7269 144.2540 20.0979 -1.3651 -6.7830 -24.6727
# 3 49.8347 20.0979 131.0837 14.3940 20.1746 -6.5278
# 4 6.9114 -1.3651 14.3940 26.9802 5.6287 4.2166
# 5 33.5754 -6.7830 20.1746 5.6287 40.6063 11.5843
# 6 -8.8129 -24.6727 -6.5278 4.2166 11.5843 55.0681
#
#
#
# Elastic Compliance Matrix: (Units=1/GPa)
#
#
# Indices 1 2 3 4 5 6 
#
# 1 0.011801 -0.001074 -0.002696 -0.000149 -0.009459 0.003089
# 2 -0.001074 0.007771 -0.000965 0.000368 0.001821 0.002784
# 3 -0.002696 -0.000965 0.009702 -0.004191 -0.002494 0.001132
# 4 -0.000149 0.000368 -0.004191 0.040333 -0.002491 -0.002920
# 5 -0.009459 0.001821 -0.002494 -0.002491 0.036772 -0.008538
# 6 0.003089 0.002784 0.001132 -0.002920 -0.008538 0.022055
#
#
# Mechanical properties :
#
#
# Convention : Reuss Voigt Hill
#
# Bulk Modulus (GPa) = 50.49441 64.42062 57.45751
# Shear Modulus (GPa) = 34.60038 45.45141 40.02589
#
# Velocity S-wave (km/s) = 3.50025 4.01173 3.76469
# Velocity P-wave (km/s) = 5.84939 6.65353 6.26438
#
# Compressibility (1/GPa) = 0.01980417
#
# Stress axis : x y z
#
# Youngs Moduli (GPa) = 84.73595 128.67588 103.07074
#
# Poissons Ratio (x) = 0.13823 0.27788
# Poissons Ratio (y) = 0.09103 0.09947
# Poissons Ratio (z) = 0.22845 0.12418
#
# Static dielectric constant tensor:
#      x y z
#    x 5.631820 0.937700 -0.290290 
#    y 0.937700 4.785010 1.500460 
#    z -0.290290 1.500460 5.556980 
# 
# 
# High freq. dielectric constant tensor:
#      x y z
#    x 2.158930 0.025520 0.014320 
#    y 0.025520 2.180450 0.010560 
#    z 0.014320 0.010560 2.146220 
# 
# From -- ./inp_files/420190.got.cif
#   From: 2010.06.25/outbox.cif.g09.slc.cpg/sg2_211_cif.got.tgz:420190.got - 2010.06.27 13:26:56.
