data_PCOD8027773
_publ_section_title
;
Structure prediction by ZEFSAII (Michael W. Deem and Ramdas Pophale) SiO2 
 PCOD8027773
Probable space group: P -1
;
_chemical_formula_sum "Si O2"
_cell_formula_units_Z 16
_cell_length_a 13.685174
_cell_length_b 11.267535
_cell_length_c 11.052462
_cell_angle_alpha 84.566555
_cell_angle_beta 32.949112
_cell_angle_gamma 62.480754
_cell_volume 652.971129
_symmetry_space_group_name_H-M "P -1"
_symmetry_group_IT_number 2
_symmetry_cell_setting 'triclinic'
loop_
_space_group_symop_operation_xyz
x,y,z
-x,-y,-z
loop_
_atom_site_type_symbol
_atom_site_label
_atom_site_fract_x
_atom_site_fract_y
_atom_site_fract_z
Si Si1 0.856596 0.538543 0.770102
Si Si2 0.282331 0.251173 0.718130
Si Si3 0.473437 0.533827 0.868792
Si Si4 0.038271 0.805970 0.536600
Si Si5 0.733724 0.948625 0.415778
Si Si6 0.422859 0.111427 0.954742
Si Si7 0.069209 0.904947 0.255737
Si Si8 0.137883 0.528672 0.687406
O O1 0.586508 0.740110 0.036965
O O2 0.000000 0.500000 0.500000
O O3 0.058184 0.473898 0.670602
O O4 0.766925 0.443239 0.895380
O O5 0.182221 0.213028 0.717992
O O6 0.269565 0.392586 0.672347
O O7 0.576063 0.095112 0.464689
O O8 0.116646 0.298190 0.004725
O O9 0.672469 0.379454 0.774171
O O10 0.665986 0.458896 0.560782
O O11 0.361141 0.721748 0.985168
O O12 0.918903 0.909429 0.523010
O O13 0.883565 0.766474 0.752703
O O14 0.988184 0.929613 0.679391
O O15 0.970420 0.914726 0.224170
O O16 0.567555 0.994294 0.700884
O O17 0.500000 0.000000 0.000000
#
# Coordination Sequence:
#
# PCOD8027773 Si02
#       8
#     2   2   2   2   2   2   2   2
#     4  12  27  44  74 114 150 190 236 304 382 455
#     4  10  24  46  77  98 143 198 256 308 356 424
#     4  12  26  46  74 110 150 192 241 298 376 449
#     4  11  24  42  69 106 157 184 232 298 374 453
#     4  11  22  46  73 102 143 191 248 306 366 439
#     4  12  24  43  73 108 145 194 240 303 384 446
#     4  11  25  42  67 108 144 191 233 299 371 448
#     4  11  25  49  72 106 144 195 251 308 366 431
#
# _framework density 24.503381999999998
#
# number of rings (size 3 to 8) (size 9 to 14) (size 15 to 20)
#    0.000    0.750    3.750    2.625    7.000    0.000 
#    0.000    6.250    2.750    0.000    0.000    0.000 
#    0.000    0.000    0.000    0.000    0.000    0.000 
#
# Total GULP energy -198237.852848 kJ/mol
# GULP energy per Si atom -12389.865803 kJ/mol
# Density = 2.444761 g / cm^3
# Si number density = 24.503382 Si / 1000 Ang^3
#
#
#
# Elastic Constant Matrix: (Units=GPa)
#
#
# Indices 1 2 3 4 5 6 
#
# 1 120.5855 16.0439 14.1079 4.0335 10.5062 2.9125
# 2 16.0439 89.9117 17.9026 14.0852 -7.6801 2.3002
# 3 14.1079 17.9026 92.6426 -3.0379 5.2798 8.4720
# 4 4.0335 14.0852 -3.0379 49.5242 2.9392 6.1025
# 5 10.5062 -7.6801 5.2798 2.9392 29.1957 3.9044
# 6 2.9125 2.3002 8.4720 6.1025 3.9044 33.3656
#
#
#
# Elastic Compliance Matrix: (Units=1/GPa)
#
#
# Indices 1 2 3 4 5 6 
#
# 1 0.008926 -0.001714 -0.000829 -0.000079 -0.003502 -0.000026
# 2 -0.001714 0.013009 -0.002674 -0.004027 0.004915 0.000093
# 3 -0.000829 -0.002674 0.011902 0.002052 -0.002381 -0.002862
# 4 -0.000079 -0.004027 0.002052 0.022138 -0.003106 -0.003922
# 5 -0.003502 0.004915 -0.002381 -0.003106 0.037990 -0.003306
# 6 -0.000026 0.000093 -0.002862 -0.003922 -0.003306 0.031798
#
#
# Mechanical properties :
#
#
# Convention : Reuss Voigt Hill
#
# Bulk Modulus (GPa) = 42.72712 44.36095 43.54403
# Shear Modulus (GPa) = 34.72332 39.42279 37.07306
#
# Velocity S-wave (km/s) = 3.76850 4.01543 3.89392
# Velocity P-wave (km/s) = 6.03411 6.29615 6.16652
#
# Compressibility (1/GPa) = 0.02340434
#
# Stress axis : x y z
#
# Youngs Moduli (GPa) = 112.02942 76.87256 84.02137
#
# Poissons Ratio (x) = 0.13174 0.06963
# Poissons Ratio (y) = 0.19199 0.22463
# Poissons Ratio (z) = 0.09285 0.20552
#
# Static dielectric constant tensor:
#      x y z
#    x 4.371080 -0.088620 -0.056350 
#    y -0.088620 4.440940 0.144820 
#    z -0.056350 0.144820 4.628530 
# 
# 
# High freq. dielectric constant tensor:
#      x y z
#    x 1.959230 -0.015450 0.007440 
#    y -0.015450 1.988470 0.020750 
#    z 0.007440 0.020750 1.977150 
# 
# From -- ./inp_files/452253.got.cif
#   From: 2010.06.25/outbox.cif.g09.slc.cpg/sg2_227_cif.got.tgz:452253.got - 2010.06.27 13:26:56.
