data_PCOD8027603
_publ_section_title
;
Structure prediction by ZEFSAII (Michael W. Deem and Ramdas Pophale) SiO2 
 PCOD8027603
Probable space group: P -1
;
_chemical_formula_sum "Si O2"
_cell_formula_units_Z 16
_cell_length_a 7.083165
_cell_length_b 12.668079
_cell_length_c 9.025135
_cell_angle_alpha 95.846696
_cell_angle_beta 118.315886
_cell_angle_gamma 97.394076
_cell_volume 694.580460
_symmetry_space_group_name_H-M "P -1"
_symmetry_group_IT_number 2
_symmetry_cell_setting 'triclinic'
loop_
_space_group_symop_operation_xyz
x,y,z
-x,-y,-z
loop_
_atom_site_type_symbol
_atom_site_label
_atom_site_fract_x
_atom_site_fract_y
_atom_site_fract_z
Si Si1 0.164330 0.685902 0.461441
Si Si2 0.465243 0.121336 0.471943
Si Si3 0.306070 0.258874 0.673811
Si Si4 0.740777 0.973473 0.897344
Si Si5 0.631403 0.450591 0.919942
Si Si6 0.532441 0.139992 0.957519
Si Si7 0.853875 0.328005 0.220285
Si Si8 0.735950 0.521105 0.667194
O O1 0.313967 0.789998 0.455349
O O2 0.241586 0.652941 0.649100
O O3 0.145400 0.579700 0.338310
O O4 0.935535 0.721801 0.399733
O O5 0.316129 0.166150 0.543427
O O6 0.332448 0.115519 0.268027
O O7 0.500000 0.000000 0.500000
O O8 0.477303 0.371604 0.732787
O O9 0.386586 0.221569 0.856192
O O10 0.630236 0.079461 0.848019
O O11 0.640805 0.936864 0.014639
O O12 0.000000 0.000000 0.000000
O O13 0.744291 0.538177 0.852333
O O14 0.500000 0.500000 0.000000
O O15 0.796950 0.397640 0.070352
O O16 0.752298 0.202026 0.133171
O O17 0.120344 0.365868 0.330884
O O18 0.500000 0.500000 0.500000
#
# Coordination Sequence:
#
# PCOD8027603 Si02
#       8
#     2   2   2   2   2   2   2   2
#     4  12  26  46  71 105 146 190 239 301 365 431
#     4  12  26  47  71 106 144 188 247 299 361 428
#     4  11  25  44  71  99 145 185 243 290 365 425
#     4  11  25  44  72  97 140 182 243 291 372 415
#     4  11  23  46  68 105 144 185 240 296 356 435
#     4  10  24  46  64 103 138 184 234 304 349 439
#     4  11  24  43  69 101 144 186 234 293 365 423
#     4  12  25  45  76 107 146 192 244 295 366 442
#
# _framework density 23.035489999999999
#
# number of rings (size 3 to 8) (size 9 to 14) (size 15 to 20)
#    0.000    0.750    3.750    3.000    3.500    0.500 
#    4.500    0.000    0.000    0.000    0.000    0.000 
#    0.000    0.000    0.000    0.000    0.000    0.000 
#
# Total GULP energy -198249.952241 kJ/mol
# GULP energy per Si atom -12390.622015 kJ/mol
# Density = 2.298306 g / cm^3
# Si number density = 23.035490 Si / 1000 Ang^3
#
#
#
# Elastic Constant Matrix: (Units=GPa)
#
#
# Indices 1 2 3 4 5 6 
#
# 1 151.4197 52.7683 44.0895 9.0245 -0.7811 -1.3226
# 2 52.7683 83.7126 12.7967 12.0495 -2.3411 8.3285
# 3 44.0895 12.7967 84.6976 13.1039 -11.3057 -3.6403
# 4 9.0245 12.0495 13.1039 40.3197 0.3268 -2.0728
# 5 -0.7811 -2.3411 -11.3057 0.3268 45.8378 4.8392
# 6 -1.3226 8.3285 -3.6403 -2.0728 4.8392 43.3070
#
#
#
# Elastic Compliance Matrix: (Units=1/GPa)
#
#
# Indices 1 2 3 4 5 6 
#
# 1 0.009925 -0.005879 -0.004582 0.001100 -0.001402 0.001258
# 2 -0.005879 0.016464 0.001265 -0.004213 0.001463 -0.003605
# 3 -0.004582 0.001265 0.015176 -0.004301 0.003732 0.000270
# 4 0.001100 -0.004213 -0.004301 0.027327 -0.001661 0.001976
# 5 -0.001402 0.001463 0.003732 -0.001661 0.023081 -0.002669
# 6 0.001258 -0.003605 0.000270 0.001976 -0.002669 0.024238
#
#
# Mechanical properties :
#
#
# Convention : Reuss Voigt Hill
#
# Bulk Modulus (GPa) = 43.15237 59.90431 51.52834
# Shear Modulus (GPa) = 35.13057 39.90459 37.51758
#
# Velocity S-wave (km/s) = 3.90944 4.16662 4.04008
# Velocity P-wave (km/s) = 6.25715 7.01493 6.64685
#
# Compressibility (1/GPa) = 0.02317370
#
# Stress axis : x y z
#
# Youngs Moduli (GPa) = 100.75551 60.73941 65.89469
#
# Poissons Ratio (x) = 0.35706 0.30190
# Poissons Ratio (y) = 0.59230 -0.08334
# Poissons Ratio (z) = 0.46162 -0.07682
#
# Static dielectric constant tensor:
#      x y z
#    x 4.136030 0.167640 -0.215100 
#    y 0.167640 4.604870 -0.056930 
#    z -0.215100 -0.056930 4.524830 
# 
# 
# High freq. dielectric constant tensor:
#      x y z
#    x 1.909190 0.009860 -0.008210 
#    y 0.009860 1.911220 0.000440 
#    z -0.008210 0.000440 1.925080 
# 
# From -- ./inp_files/124660.got.cif
#   From: 2010.06.25/outbox.cif.g09.slc.cpg/sg2_63_cif.got.tgz:124660.got - 2010.06.27 13:26:56.
