data_PCOD8027524
_publ_section_title
;
Structure prediction by ZEFSAII (Michael W. Deem and Ramdas Pophale) SiO2 
 PCOD8027524
Probable space group: P -1
;
_chemical_formula_sum "Si O2"
_cell_formula_units_Z 16
_cell_length_a 10.429419
_cell_length_b 11.628511
_cell_length_c 9.128822
_cell_angle_alpha 50.898262
_cell_angle_beta 52.835185
_cell_angle_gamma 80.443438
_cell_volume 641.962755
_symmetry_space_group_name_H-M "P -1"
_symmetry_group_IT_number 2
_symmetry_cell_setting 'triclinic'
loop_
_space_group_symop_operation_xyz
x,y,z
-x,-y,-z
loop_
_atom_site_type_symbol
_atom_site_label
_atom_site_fract_x
_atom_site_fract_y
_atom_site_fract_z
Si Si1 0.535070 0.383971 0.387682
Si Si2 0.893455 0.081199 0.653466
Si Si3 0.246073 0.376228 0.162505
Si Si4 0.134115 0.903974 0.663087
Si Si5 0.283278 0.801220 0.075096
Si Si6 0.693475 0.434820 0.533828
Si Si7 0.431049 0.180587 0.349069
Si Si8 0.078738 0.618329 0.127410
O O1 0.611241 0.340922 0.518568
O O2 0.356670 0.410914 0.525206
O O3 0.501316 0.236020 0.419613
O O4 0.667400 0.557197 0.107034
O O5 0.760104 0.083849 0.870820
O O6 0.064150 0.236053 0.390894
O O7 0.950586 0.931350 0.769821
O O8 0.794434 0.061581 0.581250
O O9 0.383703 0.327652 0.199936
O O10 0.220480 0.533937 0.118368
O O11 0.261037 0.025821 0.591819
O O12 0.110440 0.727537 0.872653
O O13 0.362279 0.686833 0.197113
O O14 0.101370 0.717889 0.182423
O O15 0.428331 0.874210 0.791842
O O16 0.897038 0.484435 0.343093
#
# Coordination Sequence:
#
# PCOD8027524 Si02
#       8
#     2   2   2   2   2   2   2   2
#     4  11  23  42  66 103 138 179 216 278 343 393
#     4  10  24  45  70  98 134 180 227 277 337 394
#     4  11  21  41  76  98 133 176 225 280 331 396
#     4  10  26  48  65  97 139 184 222 270 341 410
#     4  12  24  42  70 103 132 174 229 280 337 390
#     4  11  25  41  67 109 136 166 228 290 330 390
#     4  11  24  46  70  95 143 181 222 269 340 413
#     4  12  25  42  72 104 133 172 229 282 335 397
#
# _framework density 24.923562
#
# number of rings (size 3 to 8) (size 9 to 14) (size 15 to 20)
#    0.000    1.000    3.750    2.250    5.250    2.500 
#    0.000    0.000    0.000    0.000    0.000    0.000 
#    0.000    0.000    0.000    0.000    0.000    0.000 
#
# Total GULP energy -198332.204431 kJ/mol
# GULP energy per Si atom -12395.762777 kJ/mol
# Density = 2.486684 g / cm^3
# Si number density = 24.923562 Si / 1000 Ang^3
#
#
#
# Elastic Constant Matrix: (Units=GPa)
#
#
# Indices 1 2 3 4 5 6 
#
# 1 90.2271 29.4007 4.6474 18.9141 8.1508 1.4643
# 2 29.4007 122.4689 14.2473 29.3799 0.8956 -9.9952
# 3 4.6474 14.2473 28.6966 14.1999 4.9851 -1.1743
# 4 18.9141 29.3799 14.1999 40.5772 -0.9001 4.7418
# 5 8.1508 0.8956 4.9851 -0.9001 27.2611 1.9248
# 6 1.4643 -9.9952 -1.1743 4.7418 1.9248 44.4272
#
#
#
# Elastic Compliance Matrix: (Units=1/GPa)
#
#
# Indices 1 2 3 4 5 6 
#
# 1 0.013220 -0.002085 0.002450 -0.005604 -0.004514 -0.000046
# 2 -0.002085 0.010681 -0.001615 -0.006559 0.000131 0.003123
# 3 0.002450 -0.001615 0.045128 -0.016320 -0.009676 0.002910
# 4 -0.005604 -0.006559 -0.016320 0.038579 0.006582 -0.006125
# 5 -0.004514 0.000131 -0.009676 0.006582 0.040192 -0.002521
# 6 -0.000046 0.003123 0.002910 -0.006125 -0.002521 0.024053
#
#
# Mechanical properties :
#
#
# Convention : Reuss Voigt Hill
#
# Bulk Modulus (GPa) = 15.03106 37.55371 26.29238
# Shear Modulus (GPa) = 25.44162 35.32623 30.38393
#
# Velocity S-wave (km/s) = 3.19844 3.76890 3.49533
# Velocity P-wave (km/s) = 4.43666 5.83436 5.18284
#
# Compressibility (1/GPa) = 0.06652890
#
# Stress axis : x y z
#
# Youngs Moduli (GPa) = 75.64466 93.62329 22.15933
#
# Poissons Ratio (x) = 0.19519 -0.05428
# Poissons Ratio (y) = 0.15771 0.03578
# Poissons Ratio (z) = -0.18531 0.15117
#
# Static dielectric constant tensor:
#      x y z
#    x 4.541650 -0.115200 0.200750 
#    y -0.115200 4.409660 0.092850 
#    z 0.200750 0.092850 4.220820 
# 
# 
# High freq. dielectric constant tensor:
#      x y z
#    x 2.006220 -0.007550 0.012820 
#    y -0.007550 1.989090 0.006600 
#    z 0.012820 0.006600 1.972660 
# 
# From -- ./inp_files/261505.got.cif
#   From: 2010.06.25/outbox.cif.g09.slc.cpg/sg2_131_cif.got.tgz:261505.got - 2010.06.27 13:26:56.
