data_PCOD8027880
_publ_section_title
;
Structure prediction by ZEFSAII (Michael W. Deem and Ramdas Pophale) SiO2 
 PCOD8027880
Probable space group: P -1
;
_chemical_formula_sum "Si O2"
_cell_formula_units_Z 16
_cell_length_a 11.091492
_cell_length_b 19.583649
_cell_length_c 9.754872
_cell_angle_alpha 107.038869
_cell_angle_beta 93.746133
_cell_angle_gamma 147.820922
_cell_volume 850.432929
_symmetry_space_group_name_H-M "P -1"
_symmetry_group_IT_number 2
_symmetry_cell_setting 'triclinic'
loop_
_space_group_symop_operation_xyz
x,y,z
-x,-y,-z
loop_
_atom_site_type_symbol
_atom_site_label
_atom_site_fract_x
_atom_site_fract_y
_atom_site_fract_z
Si Si1 0.741199 0.862330 0.591805
Si Si2 0.744660 0.632158 0.782715
Si Si3 0.383700 0.222287 0.774459
Si Si4 0.682234 0.985364 0.645351
Si Si5 0.345008 0.909611 0.080931
Si Si6 0.656873 0.654757 0.053159
Si Si7 0.782588 0.734943 0.573872
Si Si8 0.409653 0.078381 0.706981
O O1 0.622777 0.772266 0.384823
O O2 0.595727 0.859509 0.622904
O O3 0.690171 0.766532 0.631369
O O4 0.074522 0.057641 0.723848
O O5 0.846212 0.719391 0.698411
O O6 0.471960 0.434690 0.634702
O O7 0.670000 0.658574 0.891144
O O8 0.004934 0.726490 0.922255
O O9 0.524102 0.370581 0.933368
O O10 0.528396 0.223419 0.822355
O O11 0.537656 0.918877 0.444920
O O12 0.559995 0.975415 0.741815
O O13 0.023321 0.174911 0.759936
O O14 0.420992 0.877131 0.143621
O O15 0.500000 0.000000 0.000000
O O16 0.500000 0.500000 0.000000
O O17 0.067534 0.891873 0.595777
#
# Coordination Sequence:
#
# PCOD8027880 Si02
#       8
#     2   2   2   2   2   2   2   2
#     4   8  14  29  50  74  98 125 166 214 249 293
#     4  10  21  32  49  77 105 133 173 206 256 310
#     4   8  15  27  48  78  99 126 167 206 253 300
#     4   9  19  32  53  79  98 132 181 204 247 311
#     4  11  21  36  49  75 107 138 167 213 256 294
#     4  10  17  30  50  79 109 128 162 220 259 291
#     4  10  18  33  54  75 101 136 167 211 259 303
#     4  10  18  34  57  75 102 138 169 209 249 304
#
# _framework density 18.813946999999999
#
# number of rings (size 3 to 8) (size 9 to 14) (size 15 to 20)
#    0.000    2.500    1.250    4.125    0.000    0.000 
#    2.250    2.500    0.000   15.750    0.000    0.000 
#    0.000    0.000    0.000    0.000    0.000    0.000 
#
# Total GULP energy -198212.860534 kJ/mol
# GULP energy per Si atom -12388.303783 kJ/mol
# Density = 1.877113 g / cm^3
# Si number density = 18.813947 Si / 1000 Ang^3
#
#
#
# Elastic Constant Matrix: (Units=GPa)
#
#
# Indices 1 2 3 4 5 6 
#
# 1 143.2496 41.7173 60.5841 -8.6261 -14.2036 -24.2287
# 2 41.7173 45.3324 27.7260 -4.1856 -7.3217 -8.3427
# 3 60.5841 27.7260 89.5393 -7.7473 -6.8690 -8.7903
# 4 -8.6261 -4.1856 -7.7473 22.6743 -0.9745 -6.2345
# 5 -14.2036 -7.3217 -6.8690 -0.9745 35.3590 -4.2619
# 6 -24.2287 -8.3427 -8.7903 -6.2345 -4.2619 28.4801
#
#
#
# Elastic Compliance Matrix: (Units=1/GPa)
#
#
# Indices 1 2 3 4 5 6 
#
# 1 0.013450 -0.006054 -0.005505 0.004979 0.004388 0.009717
# 2 -0.006054 0.032331 -0.004931 0.003274 0.003889 0.004097
# 3 -0.005505 -0.004931 0.016597 0.002544 0.000008 -0.000447
# 4 0.004979 0.003274 0.002544 0.052875 0.006869 0.018582
# 5 0.004388 0.003889 0.000008 0.006869 0.032393 0.011226
# 6 0.009717 0.004097 -0.000447 0.018582 0.011226 0.050188
#
#
# Mechanical properties :
#
#
# Convention : Reuss Voigt Hill
#
# Bulk Modulus (GPa) = 34.01626 59.79735 46.90680
# Shear Modulus (GPa) = 20.78014 27.17562 23.97788
#
# Velocity S-wave (km/s) = 3.32702 3.80470 3.57385
# Velocity P-wave (km/s) = 5.73396 7.15217 6.48197
#
# Compressibility (1/GPa) = 0.02939770
#
# Stress axis : x y z
#
# Youngs Moduli (GPa) = 74.34693 30.93004 60.25310
#
# Poissons Ratio (x) = 0.18726 0.33168
# Poissons Ratio (y) = 0.45012 0.29711
# Poissons Ratio (z) = 0.40926 0.15252
#
# Static dielectric constant tensor:
#      x y z
#    x 3.776120 -0.217730 -0.304660 
#    y -0.217730 3.225100 -0.105090 
#    z -0.304660 -0.105090 3.473330 
# 
# 
# High freq. dielectric constant tensor:
#      x y z
#    x 1.734750 -0.024390 -0.015910 
#    y -0.024390 1.702760 -0.012110 
#    z -0.015910 -0.012110 1.719750 
# 
# From -- ./inp_files/255069.got.cif
#   From: 2010.06.25/outbox.cif.g09.slc.cpg/sg2_128_cif.got.tgz:255069.got - 2010.06.27 13:26:56.
