data_PCOD8027135
_publ_section_title
;
Structure prediction by ZEFSAII (Michael W. Deem and Ramdas Pophale) SiO2 
 PCOD8027135
Probable space group: P -1
;
_chemical_formula_sum "Si O2"
_cell_formula_units_Z 16
_cell_length_a 10.305538
_cell_length_b 12.164712
_cell_length_c 12.375924
_cell_angle_alpha 132.119342
_cell_angle_beta 100.010055
_cell_angle_gamma 116.659463
_cell_volume 717.798501
_symmetry_space_group_name_H-M "P -1"
_symmetry_group_IT_number 2
_symmetry_cell_setting 'triclinic'
loop_
_space_group_symop_operation_xyz
x,y,z
-x,-y,-z
loop_
_atom_site_type_symbol
_atom_site_label
_atom_site_fract_x
_atom_site_fract_y
_atom_site_fract_z
Si Si1 0.880791 0.489737 0.887755
Si Si2 0.959003 0.135168 0.995067
Si Si3 0.755667 0.585899 0.098150
Si Si4 0.737216 0.651786 0.638966
Si Si5 0.684953 0.827200 0.156907
Si Si6 0.088561 0.741093 0.403596
Si Si7 0.699863 0.014352 0.077306
Si Si8 0.229774 0.600651 0.678166
O O1 0.800166 0.308093 0.663427
O O2 0.033765 0.742189 0.020139
O O3 0.705235 0.428662 0.887433
O O4 0.000000 0.500000 0.000000
O O5 0.784237 0.038093 0.989729
O O6 0.185248 0.316190 0.206111
O O7 0.883095 0.911937 0.788033
O O8 0.810495 0.791585 0.188072
O O9 0.958089 0.713425 0.276080
O O10 0.560261 0.423955 0.043403
O O11 0.500000 0.500000 0.500000
O O12 0.777221 0.538789 0.500583
O O13 0.724274 0.993082 0.356315
O O14 0.764121 0.946565 0.129504
O O15 0.942024 0.569434 0.367964
O O16 0.799591 0.261178 0.289860
O O17 0.451375 0.804217 0.903513
#
# Coordination Sequence:
#
# PCOD8027135 Si02
#       8
#     2   2   2   2   2   2   2   2
#     4  10  24  44  68  93 134 172 217 269 322 388
#     4  11  24  44  68  98 134 173 219 267 334 390
#     4  10  24  45  62  94 132 169 215 269 316 381
#     4  11  25  42  65 100 133 174 216 272 331 393
#     4  11  24  41  70  94 127 171 218 264 324 385
#     4  11  22  43  66  95 126 170 220 262 323 382
#     4  11  23  42  70  99 132 173 213 276 330 384
#     4  11  23  40  68  98 135 168 217 273 329 391
#
# _framework density 22.290375999999998
#
# number of rings (size 3 to 8) (size 9 to 14) (size 15 to 20)
#    0.000    1.250    3.750    1.125    7.000    1.500 
#    0.000    0.000    0.000    0.000    0.000    0.000 
#    0.000    0.000    0.000    0.000    0.000    0.000 
#
# Total GULP energy -198335.493610 kJ/mol
# GULP energy per Si atom -12395.968351 kJ/mol
# Density = 2.223964 g / cm^3
# Si number density = 22.290376 Si / 1000 Ang^3
#
#
#
# Elastic Constant Matrix: (Units=GPa)
#
#
# Indices 1 2 3 4 5 6 
#
# 1 57.2115 44.0281 9.0134 7.6292 -26.8353 -4.4399
# 2 44.0281 146.9989 27.5881 4.3445 -10.3335 -30.6007
# 3 9.0134 27.5881 86.5933 10.2844 -28.3870 -11.1485
# 4 7.6292 4.3445 10.2844 21.2123 -3.3476 -11.6186
# 5 -26.8353 -10.3335 -28.3870 -3.3476 43.2344 3.4093
# 6 -4.4399 -30.6007 -11.1485 -11.6186 3.4093 37.1034
#
#
#
# Elastic Compliance Matrix: (Units=1/GPa)
#
#
# Indices 1 2 3 4 5 6 
#
# 1 0.042561 -0.014749 0.010585 -0.019793 0.029317 -0.012783
# 2 -0.014749 0.013810 -0.005745 0.010304 -0.009776 0.012023
# 3 0.010585 -0.005745 0.018713 -0.010513 0.016882 -0.002692
# 4 -0.019793 0.010304 -0.010513 0.069326 -0.013401 0.025911
# 5 0.029317 -0.009776 0.016882 -0.013401 0.049687 -0.008244
# 6 -0.012783 0.012023 -0.002692 0.025911 -0.008244 0.043401
#
#
# Mechanical properties :
#
#
# Convention : Reuss Voigt Hill
#
# Bulk Modulus (GPa) = 18.09503 50.22923 34.16213
# Shear Modulus (GPa) = 18.13324 34.32162 26.22743
#
# Velocity S-wave (km/s) = 2.85529 3.92822 3.43392
# Velocity P-wave (km/s) = 4.35955 6.56944 5.57509
#
# Compressibility (1/GPa) = 0.05526379
#
# Stress axis : x y z
#
# Youngs Moduli (GPa) = 23.49593 72.41310 53.43872
#
# Poissons Ratio (x) = 1.06803 -0.56563
# Poissons Ratio (y) = 0.34654 0.30702
# Poissons Ratio (z) = -0.24870 0.41603
#
# Static dielectric constant tensor:
#      x y z
#    x 4.331600 -0.154290 -0.399640 
#    y -0.154290 4.061830 0.010610 
#    z -0.399640 0.010610 4.168270 
# 
# 
# High freq. dielectric constant tensor:
#      x y z
#    x 1.889040 -0.011310 -0.020680 
#    y -0.011310 1.880420 0.004110 
#    z -0.020680 0.004110 1.871020 
# 
# From -- ./inp_files/428950.got.cif
#   From: 2010.06.25/outbox.cif.g09.slc.cpg/sg2_215_cif.got.tgz:428950.got - 2010.06.27 13:26:56.
