data_PCOD8027250
_publ_section_title
;
Structure prediction by ZEFSAII (Michael W. Deem and Ramdas Pophale) SiO2 
 PCOD8027250
Probable space group: P -1
;
_chemical_formula_sum "Si O2"
_cell_formula_units_Z 16
_cell_length_a 13.837504
_cell_length_b 8.700423
_cell_length_c 9.236904
_cell_angle_alpha 130.847286
_cell_angle_beta 67.746552
_cell_angle_gamma 82.717404
_cell_volume 657.844581
_symmetry_space_group_name_H-M "P -1"
_symmetry_group_IT_number 2
_symmetry_cell_setting 'triclinic'
loop_
_space_group_symop_operation_xyz
x,y,z
-x,-y,-z
loop_
_atom_site_type_symbol
_atom_site_label
_atom_site_fract_x
_atom_site_fract_y
_atom_site_fract_z
Si Si1 0.464048 0.806625 0.616732
Si Si2 0.898427 0.800060 0.328991
Si Si3 0.743162 0.566906 0.248676
Si Si4 0.324812 0.333758 0.091285
Si Si5 0.298080 0.696430 0.137077
Si Si6 0.032313 0.633360 0.445815
Si Si7 0.957507 0.109961 0.932598
Si Si8 0.504627 0.636122 0.798848
O O1 0.603889 0.741232 0.488294
O O2 0.438311 0.747114 0.753324
O O3 0.437445 0.654288 0.421785
O O4 0.369723 0.092433 0.823923
O O5 0.803330 0.723880 0.292801
O O6 0.987351 0.631047 0.306295
O O7 0.970742 0.782979 0.129052
O O8 0.824132 0.073061 0.591086
O O9 0.750305 0.441035 0.016310
O O10 0.819169 0.341590 0.177728
O O11 0.372053 0.498682 0.098028
O O12 0.179197 0.493619 0.286184
O O13 0.396993 0.285067 0.174170
O O14 0.388744 0.762654 0.052140
O O15 0.000000 0.500000 0.500000
O O16 0.962479 0.910689 0.703162
O O17 0.000000 0.000000 0.000000
#
# Coordination Sequence:
#
# PCOD8027250 Si02
#       8
#     2   2   2   2   2   2   2   2
#     4  10  25  45  70 106 144 185 244 302 360 437
#     4  12  25  50  74 106 151 199 243 308 374 432
#     4  11  25  45  76 105 147 194 244 302 373 430
#     4  12  25  45  69 101 146 184 244 298 362 437
#     4  11  24  45  74 105 145 191 243 304 364 445
#     4  12  28  46  75 112 147 196 247 306 371 444
#     4  12  26  48  72 109 149 194 251 304 369 446
#     4  10  24  44  71 103 141 194 236 302 364 426
#
# _framework density 24.321853000000001
#
# number of rings (size 3 to 8) (size 9 to 14) (size 15 to 20)
#    0.000    0.750    2.500    3.750    5.250    5.000 
#    2.250    0.000    0.000    0.000    0.000    0.000 
#    0.000    0.000    0.000    0.000    0.000    0.000 
#
# Total GULP energy -198321.611350 kJ/mol
# GULP energy per Si atom -12395.100709 kJ/mol
# Density = 2.426650 g / cm^3
# Si number density = 24.321853 Si / 1000 Ang^3
#
#
#
# Elastic Constant Matrix: (Units=GPa)
#
#
# Indices 1 2 3 4 5 6 
#
# 1 95.1651 15.6458 20.9422 1.5957 8.6407 11.8512
# 2 15.6458 99.6488 33.3305 -2.8086 -16.5042 6.0642
# 3 20.9422 33.3305 101.0592 8.3817 -3.1730 0.6927
# 4 1.5957 -2.8086 8.3817 41.9462 0.2552 -0.7880
# 5 8.6407 -16.5042 -3.1730 0.2552 30.0639 0.3576
# 6 11.8512 6.0642 0.6927 -0.7880 0.3576 33.5683
#
#
#
# Elastic Compliance Matrix: (Units=1/GPa)
#
#
# Indices 1 2 3 4 5 6 
#
# 1 0.012154 -0.001763 -0.002038 -0.000218 -0.004628 -0.003886
# 2 -0.001763 0.012921 -0.003793 0.001615 0.007206 -0.001672
# 3 -0.002038 -0.003793 0.011761 -0.002504 -0.000247 0.001106
# 4 -0.000218 0.001615 -0.002504 0.024462 0.000472 0.000406
# 5 -0.004628 0.007206 -0.000247 0.000472 0.038519 -0.000062
# 6 -0.003886 -0.001672 0.001106 0.000406 -0.000062 0.031452
#
#
# Mechanical properties :
#
#
# Convention : Reuss Voigt Hill
#
# Bulk Modulus (GPa) = 46.18990 48.41222 47.30106
# Shear Modulus (GPa) = 32.53691 36.17931 34.35811
#
# Velocity S-wave (km/s) = 3.66151 3.86103 3.76259
# Velocity P-wave (km/s) = 6.07519 6.31068 6.19406
#
# Compressibility (1/GPa) = 0.02164975
#
# Stress axis : x y z
#
# Youngs Moduli (GPa) = 82.27625 77.39137 85.02922
#
# Poissons Ratio (x) = 0.13643 0.17328
# Poissons Ratio (y) = 0.14504 0.32247
# Poissons Ratio (z) = 0.16767 0.29351
#
# Static dielectric constant tensor:
#      x y z
#    x 4.387000 -0.083280 0.112300 
#    y -0.083280 4.767970 0.049130 
#    z 0.112300 0.049130 4.604350 
# 
# 
# High freq. dielectric constant tensor:
#      x y z
#    x 1.964810 0.002890 0.005110 
#    y 0.002890 1.974260 0.006580 
#    z 0.005110 0.006580 1.978780 
# 
# From -- ./inp_files/299620.got.cif
#   From: 2010.06.25/outbox.cif.g09.slc.cpg/sg2_150_cif.got.tgz:299620.got - 2010.06.27 13:26:56.
