data_PCOD8027467
_publ_section_title
;
Structure prediction by ZEFSAII (Michael W. Deem and Ramdas Pophale) SiO2 
 PCOD8027467
Probable space group: P -1
;
_chemical_formula_sum "Si O2"
_cell_formula_units_Z 16
_cell_length_a 18.675731
_cell_length_b 6.687285
_cell_length_c 13.321967
_cell_angle_alpha 137.478502
_cell_angle_beta 44.024680
_cell_angle_gamma 126.207063
_cell_volume 774.922106
_symmetry_space_group_name_H-M "P -1"
_symmetry_group_IT_number 2
_symmetry_cell_setting 'triclinic'
loop_
_space_group_symop_operation_xyz
x,y,z
-x,-y,-z
loop_
_atom_site_type_symbol
_atom_site_label
_atom_site_fract_x
_atom_site_fract_y
_atom_site_fract_z
Si Si1 0.639740 0.259162 0.994453
Si Si2 0.948121 0.722261 0.818160
Si Si3 0.261485 0.713038 0.468425
Si Si4 0.098851 0.307970 0.594747
Si Si5 0.821772 0.258377 0.656599
Si Si6 0.088831 0.304821 0.827022
Si Si7 0.447496 0.380718 0.110204
Si Si8 0.777011 0.755175 0.159384
O O1 0.532383 0.359367 0.102325
O O2 0.687287 0.524135 0.117125
O O3 0.714910 0.211753 0.808870
O O4 0.617762 0.946786 0.961546
O O5 0.880864 0.591563 0.740575
O O6 0.994363 0.451875 0.729753
O O7 0.870265 0.861553 0.025325
O O8 0.042198 0.959799 0.772205
O O9 0.189996 0.421536 0.469368
O O10 0.209978 0.812674 0.453342
O O11 0.375718 0.627585 0.306317
O O12 0.267505 0.961777 0.641850
O O13 0.136427 0.369778 0.693845
O O14 0.093173 0.947819 0.462881
O O15 0.177620 0.418846 0.858838
O O16 0.000000 0.500000 0.000000
O O17 0.500000 0.500000 0.000000
#
# Coordination Sequence:
#
# PCOD8027467 Si02
#       8
#     2   2   2   2   2   2   2   2
#     4  10  24  45  69  94 128 163 214 265 331 392
#     4  11  24  41  62  93 137 177 223 255 309 379
#     4  12  24  41  69  96 131 162 222 270 323 380
#     4  12  22  39  63  93 130 178 216 265 307 372
#     4  11  23  40  65  98 127 174 219 266 314 380
#     4  12  23  39  62  89 133 182 214 257 315 368
#     4  11  23  46  73  95 122 165 209 272 334 389
#     4  11  23  44  63  96 134 171 212 263 316 383
#
# _framework density 20.647237000000001
#
# number of rings (size 3 to 8) (size 9 to 14) (size 15 to 20)
#    0.000    0.750    6.250    1.500    0.000    4.500 
#    2.250    0.625    0.000    0.000    0.000    0.000 
#    0.000    0.000    0.000    0.000    0.000    0.000 
#
# Total GULP energy -198303.473129 kJ/mol
# GULP energy per Si atom -12393.967071 kJ/mol
# Density = 2.060024 g / cm^3
# Si number density = 20.647237 Si / 1000 Ang^3
#
#
#
# Elastic Constant Matrix: (Units=GPa)
#
#
# Indices 1 2 3 4 5 6 
#
# 1 89.5999 42.2205 42.9476 9.6089 1.3109 1.4590
# 2 42.2205 99.2671 43.0813 -6.5576 9.5739 -4.2820
# 3 42.9476 43.0813 137.8188 2.6262 -3.8909 -2.7777
# 4 9.6089 -6.5576 2.6262 32.9546 -5.5350 -3.4981
# 5 1.3109 9.5739 -3.8909 -5.5350 41.4600 8.4296
# 6 1.4590 -4.2820 -2.7777 -3.4981 8.4296 28.1751
#
#
#
# Elastic Compliance Matrix: (Units=1/GPa)
#
#
# Indices 1 2 3 4 5 6 
#
# 1 0.016190 -0.006113 -0.003069 -0.005934 0.000415 -0.002931
# 2 -0.006113 0.014730 -0.002813 0.004746 -0.003643 0.003957
# 3 -0.003069 -0.002813 0.009141 -0.000116 0.001558 0.000152
# 4 -0.005934 0.004746 -0.000116 0.033954 0.002715 0.004420
# 5 0.000415 -0.003643 0.001558 0.002715 0.027124 -0.008199
# 6 -0.002931 0.003957 0.000152 0.004420 -0.008199 0.039263
#
#
# Mechanical properties :
#
#
# Convention : Reuss Voigt Hill
#
# Bulk Modulus (GPa) = 62.22061 64.79830 63.50946
# Shear Modulus (GPa) = 29.45555 33.74702 31.60128
#
# Velocity S-wave (km/s) = 3.78115 4.04723 3.91645
# Velocity P-wave (km/s) = 7.01878 7.30012 7.16083
#
# Compressibility (1/GPa) = 0.01607184
#
# Stress axis : x y z
#
# Youngs Moduli (GPa) = 61.76654 67.88784 109.39909
#
# Poissons Ratio (x) = 0.41497 0.33571
# Poissons Ratio (y) = 0.37756 0.30777
# Poissons Ratio (z) = 0.18954 0.19099
#
# Static dielectric constant tensor:
#      x y z
#    x 3.691030 -0.072810 -0.170300 
#    y -0.072810 3.477530 0.184220 
#    z -0.170300 0.184220 3.759100 
# 
# 
# High freq. dielectric constant tensor:
#      x y z
#    x 1.802730 -0.013160 -0.002220 
#    y -0.013160 1.801120 0.000960 
#    z -0.002220 0.000960 1.825660 
# 
# From -- ./inp_files/48940.got.cif
#   From: 2010.06.25/outbox.cif.g09.slc.cpg/sg2_25_cif.got.tgz:48940.got - 2010.06.27 13:26:56.
