data_PCOD8027034
_publ_section_title
;
Structure prediction by ZEFSAII (Michael W. Deem and Ramdas Pophale) SiO2 
 PCOD8027034
Probable space group: P -1
;
_chemical_formula_sum "Si O2"
_cell_formula_units_Z 16
_cell_length_a 6.512764
_cell_length_b 14.872983
_cell_length_c 11.977809
_cell_angle_alpha 124.902550
_cell_angle_beta 54.346199
_cell_angle_gamma 101.238068
_cell_volume 756.252563
_symmetry_space_group_name_H-M "P -1"
_symmetry_group_IT_number 2
_symmetry_cell_setting 'triclinic'
loop_
_space_group_symop_operation_xyz
x,y,z
-x,-y,-z
loop_
_atom_site_type_symbol
_atom_site_label
_atom_site_fract_x
_atom_site_fract_y
_atom_site_fract_z
Si Si1 0.675253 0.345184 0.086530
Si Si2 0.166109 0.222635 0.595738
Si Si3 0.613945 0.312495 0.824940
Si Si4 0.840803 0.795107 0.056747
Si Si5 0.252902 0.065127 0.270090
Si Si6 0.284858 0.435187 0.826838
Si Si7 0.359148 0.161615 0.076032
Si Si8 0.801805 0.957530 0.360295
O O1 0.595090 0.479379 0.231304
O O2 0.489258 0.267364 0.137344
O O3 0.684470 0.348699 0.951699
O O4 0.953470 0.306734 0.028940
O O5 0.348958 0.142573 0.390135
O O6 0.295905 0.322052 0.671069
O O7 0.104022 0.149078 0.666711
O O8 0.895000 0.267591 0.649044
O O9 0.445398 0.217666 0.824802
O O10 0.459641 0.410592 0.865250
O O11 0.874708 0.913777 0.180028
O O12 0.863634 0.799252 0.918090
O O13 0.229337 0.128885 0.205310
O O14 0.969279 0.051601 0.393082
O O15 0.438322 0.943379 0.114855
O O16 0.000000 0.500000 0.000000
O O17 0.500000 0.000000 0.500000
#
# Coordination Sequence:
#
# PCOD8027034 Si02
#       8
#     2   2   2   2   2   2   2   2
#     4  11  21  39  63  93 122 160 214 255 305 372
#     4  12  24  39  60  98 130 159 206 257 326 374
#     4  11  19  36  62  92 133 157 195 265 319 376
#     4  11  19  37  61  92 122 161 208 252 307 370
#     4  11  24  44  61  91 128 173 211 255 309 370
#     4  12  22  37  63  98 127 162 203 256 328 381
#     4  10  24  44  65  85 127 172 218 256 295 370
#     4  12  21  38  63  95 130 161 197 261 324 374
#
# _framework density 21.156953000000001
#
# number of rings (size 3 to 8) (size 9 to 14) (size 15 to 20)
#    0.000    0.750    6.250    3.000    0.000    0.500 
#    2.250    0.625    0.000    1.500    0.000    0.000 
#    0.000    0.000    0.000    0.000    0.000    0.000 
#
# Total GULP energy -198273.791555 kJ/mol
# GULP energy per Si atom -12392.111972 kJ/mol
# Density = 2.110880 g / cm^3
# Si number density = 21.156953 Si / 1000 Ang^3
#
#
#
# Elastic Constant Matrix: (Units=GPa)
#
#
# Indices 1 2 3 4 5 6 
#
# 1 122.3990 61.7235 35.0438 8.4264 7.2019 -18.6849
# 2 61.7235 151.5912 48.1882 14.6106 12.1107 -1.9666
# 3 35.0438 48.1882 60.2222 3.8045 14.3555 6.2498
# 4 8.4264 14.6106 3.8045 19.1951 -1.7797 4.9270
# 5 7.2019 12.1107 14.3555 -1.7797 31.1726 8.9309
# 6 -18.6849 -1.9666 6.2498 4.9270 8.9309 34.2600
#
#
#
# Elastic Compliance Matrix: (Units=1/GPa)
#
#
# Indices 1 2 3 4 5 6 
#
# 1 0.013043 -0.002773 -0.005442 -0.005148 -0.002391 0.009311
# 2 -0.002773 0.010374 -0.006148 -0.005940 -0.001298 0.001398
# 3 -0.005442 -0.006148 0.026783 0.002932 -0.006537 -0.006924
# 4 -0.005148 -0.005940 0.002932 0.063199 0.010174 -0.015424
# 5 -0.002391 -0.001298 -0.006537 0.010174 0.040203 -0.012129
# 6 0.009311 0.001398 -0.006924 -0.015424 -0.012129 0.040990
#
#
# Mechanical properties :
#
#
# Convention : Reuss Voigt Hill
#
# Bulk Modulus (GPa) = 46.56681 69.34705 57.95693
# Shear Modulus (GPa) = 21.69419 29.54265 25.61842
#
# Velocity S-wave (km/s) = 3.20565 3.74084 3.48354
# Velocity P-wave (km/s) = 5.97993 7.17684 6.60555
#
# Compressibility (1/GPa) = 0.02147452
#
# Stress axis : x y z
#
# Youngs Moduli (GPa) = 76.67087 96.39122 37.33670
#
# Poissons Ratio (x) = 0.26726 0.20319
# Poissons Ratio (y) = 0.21258 0.22955
# Poissons Ratio (z) = 0.41725 0.59263
#
# Static dielectric constant tensor:
#      x y z
#    x 4.184620 -0.000820 0.230780 
#    y -0.000820 4.091280 0.305130 
#    z 0.230780 0.305130 3.491020 
# 
# 
# High freq. dielectric constant tensor:
#      x y z
#    x 1.846320 -0.005200 0.014130 
#    y -0.005200 1.834670 0.024460 
#    z 0.014130 0.024460 1.781900 
# 
# From -- ./inp_files/367904.got.cif
#   From: 2010.06.25/outbox.cif.g09.slc.cpg/sg2_184_cif.got.tgz:367904.got - 2010.06.27 13:26:56.
