data_PCOD8027255
_publ_section_title
;
Structure prediction by ZEFSAII (Michael W. Deem and Ramdas Pophale) SiO2 
 PCOD8027255
Probable space group: P -1
;
_chemical_formula_sum "Si O2"
_cell_formula_units_Z 14
_cell_length_a 19.549834
_cell_length_b 11.048924
_cell_length_c 14.642735
_cell_angle_alpha 143.515386
_cell_angle_beta 160.798442
_cell_angle_gamma 37.524345
_cell_volume 609.228839
_symmetry_space_group_name_H-M "P -1"
_symmetry_group_IT_number 2
_symmetry_cell_setting 'triclinic'
loop_
_space_group_symop_operation_xyz
x,y,z
-x,-y,-z
loop_
_atom_site_type_symbol
_atom_site_label
_atom_site_fract_x
_atom_site_fract_y
_atom_site_fract_z
Si Si1 0.798929 0.647609 0.375890
Si Si2 0.101520 0.993223 0.379918
Si Si3 0.508082 0.341701 0.331704
Si Si4 0.172111 0.396494 0.406674
Si Si5 0.114112 0.172470 0.701228
Si Si6 0.748317 0.006343 0.818006
Si Si7 0.433476 0.558561 0.178458
O O1 0.750776 0.591173 0.384862
O O2 0.000000 0.500000 0.500000
O O3 0.820111 0.886955 0.535552
O O4 0.601938 0.610589 0.043833
O O5 0.251662 0.773176 0.445892
O O6 0.115434 0.129811 0.569794
O O7 0.858803 0.970746 0.036945
O O8 0.500000 0.500000 0.500000
O O9 0.438699 0.469422 0.231398
O O10 0.349431 0.172615 0.039001
O O11 0.346632 0.383584 0.539714
O O12 0.997693 0.591973 0.279747
O O13 0.112591 0.167083 0.177642
O O14 0.000000 0.000000 0.500000
O O15 0.757504 0.242112 0.940735
O O16 0.500000 0.000000 0.500000
#
# Coordination Sequence:
#
# PCOD8027255 Si02
#       7
#     2   2   2   2   2   2   2
#     4  12  22  41  70 102 139 177 238 290 352 416
#     4  12  25  45  72 101 142 188 236 294 355 425
#     4  12  28  48  72 106 146 190 242 293 359 425
#     4  11  24  42  70 105 138 184 235 295 354 416
#     4  12  26  46  72 104 146 193 241 290 358 429
#     4  10  24  44  71 104 142 181 235 296 360 419
#     4  11  23  46  69 102 142 185 233 292 351 428
#
# _framework density 22.979872
#
# number of rings (size 3 to 8) (size 9 to 14) (size 15 to 20)
#    0.000    0.571    4.286    2.571    4.000    4.000 
#    0.000    5.000    0.000    0.000    0.000    0.000 
#    0.000    0.000    0.000    0.000    0.000    0.000 
#
# Total GULP energy -173494.518784 kJ/mol
# GULP energy per Si atom -12392.465627 kJ/mol
# Density = 2.292757 g / cm^3
# Si number density = 22.979872 Si / 1000 Ang^3
#
#
#
# Elastic Constant Matrix: (Units=GPa)
#
#
# Indices 1 2 3 4 5 6 
#
# 1 85.3345 30.1378 29.1244 7.8442 -7.1750 7.7107
# 2 30.1378 151.0913 38.1018 -3.0932 -10.5275 -11.5665
# 3 29.1244 38.1018 145.5094 -2.4934 -21.3629 -1.7097
# 4 7.8442 -3.0932 -2.4934 35.8579 -1.1374 -3.6783
# 5 -7.1750 -10.5275 -21.3629 -1.1374 32.8358 3.4021
# 6 7.7107 -11.5665 -1.7097 -3.6783 3.4021 38.0259
#
#
#
# Elastic Compliance Matrix: (Units=1/GPa)
#
#
# Indices 1 2 3 4 5 6 
#
# 1 0.014203 -0.002626 -0.002095 -0.003878 0.001205 -0.004256
# 2 -0.002626 0.007789 -0.001336 0.001478 0.000803 0.002913
# 3 -0.002095 -0.001336 0.008331 0.001076 0.004562 0.000089
# 4 -0.003878 0.001478 0.001076 0.029383 0.000925 0.004044
# 5 0.001205 0.000803 0.004562 0.000925 0.034263 -0.002771
# 6 -0.004256 0.002913 0.000089 0.004044 -0.002771 0.028690
#
#
# Mechanical properties :
#
#
# Convention : Reuss Voigt Hill
#
# Bulk Modulus (GPa) = 54.91950 64.07369 59.49659
# Shear Modulus (GPa) = 35.50092 40.31533 37.90813
#
# Velocity S-wave (km/s) = 3.93475 4.19307 4.06596
# Velocity P-wave (km/s) = 6.67786 7.16837 6.92746
#
# Compressibility (1/GPa) = 0.01820847
#
# Stress axis : x y z
#
# Youngs Moduli (GPa) = 70.40605 128.39438 120.03596
#
# Poissons Ratio (x) = 0.33717 0.25144
# Poissons Ratio (y) = 0.18489 0.16041
# Poissons Ratio (z) = 0.14748 0.17158
#
# Static dielectric constant tensor:
#      x y z
#    x 3.909240 0.023400 -0.067290 
#    y 0.023400 4.770370 0.301550 
#    z -0.067290 0.301550 4.658540 
# 
# 
# High freq. dielectric constant tensor:
#      x y z
#    x 1.885250 0.000870 -0.009390 
#    y 0.000870 1.926790 0.007830 
#    z -0.009390 0.007830 1.920170 
# 
# From -- ./inp_files/243598.got.cif
#   From: 2010.06.25/outbox.cif.g09.slc.cpg/sg2_122_cif.got.tgz:243598.got - 2010.06.27 13:26:56.
