data_PCOD8027411
_publ_section_title
;
Structure prediction by ZEFSAII (Michael W. Deem and Ramdas Pophale) SiO2 
 PCOD8027411
Probable space group: P -1
;
_chemical_formula_sum "Si O2"
_cell_formula_units_Z 14
_cell_length_a 7.005701
_cell_length_b 16.623429
_cell_length_c 11.953308
_cell_angle_alpha 34.581360
_cell_angle_beta 55.882300
_cell_angle_gamma 52.762910
_cell_volume 622.948897
_symmetry_space_group_name_H-M "P -1"
_symmetry_group_IT_number 2
_symmetry_cell_setting 'triclinic'
loop_
_space_group_symop_operation_xyz
x,y,z
-x,-y,-z
loop_
_atom_site_type_symbol
_atom_site_label
_atom_site_fract_x
_atom_site_fract_y
_atom_site_fract_z
Si Si1 0.891429 0.235576 0.925143
Si Si2 0.952965 0.571619 0.168425
Si Si3 0.733200 0.057389 0.571901
Si Si4 0.307582 0.277407 0.352678
Si Si5 0.126832 0.694676 0.398612
Si Si6 0.722034 0.059696 0.831817
Si Si7 0.364781 0.228270 0.138803
O O1 0.026910 0.303126 0.896111
O O2 0.901569 0.315002 0.713499
O O3 0.616803 0.262930 0.019562
O O4 0.031535 0.060921 0.070606
O O5 0.221665 0.458450 0.181836
O O6 0.789011 0.474980 0.386896
O O7 0.830445 0.645630 0.010345
O O8 0.584141 0.206693 0.383527
O O9 0.737815 0.097563 0.653599
O O10 0.600084 0.932277 0.743226
O O11 0.000000 0.000000 0.500000
O O12 0.269814 0.227915 0.296334
O O13 0.132979 0.217411 0.559982
O O14 0.311811 0.787026 0.263546
O O15 0.500000 0.000000 0.000000
#
# Coordination Sequence:
#
# PCOD8027411 Si02
#       7
#     2   2   2   2   2   2   2
#     4  12  24  46  72 103 141 181 234 285 345 409
#     4  10  26  46  72 100 144 184 226 282 352 416
#     4  12  24  43  73 104 139 181 236 285 344 408
#     4  10  24  45  68 100 142 180 230 281 346 407
#     4  10  24  45  68 100 142 180 230 281 346 407
#     4  12  24  43  73 104 139 181 236 285 344 408
#     4  12  24  46  72 103 141 181 234 285 345 409
#
# _framework density 22.473751
#
# number of rings (size 3 to 8) (size 9 to 14) (size 15 to 20)
#    0.857    0.000    1.429    6.000    0.000    2.286 
#    0.000    0.000    0.000    0.000    0.000    0.000 
#    0.000    0.000    0.000    0.000    0.000    0.000 
#
# Total GULP energy -173627.083393 kJ/mol
# GULP energy per Si atom -12401.934528 kJ/mol
# Density = 2.242260 g / cm^3
# Si number density = 22.473751 Si / 1000 Ang^3
#
#
#
# Elastic Constant Matrix: (Units=GPa)
#
#
# Indices 1 2 3 4 5 6 
#
# 1 89.0476 19.3100 37.5518 5.4105 0.1028 -6.9579
# 2 19.3100 49.5181 19.5819 -2.8051 -2.5870 -7.3376
# 3 37.5518 19.5819 80.3615 3.0750 8.5434 -10.5709
# 4 5.4105 -2.8051 3.0750 44.3356 1.7057 3.5386
# 5 0.1028 -2.5870 8.5434 1.7057 47.2964 -3.8860
# 6 -6.9579 -7.3376 -10.5709 3.5386 -3.8860 37.6486
#
#
#
# Elastic Compliance Matrix: (Units=1/GPa)
#
#
# Indices 1 2 3 4 5 6 
#
# 1 0.014616 -0.003280 -0.005987 -0.001665 0.000983 0.000639
# 2 -0.003280 0.023785 -0.004190 0.001878 0.002236 0.002907
# 3 -0.005987 -0.004190 0.016958 -0.000801 -0.003037 0.002600
# 4 -0.001665 0.001878 -0.000801 0.023156 -0.000783 -0.002424
# 5 0.000983 0.002236 -0.003037 -0.000783 0.022014 0.002111
# 6 0.000639 0.002907 0.002600 -0.002424 0.002111 0.028422
#
#
# Mechanical properties :
#
#
# Convention : Reuss Voigt Hill
#
# Bulk Modulus (GPa) = 35.15724 41.31272 38.23498
# Shear Modulus (GPa) = 30.23939 35.35504 32.79721
#
# Velocity S-wave (km/s) = 3.67214 3.97062 3.82430
# Velocity P-wave (km/s) = 5.80148 6.28042 6.04570
#
# Compressibility (1/GPa) = 0.02844364
#
# Stress axis : x y z
#
# Youngs Moduli (GPa) = 68.41778 42.04376 58.96878
#
# Poissons Ratio (x) = 0.13792 0.35307
# Poissons Ratio (y) = 0.22443 0.24708
# Poissons Ratio (z) = 0.40964 0.17616
#
# Static dielectric constant tensor:
#      x y z
#    x 3.918660 0.089330 0.235750 
#    y 0.089330 4.090550 0.191620 
#    z 0.235750 0.191620 4.426660 
# 
# 
# High freq. dielectric constant tensor:
#      x y z
#    x 1.883950 0.004960 0.011400 
#    y 0.004960 1.887650 0.003270 
#    z 0.011400 0.003270 1.891610 
# 
# From -- ./inp_files/368805.got.cif
#   From: 2010.06.25/outbox.cif.g09.slc.cpg/sg2_185_cif.got.tgz:368805.got - 2010.06.27 13:26:56.
