data_PCOD8027095
_publ_section_title
;
Structure prediction by ZEFSAII (Michael W. Deem and Ramdas Pophale) SiO2 
 PCOD8027095
Probable space group: P -1
;
_chemical_formula_sum "Si O2"
_cell_formula_units_Z 16
_cell_length_a 8.627835
_cell_length_b 9.068418
_cell_length_c 18.105681
_cell_angle_alpha 149.211456
_cell_angle_beta 88.980936
_cell_angle_gamma 89.429902
_cell_volume 724.122180
_symmetry_space_group_name_H-M "P -1"
_symmetry_group_IT_number 2
_symmetry_cell_setting 'triclinic'
loop_
_space_group_symop_operation_xyz
x,y,z
-x,-y,-z
loop_
_atom_site_type_symbol
_atom_site_label
_atom_site_fract_x
_atom_site_fract_y
_atom_site_fract_z
Si Si1 0.127386 0.299051 0.059864
Si Si2 0.209242 0.912052 0.021818
Si Si3 0.322967 0.788369 0.562965
Si Si4 0.378270 0.357262 0.590971
Si Si5 0.803879 0.130681 0.247349
Si Si6 0.587850 0.644032 0.244027
Si Si7 0.845467 0.772422 0.691425
Si Si8 0.729174 0.122552 0.702091
O O1 0.141974 0.642226 0.207065
O O2 0.949769 0.245920 0.055578
O O3 0.231680 0.145021 0.056942
O O4 0.178479 0.176899 0.926230
O O5 0.346138 0.669061 0.914092
O O6 0.218337 0.073534 0.168378
O O7 0.491240 0.648819 0.477334
O O8 0.317869 0.867251 0.683888
O O9 0.193001 0.563498 0.448787
O O10 0.292154 0.098988 0.656960
O O11 0.264392 0.641227 0.713830
O O12 0.459956 0.341888 0.663229
O O13 0.270257 0.088214 0.459777
O O14 0.969904 0.220593 0.314784
O O15 0.439130 0.707619 0.220145
O O16 0.760424 0.930932 0.691934
#
# Coordination Sequence:
#
# PCOD8027095 Si02
#       8
#     2   2   2   2   2   2   2   2
#     4  10  24  44  67  93 132 172 214 271 316 382
#     4  10  24  45  64  96 130 172 219 260 327 381
#     4  11  24  42  67  95 132 173 209 268 325 377
#     4  11  24  46  65  96 131 169 219 270 316 383
#     4  11  23  44  68  94 130 173 214 264 326 377
#     4  11  26  44  67  96 129 174 217 264 323 383
#     4  11  26  41  66 102 132 165 219 265 319 391
#     4  11  25  42  64  97 134 165 217 269 316 382
#
# _framework density 22.095718000000002
#
# number of rings (size 3 to 8) (size 9 to 14) (size 15 to 20)
#    0.000    1.250    2.500    2.250    8.750    3.000 
#    0.000    1.250    0.000    0.000    0.000    0.000 
#    0.000    0.000    0.000    0.000    0.000    0.000 
#
# Total GULP energy -198388.454720 kJ/mol
# GULP energy per Si atom -12399.278420 kJ/mol
# Density = 2.204543 g / cm^3
# Si number density = 22.095718 Si / 1000 Ang^3
#
#
#
# Elastic Constant Matrix: (Units=GPa)
#
#
# Indices 1 2 3 4 5 6 
#
# 1 47.6127 27.8050 4.1714 -10.3237 -0.1589 -3.0965
# 2 27.8050 87.8821 4.6968 -8.2366 4.4426 3.1549
# 3 4.1714 4.6968 44.8229 -7.6320 5.9399 20.9825
# 4 -10.3237 -8.2366 -7.6320 33.1186 2.7103 1.0603
# 5 -0.1589 4.4426 5.9399 2.7103 35.5786 2.8516
# 6 -3.0965 3.1549 20.9825 1.0603 2.8516 33.8346
#
#
#
# Elastic Compliance Matrix: (Units=1/GPa)
#
#
# Indices 1 2 3 4 5 6 
#
# 1 0.027667 -0.008283 -0.003243 0.005584 0.000868 0.005068
# 2 -0.008283 0.014269 0.000976 0.001429 -0.001884 -0.002580
# 3 -0.003243 0.000976 0.034780 0.008340 -0.004830 -0.021811
# 4 0.005584 0.001429 0.008340 0.034697 -0.003743 -0.005566
# 5 0.000868 -0.001884 -0.004830 -0.003743 0.029366 0.000893
# 6 0.005068 -0.002580 -0.021811 -0.005566 0.000893 0.043885
#
#
# Mechanical properties :
#
#
# Convention : Reuss Voigt Hill
#
# Bulk Modulus (GPa) = 17.98038 28.18490 23.08264
# Shear Modulus (GPa) = 22.29133 30.08266 26.18699
#
# Velocity S-wave (km/s) = 3.17969 3.69381 3.44635
# Velocity P-wave (km/s) = 4.65142 5.56560 5.12892
#
# Compressibility (1/GPa) = 0.05561616
#
# Stress axis : x y z
#
# Youngs Moduli (GPa) = 36.14398 70.08198 28.75223
#
# Poissons Ratio (x) = 0.58047 0.09326
# Poissons Ratio (y) = 0.29937 -0.02807
# Poissons Ratio (z) = 0.11723 -0.06842
#
# Static dielectric constant tensor:
#      x y z
#    x 3.784090 -0.018270 0.050100 
#    y -0.018270 4.030540 0.097690 
#    z 0.050100 0.097690 4.097540 
# 
# 
# High freq. dielectric constant tensor:
#      x y z
#    x 1.854850 -0.005340 -0.002190 
#    y -0.005340 1.872220 0.001910 
#    z -0.002190 0.001910 1.883360 
# 
# From -- ./inp_files/187614.got.cif
#   From: 2010.06.25/outbox.cif.g09.slc.cpg/sg2_94_cif.got.tgz:187614.got - 2010.06.27 13:26:56.
