data_PCOD8027688
_publ_section_title
;
Structure prediction by ZEFSAII (Michael W. Deem and Ramdas Pophale) SiO2 
 PCOD8027688
Probable space group: P -1
;
_chemical_formula_sum "Si O2"
_cell_formula_units_Z 16
_cell_length_a 22.778163
_cell_length_b 5.293374
_cell_length_c 14.499167
_cell_angle_alpha 79.949631
_cell_angle_beta 24.229936
_cell_angle_gamma 80.980392
_cell_volume 706.443948
_symmetry_space_group_name_H-M "P -1"
_symmetry_group_IT_number 2
_symmetry_cell_setting 'triclinic'
loop_
_space_group_symop_operation_xyz
x,y,z
-x,-y,-z
loop_
_atom_site_type_symbol
_atom_site_label
_atom_site_fract_x
_atom_site_fract_y
_atom_site_fract_z
Si Si1 0.178965 0.334680 0.076064
Si Si2 0.705928 0.582770 0.597249
Si Si3 0.592771 0.326436 0.313174
Si Si4 0.299281 0.129032 0.724548
Si Si5 0.134071 0.527882 0.442604
Si Si6 0.910175 0.740310 0.142989
Si Si7 0.777009 0.912547 0.788114
Si Si8 0.532010 0.072244 0.845497
O O1 0.185192 0.104788 0.156064
O O2 0.023124 0.462277 0.287533
O O3 0.304478 0.532346 0.917306
O O4 0.229988 0.267121 0.904054
O O5 0.747202 0.548234 0.647256
O O6 0.850194 0.660604 0.333115
O O7 0.636424 0.320178 0.674383
O O8 0.600903 0.821052 0.717791
O O9 0.500000 0.500000 0.500000
O O10 0.468499 0.162187 0.452687
O O11 0.706340 0.170998 0.224198
O O12 0.218722 0.214352 0.744495
O O13 0.134266 0.311181 0.376943
O O14 0.172549 0.808209 0.332511
O O15 0.000000 0.500000 0.000000
O O16 0.000000 0.000000 0.000000
O O17 0.610180 0.865436 0.011381
O O18 0.500000 0.000000 0.000000
#
# Coordination Sequence:
#
# PCOD8027688 Si02
#       8
#     2   2   2   2   2   2   2   2
#     4  11  26  42  73  97 141 187 230 284 362 404
#     4  12  25  44  74 101 137 193 229 287 365 409
#     4   9  22  43  70  99 133 185 233 291 349 408
#     4  10  24  46  71 100 145 176 243 293 348 418
#     4  12  25  45  67 102 143 180 232 286 348 425
#     4  12  29  48  74 111 147 186 239 292 357 435
#     4  12  27  43  71 102 142 179 237 287 346 420
#     4  12  23  46  70 103 140 184 238 295 345 418
#
# _framework density 22.648648000000001
#
# number of rings (size 3 to 8) (size 9 to 14) (size 15 to 20)
#    0.000    0.750    2.500    3.375   10.500    3.000 
#    0.000    0.000    0.000    0.000    0.000    0.000 
#    0.000    0.000    0.000    0.000    0.000    0.000 
#
# Total GULP energy -198304.214325 kJ/mol
# GULP energy per Si atom -12394.013395 kJ/mol
# Density = 2.259710 g / cm^3
# Si number density = 22.648648 Si / 1000 Ang^3
#
#
#
# Elastic Constant Matrix: (Units=GPa)
#
#
# Indices 1 2 3 4 5 6 
#
# 1 69.6343 13.7853 3.1991 -5.3961 -8.1896 -11.8830
# 2 13.7853 157.7476 47.6916 -6.7653 -0.7609 -3.7851
# 3 3.1991 47.6916 112.0800 -11.5540 -6.3604 -3.8965
# 4 -5.3961 -6.7653 -11.5540 45.3402 -7.2067 -6.4333
# 5 -8.1896 -0.7609 -6.3604 -7.2067 34.9484 4.2666
# 6 -11.8830 -3.7851 -3.8965 -6.4333 4.2666 26.6097
#
#
#
# Elastic Compliance Matrix: (Units=1/GPa)
#
#
# Indices 1 2 3 4 5 6 
#
# 1 0.016643 -0.001391 0.000988 0.003729 0.003884 0.007658
# 2 -0.001391 0.007413 -0.003150 0.000034 -0.000743 0.000100
# 3 0.000988 -0.003150 0.010759 0.003060 0.002519 0.001904
# 4 0.003729 0.000034 0.003060 0.025232 0.005744 0.007297
# 5 0.003884 -0.000743 0.002519 0.005744 0.031351 -0.001641
# 6 0.007658 0.000100 0.001904 0.007297 -0.001641 0.043320
#
#
# Mechanical properties :
#
#
# Convention : Reuss Voigt Hill
#
# Bulk Modulus (GPa) = 36.08853 52.09045 44.08949
# Shear Modulus (GPa) = 33.09911 39.69870 36.39891
#
# Velocity S-wave (km/s) = 3.82700 4.19120 4.01323
# Velocity P-wave (km/s) = 5.95790 6.81695 6.40185
#
# Compressibility (1/GPa) = 0.02770964
#
# Stress axis : x y z
#
# Youngs Moduli (GPa) = 60.08478 134.89159 92.94563
#
# Poissons Ratio (x) = 0.18758 -0.09180
# Poissons Ratio (y) = 0.08356 0.29278
# Poissons Ratio (z) = -0.05935 0.42491
#
# Static dielectric constant tensor:
#      x y z
#    x 4.286450 1.206740 -2.403150 
#    y 1.206740 8.979200 -7.461110 
#    z -2.403150 -7.461110 16.660760 
# 
# 
# High freq. dielectric constant tensor:
#      x y z
#    x 1.880270 -0.012500 -0.007460 
#    y -0.012500 1.911870 -0.000370 
#    z -0.007460 -0.000370 1.912080 
# 
# From -- ./inp_files/542132.got.cif
#   From: 2010.06.25/outbox.cif.g09.slc.cpg/sg2_272_cif.got.tgz:542132.got - 2010.06.27 13:26:56.
