data_PCOD8027689
_publ_section_title
;
Structure prediction by ZEFSAII (Michael W. Deem and Ramdas Pophale) SiO2 
 PCOD8027689
Probable space group: P -1
;
_chemical_formula_sum "Si O2"
_cell_formula_units_Z 16
_cell_length_a 9.440694
_cell_length_b 9.121380
_cell_length_c 12.698343
_cell_angle_alpha 81.758447
_cell_angle_beta 83.632168
_cell_angle_gamma 43.399470
_cell_volume 743.514422
_symmetry_space_group_name_H-M "P -1"
_symmetry_group_IT_number 2
_symmetry_cell_setting 'triclinic'
loop_
_space_group_symop_operation_xyz
x,y,z
-x,-y,-z
loop_
_atom_site_type_symbol
_atom_site_label
_atom_site_fract_x
_atom_site_fract_y
_atom_site_fract_z
Si Si1 0.294226 0.745192 0.699892
Si Si2 0.772295 0.660885 0.953530
Si Si3 0.844859 0.132437 0.740334
Si Si4 0.441886 0.876135 0.132858
Si Si5 0.687845 0.117468 0.537765
Si Si6 0.324372 0.396195 0.672819
Si Si7 0.296468 0.441686 0.243297
Si Si8 0.899457 0.651922 0.591512
O O1 0.264391 0.826388 0.575590
O O2 0.374767 0.516908 0.709077
O O3 0.458689 0.715318 0.756101
O O4 0.082343 0.913266 0.763833
O O5 0.776914 0.542961 0.869110
O O6 0.701495 0.874641 0.898149
O O7 0.603710 0.724764 0.042173
O O8 0.000000 0.500000 0.000000
O O9 0.709996 0.150042 0.838154
O O10 0.787766 0.125040 0.628044
O O11 0.826437 0.322260 0.732353
O O12 0.575740 0.800413 0.236455
O O13 0.440201 0.294433 0.560667
O O14 0.778568 0.886436 0.539122
O O15 0.081026 0.559522 0.666909
O O16 0.255308 0.339382 0.337306
O O17 0.000000 0.500000 0.500000
#
# Coordination Sequence:
#
# PCOD8027689 Si02
#       8
#     2   2   2   2   2   2   2   2
#     4  12  24  40  70  96 139 184 224 277 327 387
#     4  11  26  47  76  96 135 171 216 284 353 407
#     4  11  24  41  68 100 137 178 227 271 331 401
#     4  10  24  46  71 101 125 177 225 264 350 415
#     4  11  23  41  66  98 139 189 231 262 329 399
#     4  11  23  42  71  92 136 183 221 279 333 394
#     4  12  26  43  66 106 132 169 233 282 329 401
#     4  12  26  40  65 102 143 182 227 275 327 392
#
# _framework density 21.519421000000001
#
# number of rings (size 3 to 8) (size 9 to 14) (size 15 to 20)
#    0.000    0.750    3.750    4.500    3.500    7.500 
#    0.000    1.250    0.000    0.000    0.000    0.000 
#    0.000    0.000    0.000    0.000    0.000    0.000 
#
# Total GULP energy -198470.090409 kJ/mol
# GULP energy per Si atom -12404.380651 kJ/mol
# Density = 2.147044 g / cm^3
# Si number density = 21.519421 Si / 1000 Ang^3
#
#
#
# Elastic Constant Matrix: (Units=GPa)
#
#
# Indices 1 2 3 4 5 6 
#
# 1 116.1006 46.0476 48.5492 -1.9501 4.6698 -10.7003
# 2 46.0476 127.8574 34.7093 -1.9193 -1.0635 -2.0800
# 3 48.5492 34.7093 93.7778 0.5596 -4.9910 5.5976
# 4 -1.9501 -1.9193 0.5596 37.7355 2.0900 4.6791
# 5 4.6698 -1.0635 -4.9910 2.0900 34.5701 3.7065
# 6 -10.7003 -2.0800 5.5976 4.6791 3.7065 40.0179
#
#
#
# Elastic Compliance Matrix: (Units=1/GPa)
#
#
# Indices 1 2 3 4 5 6 
#
# 1 0.012814 -0.002945 -0.005975 0.000234 -0.003168 0.004375
# 2 -0.002945 0.009414 -0.001934 0.000346 0.000398 -0.000105
# 3 -0.005975 -0.001934 0.014895 -0.000311 0.003352 -0.004056
# 4 0.000234 0.000346 -0.000311 0.026971 -0.001385 -0.002901
# 5 -0.003168 0.000398 0.003352 -0.001385 0.030358 -0.003945
# 6 0.004375 -0.000105 -0.004056 -0.002901 -0.003945 0.027425
#
#
# Mechanical properties :
#
#
# Convention : Reuss Voigt Hill
#
# Bulk Modulus (GPa) = 64.87335 66.26090 65.56712
# Shear Modulus (GPa) = 33.61940 36.36001 34.98970
#
# Velocity S-wave (km/s) = 3.95686 4.11498 4.03669
# Velocity P-wave (km/s) = 7.14755 7.30996 7.22921
#
# Compressibility (1/GPa) = 0.01541465
#
# Stress axis : x y z
#
# Youngs Moduli (GPa) = 78.03761 106.22887 67.13552
#
# Poissons Ratio (x) = 0.31280 0.40116
# Poissons Ratio (y) = 0.22979 0.12986
# Poissons Ratio (z) = 0.46630 0.20549
#
# Static dielectric constant tensor:
#      x y z
#    x 4.116500 -0.213500 -0.147940 
#    y -0.213500 4.062900 0.002200 
#    z -0.147940 0.002200 3.833010 
# 
# 
# High freq. dielectric constant tensor:
#      x y z
#    x 1.852710 -0.010810 -0.009420 
#    y -0.010810 1.862320 -0.004660 
#    z -0.009420 -0.004660 1.833300 
# 
# From -- ./inp_files/188057.got.cif
#   From: 2010.06.25/outbox.cif.g09.slc.cpg/sg2_95_cif.got.tgz:188057.got - 2010.06.27 13:26:56.
