data_PCOD8027452
_publ_section_title
;
Structure prediction by ZEFSAII (Michael W. Deem and Ramdas Pophale) SiO2 
 PCOD8027452
Probable space group: P -1
;
_chemical_formula_sum "Si O2"
_cell_formula_units_Z 14
_cell_length_a 9.435841
_cell_length_b 11.491180
_cell_length_c 11.825967
_cell_angle_alpha 151.314077
_cell_angle_beta 96.351318
_cell_angle_gamma 84.163369
_cell_volume 611.696468
_symmetry_space_group_name_H-M "P -1"
_symmetry_group_IT_number 2
_symmetry_cell_setting 'triclinic'
loop_
_space_group_symop_operation_xyz
x,y,z
-x,-y,-z
loop_
_atom_site_type_symbol
_atom_site_label
_atom_site_fract_x
_atom_site_fract_y
_atom_site_fract_z
Si Si1 0.920179 0.259053 0.239918
Si Si2 0.159831 0.181852 0.786729
Si Si3 0.343926 0.546546 0.983708
Si Si4 0.308816 0.008720 0.879384
Si Si5 0.590500 0.732933 0.682724
Si Si6 0.144559 0.942250 0.349600
Si Si7 0.227466 0.394135 0.622805
O O1 0.791418 0.211516 0.276029
O O2 0.856817 0.354033 0.195865
O O3 0.000000 0.500000 0.500000
O O4 0.000000 0.000000 0.000000
O O5 0.228231 0.423360 0.949870
O O6 0.992087 0.223030 0.834595
O O7 0.248049 0.111402 0.845199
O O8 0.163552 0.973158 0.512873
O O9 0.346687 0.446441 0.771583
O O10 0.500000 0.500000 0.000000
O O11 0.293086 0.825755 0.218367
O O12 0.474561 0.939152 0.816104
O O13 0.311323 0.208198 0.149649
O O14 0.500000 0.500000 0.500000
O O15 0.700113 0.707999 0.569675
O O16 0.120611 0.195325 0.496050
#
# Coordination Sequence:
#
# PCOD8027452 Si02
#       7
#     2   2   2   2   2   2   2
#     4  12  27  47  74 113 148 196 250 304 382 457
#     4  10  24  45  69 103 135 191 238 304 372 440
#     4  11  27  42  72 105 137 191 241 305 369 442
#     4  11  26  42  73 103 146 193 243 310 372 451
#     4  11  25  45  67 104 145 196 244 304 379 440
#     4  10  24  48  72  98 143 185 246 305 374 436
#     4  11  26  45  73  99 143 190 242 311 362 448
#
# _framework density 22.887170000000001
#
# number of rings (size 3 to 8) (size 9 to 14) (size 15 to 20)
#    0.000    1.143    1.429    2.143   12.000    1.143 
#    0.000    0.000    0.000    0.000    0.000    0.000 
#    0.000    0.000    0.000    0.000    0.000    0.000 
#
# Total GULP energy -173518.378588 kJ/mol
# GULP energy per Si atom -12394.169899 kJ/mol
# Density = 2.283508 g / cm^3
# Si number density = 22.887170 Si / 1000 Ang^3
#
#
#
# Elastic Constant Matrix: (Units=GPa)
#
#
# Indices 1 2 3 4 5 6 
#
# 1 108.0875 49.7038 47.4299 -3.9604 -2.0506 -15.0466
# 2 49.7038 169.3008 59.3915 -17.4102 1.1834 -16.8235
# 3 47.4299 59.3915 114.8436 -8.9725 4.3511 -8.7896
# 4 -3.9604 -17.4102 -8.9725 39.7167 -4.5832 0.5305
# 5 -2.0506 1.1834 4.3511 -4.5832 40.8598 0.5606
# 6 -15.0466 -16.8235 -8.7896 0.5305 0.5606 38.7572
#
#
#
# Elastic Compliance Matrix: (Units=1/GPa)
#
#
# Indices 1 2 3 4 5 6 
#
# 1 0.012300 -0.002001 -0.003887 -0.000454 0.000997 0.003017
# 2 -0.002001 0.008000 -0.002962 0.002641 0.000252 0.001984
# 3 -0.003887 -0.002962 0.011955 0.000868 -0.001284 -0.000077
# 4 -0.000454 0.002641 0.000868 0.026800 0.002804 0.000759
# 5 0.000997 0.000252 -0.001284 0.002804 0.024971 -0.000194
# 6 0.003017 0.001984 -0.000077 0.000759 -0.000194 0.027809
#
#
# Mechanical properties :
#
#
# Convention : Reuss Voigt Hill
#
# Bulk Modulus (GPa) = 68.70880 78.36469 73.53674
# Shear Modulus (GPa) = 37.20559 39.58055 38.39307
#
# Velocity S-wave (km/s) = 4.03626 4.16309 4.10016
# Velocity P-wave (km/s) = 7.19775 7.57775 7.39020
#
# Compressibility (1/GPa) = 0.01455418
#
# Stress axis : x y z
#
# Youngs Moduli (GPa) = 81.30051 124.99472 83.64446
#
# Poissons Ratio (x) = 0.25015 0.32515
# Poissons Ratio (y) = 0.16271 0.24777
# Poissons Ratio (z) = 0.31603 0.37026
#
# Static dielectric constant tensor:
#      x y z
#    x 6.771050 1.408330 -1.126020 
#    y 1.408330 5.285210 -0.626180 
#    z -1.126020 -0.626180 4.725160 
# 
# 
# High freq. dielectric constant tensor:
#      x y z
#    x 1.908430 0.000350 0.006460 
#    y 0.000350 1.914830 -0.003520 
#    z 0.006460 -0.003520 1.904690 
# 
# From -- ./inp_files/60786.got.cif
#   From: 2010.06.25/outbox.cif.g09.slc.cpg/sg2_31_cif.got.tgz:60786.got - 2010.06.27 13:26:56.
