data_PCOD8027214
_publ_section_title
;
Structure prediction by ZEFSAII (Michael W. Deem and Ramdas Pophale) SiO2 
 PCOD8027214
Probable space group: P -1
;
_chemical_formula_sum "Si O2"
_cell_formula_units_Z 16
_cell_length_a 8.950440
_cell_length_b 17.587006
_cell_length_c 6.761817
_cell_angle_alpha 121.299331
_cell_angle_beta 124.327381
_cell_angle_gamma 75.773103
_cell_volume 749.394136
_symmetry_space_group_name_H-M "P -1"
_symmetry_group_IT_number 2
_symmetry_cell_setting 'triclinic'
loop_
_space_group_symop_operation_xyz
x,y,z
-x,-y,-z
loop_
_atom_site_type_symbol
_atom_site_label
_atom_site_fract_x
_atom_site_fract_y
_atom_site_fract_z
Si Si1 0.259289 0.508974 0.027289
Si Si2 0.908047 0.599016 0.897055
Si Si3 0.401693 0.029761 0.157557
Si Si4 0.086410 0.776256 0.392722
Si Si5 0.414182 0.788136 0.367517
Si Si6 0.620674 0.624504 0.386478
Si Si7 0.962248 0.918370 0.215617
Si Si8 0.223649 0.865392 0.008705
O O1 0.209528 0.474026 0.162096
O O2 0.435100 0.577269 0.270158
O O3 0.304298 0.428042 0.812207
O O4 0.085097 0.556897 0.875621
O O5 0.778536 0.634341 0.679721
O O6 0.983532 0.679011 0.205307
O O7 0.522421 0.107417 0.459376
O O8 0.370800 0.941444 0.146659
O O9 0.224345 0.076589 0.026716
O O10 0.500000 0.000000 0.000000
O O11 0.284752 0.769235 0.434466
O O12 0.960667 0.830092 0.227605
O O13 0.104018 0.823536 0.682369
O O14 0.576950 0.722661 0.409861
O O15 0.309057 0.780553 0.067235
O O16 0.107477 0.917291 0.148518
O O17 0.000000 0.000000 0.500000
#
# Coordination Sequence:
#
# PCOD8027214 Si02
#       8
#     2   2   2   2   2   2   2   2
#     4  10  24  44  70 103 130 175 220 273 344 403
#     4  11  23  44  71 100 135 174 222 273 339 398
#     4  12  22  42  66  93 132 174 222 276 333 386
#     4  11  23  43  65  96 135 176 218 277 330 393
#     4  11  24  41  64  98 133 174 221 279 329 393
#     4  11  23  46  69 101 137 171 222 278 335 399
#     4  11  23  42  66  93 128 176 225 272 330 395
#     4  11  24  44  65  93 135 179 221 270 332 399
#
# _framework density 21.350581999999999
#
# number of rings (size 3 to 8) (size 9 to 14) (size 15 to 20)
#    0.000    1.000    3.750    3.000    0.000    4.000 
#   11.250    0.000    0.000    0.000    0.000    0.000 
#    0.000    0.000    0.000    0.000    0.000    0.000 
#
# Total GULP energy -198381.405082 kJ/mol
# GULP energy per Si atom -12398.837818 kJ/mol
# Density = 2.130199 g / cm^3
# Si number density = 21.350582 Si / 1000 Ang^3
#
#
#
# Elastic Constant Matrix: (Units=GPa)
#
#
# Indices 1 2 3 4 5 6 
#
# 1 108.0087 49.1093 35.2409 -8.4617 -3.7348 -11.0696
# 2 49.1093 115.1461 34.8257 -5.9500 -4.5907 -18.0378
# 3 35.2409 34.8257 90.6736 -1.7178 -5.1825 -0.2853
# 4 -8.4617 -5.9500 -1.7178 42.0518 -1.5119 5.0520
# 5 -3.7348 -4.5907 -5.1825 -1.5119 32.7276 -1.5179
# 6 -11.0696 -18.0378 -0.2853 5.0520 -1.5179 31.5869
#
#
#
# Elastic Compliance Matrix: (Units=1/GPa)
#
#
# Indices 1 2 3 4 5 6 
#
# 1 0.012442 -0.003925 -0.003262 0.001610 0.000513 0.001856
# 2 -0.003925 0.012220 -0.003087 0.000178 0.001045 0.005596
# 3 -0.003262 -0.003087 0.013539 -0.000173 0.001206 -0.002698
# 4 0.001610 0.000178 -0.000173 0.024549 0.001167 -0.003206
# 5 0.000513 0.001045 0.001206 0.001167 0.031102 0.002096
# 6 0.001856 0.005596 -0.002698 -0.003206 0.002096 0.036094
#
#
# Mechanical properties :
#
#
# Convention : Reuss Voigt Hill
#
# Bulk Modulus (GPa) = 56.65157 61.35336 59.00246
# Shear Modulus (GPa) = 31.97327 34.25008 33.11167
#
# Velocity S-wave (km/s) = 3.87400 4.00956 3.94236
# Velocity P-wave (km/s) = 6.82657 7.08759 6.95831
#
# Compressibility (1/GPa) = 0.01765176
#
# Stress axis : x y z
#
# Youngs Moduli (GPa) = 80.37410 81.83312 73.85887
#
# Poissons Ratio (x) = 0.32121 0.24095
# Poissons Ratio (y) = 0.31549 0.22801
# Poissons Ratio (z) = 0.26221 0.25263
#
# Static dielectric constant tensor:
#      x y z
#    x 4.141750 -0.233800 0.321070 
#    y -0.233800 4.087330 -0.188130 
#    z 0.321070 -0.188130 4.094610 
# 
# 
# High freq. dielectric constant tensor:
#      x y z
#    x 1.841370 -0.006130 0.004110 
#    y -0.006130 1.849090 -0.002340 
#    z 0.004110 -0.002340 1.836720 
# 
# From -- ./inp_files/48805.got.cif
#   From: 2010.06.25/outbox.cif.g09.slc.cpg/sg2_25_cif.got.tgz:48805.got - 2010.06.27 13:26:56.
