data_PCOD8027715
_publ_section_title
;
Structure prediction by ZEFSAII (Michael W. Deem and Ramdas Pophale) SiO2 
 PCOD8027715
Probable space group: P -1
;
_chemical_formula_sum "Si O2"
_cell_formula_units_Z 14
_cell_length_a 9.002870
_cell_length_b 9.198734
_cell_length_c 10.498807
_cell_angle_alpha 78.493714
_cell_angle_beta 54.716269
_cell_angle_gamma 58.999371
_cell_volume 602.362254
_symmetry_space_group_name_H-M "P -1"
_symmetry_group_IT_number 2
_symmetry_cell_setting 'triclinic'
loop_
_space_group_symop_operation_xyz
x,y,z
-x,-y,-z
loop_
_atom_site_type_symbol
_atom_site_label
_atom_site_fract_x
_atom_site_fract_y
_atom_site_fract_z
Si Si1 0.997975 0.373676 0.422168
Si Si2 0.223966 0.892140 0.746822
Si Si3 0.046121 0.215417 0.947610
Si Si4 0.203782 0.996133 0.448974
Si Si5 0.402213 0.288410 0.838414
Si Si6 0.255540 0.467607 0.120157
Si Si7 0.439664 0.470131 0.299872
O O1 0.074851 0.419317 0.246921
O O2 0.000000 0.500000 0.500000
O O3 0.757718 0.415113 0.528218
O O4 0.164781 0.186274 0.422442
O O5 0.232015 0.934386 0.589561
O O6 0.452626 0.730197 0.689194
O O7 0.194874 0.051802 0.816067
O O8 0.041792 0.846522 0.879396
O O9 0.183603 0.297872 0.912546
O O10 0.848533 0.354964 0.939239
O O11 0.401513 0.881898 0.281481
O O12 0.000000 0.000000 0.500000
O O13 0.404322 0.457448 0.755742
O O14 0.419380 0.307034 0.979839
O O15 0.368723 0.494336 0.181786
#
# Coordination Sequence:
#
# PCOD8027715 Si02
#       7
#     2   2   2   2   2   2   2
#     4  10  24  46  72 101 139 192 230 287 355 423
#     4  11  27  48  73 104 147 185 244 288 368 420
#     4  11  27  47  75 106 143 190 233 308 348 425
#     4  12  28  48  71 107 146 187 236 298 356 424
#     4  12  27  43  76 108 143 186 242 295 353 418
#     4  11  25  48  75 105 149 186 244 283 368 425
#     4  11  24  47  77 106 140 198 232 297 356 426
#
# _framework density 23.241827000000001
#
# number of rings (size 3 to 8) (size 9 to 14) (size 15 to 20)
#    0.000    0.857    2.857    2.571    8.000    2.857 
#    0.000    0.000    0.000    0.000    0.000    0.000 
#    0.000    0.000    0.000    0.000    0.000    0.000 
#
# Total GULP energy -173525.924379 kJ/mol
# GULP energy per Si atom -12394.708884 kJ/mol
# Density = 2.318893 g / cm^3
# Si number density = 23.241827 Si / 1000 Ang^3
#
#
#
# Elastic Constant Matrix: (Units=GPa)
#
#
# Indices 1 2 3 4 5 6 
#
# 1 76.3597 30.4154 4.0417 3.6768 -16.0678 21.3599
# 2 30.4154 163.0208 57.1301 18.0876 7.3620 1.4923
# 3 4.0417 57.1301 137.8779 16.9516 -2.0513 9.7999
# 4 3.6768 18.0876 16.9516 42.8916 3.3971 -9.6216
# 5 -16.0678 7.3620 -2.0513 3.3971 19.4614 -2.7698
# 6 21.3599 1.4923 9.7999 -9.6216 -2.7698 32.3178
#
#
#
# Elastic Compliance Matrix: (Units=1/GPa)
#
#
# Indices 1 2 3 4 5 6 
#
# 1 0.025583 -0.006382 0.004392 -0.007096 0.022660 -0.018116
# 2 -0.006382 0.009078 -0.003995 -0.000073 -0.008506 0.004260
# 3 0.004392 -0.003995 0.009895 -0.004552 0.006042 -0.006556
# 4 -0.007096 -0.000073 -0.004552 0.029665 -0.009483 0.014092
# 5 0.022660 -0.008506 0.006042 -0.009483 0.073764 -0.012917
# 6 -0.018116 0.004260 -0.006556 0.014092 -0.012917 0.047796
#
#
# Mechanical properties :
#
#
# Convention : Reuss Voigt Hill
#
# Bulk Modulus (GPa) = 30.68870 62.27031 46.47951
# Shear Modulus (GPa) = 22.87145 37.97891 30.42518
#
# Velocity S-wave (km/s) = 3.14038 4.04676 3.62203
# Velocity P-wave (km/s) = 5.13635 6.97750 6.12648
#
# Compressibility (1/GPa) = 0.03258529
#
# Stress axis : x y z
#
# Youngs Moduli (GPa) = 39.08829 110.15428 101.06346
#
# Poissons Ratio (x) = 0.70305 -0.44385
# Poissons Ratio (y) = 0.24948 0.40373
# Poissons Ratio (z) = -0.17167 0.44004
#
# Static dielectric constant tensor:
#      x y z
#    x 2.366910 0.588670 2.500890 
#    y 0.588670 4.149670 -0.391820 
#    z 2.500890 -0.391820 -0.478060 
# 
# 
# High freq. dielectric constant tensor:
#      x y z
#    x 1.902970 0.015900 -0.014460 
#    y 0.015900 1.931290 0.008310 
#    z -0.014460 0.008310 1.944210 
# 
# From -- ./inp_files/381911.got.cif
#   From: 2010.06.25/outbox.cif.g09.slc.cpg/sg2_191_cif.got.tgz:381911.got - 2010.06.27 13:26:56.
