data_PCOD8027295
_publ_section_title
;
Structure prediction by ZEFSAII (Michael W. Deem and Ramdas Pophale) SiO2 
 PCOD8027295
Probable space group: P -1
;
_chemical_formula_sum "Si O2"
_cell_formula_units_Z 12
_cell_length_a 5.177065
_cell_length_b 5.106402
_cell_length_c 21.587595
_cell_angle_alpha 129.304940
_cell_angle_beta 85.659765
_cell_angle_gamma 90.167756
_cell_volume 439.578078
_symmetry_space_group_name_H-M "P -1"
_symmetry_group_IT_number 2
_symmetry_cell_setting 'triclinic'
loop_
_space_group_symop_operation_xyz
x,y,z
-x,-y,-z
loop_
_atom_site_type_symbol
_atom_site_label
_atom_site_fract_x
_atom_site_fract_y
_atom_site_fract_z
Si Si1 0.215709 0.546426 0.679929
Si Si2 0.719079 0.142528 0.660050
Si Si3 0.138691 0.848298 0.207998
Si Si4 0.120756 0.788411 0.909495
Si Si5 0.440573 0.288124 0.909152
Si Si6 0.248360 0.199092 0.510154
O O1 0.483012 0.411392 0.686862
O O2 0.231516 0.545542 0.603035
O O3 0.988827 0.315113 0.671809
O O4 0.136923 0.932738 0.758633
O O5 0.700217 0.039360 0.717146
O O6 0.722735 0.794805 0.564944
O O7 0.303198 0.915646 0.152812
O O8 0.086610 0.449387 0.153214
O O9 0.355065 0.548546 0.895812
O O10 0.219847 0.032335 0.891055
O O11 0.000000 0.000000 0.000000
O O12 0.500000 0.500000 0.000000
O O13 0.500000 0.000000 0.500000
O O14 0.000000 0.000000 0.500000
#
# Coordination Sequence:
#
# PCOD8027295 Si02
#       6
#     2   2   2   2   2   2
#     4  10  24  44  72 109 158 205 264 328 398 471
#     4  10  24  44  72 109 158 205 264 328 398 471
#     4  12  30  43  76 114 156 204 268 335 398 478
#     4  12  29  52  80 112 154 208 270 329 409 488
#     4  12  29  52  80 112 154 208 270 329 409 488
#     4   8  16  39  68 101 147 208 258 316 390 476
#
# _framework density 27.298901999999998
#
# number of rings (size 3 to 8) (size 9 to 14) (size 15 to 20)
#    0.000    1.333    1.667    1.000    9.333    0.667 
#    0.000    0.000    0.000   12.000    0.000    3.500 
#    0.000    0.000    0.000    0.000    0.000    0.000 
#
# Total GULP energy -148740.523289 kJ/mol
# GULP energy per Si atom -12395.043607 kJ/mol
# Density = 2.723677 g / cm^3
# Si number density = 27.298902 Si / 1000 Ang^3
#
#
#
# Elastic Constant Matrix: (Units=GPa)
#
#
# Indices 1 2 3 4 5 6 
#
# 1 107.7930 8.9261 27.9962 -13.7879 -15.2589 2.3604
# 2 8.9261 56.2545 32.0003 -10.5339 -13.4226 6.7352
# 3 27.9962 32.0003 215.2957 -23.5652 -25.8439 4.2491
# 4 -13.7879 -10.5339 -23.5652 44.3147 -5.2155 3.4672
# 5 -15.2589 -13.4226 -25.8439 -5.2155 39.4551 -9.1410
# 6 2.3604 6.7352 4.2491 3.4672 -9.1410 37.5861
#
#
#
# Elastic Compliance Matrix: (Units=1/GPa)
#
#
# Indices 1 2 3 4 5 6 
#
# 1 0.010444 0.000313 -0.000500 0.003560 0.004303 0.000063
# 2 0.000313 0.021582 -0.001872 0.005180 0.006315 -0.002617
# 3 -0.000500 -0.001872 0.005688 0.002795 0.003329 0.000276
# 4 0.003560 0.005180 0.002795 0.027507 0.008136 -0.002026
# 5 0.004303 0.006315 0.003329 0.008136 0.033729 0.005674
# 6 0.000063 -0.002617 0.000276 -0.002026 0.005674 0.028606
#
#
# Mechanical properties :
#
#
# Convention : Reuss Voigt Hill
#
# Bulk Modulus (GPa) = 29.76470 57.46536 43.61503
# Shear Modulus (GPa) = 34.99647 44.96590 39.98118
#
# Velocity S-wave (km/s) = 3.58435 4.06294 3.83112
# Velocity P-wave (km/s) = 5.29689 6.56552 5.96503
#
# Compressibility (1/GPa) = 0.03359685
#
# Stress axis : x y z
#
# Youngs Moduli (GPa) = 95.74850 46.33558 175.80880
#
# Poissons Ratio (x) = -0.01450 0.08784
# Poissons Ratio (y) = -0.02996 0.32906
# Poissons Ratio (z) = 0.04784 0.08673
#
# Static dielectric constant tensor:
#      x y z
#    x 5.072800 -0.096580 -0.171020 
#    y -0.096580 4.562290 -0.083200 
#    z -0.171020 -0.083200 6.239740 
# 
# 
# High freq. dielectric constant tensor:
#      x y z
#    x 2.114980 -0.008010 -0.004520 
#    y -0.008010 2.063500 -0.012130 
#    z -0.004520 -0.012130 2.138970 
# 
# From -- ./inp_files/6855.got.cif
#   From: 2010.06.25/outbox.cif.g09.slc.cpg/sg2_4_cif.got.tgz:6855.got - 2010.06.27 13:26:56.
