data_PCOD8027307
_publ_section_title
;
Structure prediction by ZEFSAII (Michael W. Deem and Ramdas Pophale) SiO2 
 PCOD8027307
Probable space group: P -1
;
_chemical_formula_sum "Si O2"
_cell_formula_units_Z 16
_cell_length_a 15.301282
_cell_length_b 9.440170
_cell_length_c 8.435859
_cell_angle_alpha 71.746515
_cell_angle_beta 72.113058
_cell_angle_gamma 39.119555
_cell_volume 725.940133
_symmetry_space_group_name_H-M "P -1"
_symmetry_group_IT_number 2
_symmetry_cell_setting 'triclinic'
loop_
_space_group_symop_operation_xyz
x,y,z
-x,-y,-z
loop_
_atom_site_type_symbol
_atom_site_label
_atom_site_fract_x
_atom_site_fract_y
_atom_site_fract_z
Si Si1 0.285131 0.654125 0.798752
Si Si2 0.007006 0.024091 0.302200
Si Si3 0.264752 0.222223 0.175444
Si Si4 0.563269 0.236286 0.257960
Si Si5 0.004884 0.377528 0.185093
Si Si6 0.707639 0.790323 0.201825
Si Si7 0.267042 0.536919 0.177563
Si Si8 0.491249 0.218103 0.639557
O O1 0.358725 0.703768 0.821828
O O2 0.386007 0.473152 0.667819
O O3 0.267585 0.557917 0.981919
O O4 0.133522 0.870474 0.733686
O O5 0.134640 0.776446 0.245705
O O6 0.000000 0.000000 0.500000
O O7 0.026550 0.176531 0.198298
O O8 0.260646 0.364207 0.253684
O O9 0.129868 0.282083 0.259991
O O10 0.397483 0.955700 0.226148
O O11 0.276987 0.266208 0.972982
O O12 0.403833 0.437025 0.219756
O O13 0.572502 0.171931 0.456020
O O14 0.656598 0.020492 0.167687
O O15 0.854636 0.578424 0.282607
O O16 0.000000 0.500000 0.000000
O O17 0.596418 0.821788 0.339546
#
# Coordination Sequence:
#
# PCOD8027307 Si02
#       8
#     2   2   2   2   2   2   2   2
#     4  12  26  46  69  98 138 186 227 277 342 416
#     4  12  28  47  73 104 145 178 225 293 353 404
#     4  11  24  42  73 101 131 181 232 284 334 414
#     4  12  28  40  69 104 138 180 226 288 341 407
#     4  10  24  44  72  99 133 183 229 279 337 413
#     4  11  22  45  68  96 138 178 233 278 340 406
#     4  12  26  46  70 102 139 180 232 278 346 413
#     4  12  23  45  67  96 140 177 228 284 344 394
#
# _framework density 22.040386999999999
#
# number of rings (size 3 to 8) (size 9 to 14) (size 15 to 20)
#    0.000    0.500    3.750    4.125    8.750    0.000 
#    0.000    1.250    0.000    0.000    0.000    0.000 
#    0.000    0.000    0.000    0.000    0.000    0.000 
#
# Total GULP energy -198405.400440 kJ/mol
# GULP energy per Si atom -12400.337528 kJ/mol
# Density = 2.199022 g / cm^3
# Si number density = 22.040387 Si / 1000 Ang^3
#
#
#
# Elastic Constant Matrix: (Units=GPa)
#
#
# Indices 1 2 3 4 5 6 
#
# 1 140.7868 62.3734 23.2429 1.8960 29.5110 -36.0300
# 2 62.3734 161.2307 19.9610 8.3985 16.4812 -17.4180
# 3 23.2429 19.9610 41.3134 13.0239 -24.8299 32.3725
# 4 1.8960 8.3985 13.0239 16.4713 5.8019 -7.1199
# 5 29.5110 16.4812 -24.8299 5.8019 -12.6998 32.0275
# 6 -36.0300 -17.4180 32.3725 -7.1199 32.0275 14.4805
#
#
#
# Elastic Compliance Matrix: (Units=1/GPa)
#
#
# Indices 1 2 3 4 5 6 
#
# 1 0.007151 -0.003429 0.001919 -0.002593 0.004207 -0.001200
# 2 -0.003429 0.007699 -0.000335 -0.003468 0.000079 -0.000402
# 3 0.001919 -0.000335 0.013172 -0.003916 -0.013927 0.003803
# 4 -0.002593 -0.003468 -0.003916 0.059180 0.014114 -0.003986
# 5 0.004207 0.000079 -0.013927 0.014114 0.013298 0.019225
# 6 -0.001200 -0.000402 0.003803 -0.003986 0.019225 0.012606
#
#
# Mechanical properties :
#
#
# Convention : Reuss Voigt Hill
#
# Bulk Modulus (GPa) = 41.09573 61.60952 51.35263
# Shear Modulus (GPa) = 40.03008 19.50065 29.76536
#
# Velocity S-wave (km/s) = 4.26633 2.97773 3.67889
# Velocity P-wave (km/s) = 6.55400 6.31159 6.43394
#
# Compressibility (1/GPa) = 0.02433343
#
# Stress axis : x y z
#
# Youngs Moduli (GPa) = 139.83525 129.88332 75.91982
#
# Poissons Ratio (x) = 0.44533 -0.14568
# Poissons Ratio (y) = 0.47945 0.02541
# Poissons Ratio (z) = -0.26833 0.04347
#
# Static dielectric constant tensor:
#      x y z
#    x 4.427120 -0.159510 -0.117590 
#    y -0.159510 4.577110 0.026690 
#    z -0.117590 0.026690 3.750940 
# 
# 
# High freq. dielectric constant tensor:
#      x y z
#    x 1.883690 -0.007710 -0.004760 
#    y -0.007710 1.882780 -0.004270 
#    z -0.004760 -0.004270 1.850490 
# 
# From -- ./inp_files/180207.got.cif
#   From: 2010.06.25/outbox.cif.g09.slc.cpg/sg2_91_cif.got.tgz:180207.got - 2010.06.27 13:26:56.
