data_PCOD8027593
_publ_section_title
;
Structure prediction by ZEFSAII (Michael W. Deem and Ramdas Pophale) SiO2 
 PCOD8027593
Probable space group: P -1
;
_chemical_formula_sum "Si O2"
_cell_formula_units_Z 10
_cell_length_a 12.902945
_cell_length_b 5.136905
_cell_length_c 10.712618
_cell_angle_alpha 94.561939
_cell_angle_beta 31.570594
_cell_angle_gamma 102.571546
_cell_volume 354.952412
_symmetry_space_group_name_H-M "P -1"
_symmetry_group_IT_number 2
_symmetry_cell_setting 'triclinic'
loop_
_space_group_symop_operation_xyz
x,y,z
-x,-y,-z
loop_
_atom_site_type_symbol
_atom_site_label
_atom_site_fract_x
_atom_site_fract_y
_atom_site_fract_z
Si Si1 0.765474 0.053882 0.946266
Si Si2 0.756441 0.390312 0.744460
Si Si3 0.762614 0.863412 0.592259
Si Si4 0.230348 0.649252 0.802955
Si Si5 0.495190 0.583777 0.323684
O O1 0.681458 0.270463 0.956942
O O2 0.988281 0.052429 0.667628
O O3 0.768117 0.110263 0.093490
O O4 0.603344 0.751886 0.095662
O O5 0.679258 0.645383 0.784103
O O6 0.000000 0.500000 0.500000
O O7 0.305107 0.865847 0.299315
O O8 0.657690 0.714227 0.568518
O O9 0.355762 0.745297 0.548694
O O10 0.326413 0.438126 0.766605
O O11 0.000000 0.500000 0.000000
#
# Coordination Sequence:
#
# PCOD8027593 Si02
#       5
#     2   2   2   2   2
#     4  11  24  44  76 101 153 194 243 310 373 438
#     4  10  24  45  76 112 150 197 244 300 378 446
#     4  11  25  47  76 112 152 194 247 307 370 449
#     4  11  25  50  71 105 148 195 252 313 373 437
#     4  11  27  45  74 112 140 198 256 304 374 449
#
# _framework density 28.172789999999999
#
# number of rings (size 3 to 8) (size 9 to 14) (size 15 to 20)
#    0.000    1.200    2.000    3.000   11.200    2.400 
#    0.000    0.000    0.000    0.000    0.000    0.000 
#    0.000    0.000    0.000    0.000    0.000    0.000 
#
# Total GULP energy -123959.482708 kJ/mol
# GULP energy per Si atom -12395.948271 kJ/mol
# Density = 2.810867 g / cm^3
# Si number density = 28.172790 Si / 1000 Ang^3
#
#
#
# Elastic Constant Matrix: (Units=GPa)
#
#
# Indices 1 2 3 4 5 6 
#
# 1 107.1861 13.1913 22.9515 -9.5943 -0.6733 5.7327
# 2 13.1913 117.2298 21.7487 -15.4634 2.8578 3.9514
# 3 22.9515 21.7487 133.6742 -26.9807 20.2653 -2.0224
# 4 -9.5943 -15.4634 -26.9807 42.6631 0.8162 8.4913
# 5 -0.6733 2.8578 20.2653 0.8162 40.0858 11.0174
# 6 5.7327 3.9514 -2.0224 8.4913 11.0174 46.7438
#
#
#
# Elastic Compliance Matrix: (Units=1/GPa)
#
#
# Indices 1 2 3 4 5 6 
#
# 1 0.009976 -0.000624 -0.001594 0.001346 0.001495 -0.001837
# 2 -0.000624 0.009180 -0.000823 0.002920 0.000042 -0.001275
# 3 -0.001594 -0.000823 0.009808 0.005459 -0.005298 0.000946
# 4 0.001346 0.002920 0.005459 0.029286 -0.002172 -0.004984
# 5 0.001495 0.000042 -0.005298 -0.002172 0.029615 -0.007002
# 6 -0.001837 -0.001275 0.000946 -0.004984 -0.007002 0.024323
#
#
# Mechanical properties :
#
#
# Convention : Reuss Voigt Hill
#
# Bulk Modulus (GPa) = 43.70206 52.65256 48.17731
# Shear Modulus (GPa) = 39.71498 45.91180 42.81339
#
# Velocity S-wave (km/s) = 3.75866 4.04127 3.90253
# Velocity P-wave (km/s) = 5.86366 6.36440 6.11915
#
# Compressibility (1/GPa) = 0.02288222
#
# Stress axis : x y z
#
# Youngs Moduli (GPa) = 100.24270 108.92997 101.96067
#
# Poissons Ratio (x) = 0.06795 0.16254
# Poissons Ratio (y) = 0.06253 0.08390
# Poissons Ratio (z) = 0.15980 0.08964
#
# Static dielectric constant tensor:
#      x y z
#    x 5.320410 0.076710 0.159480 
#    y 0.076710 5.535660 -0.166560 
#    z 0.159480 -0.166560 5.474740 
# 
# 
# High freq. dielectric constant tensor:
#      x y z
#    x 2.147170 0.016750 -0.010360 
#    y 0.016750 2.135560 -0.002050 
#    z -0.010360 -0.002050 2.164020 
# 
# From -- ./inp_files/4783.got.cif
#   From: 2010.06.25/outbox.cif.g09.slc.cpg/sg2_3_cif.got.tgz:4783.got - 2010.06.27 13:26:56.
