data_PCOD8027082
_publ_section_title
;
Structure prediction by ZEFSAII (Michael W. Deem and Ramdas Pophale) SiO2 
 PCOD8027082
Probable space group: P -1
;
_chemical_formula_sum "Si O2"
_cell_formula_units_Z 16
_cell_length_a 23.422735
_cell_length_b 5.595740
_cell_length_c 6.182830
_cell_angle_alpha 75.900981
_cell_angle_beta 58.212140
_cell_angle_gamma 90.261405
_cell_volume 659.330827
_symmetry_space_group_name_H-M "P -1"
_symmetry_group_IT_number 2
_symmetry_cell_setting 'triclinic'
loop_
_space_group_symop_operation_xyz
x,y,z
-x,-y,-z
loop_
_atom_site_type_symbol
_atom_site_label
_atom_site_fract_x
_atom_site_fract_y
_atom_site_fract_z
Si Si1 0.752024 0.547221 0.518398
Si Si2 0.211042 0.849932 0.147482
Si Si3 0.318205 0.749164 0.650467
Si Si4 0.039668 0.189000 0.543446
Si Si5 0.096217 0.652404 0.119419
Si Si6 0.572883 0.011179 0.955596
Si Si7 0.846431 0.974291 0.390060
Si Si8 0.619203 0.497228 0.037575
O O1 0.780838 0.401546 0.688071
O O2 0.741666 0.409997 0.338295
O O3 0.678987 0.604500 0.729541
O O4 0.807951 0.796683 0.319093
O O5 0.137313 0.819071 0.189292
O O6 0.207232 0.054035 0.297316
O O7 0.277195 0.921907 0.845761
O O8 0.370347 0.924439 0.356810
O O9 0.356528 0.566210 0.757315
O O10 0.095396 0.365815 0.245743
O O11 0.983021 0.320735 0.745652
O O12 0.079957 0.085206 0.680165
O O13 0.000000 0.000000 0.500000
O O14 0.136057 0.739873 0.797975
O O15 0.580638 0.230295 0.074975
O O16 0.576603 0.728858 0.099231
O O17 0.500000 0.000000 0.000000
#
# Coordination Sequence:
#
# PCOD8027082 Si02
#       8
#     2   2   2   2   2   2   2   2
#     4  10  24  44  67 102 141 182 236 291 358 425
#     4  11  23  45  66 104 136 176 242 292 359 431
#     4  10  25  47  70 107 149 193 235 302 359 424
#     4  11  24  47  64  96 133 179 234 290 358 438
#     4  11  25  42  68  95 134 177 231 292 361 430
#     4  11  25  49  76 113 153 196 246 297 358 434
#     4  12  25  43  72  99 133 183 233 297 361 429
#     4  10  25  44  74 109 150 192 246 297 359 435
#
# _framework density 24.267032
#
# number of rings (size 3 to 8) (size 9 to 14) (size 15 to 20)
#    0.000    1.250    2.500    1.500    7.000    7.500 
#    2.250    0.000    0.000    0.000    0.000    0.000 
#    0.000    0.000    0.000    0.000    0.000    0.000 
#
# Total GULP energy -198252.260007 kJ/mol
# GULP energy per Si atom -12390.766250 kJ/mol
# Density = 2.421180 g / cm^3
# Si number density = 24.267032 Si / 1000 Ang^3
#
#
#
# Elastic Constant Matrix: (Units=GPa)
#
#
# Indices 1 2 3 4 5 6 
#
# 1 145.2821 43.9498 25.7460 -4.6098 3.4959 5.1412
# 2 43.9498 104.0304 27.0034 -5.2604 1.7481 7.8076
# 3 25.7460 27.0034 77.9349 -0.4325 9.4172 16.8150
# 4 -4.6098 -5.2604 -0.4325 30.3533 -2.6465 -1.6638
# 5 3.4959 1.7481 9.4172 -2.6465 27.9472 -2.0309
# 6 5.1412 7.8076 16.8150 -1.6638 -2.0309 44.1432
#
#
#
# Elastic Compliance Matrix: (Units=1/GPa)
#
#
# Indices 1 2 3 4 5 6 
#
# 1 0.008094 -0.002966 -0.001672 0.000689 -0.000181 0.000236
# 2 -0.002966 0.011768 -0.003084 0.001589 0.000791 -0.000465
# 3 -0.001672 -0.003084 0.016384 -0.001368 -0.005671 -0.005813
# 4 0.000689 0.001589 -0.001368 0.033706 0.003583 0.001595
# 5 -0.000181 0.000791 -0.005671 0.003583 0.038291 0.003938
# 6 0.000236 -0.000465 -0.005813 0.001595 0.003938 0.025164
#
#
# Mechanical properties :
#
#
# Convention : Reuss Voigt Hill
#
# Bulk Modulus (GPa) = 48.06902 57.84955 52.95929
# Shear Modulus (GPa) = 32.09562 35.85863 33.97712
#
# Velocity S-wave (km/s) = 3.64070 3.84822 3.74590
# Velocity P-wave (km/s) = 6.12571 6.60572 6.37024
#
# Compressibility (1/GPa) = 0.02080342
#
# Stress axis : x y z
#
# Youngs Moduli (GPa) = 123.54229 84.97662 61.03524
#
# Poissons Ratio (x) = 0.25200 0.10203
# Poissons Ratio (y) = 0.36637 0.18824
# Poissons Ratio (z) = 0.20652 0.26208
#
# Static dielectric constant tensor:
#      x y z
#    x 4.653320 -0.175080 -0.017730 
#    y -0.175080 4.278300 -0.020130 
#    z -0.017730 -0.020130 4.360310 
# 
# 
# High freq. dielectric constant tensor:
#      x y z
#    x 1.979970 -0.008950 0.007360 
#    y -0.008950 1.953330 -0.005730 
#    z 0.007360 -0.005730 1.955590 
# 
# From -- ./inp_files/11010.got.cif
#   From: 2010.06.25/outbox.cif.g09.slc.cpg/sg2_6_cif.got.tgz:11010.got - 2010.06.27 13:26:56.
