data_PCOD8027160
_publ_section_title
;
Structure prediction by ZEFSAII (Michael W. Deem and Ramdas Pophale) SiO2 
 PCOD8027160
Probable space group: P -1
;
_chemical_formula_sum "Si O2"
_cell_formula_units_Z 14
_cell_length_a 9.416210
_cell_length_b 12.425565
_cell_length_c 8.736272
_cell_angle_alpha 103.405878
_cell_angle_beta 37.968510
_cell_angle_gamma 105.866508
_cell_volume 604.672359
_symmetry_space_group_name_H-M "P -1"
_symmetry_group_IT_number 2
_symmetry_cell_setting 'triclinic'
loop_
_space_group_symop_operation_xyz
x,y,z
-x,-y,-z
loop_
_atom_site_type_symbol
_atom_site_label
_atom_site_fract_x
_atom_site_fract_y
_atom_site_fract_z
Si Si1 0.590934 0.169101 0.211853
Si Si2 0.229838 0.176487 0.252176
Si Si3 0.226446 0.042887 0.919318
Si Si4 0.445820 0.272890 0.663951
Si Si5 0.229479 0.439733 0.742366
Si Si6 0.934582 0.291332 0.735496
Si Si7 0.442377 0.623330 0.100990
O O1 0.389757 0.147260 0.247343
O O2 0.557279 0.261542 0.398616
O O3 0.608993 0.052460 0.242310
O O4 0.832207 0.219600 0.944242
O O5 0.986276 0.201993 0.535496
O O6 0.168475 0.073097 0.153901
O O7 0.337531 0.286671 0.104317
O O8 0.358509 0.149396 0.756275
O O9 0.000000 0.000000 0.000000
O O10 0.242525 0.350490 0.839162
O O11 0.624444 0.341485 0.657780
O O12 0.500000 0.500000 0.500000
O O13 0.167879 0.372587 0.614308
O O14 0.000000 0.500000 0.000000
O O15 0.764389 0.371243 0.839494
O O16 0.500000 0.500000 0.000000
#
# Coordination Sequence:
#
# PCOD8027160 Si02
#       7
#     2   2   2   2   2   2   2
#     4  11  23  46  71  97 143 187 235 297 366 432
#     4  10  24  45  67  99 138 183 238 291 357 445
#     4  11  25  43  71 103 138 184 235 302 372 427
#     4  11  24  46  70 107 144 182 244 302 359 439
#     4  12  26  45  75 105 145 198 246 298 364 439
#     4  11  24  45  69 100 141 186 241 294 356 446
#     4  10  24  44  69 100 141 186 236 298 369 421
#
# _framework density 23.153036
#
# number of rings (size 3 to 8) (size 9 to 14) (size 15 to 20)
#    0.000    1.143    1.429    3.429    6.000    1.143 
#    5.143    0.000    0.000    0.000    0.000    0.000 
#    0.000    0.000    0.000    0.000    0.000    0.000 
#
# Total GULP energy -173475.682621 kJ/mol
# GULP energy per Si atom -12391.120187 kJ/mol
# Density = 2.310034 g / cm^3
# Si number density = 23.153036 Si / 1000 Ang^3
#
#
#
# Elastic Constant Matrix: (Units=GPa)
#
#
# Indices 1 2 3 4 5 6 
#
# 1 118.5452 69.1057 38.5443 -6.8868 15.7639 7.4672
# 2 69.1057 132.6300 37.3617 17.6273 -7.7554 -14.6563
# 3 38.5443 37.3617 115.9113 12.3643 6.0776 3.5298
# 4 -6.8868 17.6273 12.3643 23.5149 6.8417 -1.7231
# 5 15.7639 -7.7554 6.0776 6.8417 39.2307 10.4104
# 6 7.4672 -14.6563 3.5298 -1.7231 10.4104 53.1765
#
#
#
# Elastic Compliance Matrix: (Units=1/GPa)
#
#
# Indices 1 2 3 4 5 6 
#
# 1 0.021499 -0.014252 -0.004180 0.023011 -0.013976 -0.003188
# 2 -0.014252 0.018968 0.000179 -0.021716 0.012138 0.004137
# 3 -0.004180 0.000179 0.010695 -0.007470 0.001524 -0.000614
# 4 0.023011 -0.021716 -0.007470 0.076782 -0.025440 -0.001252
# 5 -0.013976 0.012138 0.001524 -0.025440 0.038546 -0.003164
# 6 -0.003188 0.004137 -0.000614 -0.001252 -0.003164 0.021013
#
#
# Mechanical properties :
#
#
# Convention : Reuss Voigt Hill
#
# Bulk Modulus (GPa) = 68.22739 73.01220 70.61980
# Shear Modulus (GPa) = 21.84408 37.98942 29.91675
#
# Velocity S-wave (km/s) = 3.07492 4.05507 3.59852
# Velocity P-wave (km/s) = 6.49144 7.31627 6.91617
#
# Compressibility (1/GPa) = 0.01465687
#
# Stress axis : x y z
#
# Youngs Moduli (GPa) = 46.51367 52.71917 93.50037
#
# Poissons Ratio (x) = 0.75136 0.39082
# Poissons Ratio (y) = 0.66292 -0.01676
# Poissons Ratio (z) = 0.19442 -0.00945
#
# Static dielectric constant tensor:
#      x y z
#    x 4.568460 -0.125730 0.341910 
#    y -0.125730 3.942930 0.529360 
#    z 0.341910 0.529360 3.836340 
# 
# 
# High freq. dielectric constant tensor:
#      x y z
#    x 1.936840 -0.006130 0.015540 
#    y -0.006130 1.925550 0.016860 
#    z 0.015540 0.016860 1.901970 
# 
# From -- ./inp_files/56345.got.cif
#   From: 2010.06.25/outbox.cif.g09.slc.cpg/sg2_29_cif.got.tgz:56345.got - 2010.06.27 13:26:56.
