data_PCOD8027341
_publ_section_title
;
Structure prediction by ZEFSAII (Michael W. Deem and Ramdas Pophale) SiO2 
 PCOD8027341
Probable space group: P -1
;
_chemical_formula_sum "Si O2"
_cell_formula_units_Z 16
_cell_length_a 17.016530
_cell_length_b 19.488243
_cell_length_c 8.629620
_cell_angle_alpha 149.097434
_cell_angle_beta 32.336659
_cell_angle_gamma 146.729007
_cell_volume 718.986621
_symmetry_space_group_name_H-M "P -1"
_symmetry_group_IT_number 2
_symmetry_cell_setting 'triclinic'
loop_
_space_group_symop_operation_xyz
x,y,z
-x,-y,-z
loop_
_atom_site_type_symbol
_atom_site_label
_atom_site_fract_x
_atom_site_fract_y
_atom_site_fract_z
Si Si1 0.953789 0.627150 0.269438
Si Si2 0.458241 0.036640 0.469885
Si Si3 0.558819 0.796761 0.765805
Si Si4 0.591442 0.505296 0.698951
Si Si5 0.552910 0.336477 0.982576
Si Si6 0.910284 0.855162 0.268919
Si Si7 0.090979 0.914586 0.769173
Si Si8 0.897897 0.569074 0.899774
O O1 0.780236 0.605344 0.586066
O O2 0.081407 0.779849 0.417643
O O3 0.969813 0.630205 0.064494
O O4 0.000000 0.500000 0.000000
O O5 0.275656 0.012345 0.690840
O O6 0.500000 0.000000 0.500000
O O7 0.561605 0.210862 0.608536
O O8 0.509596 0.931899 0.073280
O O9 0.433066 0.659473 0.616457
O O10 0.735954 0.846206 0.497292
O O11 0.559947 0.753176 0.860892
O O12 0.500000 0.500000 0.000000
O O13 0.519262 0.563518 0.790601
O O14 0.725062 0.438514 0.960142
O O15 0.886872 0.705602 0.099634
O O16 0.000000 0.000000 0.500000
O O17 0.007498 0.856788 0.958152
O O18 0.000000 0.000000 0.000000
O O19 0.000000 0.500000 0.500000
#
# Coordination Sequence:
#
# PCOD8027341 Si02
#       8
#     2   2   2   2   2   2   2   2
#     4  12  26  44  69 103 147 182 230 299 367 418
#     4  10  24  44  75  98 136 191 235 289 350 429
#     4  11  22  43  70 101 136 183 239 294 345 422
#     4  12  24  42  67 101 140 184 232 289 356 422
#     4  11  23  46  71 100 137 186 245 283 353 421
#     4  12  25  43  71 108 142 187 247 291 355 436
#     4  12  26  49  71 106 150 189 233 299 375 425
#     4  12  27  44  75 106 141 189 245 300 353 438
#
# _framework density 22.253543000000001
#
# number of rings (size 3 to 8) (size 9 to 14) (size 15 to 20)
#    0.000    0.500    2.500    6.375    8.750    0.000 
#    0.000    1.250    0.000    0.000    0.000    0.000 
#    0.000    0.000    0.000    0.000    0.000    0.000 
#
# Total GULP energy -198402.114340 kJ/mol
# GULP energy per Si atom -12400.132146 kJ/mol
# Density = 2.220289 g / cm^3
# Si number density = 22.253543 Si / 1000 Ang^3
#
#
#
# Elastic Constant Matrix: (Units=GPa)
#
#
# Indices 1 2 3 4 5 6 
#
# 1 91.0122 17.0582 29.2475 2.2144 0.7388 11.6735
# 2 17.0582 83.6356 29.5620 26.3446 6.6322 14.2760
# 3 29.2475 29.5620 122.4122 22.1146 2.8388 -1.6186
# 4 2.2144 26.3446 22.1146 53.7836 1.9783 5.2502
# 5 0.7388 6.6322 2.8388 1.9783 44.3600 -0.5645
# 6 11.6735 14.2760 -1.6186 5.2502 -0.5645 31.1288
#
#
#
# Elastic Compliance Matrix: (Units=1/GPa)
#
#
# Indices 1 2 3 4 5 6 
#
# 1 0.012794 -0.001285 -0.003144 0.001851 0.000038 -0.004684
# 2 -0.001285 0.016274 -0.002535 -0.006205 -0.002050 -0.006104
# 3 -0.003144 -0.002535 0.010144 -0.003130 -0.000035 0.003396
# 4 0.001851 -0.006205 -0.003130 0.023026 0.000046 -0.001894
# 5 0.000038 -0.002050 -0.000035 0.000046 0.022866 0.001331
# 6 -0.004684 -0.006104 0.003396 -0.001894 0.001331 0.037200
#
#
# Mechanical properties :
#
#
# Convention : Reuss Voigt Hill
#
# Bulk Modulus (GPa) = 39.55143 49.86614 44.70878
# Shear Modulus (GPa) = 34.56391 40.60064 37.58228
#
# Velocity S-wave (km/s) = 3.94532 4.27600 4.11399
# Velocity P-wave (km/s) = 6.21014 6.84366 6.53458
#
# Compressibility (1/GPa) = 0.02528354
#
# Stress axis : x y z
#
# Youngs Moduli (GPa) = 78.16155 61.44866 98.58390
#
# Poissons Ratio (x) = 0.07896 0.30992
# Poissons Ratio (y) = 0.10043 0.24994
# Poissons Ratio (z) = 0.24572 0.15579
#
# Static dielectric constant tensor:
#      x y z
#    x 3.650320 0.045110 0.106500 
#    y 0.045110 4.077060 0.326550 
#    z 0.106500 0.326550 4.395970 
# 
# 
# High freq. dielectric constant tensor:
#      x y z
#    x 1.873510 0.010380 -0.002400 
#    y 0.010380 1.883740 0.019770 
#    z -0.002400 0.019770 1.894880 
# 
# From -- ./inp_files/338228.got.cif
#   From: 2010.06.25/outbox.cif.g09.slc.cpg/sg2_170_cif.got.tgz:338228.got - 2010.06.27 13:26:56.
