data_PCOD8027809
_publ_section_title
;
Structure prediction by ZEFSAII (Michael W. Deem and Ramdas Pophale) SiO2 
 PCOD8027809
Probable space group: P -1
;
_chemical_formula_sum "Si O2"
_cell_formula_units_Z 16
_cell_length_a 21.707273
_cell_length_b 5.530554
_cell_length_c 8.386799
_cell_angle_alpha 62.181285
_cell_angle_beta 132.796474
_cell_angle_gamma 101.949555
_cell_volume 643.966053
_symmetry_space_group_name_H-M "P -1"
_symmetry_group_IT_number 2
_symmetry_cell_setting 'triclinic'
loop_
_space_group_symop_operation_xyz
x,y,z
-x,-y,-z
loop_
_atom_site_type_symbol
_atom_site_label
_atom_site_fract_x
_atom_site_fract_y
_atom_site_fract_z
Si Si1 0.096435 0.849479 0.722607
Si Si2 0.398389 0.250278 0.715062
Si Si3 0.048438 0.363362 0.974422
Si Si4 0.748513 0.021849 0.891926
Si Si5 0.568553 0.353589 0.956620
Si Si6 0.886905 0.206176 0.593662
Si Si7 0.655475 0.560209 0.760668
Si Si8 0.727632 0.376995 0.450853
O O1 0.104522 0.563140 0.924710
O O2 0.134216 0.797883 0.628316
O O3 0.000000 0.000000 0.500000
O O4 0.153022 0.043159 0.855425
O O5 0.391462 0.223410 0.519253
O O6 0.300592 0.364070 0.561375
O O7 0.427324 0.976093 0.952730
O O8 0.469640 0.454660 0.807736
O O9 0.977747 0.300841 0.743932
O O10 0.000000 0.500000 0.000000
O O11 0.111108 0.091448 0.227221
O O12 0.713545 0.729911 0.921981
O O13 0.702551 0.272261 0.849374
O O14 0.747029 0.104693 0.677792
O O15 0.642044 0.396536 0.192573
O O16 0.582620 0.483851 0.770855
O O17 0.809581 0.412131 0.478732
#
# Coordination Sequence:
#
# PCOD8027809 Si02
#       8
#     2   2   2   2   2   2   2   2
#     4  12  26  47  71 104 142 193 243 310 368 441
#     4  10  24  47  70 111 146 189 245 302 370 440
#     4  11  24  47  73 105 140 186 242 304 371 435
#     4  11  27  48  72 107 148 193 249 308 365 445
#     4  11  23  44  76 105 145 194 243 302 367 446
#     4  11  26  45  72 105 142 190 244 302 367 441
#     4  11  25  49  72 110 147 195 244 306 370 436
#     4  11  24  45  72 102 148 195 238 311 366 437
#
# _framework density 24.846032999999998
#
# number of rings (size 3 to 8) (size 9 to 14) (size 15 to 20)
#    0.000    1.000    2.500    2.625    5.250    3.000 
#    2.250    1.875    0.000    0.000    0.000    0.000 
#    0.000    0.000    0.000    0.000    0.000    0.000 
#
# Total GULP energy -198273.321915 kJ/mol
# GULP energy per Si atom -12392.082620 kJ/mol
# Density = 2.478948 g / cm^3
# Si number density = 24.846033 Si / 1000 Ang^3
#
#
#
# Elastic Constant Matrix: (Units=GPa)
#
#
# Indices 1 2 3 4 5 6 
#
# 1 135.7208 33.0408 45.5789 -15.3062 -11.1087 11.3323
# 2 33.0408 106.8051 26.8294 6.3735 -10.1510 15.6885
# 3 45.5789 26.8294 107.7078 12.1285 -14.7047 8.8821
# 4 -15.3062 6.3735 12.1285 27.7708 -2.0611 2.2624
# 5 -11.1087 -10.1510 -14.7047 -2.0611 39.3143 -2.9530
# 6 11.3323 15.6885 8.8821 2.2624 -2.9530 34.6681
#
#
#
# Elastic Compliance Matrix: (Units=1/GPa)
#
#
# Indices 1 2 3 4 5 6 
#
# 1 0.010696 -0.002307 -0.004646 0.008671 0.001013 -0.001742
# 2 -0.002307 0.011185 -0.000967 -0.003005 0.001436 -0.003741
# 3 -0.004646 -0.000967 0.012781 -0.007668 0.002772 -0.000582
# 4 0.008671 -0.003005 -0.007668 0.045093 0.000992 -0.002368
# 5 0.001013 0.001436 0.002772 0.000992 0.027224 0.000563
# 6 -0.001742 -0.003741 -0.000582 -0.002368 0.000563 0.031459
#
#
# Mechanical properties :
#
#
# Convention : Reuss Voigt Hill
#
# Bulk Modulus (GPa) = 53.12962 62.34800 57.73881
# Shear Modulus (GPa) = 31.14237 36.66961 33.90599
#
# Velocity S-wave (km/s) = 3.54420 3.84588 3.69812
# Velocity P-wave (km/s) = 6.17887 6.69845 6.44390
#
# Compressibility (1/GPa) = 0.01882189
#
# Stress axis : x y z
#
# Youngs Moduli (GPa) = 93.49053 89.40711 78.23963
#
# Poissons Ratio (x) = 0.20628 0.36352
# Poissons Ratio (y) = 0.21570 0.07564
# Poissons Ratio (z) = 0.43437 0.08644
#
# Static dielectric constant tensor:
#      x y z
#    x 4.526390 0.046190 0.032160 
#    y 0.046190 4.519150 0.132100 
#    z 0.032160 0.132100 4.766110 
# 
# 
# High freq. dielectric constant tensor:
#      x y z
#    x 1.996830 0.007060 -0.004660 
#    y 0.007060 1.970420 0.008920 
#    z -0.004660 0.008920 2.005990 
# 
# From -- ./inp_files/340186.got.cif
#   From: 2010.06.25/outbox.cif.g09.slc.cpg/sg2_171_cif.got.tgz:340186.got - 2010.06.27 13:26:56.
