data_PCOD8027750
_publ_section_title
;
Structure prediction by ZEFSAII (Michael W. Deem and Ramdas Pophale) SiO2 
 PCOD8027750
Probable space group: P -1
;
_chemical_formula_sum "Si O2"
_cell_formula_units_Z 16
_cell_length_a 12.439251
_cell_length_b 6.656872
_cell_length_c 23.518134
_cell_angle_alpha 54.172895
_cell_angle_beta 152.907812
_cell_angle_gamma 126.137176
_cell_volume 706.579543
_symmetry_space_group_name_H-M "P -1"
_symmetry_group_IT_number 2
_symmetry_cell_setting 'triclinic'
loop_
_space_group_symop_operation_xyz
x,y,z
-x,-y,-z
loop_
_atom_site_type_symbol
_atom_site_label
_atom_site_fract_x
_atom_site_fract_y
_atom_site_fract_z
Si Si1 0.537388 0.587863 0.364963
Si Si2 0.299530 0.632712 0.358880
Si Si3 0.005153 0.501190 0.664245
Si Si4 0.369289 0.002318 0.750038
Si Si5 0.200042 0.149954 0.231623
Si Si6 0.894832 0.911848 0.025552
Si Si7 0.211988 0.675912 0.924807
Si Si8 0.685946 0.862606 0.177407
O O1 0.325471 0.622030 0.304446
O O2 0.758395 0.496542 0.514590
O O3 0.630105 0.847114 0.333185
O O4 0.414689 0.391688 0.291646
O O5 0.500000 0.500000 0.500000
O O6 0.048057 0.493957 0.292933
O O7 0.329786 0.918900 0.348293
O O8 0.105136 0.251402 0.736251
O O9 0.200648 0.739772 0.699700
O O10 0.268828 0.141866 0.732714
O O11 0.629917 0.964592 0.898365
O O12 0.001703 0.193502 0.175757
O O13 0.073331 0.092737 0.120991
O O14 0.887699 0.618719 0.087226
O O15 0.000000 0.000000 0.000000
O O16 0.311175 0.846178 0.888495
O O17 0.426642 0.692618 0.068757
#
# Coordination Sequence:
#
# PCOD8027750 Si02
#       8
#     2   2   2   2   2   2   2   2
#     4  11  28  47  71 107 142 193 241 293 355 425
#     4  10  24  46  74 104 139 190 238 299 347 422
#     4  11  25  48  75 102 143 188 243 297 353 419
#     4  12  26  45  72 104 147 185 240 296 357 419
#     4  12  24  44  72 101 144 181 237 287 358 417
#     4  12  27  44  72 104 148 189 230 294 355 429
#     4  11  24  44  68 106 141 180 239 287 355 426
#     4  11  25  43  73 104 143 186 233 296 362 421
#
# _framework density 22.644302
#
# number of rings (size 3 to 8) (size 9 to 14) (size 15 to 20)
#    0.000    0.750    3.750    2.625    5.250    7.000 
#    0.000    0.000    0.000    0.000    0.000    0.000 
#    0.000    0.000    0.000    0.000    0.000    0.000 
#
# Total GULP energy -198343.185106 kJ/mol
# GULP energy per Si atom -12396.449069 kJ/mol
# Density = 2.259276 g / cm^3
# Si number density = 22.644302 Si / 1000 Ang^3
#
#
#
# Elastic Constant Matrix: (Units=GPa)
#
#
# Indices 1 2 3 4 5 6 
#
# 1 123.2764 49.5992 31.6595 -2.3643 -2.4510 11.5221
# 2 49.5992 124.2592 35.4341 5.8573 -0.5407 12.8117
# 3 31.6595 35.4341 88.2392 -1.7076 14.3152 -1.1001
# 4 -2.3643 5.8573 -1.7076 45.4374 -7.0599 0.3236
# 5 -2.4510 -0.5407 14.3152 -7.0599 32.9002 -7.7332
# 6 11.5221 12.8117 -1.1001 0.3236 -7.7332 36.4711
#
#
#
# Elastic Compliance Matrix: (Units=1/GPa)
#
#
# Indices 1 2 3 4 5 6 
#
# 1 0.010323 -0.003206 -0.002692 0.001125 0.001690 -0.001868
# 2 -0.003206 0.010605 -0.003232 -0.001580 0.000364 -0.002719
# 3 -0.002692 -0.003232 0.014647 -0.000177 -0.006413 0.001069
# 4 0.001125 -0.001580 -0.000177 0.023088 0.005353 0.001124
# 5 0.001690 0.000364 -0.006413 0.005353 0.036051 0.006741
# 6 -0.001868 -0.002719 0.001069 0.001124 0.006741 0.030416
#
#
# Mechanical properties :
#
#
# Convention : Reuss Voigt Hill
#
# Bulk Modulus (GPa) = 57.75253 63.24005 60.49629
# Shear Modulus (GPa) = 33.52079 37.56719 35.54399
#
# Velocity S-wave (km/s) = 3.85167 4.07752 3.96620
# Velocity P-wave (km/s) = 6.73350 7.08212 6.91001
#
# Compressibility (1/GPa) = 0.01731526
#
# Stress axis : x y z
#
# Youngs Moduli (GPa) = 96.87259 94.29171 68.27354
#
# Poissons Ratio (x) = 0.30229 0.18380
# Poissons Ratio (y) = 0.31056 0.22066
# Poissons Ratio (z) = 0.26079 0.30475
#
# Static dielectric constant tensor:
#      x y z
#    x 4.504220 0.054650 0.194990 
#    y 0.054650 4.163730 -0.053340 
#    z 0.194990 -0.053340 4.107370 
# 
# 
# High freq. dielectric constant tensor:
#      x y z
#    x 1.897960 0.002950 0.008980 
#    y 0.002950 1.894480 -0.002710 
#    z 0.008980 -0.002710 1.902590 
# 
# From -- ./inp_files/72315.got.cif
#   From: 2010.06.25/outbox.cif.g09.slc.cpg/sg2_37_cif.got.tgz:72315.got - 2010.06.27 13:26:56.
