data_PCOD8027041
_publ_section_title
;
Structure prediction by ZEFSAII (Michael W. Deem and Ramdas Pophale) SiO2 
 PCOD8027041
Probable space group: P -1
;
_chemical_formula_sum "Si O2"
_cell_formula_units_Z 16
_cell_length_a 6.849925
_cell_length_b 14.271987
_cell_length_c 9.427514
_cell_angle_alpha 94.770637
_cell_angle_beta 66.110689
_cell_angle_gamma 78.382444
_cell_volume 811.349748
_symmetry_space_group_name_H-M "P -1"
_symmetry_group_IT_number 2
_symmetry_cell_setting 'triclinic'
loop_
_space_group_symop_operation_xyz
x,y,z
-x,-y,-z
loop_
_atom_site_type_symbol
_atom_site_label
_atom_site_fract_x
_atom_site_fract_y
_atom_site_fract_z
Si Si1 0.346050 0.402218 0.165441
Si Si2 0.983047 0.724652 0.817691
Si Si3 0.255402 0.616075 0.151363
Si Si4 0.131184 0.224908 0.833283
Si Si5 0.561076 0.281253 0.655295
Si Si6 0.761310 0.958161 0.415775
Si Si7 0.538412 0.395748 0.405585
Si Si8 0.031835 0.872269 0.585245
O O1 0.217314 0.325016 0.144785
O O2 0.214823 0.509019 0.161746
O O3 0.367156 0.400009 0.328851
O O4 0.591695 0.374844 0.025597
O O5 0.956411 0.808426 0.719310
O O6 0.208997 0.641249 0.724307
O O7 0.973767 0.775071 0.980228
O O8 0.375693 0.634028 0.262684
O O9 0.021754 0.692983 0.210803
O O10 0.365591 0.248734 0.785385
O O11 0.161989 0.120323 0.740472
O O12 0.487090 0.320125 0.524788
O O13 0.769538 0.188812 0.577151
O O14 0.825703 0.913267 0.547193
O O15 0.500000 0.000000 0.500000
O O16 0.886291 0.041032 0.354591
O O17 0.500000 0.500000 0.500000
#
# Coordination Sequence:
#
# PCOD8027041 Si02
#       8
#     2   2   2   2   2   2   2   2
#     4  11  24  40  63  92 134 173 215 261 312 368
#     4  11  26  42  64  96 129 169 215 261 316 375
#     4  11  23  40  62  95 131 173 216 262 305 374
#     4  12  24  41  69  93 126 174 213 260 321 379
#     4  11  22  40  64  94 126 166 216 260 314 379
#     4  11  23  43  71  96 123 165 210 261 331 384
#     4  11  24  40  60  93 129 167 215 265 310 369
#     4  10  24  44  65  96 129 157 211 272 317 385
#
# _framework density 19.720226
#
# number of rings (size 3 to 8) (size 9 to 14) (size 15 to 20)
#    0.000    1.000    6.250    0.000    3.500    1.500 
#    0.000    0.625    0.000    0.000    0.000    0.000 
#    0.000    0.000    0.000    0.000    0.000    0.000 
#
# Total GULP energy -198484.529585 kJ/mol
# GULP energy per Si atom -12405.283099 kJ/mol
# Density = 1.967534 g / cm^3
# Si number density = 19.720226 Si / 1000 Ang^3
#
#
#
# Elastic Constant Matrix: (Units=GPa)
#
#
# Indices 1 2 3 4 5 6 
#
# 1 86.8123 57.5771 42.3098 2.6668 9.7181 -0.2620
# 2 57.5771 128.9599 52.3922 8.0657 -1.2943 4.6085
# 3 42.3098 52.3922 114.2336 7.4820 8.7186 -1.1483
# 4 2.6668 8.0657 7.4820 35.0927 2.3327 0.2310
# 5 9.7181 -1.2943 8.7186 2.3327 29.6201 5.0706
# 6 -0.2620 4.6085 -1.1483 0.2310 5.0706 35.0529
#
#
#
# Elastic Compliance Matrix: (Units=1/GPa)
#
#
# Indices 1 2 3 4 5 6 
#
# 1 0.018417 -0.007140 -0.003168 0.001293 -0.005833 0.001808
# 2 -0.007140 0.012556 -0.003353 -0.001908 0.004447 -0.002445
# 3 -0.003168 -0.003353 0.011768 -0.001328 -0.002671 0.001198
# 4 0.001293 -0.001908 -0.001328 0.029282 -0.002488 0.000384
# 5 -0.005833 0.004447 -0.002671 -0.002488 0.037910 -0.006183
# 6 0.001808 -0.002445 0.001198 0.000384 -0.006183 0.029794
#
#
# Mechanical properties :
#
#
# Convention : Reuss Voigt Hill
#
# Bulk Modulus (GPa) = 64.85432 70.50709 67.68071
# Shear Modulus (GPa) = 29.03785 31.80157 30.41971
#
# Velocity S-wave (km/s) = 3.84147 4.02012 3.93181
# Velocity P-wave (km/s) = 7.25496 7.57495 7.41668
#
# Compressibility (1/GPa) = 0.01541917
#
# Stress axis : x y z
#
# Youngs Moduli (GPa) = 54.29707 79.64568 84.97493
#
# Poissons Ratio (x) = 0.56865 0.26921
# Poissons Ratio (y) = 0.38766 0.28493
# Poissons Ratio (z) = 0.17202 0.26706
#
# Static dielectric constant tensor:
#      x y z
#    x 3.544310 -0.089700 0.093010 
#    y -0.089700 3.629380 0.100740 
#    z 0.093010 0.100740 3.626690 
# 
# 
# High freq. dielectric constant tensor:
#      x y z
#    x 1.771990 -0.004290 0.006770 
#    y -0.004290 1.772270 0.007670 
#    z 0.006770 0.007670 1.773260 
# 
# From -- ./inp_files/38634.got.cif
#   From: 2010.06.25/outbox.cif.g09.slc.cpg/sg2_20_cif.got.tgz:38634.got - 2010.06.27 13:26:56.
