data_PCOD8027139
_publ_section_title
;
Structure prediction by ZEFSAII (Michael W. Deem and Ramdas Pophale) SiO2 
 PCOD8027139
Probable space group: P -1
;
_chemical_formula_sum "Si O2"
_cell_formula_units_Z 16
_cell_length_a 9.414861
_cell_length_b 30.163774
_cell_length_c 9.573814
_cell_angle_alpha 149.908517
_cell_angle_beta 137.946127
_cell_angle_gamma 38.113620
_cell_volume 824.457458
_symmetry_space_group_name_H-M "P -1"
_symmetry_group_IT_number 2
_symmetry_cell_setting 'triclinic'
loop_
_space_group_symop_operation_xyz
x,y,z
-x,-y,-z
loop_
_atom_site_type_symbol
_atom_site_label
_atom_site_fract_x
_atom_site_fract_y
_atom_site_fract_z
Si Si1 0.238298 0.096883 0.278324
Si Si2 0.470272 0.730686 0.414841
Si Si3 0.684224 0.545528 0.256496
Si Si4 0.996254 0.097347 0.827757
Si Si5 0.364334 0.112171 0.938019
Si Si6 0.825235 0.625452 0.836601
Si Si7 0.055437 0.204904 0.713188
Si Si8 0.526733 0.762697 0.228773
O O1 0.358561 0.161252 0.475073
O O2 0.064454 0.154087 0.432646
O O3 0.439102 0.997487 0.210742
O O4 0.084162 0.074341 0.988561
O O5 0.618398 0.627635 0.314544
O O6 0.195229 0.761689 0.308802
O O7 0.540512 0.718657 0.271644
O O8 0.520768 0.813816 0.752679
O O9 0.681172 0.589122 0.526863
O O10 0.941516 0.464559 0.183831
O O11 0.500000 0.500000 0.000000
O O12 0.737679 0.183822 0.874056
O O13 0.165644 0.132364 0.963548
O O14 0.000000 0.000000 0.500000
O O15 0.252445 0.127124 0.743831
O O16 0.663531 0.673001 0.981138
O O17 0.895808 0.700539 0.009974
#
# Coordination Sequence:
#
# PCOD8027139 Si02
#       8
#     2   2   2   2   2   2   2   2
#     4  11  25  40  64  93 130 176 215 260 316 376
#     4  12  24  41  67  96 128 170 211 267 324 378
#     4  11  23  44  71  93 129 165 208 269 336 382
#     4  12  23  40  64  91 132 181 215 254 314 377
#     4  12  23  41  62  95 134 170 219 264 310 376
#     4  10  24  44  68  96 124 165 213 268 324 388
#     4  11  24  41  64  97 127 166 218 265 320 379
#     4  11  24  42  66  96 131 168 217 261 313 384
#
# _framework density 19.406703
#
# number of rings (size 3 to 8) (size 9 to 14) (size 15 to 20)
#    0.000    0.750    6.250    1.500    1.750    1.000 
#    0.000    0.625    0.000    0.000    0.000    0.000 
#    0.000    0.000    0.000    0.000    0.000    0.000 
#
# Total GULP energy -198508.567868 kJ/mol
# GULP energy per Si atom -12406.785492 kJ/mol
# Density = 1.936253 g / cm^3
# Si number density = 19.406703 Si / 1000 Ang^3
#
#
#
# Elastic Constant Matrix: (Units=GPa)
#
#
# Indices 1 2 3 4 5 6 
#
# 1 36399.8686-7498.9975 4721.6909******************************
# 2 -7498.9975 1730.3103 -911.5286 2981.5882 4352.8847 4198.0033
# 3 4721.6909 -911.5286 729.2960-1843.7846-2708.5368-2592.8761
# 4 ********** 2981.5882-1843.7846 5683.3565 8273.6170 7941.1143
# 5 ********** 4352.8847-2708.5368 8273.617012133.404111630.8330
# 6 ********** 4198.0033-2592.8761 7941.114311630.833011202.0756
#
#
#
# Elastic Compliance Matrix: (Units=1/GPa)
#
#
# Indices 1 2 3 4 5 6 
#
# 1 0.008390 -0.001276 -0.002265 0.001637 0.008700 0.004839
# 2 -0.001276 0.008028 -0.003309 -0.001703 -0.000854 -0.003974
# 3 -0.002265 -0.003309 0.010361 -0.000263 -0.000018 -0.000227
# 4 0.001637 -0.001703 -0.000263 0.025797 -0.011073 -0.003271
# 5 0.008700 -0.000854 -0.000018 -0.011073 0.033509 -0.010991
# 6 0.004839 -0.003974 -0.000227 -0.003271 -0.010991 0.023953
#
#
# Mechanical properties :
#
#
# Convention : Reuss Voigt Hill
#
# Bulk Modulus (GPa) = 76.46076 3497.97830 1787.21953
# Shear Modulus (GPa) = 39.03225 8640.32125 4339.67675
#
# Velocity S-wave (km/s) = 4.48959 66.79746 47.33950
# Velocity P-wave (km/s) = 8.14616 88.06573 62.53772
#
# Compressibility (1/GPa) = 0.01307860
#
# Stress axis : x y z
#
# Youngs Moduli (GPa) = 119.18496 124.55945 96.51246
#
# Poissons Ratio (x) = 0.15899 0.21859
# Poissons Ratio (y) = 0.15213 0.31940
# Poissons Ratio (z) = 0.26993 0.41222
#
# Static dielectric constant tensor:
#      x y z
#    x 3.505560 -0.012250 -0.024270 
#    y -0.012250 3.695510 -0.132800 
#    z -0.024270 -0.132800 3.445040 
# 
# 
# High freq. dielectric constant tensor:
#      x y z
#    x 1.758290 0.001200 0.001740 
#    y 0.001200 1.769980 -0.006740 
#    z 0.001740 -0.006740 1.764600 
# 
# From -- ./inp_files/37237.got.cif
#   From: 2010.06.25/outbox.cif.g09.slc.cpg/sg2_19_cif.got.tgz:37237.got - 2010.06.27 13:26:56.
