data_PCOD8027783
_publ_section_title
;
Structure prediction by ZEFSAII (Michael W. Deem and Ramdas Pophale) SiO2 
 PCOD8027783
Probable space group: P -1
;
_chemical_formula_sum "Si O2"
_cell_formula_units_Z 10
_cell_length_a 7.185582
_cell_length_b 7.563659
_cell_length_c 10.381121
_cell_angle_alpha 118.230790
_cell_angle_beta 133.772394
_cell_angle_gamma 61.562805
_cell_volume 348.970683
_symmetry_space_group_name_H-M "P -1"
_symmetry_group_IT_number 2
_symmetry_cell_setting 'triclinic'
loop_
_space_group_symop_operation_xyz
x,y,z
-x,-y,-z
loop_
_atom_site_type_symbol
_atom_site_label
_atom_site_fract_x
_atom_site_fract_y
_atom_site_fract_z
Si Si1 0.913093 0.781548 0.306485
Si Si2 0.297987 0.436055 0.517131
Si Si3 0.413418 0.099840 0.261419
Si Si4 0.998626 0.895382 0.736057
Si Si5 0.430518 0.322070 0.095688
O O1 0.137217 0.658537 0.465182
O O2 0.677405 0.919209 0.326170
O O3 0.796746 0.624083 0.104041
O O4 0.043682 0.933203 0.335738
O O5 0.463186 0.300224 0.433691
O O6 0.094692 0.307237 0.433775
O O7 0.503882 0.474572 0.738971
O O8 0.178370 0.019318 0.193246
O O9 0.327579 0.180987 0.104441
O O10 0.307508 0.818256 0.895667
#
# Coordination Sequence:
#
# PCOD8027783 Si02
#       5
#     2   2   2   2   2
#     4  11  24  46  71  96 140 185 219 287 353 392
#     4  10  24  47  67 101 138 178 233 278 341 421
#     4   9  22  44  69  96 142 176 224 290 334 411
#     4   9  22  44  69  96 142 176 224 290 334 411
#     4  11  22  44  73  97 139 179 227 292 332 405
#
# _framework density 28.655705999999999
#
# number of rings (size 3 to 8) (size 9 to 14) (size 15 to 20)
#    1.200    0.800    0.000    3.600    0.000    8.000 
#    7.200    6.000    0.000    0.000    0.000    0.000 
#    0.000    0.000    0.000    0.000    0.000    0.000 
#
# Total GULP energy -123973.189399 kJ/mol
# GULP energy per Si atom -12397.318940 kJ/mol
# Density = 2.859048 g / cm^3
# Si number density = 28.655706 Si / 1000 Ang^3
#
#
#
# Elastic Constant Matrix: (Units=GPa)
#
#
# Indices 1 2 3 4 5 6 
#
# 1 196.4135 23.9412 2.9755 -1.4845 44.8707 -6.7871
# 2 23.9412 104.0477 18.5841 15.5671 3.6011 4.6423
# 3 2.9755 18.5841 120.0478 24.8427 -6.9305 14.7357
# 4 -1.4845 15.5671 24.8427 31.2661 -2.0937 -0.1956
# 5 44.8707 3.6011 -6.9305 -2.0937 26.2099 4.0425
# 6 -6.7871 4.6423 14.7357 -0.1956 4.0425 21.7206
#
#
#
# Elastic Compliance Matrix: (Units=1/GPa)
#
#
# Indices 1 2 3 4 5 6 
#
# 1 0.009924 -0.001912 -0.002563 0.002271 -0.018569 0.008724
# 2 -0.001912 0.010950 -0.000009 -0.005433 0.001845 -0.003324
# 3 -0.002563 -0.000009 0.012107 -0.009235 0.008499 -0.010678
# 4 0.002271 -0.005433 -0.009235 0.041947 -0.003650 0.009193
# 5 -0.018569 0.001845 0.008499 -0.003650 0.075667 -0.026078
# 6 0.008724 -0.003324 -0.010678 0.009193 -0.026078 0.061656
#
#
# Mechanical properties :
#
#
# Convention : Reuss Voigt Hill
#
# Bulk Modulus (GPa) = 41.64317 56.83454 49.23886
# Shear Modulus (GPa) = 21.81287 40.83987 31.32637
#
# Velocity S-wave (km/s) = 2.76199 3.77927 3.30994
# Velocity P-wave (km/s) = 4.97345 6.23863 5.64162
#
# Compressibility (1/GPa) = 0.02401354
#
# Stress axis : x y z
#
# Youngs Moduli (GPa) = 100.76780 91.32601 82.59479
#
# Poissons Ratio (x) = 0.17462 0.21167
# Poissons Ratio (y) = 0.19267 0.00074
# Poissons Ratio (z) = 0.25824 0.00081
#
# Static dielectric constant tensor:
#      x y z
#    x 5.530060 -0.172150 0.142650 
#    y -0.172150 4.754610 0.388570 
#    z 0.142650 0.388570 4.967480 
# 
# 
# High freq. dielectric constant tensor:
#      x y z
#    x 2.189770 -0.010260 0.007340 
#    y -0.010260 2.138130 0.024070 
#    z 0.007340 0.024070 2.164920 
# 
# From -- ./inp_files/494016.got.cif
#   From: 2010.06.25/outbox.cif.g09.slc.cpg/sg2_248_cif.got.tgz:494016.got - 2010.06.27 13:26:56.
