data_PCOD8027717
_publ_section_title
;
Structure prediction by ZEFSAII (Michael W. Deem and Ramdas Pophale) SiO2 
 PCOD8027717
Probable space group: P -1
;
_chemical_formula_sum "Si O2"
_cell_formula_units_Z 16
_cell_length_a 9.613877
_cell_length_b 12.217607
_cell_length_c 27.530053
_cell_angle_alpha 28.656047
_cell_angle_beta 154.661402
_cell_angle_gamma 142.634593
_cell_volume 663.623073
_symmetry_space_group_name_H-M "P -1"
_symmetry_group_IT_number 2
_symmetry_cell_setting 'triclinic'
loop_
_space_group_symop_operation_xyz
x,y,z
-x,-y,-z
loop_
_atom_site_type_symbol
_atom_site_label
_atom_site_fract_x
_atom_site_fract_y
_atom_site_fract_z
Si Si1 0.586237 0.019113 0.103271
Si Si2 0.837699 0.187153 0.025719
Si Si3 0.606971 0.348611 0.743347
Si Si4 0.236858 0.186006 0.342442
Si Si5 0.171350 0.158841 0.599329
Si Si6 0.473284 0.649262 0.720024
Si Si7 0.561458 0.196655 0.245872
Si Si8 0.680512 0.603377 0.063429
O O1 0.283821 0.005218 0.975402
O O2 0.603334 0.778154 0.231270
O O3 0.883882 0.079658 0.136775
O O4 0.553324 0.216085 0.055776
O O5 0.572462 0.391772 0.865358
O O6 0.190857 0.262232 0.089441
O O7 0.631017 0.614983 0.658598
O O8 0.438103 0.310577 0.652800
O O9 0.982806 0.265113 0.895080
O O10 0.221235 0.264319 0.250578
O O11 0.500000 0.000000 0.500000
O O12 0.907660 0.065343 0.304689
O O13 0.865278 0.323216 0.427635
O O14 0.331559 0.053254 0.642126
O O15 0.408634 0.803539 0.686598
O O16 0.772485 0.398908 0.209145
O O17 0.500000 0.500000 0.000000
#
# Coordination Sequence:
#
# PCOD8027717 Si02
#       8
#     2   2   2   2   2   2   2   2
#     4  11  24  42  66 104 149 184 239 301 366 429
#     4  11  24  43  70 107 144 188 239 302 370 430
#     4  12  24  45  74 105 145 188 253 297 365 432
#     4  10  24  46  72 102 145 192 245 293 362 431
#     4  11  26  48  75 104 148 199 243 300 361 439
#     4  11  24  46  72 105 146 192 247 296 366 438
#     4  12  24  44  75 104 149 191 244 299 369 428
#     4  12  25  41  71 104 147 194 242 301 367 431
#
# _framework density 24.110074000000001
#
# number of rings (size 3 to 8) (size 9 to 14) (size 15 to 20)
#    0.000    0.750    3.750    3.375    1.750    2.000 
#    0.000    1.875    0.000    0.000    0.000    0.000 
#    0.000    0.000    0.000    0.000    0.000    0.000 
#
# Total GULP energy -198264.252096 kJ/mol
# GULP energy per Si atom -12391.515756 kJ/mol
# Density = 2.405520 g / cm^3
# Si number density = 24.110074 Si / 1000 Ang^3
#
#
#
# Elastic Constant Matrix: (Units=GPa)
#
#
# Indices 1 2 3 4 5 6 
#
# 1 117.0153 56.8648 15.7274 10.3405 2.3088 -15.2310
# 2 56.8648 98.4932 28.8724 -3.3809 -5.4166 -21.5588
# 3 15.7274 28.8724 74.0457 9.2400 8.8149 5.6478
# 4 10.3405 -3.3809 9.2400 32.0024 -4.5196 -6.0811
# 5 2.3088 -5.4166 8.8149 -4.5196 30.9736 -1.9649
# 6 -15.2310 -21.5588 5.6478 -6.0811 -1.9649 44.9534
#
#
#
# Elastic Compliance Matrix: (Units=1/GPa)
#
#
# Indices 1 2 3 4 5 6 
#
# 1 0.013092 -0.008876 0.002083 -0.006575 -0.004154 -0.001154
# 2 -0.008876 0.021310 -0.009743 0.011239 0.009459 0.010370
# 3 0.002083 -0.009743 0.019930 -0.010385 -0.009573 -0.008294
# 4 -0.006575 0.011239 -0.010385 0.041278 0.012105 0.010580
# 5 -0.004154 0.009459 -0.009573 0.012105 0.039227 0.007684
# 6 -0.001154 0.010370 -0.008294 0.010580 0.007684 0.029637
#
#
# Mechanical properties :
#
#
# Convention : Reuss Voigt Hill
#
# Bulk Modulus (GPa) = 47.03829 54.72037 50.87933
# Shear Modulus (GPa) = 24.43401 34.12520 29.27960
#
# Velocity S-wave (km/s) = 3.18690 3.76625 3.48862
# Velocity P-wave (km/s) = 5.75274 6.45432 6.11360
#
# Compressibility (1/GPa) = 0.02125928
#
# Stress axis : x y z
#
# Youngs Moduli (GPa) = 76.38169 46.92721 50.17564
#
# Poissons Ratio (x) = 0.41653 -0.10453
# Poissons Ratio (y) = 0.67797 0.48888
# Poissons Ratio (z) = -0.15912 0.45723
#
# Static dielectric constant tensor:
#      x y z
#    x 3.731560 -0.413200 0.546800 
#    y -0.413200 4.136850 0.208250 
#    z 0.546800 0.208250 3.676370 
# 
# 
# High freq. dielectric constant tensor:
#      x y z
#    x 1.978810 -0.007250 0.000640 
#    y -0.007250 1.960120 -0.001570 
#    z 0.000640 -0.001570 1.932160 
# 
# From -- ./inp_files/617045.got.cif
#   From: 2010.06.25/outbox.cif.g09.slc.cpg/sg2_309_cif.got.tgz:617045.got - 2010.06.27 13:26:56.
