data_PCOD8027716
_publ_section_title
;
Structure prediction by ZEFSAII (Michael W. Deem and Ramdas Pophale) SiO2 
 PCOD8027716
Probable space group: P -1
;
_chemical_formula_sum "Si O2"
_cell_formula_units_Z 16
_cell_length_a 11.713560
_cell_length_b 8.296324
_cell_length_c 15.993482
_cell_angle_alpha 53.278649
_cell_angle_beta 56.141026
_cell_angle_gamma 34.757609
_cell_volume 702.813115
_symmetry_space_group_name_H-M "P -1"
_symmetry_group_IT_number 2
_symmetry_cell_setting 'triclinic'
loop_
_space_group_symop_operation_xyz
x,y,z
-x,-y,-z
loop_
_atom_site_type_symbol
_atom_site_label
_atom_site_fract_x
_atom_site_fract_y
_atom_site_fract_z
Si Si1 0.854961 0.310257 0.009869
Si Si2 0.261864 0.909900 0.770508
Si Si3 0.846280 0.940647 0.718790
Si Si4 0.149844 0.299228 0.850605
Si Si5 0.999961 0.814551 0.368509
Si Si6 0.596801 0.827776 0.599565
Si Si7 0.455566 0.055180 0.097987
Si Si8 0.324852 0.853404 0.456080
O O1 0.749312 0.317156 0.131370
O O2 0.676333 0.600398 0.935207
O O3 0.996048 0.352201 0.962326
O O4 0.000000 0.000000 0.000000
O O5 0.203298 0.086436 0.823021
O O6 0.098991 0.127133 0.698163
O O7 0.484662 0.746123 0.702975
O O8 0.655818 0.029207 0.805846
O O9 0.051466 0.594397 0.752871
O O10 0.875974 0.111257 0.706230
O O11 0.803989 0.035620 0.609690
O O12 0.342296 0.163292 0.864203
O O13 0.166155 0.463009 0.424988
O O14 0.827417 0.010428 0.447378
O O15 0.500000 0.000000 0.500000
O O16 0.575817 0.029924 0.613872
O O17 0.500000 0.000000 0.000000
O O18 0.500000 0.500000 0.500000
#
# Coordination Sequence:
#
# PCOD8027716 Si02
#       8
#     2   2   2   2   2   2   2   2
#     4   9  23  44  68 104 139 183 236 284 358 411
#     4  11  25  43  75 100 144 184 238 288 355 414
#     4  11  27  44  71 104 145 187 232 289 366 407
#     4  10  24  46  72 102 145 187 234 296 350 425
#     4  12  28  45  73 105 143 186 240 292 348 426
#     4  12  26  45  70 103 142 185 239 288 349 414
#     4  11  26  43  75 105 142 182 238 291 353 428
#     4  12  27  49  76 103 146 187 240 293 358 426
#
# _framework density 22.765654999999999
#
# number of rings (size 3 to 8) (size 9 to 14) (size 15 to 20)
#    0.000    1.000    1.250    3.000   10.500    5.000 
#    0.000    0.000    0.000    0.000    0.000    0.000 
#    0.000    0.000    0.000    0.000    0.000    0.000 
#
# Total GULP energy -198367.335967 kJ/mol
# GULP energy per Si atom -12397.958498 kJ/mol
# Density = 2.271384 g / cm^3
# Si number density = 22.765655 Si / 1000 Ang^3
#
#
#
# Elastic Constant Matrix: (Units=GPa)
#
#
# Indices 1 2 3 4 5 6 
#
# 1 127.0970 41.1553 42.0058 2.8516 6.8195 -25.6374
# 2 41.1553 133.1522 47.1254 -11.1663 -1.0262 -24.2331
# 3 42.0058 47.1254 122.8181 6.7408 -6.1461 -18.4955
# 4 2.8516 -11.1663 6.7408 34.1813 -3.4981 3.1482
# 5 6.8195 -1.0262 -6.1461 -3.4981 38.5864 -2.7780
# 6 -25.6374 -24.2331 -18.4955 3.1482 -2.7780 40.4162
#
#
#
# Elastic Compliance Matrix: (Units=1/GPa)
#
#
# Indices 1 2 3 4 5 6 
#
# 1 0.010178 -0.001725 -0.002167 -0.001598 -0.002017 0.004416
# 2 -0.001725 0.010001 -0.002919 0.003751 0.000685 0.003322
# 3 -0.002167 -0.002919 0.010564 -0.002854 0.001878 0.002061
# 4 -0.001598 0.003751 -0.002854 0.031663 0.002628 -0.002357
# 5 -0.002017 0.000685 0.001878 0.002628 0.026946 0.001638
# 6 0.004416 0.003322 0.002061 -0.002357 0.001638 0.030775
#
#
# Mechanical properties :
#
#
# Convention : Reuss Voigt Hill
#
# Bulk Modulus (GPa) = 58.40763 71.51557 64.96160
# Shear Modulus (GPa) = 35.85400 39.48883 37.67141
#
# Velocity S-wave (km/s) = 3.97283 4.16935 4.07227
# Velocity P-wave (km/s) = 6.83785 7.39324 7.12096
#
# Compressibility (1/GPa) = 0.01712105
#
# Stress axis : x y z
#
# Youngs Moduli (GPa) = 98.25508 99.99453 94.65847
#
# Poissons Ratio (x) = 0.17244 0.20516
# Poissons Ratio (y) = 0.16944 0.27629
# Poissons Ratio (z) = 0.21296 0.29186
#
# Static dielectric constant tensor:
#      x y z
#    x 4.482100 0.257180 -0.600670 
#    y 0.257180 4.738970 -0.551910 
#    z -0.600670 -0.551910 4.862210 
# 
# 
# High freq. dielectric constant tensor:
#      x y z
#    x 1.901540 -0.009090 -0.017240 
#    y -0.009090 1.906830 -0.003660 
#    z -0.017240 -0.003660 1.911410 
# 
# From -- ./inp_files/138518.got.cif
#   From: 2010.06.25/outbox.cif.g09.slc.cpg/sg2_70_cif.got.tgz:138518.got - 2010.06.27 13:26:56.
