data_PCOD8027951
_publ_section_title
;
Structure prediction by ZEFSAII (Michael W. Deem and Ramdas Pophale) SiO2 
 PCOD8027951
Probable space group: P -1
;
_chemical_formula_sum "Si O2"
_cell_formula_units_Z 16
_cell_length_a 13.896235
_cell_length_b 13.130740
_cell_length_c 6.843839
_cell_angle_alpha 76.983023
_cell_angle_beta 52.006177
_cell_angle_gamma 52.540285
_cell_volume 758.657349
_symmetry_space_group_name_H-M "P -1"
_symmetry_group_IT_number 2
_symmetry_cell_setting 'triclinic'
loop_
_space_group_symop_operation_xyz
x,y,z
-x,-y,-z
loop_
_atom_site_type_symbol
_atom_site_label
_atom_site_fract_x
_atom_site_fract_y
_atom_site_fract_z
Si Si1 0.472811 0.219109 0.926597
Si Si2 0.401142 0.983386 0.482222
Si Si3 0.810096 0.745557 0.600371
Si Si4 0.208867 0.716768 0.154319
Si Si5 0.271180 0.925463 0.011826
Si Si6 0.932320 0.343746 0.942786
Si Si7 0.595243 0.522601 0.224039
Si Si8 0.030841 0.215680 0.283193
O O1 0.489426 0.134524 0.756315
O O2 0.501403 0.324882 0.784131
O O3 0.301519 0.294285 0.199824
O O4 0.593130 0.122729 0.983469
O O5 0.309339 0.947234 0.739856
O O6 0.500000 0.000000 0.500000
O O7 0.281383 0.115744 0.456765
O O8 0.869934 0.756135 0.726994
O O9 0.956181 0.635384 0.328566
O O10 0.082640 0.755434 0.125610
O O11 0.139563 0.717526 0.448212
O O12 0.244565 0.818275 0.065258
O O13 0.364673 0.568724 0.977927
O O14 0.117057 0.059812 0.227309
O O15 0.757849 0.478884 0.134893
O O16 0.015608 0.278220 0.067996
O O17 0.500000 0.500000 0.500000
#
# Coordination Sequence:
#
# PCOD8027951 Si02
#       8
#     2   2   2   2   2   2   2   2
#     4  12  26  40  69  99 132 179 217 259 332 392
#     4  12  23  41  63 102 137 167 213 271 336 382
#     4  11  22  43  64  99 134 166 220 270 327 394
#     4   9  24  42  62  98 124 176 222 263 323 380
#     4  12  23  38  69 101 131 175 211 274 332 387
#     4   9  23  44  66  90 133 178 209 281 319 374
#     4  10  24  50  64  92 137 171 223 273 313 389
#     4  11  21  42  67  95 135 171 214 274 334 379
#
# _framework density 21.08989
#
# number of rings (size 3 to 8) (size 9 to 14) (size 15 to 20)
#    0.750    0.500    3.750    2.250    1.750    1.500 
#    2.250    0.625    0.000    0.000    0.000    0.000 
#    0.000    0.000    0.000    0.000    0.000    0.000 
#
# Total GULP energy -198342.950274 kJ/mol
# GULP energy per Si atom -12396.434392 kJ/mol
# Density = 2.104189 g / cm^3
# Si number density = 21.089890 Si / 1000 Ang^3
#
#
#
# Elastic Constant Matrix: (Units=GPa)
#
#
# Indices 1 2 3 4 5 6 
#
# 1 56.0775 -0.4876 39.3450 -8.5821 6.8817 -7.2930
# 2 -0.4876 55.5585 26.9051 -2.6003 2.4475 -6.6537
# 3 39.3450 26.9051 144.8120 -0.0157 -13.7785 0.3932
# 4 -8.5821 -2.6003 -0.0157 34.7254 -5.1554 -6.3479
# 5 6.8817 2.4475 -13.7785 -5.1554 38.4265 -3.7487
# 6 -7.2930 -6.6537 0.3932 -6.3479 -3.7487 24.6828
#
#
#
# Elastic Compliance Matrix: (Units=1/GPa)
#
#
# Indices 1 2 3 4 5 6 
#
# 1 0.028339 0.007026 -0.009673 0.008658 -0.006695 0.011631
# 2 0.007026 0.022631 -0.006475 0.004530 -0.003545 0.008906
# 3 -0.009673 -0.006475 0.011256 -0.002945 0.005324 -0.004731
# 4 0.008658 0.004530 -0.002945 0.034098 0.002952 0.013044
# 5 -0.006695 -0.003545 0.005324 0.002952 0.029977 0.002294
# 6 0.011631 0.008906 -0.004731 0.013044 0.002294 0.050130
#
#
# Mechanical properties :
#
#
# Convention : Reuss Voigt Hill
#
# Bulk Modulus (GPa) = 22.73591 43.10812 32.92202
# Shear Modulus (GPa) = 23.88520 32.27929 28.08225
#
# Velocity S-wave (km/s) = 3.36898 3.91648 3.65300
# Velocity P-wave (km/s) = 5.09286 6.39815 5.78245
#
# Compressibility (1/GPa) = 0.04398329
#
# Stress axis : x y z
#
# Youngs Moduli (GPa) = 35.28651 44.18731 88.84467
#
# Poissons Ratio (x) = -0.31046 0.85938
# Poissons Ratio (y) = -0.24792 0.57523
# Poissons Ratio (z) = 0.34132 0.28610
#
# Static dielectric constant tensor:
#      x y z
#    x 3.729800 -0.136450 -0.041500 
#    y -0.136450 3.566760 0.084270 
#    z -0.041500 0.084270 4.215420 
# 
# 
# High freq. dielectric constant tensor:
#      x y z
#    x 1.823020 -0.008250 -0.005820 
#    y -0.008250 1.806340 -0.000610 
#    z -0.005820 -0.000610 1.846540 
# 
# From -- ./inp_files/69170.got.cif
#   From: 2010.06.25/outbox.cif.g09.slc.cpg/sg2_35_cif.got.tgz:69170.got - 2010.06.27 13:26:56.
