data_PCOD8027613
_publ_section_title
;
Structure prediction by ZEFSAII (Michael W. Deem and Ramdas Pophale) SiO2 
 PCOD8027613
Probable space group: P -1
;
_chemical_formula_sum "Si O2"
_cell_formula_units_Z 14
_cell_length_a 8.421910
_cell_length_b 20.772668
_cell_length_c 11.999648
_cell_angle_alpha 32.761622
_cell_angle_beta 67.596252
_cell_angle_gamma 44.369398
_cell_volume 646.342377
_symmetry_space_group_name_H-M "P -1"
_symmetry_group_IT_number 2
_symmetry_cell_setting 'triclinic'
loop_
_space_group_symop_operation_xyz
x,y,z
-x,-y,-z
loop_
_atom_site_type_symbol
_atom_site_label
_atom_site_fract_x
_atom_site_fract_y
_atom_site_fract_z
Si Si1 0.957257 0.445243 0.481870
Si Si2 0.689776 0.621455 0.903621
Si Si3 0.707847 0.354540 0.252650
Si Si4 0.873301 0.922140 0.019847
Si Si5 0.542334 0.743330 0.513668
Si Si6 0.669669 0.019371 0.383280
Si Si7 0.651488 0.143642 0.982884
O O1 0.639438 0.629484 0.262601
O O2 0.000000 0.500000 0.500000
O O3 0.146190 0.401069 0.399766
O O4 0.025264 0.268818 0.732569
O O5 0.543988 0.732383 0.662847
O O6 0.483163 0.781842 0.818627
O O7 0.726035 0.464457 0.159285
O O8 0.000000 0.500000 0.000000
O O9 0.578857 0.316686 0.414269
O O10 0.500000 0.500000 0.000000
O O11 0.009671 0.159405 0.402644
O O12 0.673536 0.041647 0.790415
O O13 0.692333 0.053703 0.985911
O O14 0.125527 0.877212 0.015154
O O15 0.500000 0.000000 0.500000
O O16 0.667135 0.028816 0.236131
#
# Coordination Sequence:
#
# PCOD8027613 Si02
#       7
#     2   2   2   2   2   2   2
#     4  12  26  43  70 104 136 183 236 282 351 415
#     4  11  24  44  70 102 139 182 228 287 350 410
#     4  10  24  46  65  99 142 177 226 286 347 412
#     4  11  25  49  70 101 141 186 230 294 348 403
#     4  11  24  47  68 100 143 179 226 294 346 407
#     4  12  25  42  73 105 132 183 234 277 349 416
#     4  11  26  47  71 101 142 183 236 286 347 418
#
# _framework density 21.660347000000002
#
# number of rings (size 3 to 8) (size 9 to 14) (size 15 to 20)
#    0.000    0.857    4.286    1.714    4.000    4.571 
#    0.000    0.000    0.000    0.000    0.000    0.000 
#    0.000    0.000    0.000    0.000    0.000    0.000 
#
# Total GULP energy -173554.441635 kJ/mol
# GULP energy per Si atom -12396.745831 kJ/mol
# Density = 2.161105 g / cm^3
# Si number density = 21.660347 Si / 1000 Ang^3
#
#
#
# Elastic Constant Matrix: (Units=GPa)
#
#
# Indices 1 2 3 4 5 6 
#
# 1 93.2472 35.2629 55.1930 -7.3984 -4.3194 -12.3605
# 2 35.2629 89.5667 59.5896 -6.9544 -0.8706 -17.8304
# 3 55.1930 59.5896 144.3056 -15.0600 1.4981 -15.9429
# 4 -7.3984 -6.9544 -15.0600 49.1676 -4.8214 1.5289
# 5 -4.3194 -0.8706 1.4981 -4.8214 51.7015 -4.7648
# 6 -12.3605 -17.8304 -15.9429 1.5289 -4.7648 34.7165
#
#
#
# Elastic Compliance Matrix: (Units=1/GPa)
#
#
# Indices 1 2 3 4 5 6 
#
# 1 0.014583 -0.002379 -0.004305 0.000625 0.001562 0.002180
# 2 -0.002379 0.016805 -0.005414 0.000268 0.000763 0.005391
# 3 -0.004305 -0.005414 0.011085 0.001910 -0.000537 0.000620
# 4 0.000625 0.000268 0.001910 0.021237 0.002035 0.000581
# 5 0.001562 0.000763 -0.000537 0.002035 0.020000 0.003357
# 6 0.002180 0.005391 0.000620 0.000581 0.003357 0.033069
#
#
# Mechanical properties :
#
#
# Convention : Reuss Voigt Hill
#
# Bulk Modulus (GPa) = 54.71572 69.69006 62.20289
# Shear Modulus (GPa) = 33.99780 38.92206 36.45993
#
# Velocity S-wave (km/s) = 3.96610 4.24362 4.10720
# Velocity P-wave (km/s) = 6.80359 7.50033 7.16044
#
# Compressibility (1/GPa) = 0.01827628
#
# Stress axis : x y z
#
# Youngs Moduli (GPa) = 68.57210 59.50678 90.20967
#
# Poissons Ratio (x) = 0.14160 0.38838
# Poissons Ratio (y) = 0.16317 0.48837
# Poissons Ratio (z) = 0.29522 0.32215
#
# Static dielectric constant tensor:
#      x y z
#    x 4.846880 -0.475110 -0.691160 
#    y -0.475110 4.139860 0.119620 
#    z -0.691160 0.119620 4.782480 
# 
# 
# High freq. dielectric constant tensor:
#      x y z
#    x 1.864310 -0.018620 0.002170 
#    y -0.018620 1.843650 -0.003460 
#    z 0.002170 -0.003460 1.870880 
# 
# From -- ./inp_files/279926.got.cif
#   From: 2010.06.25/outbox.cif.g09.slc.cpg/sg2_140_cif.got.tgz:279926.got - 2010.06.27 13:26:56.
