data_PCOD8027759
_publ_section_title
;
Structure prediction by ZEFSAII (Michael W. Deem and Ramdas Pophale) SiO2 
 PCOD8027759
Probable space group: P -1
;
_chemical_formula_sum "Si O2"
_cell_formula_units_Z 14
_cell_length_a 9.764243
_cell_length_b 16.018396
_cell_length_c 15.976761
_cell_angle_alpha 154.621932
_cell_angle_beta 143.168901
_cell_angle_gamma 35.977928
_cell_volume 604.912740
_symmetry_space_group_name_H-M "P -1"
_symmetry_group_IT_number 2
_symmetry_cell_setting 'triclinic'
loop_
_space_group_symop_operation_xyz
x,y,z
-x,-y,-z
loop_
_atom_site_type_symbol
_atom_site_label
_atom_site_fract_x
_atom_site_fract_y
_atom_site_fract_z
Si Si1 0.043000 0.439893 0.561341
Si Si2 0.278893 0.674230 0.010042
Si Si3 0.725090 0.516161 0.862245
Si Si4 0.843016 0.187664 0.750852
Si Si5 0.534638 0.970320 0.624852
Si Si6 0.358644 0.031445 0.776920
Si Si7 0.472938 0.404383 0.487012
O O1 0.225523 0.210292 0.449089
O O2 0.000000 0.500000 0.500000
O O3 0.785048 0.445019 0.473013
O O4 0.132606 0.601976 0.802797
O O5 0.094750 0.766875 0.082318
O O6 0.400660 0.823898 0.160957
O O7 0.500000 0.500000 0.000000
O O8 0.662508 0.397374 0.804687
O O9 0.686602 0.407929 0.659366
O O10 0.567091 0.760607 0.995144
O O11 0.000000 0.500000 0.000000
O O12 0.685956 0.033773 0.547475
O O13 0.078350 0.087229 0.717786
O O14 0.422997 0.941289 0.633693
O O15 0.512474 0.837089 0.734244
O O16 0.500000 0.500000 0.500000
#
# Coordination Sequence:
#
# PCOD8027759 Si02
#       7
#     2   2   2   2   2   2   2
#     4  12  28  52  70 104 152 197 240 292 370 440
#     4  12  28  46  76 109 147 188 249 301 357 434
#     4  10  24  46  75 105 142 183 238 298 363 430
#     4  11  23  47  75 115 140 183 250 311 357 419
#     4  12  25  46  75 107 145 196 240 298 367 430
#     4  11  25  44  76 104 145 190 239 298 369 420
#     4  12  29  48  72 107 148 190 243 301 357 433
#
# _framework density 23.143833999999998
#
# number of rings (size 3 to 8) (size 9 to 14) (size 15 to 20)
#    0.000    0.571    4.286    1.714   10.000    2.286 
#    0.000    0.000    0.000    0.000    0.000    0.000 
#    0.000    0.000    0.000    0.000    0.000    0.000 
#
# Total GULP energy -173484.452632 kJ/mol
# GULP energy per Si atom -12391.746617 kJ/mol
# Density = 2.309116 g / cm^3
# Si number density = 23.143834 Si / 1000 Ang^3
#
#
#
# Elastic Constant Matrix: (Units=GPa)
#
#
# Indices 1 2 3 4 5 6 
#
# 1 157.5339 65.9507 52.7337 -2.8726 -5.9940 2.4617
# 2 65.9507 91.8111 51.1125 8.7492 -3.7580 2.9079
# 3 52.7337 51.1125 133.6535 -5.9111 -4.5100 14.4906
# 4 -2.8726 8.7492 -5.9111 48.2979 4.4567 -4.4430
# 5 -5.9940 -3.7580 -4.5100 4.4567 33.3053 -2.7329
# 6 2.4617 2.9079 14.4906 -4.4430 -2.7329 47.7709
#
#
#
# Elastic Compliance Matrix: (Units=1/GPa)
#
#
# Indices 1 2 3 4 5 6 
#
# 1 0.009412 -0.006156 -0.001322 0.001495 0.000659 0.000467
# 2 -0.006156 0.018438 -0.004817 -0.004353 0.000928 0.000304
# 3 -0.001322 -0.004817 0.010208 0.001794 0.000151 -0.002560
# 4 0.001495 -0.004353 0.001794 0.022205 -0.002824 0.001547
# 5 0.000659 0.000928 0.000151 -0.002824 0.030758 0.001361
# 6 0.000467 0.000304 -0.002560 0.001547 0.001361 0.021889
#
#
# Mechanical properties :
#
#
# Convention : Reuss Voigt Hill
#
# Bulk Modulus (GPa) = 74.24054 80.28804 77.26429
# Shear Modulus (GPa) = 35.21394 40.08826 37.65110
#
# Velocity S-wave (km/s) = 3.90491 4.16641 4.03777
# Velocity P-wave (km/s) = 7.24421 7.60996 7.42934
#
# Compressibility (1/GPa) = 0.01346973
#
# Stress axis : x y z
#
# Youngs Moduli (GPa) = 106.24294 54.23438 97.96599
#
# Poissons Ratio (x) = 0.33384 0.12951
# Poissons Ratio (y) = 0.65399 0.47188
# Poissons Ratio (z) = 0.14045 0.26124
#
# Static dielectric constant tensor:
#      x y z
#    x 4.883690 -0.338800 -0.640130 
#    y -0.338800 4.954560 0.918430 
#    z -0.640130 0.918430 5.161280 
# 
# 
# High freq. dielectric constant tensor:
#      x y z
#    x 1.931760 0.005700 -0.000280 
#    y 0.005700 1.901850 0.015880 
#    z -0.000280 0.015880 1.920210 
# 
# From -- ./inp_files/506001.got.cif
#   From: 2010.06.25/outbox.cif.g09.slc.cpg/sg2_254_cif.got.tgz:506001.got - 2010.06.27 13:26:56.
