data_PCOD8027121
_publ_section_title
;
Structure prediction by ZEFSAII (Michael W. Deem and Ramdas Pophale) SiO2 
 PCOD8027121
Probable space group: P -1
;
_chemical_formula_sum "Si O2"
_cell_formula_units_Z 12
_cell_length_a 14.479179
_cell_length_b 5.227842
_cell_length_c 9.324735
_cell_angle_alpha 71.227226
_cell_angle_beta 131.301395
_cell_angle_gamma 96.868424
_cell_volume 497.755679
_symmetry_space_group_name_H-M "P -1"
_symmetry_group_IT_number 2
_symmetry_cell_setting 'triclinic'
loop_
_space_group_symop_operation_xyz
x,y,z
-x,-y,-z
loop_
_atom_site_type_symbol
_atom_site_label
_atom_site_fract_x
_atom_site_fract_y
_atom_site_fract_z
Si Si1 0.250123 0.490562 0.769072
Si Si2 0.270775 0.846497 0.475912
Si Si3 0.576646 0.206452 0.622215
Si Si4 0.117866 0.963814 0.727300
Si Si5 0.978525 0.812124 0.879944
Si Si6 0.475765 0.095289 0.117962
O O1 0.230304 0.585876 0.565376
O O2 0.219949 0.744319 0.798798
O O3 0.165873 0.253173 0.748394
O O4 0.394283 0.390891 0.971265
O O5 0.299108 0.777713 0.348775
O O6 0.393044 0.914861 0.669087
O O7 0.162397 0.100178 0.335189
O O8 0.500000 0.500000 0.500000
O O9 0.500000 0.000000 0.500000
O O10 0.605004 0.096276 0.833605
O O11 0.081460 0.852314 0.861745
O O12 0.000000 0.000000 0.500000
O O13 0.000000 0.500000 0.000000
O O14 0.000000 0.000000 0.000000
O O15 0.500000 0.000000 0.000000
#
# Coordination Sequence:
#
# PCOD8027121 Si02
#       6
#     2   2   2   2   2   2
#     4  12  26  46  81 111 150 194 253 310 373 450
#     4  11  26  50  74 111 155 196 248 314 378 446
#     4  10  24  44  68 102 147 192 239 296 367 437
#     4  12  27  50  77 108 151 199 253 311 371 435
#     4  12  30  50  77 109 151 201 255 308 374 448
#     4  11  25  47  78 115 149 198 250 310 379 448
#
# _framework density 24.108215000000001
#
# number of rings (size 3 to 8) (size 9 to 14) (size 15 to 20)
#    0.000    0.667    1.667    4.000    7.000    8.000 
#    0.000    0.000    0.000    0.000    0.000    0.000 
#    0.000    0.000    0.000    0.000    0.000    0.000 
#
# Total GULP energy -148794.465774 kJ/mol
# GULP energy per Si atom -12399.538814 kJ/mol
# Density = 2.405334 g / cm^3
# Si number density = 24.108215 Si / 1000 Ang^3
#
#
#
# Elastic Constant Matrix: (Units=GPa)
#
#
# Indices 1 2 3 4 5 6 
#
# 1 187.9952 45.5481 70.2637 -26.9706 -38.4942 -7.8599
# 2 45.5481 120.4939 44.4955 -28.4312 -12.2282 -3.6057
# 3 70.2637 44.4955 151.9474 -31.2959 -7.4686 -5.6100
# 4 -26.9706 -28.4312 -31.2959 51.5490 -0.7772 1.8566
# 5 -38.4942 -12.2282 -7.4686 -0.7772 70.5031 -5.6653
# 6 -7.8599 -3.6057 -5.6100 1.8566 -5.6653 46.0268
#
#
#
# Elastic Compliance Matrix: (Units=1/GPa)
#
#
# Indices 1 2 3 4 5 6 
#
# 1 0.007661 -0.001066 -0.002613 0.001845 0.003846 0.001305
# 2 -0.001066 0.010421 -0.001621 0.004208 0.001132 0.000406
# 3 -0.002613 -0.001621 0.008881 0.003109 -0.000709 0.000296
# 4 0.001845 0.004208 0.003109 0.024596 0.002363 0.000322
# 5 0.003846 0.001132 -0.000709 0.002363 0.016641 0.002612
# 6 0.001305 0.000406 0.000296 0.000322 0.002612 0.022326
#
#
# Mechanical properties :
#
#
# Convention : Reuss Voigt Hill
#
# Bulk Modulus (GPa) = 61.11969 86.78346 73.95158
# Shear Modulus (GPa) = 46.91252 53.62441 50.26846
#
# Velocity S-wave (km/s) = 4.41604 4.72139 4.57126
# Velocity P-wave (km/s) = 7.17001 8.11157 7.65528
#
# Compressibility (1/GPa) = 0.01636134
#
# Stress axis : x y z
#
# Youngs Moduli (GPa) = 130.52869 95.96135 112.60269
#
# Poissons Ratio (x) = 0.10233 0.29426
# Poissons Ratio (y) = 0.13919 0.18255
# Poissons Ratio (z) = 0.34110 0.15557
#
# Static dielectric constant tensor:
#      x y z
#    x 6.107460 -0.190130 -0.114290 
#    y -0.190130 3.464360 0.542970 
#    z -0.114290 0.542970 3.812040 
# 
# 
# High freq. dielectric constant tensor:
#      x y z
#    x 1.987460 -0.001550 -0.010480 
#    y -0.001550 1.946680 -0.014710 
#    z -0.010480 -0.014710 1.972280 
# 
# From -- ./inp_files/288410.got.cif
#   From: 2010.06.25/outbox.cif.g09.slc.cpg/sg2_145_cif.got.tgz:288410.got - 2010.06.27 13:26:56.
