data_PCOD8027015
_publ_section_title
;
Structure prediction by ZEFSAII (Michael W. Deem and Ramdas Pophale) SiO2 
 PCOD8027015
Probable space group: P -1
;
_chemical_formula_sum "Si O2"
_cell_formula_units_Z 16
_cell_length_a 12.135895
_cell_length_b 8.193544
_cell_length_c 11.058543
_cell_angle_alpha 119.135582
_cell_angle_beta 127.042256
_cell_angle_gamma 86.773720
_cell_volume 720.987803
_symmetry_space_group_name_H-M "P -1"
_symmetry_group_IT_number 2
_symmetry_cell_setting 'triclinic'
loop_
_space_group_symop_operation_xyz
x,y,z
-x,-y,-z
loop_
_atom_site_type_symbol
_atom_site_label
_atom_site_fract_x
_atom_site_fract_y
_atom_site_fract_z
Si Si1 0.897757 0.299578 0.618986
Si Si2 0.173375 0.107125 0.454863
Si Si3 0.604661 0.720468 0.130939
Si Si4 0.794599 0.589729 0.060560
Si Si5 0.208255 0.022689 0.190832
Si Si6 0.340031 0.810653 0.044991
Si Si7 0.091819 0.731517 0.648332
Si Si8 0.913812 0.681402 0.905409
O O1 0.827386 0.221791 0.412639
O O2 0.863398 0.492686 0.713760
O O3 0.072085 0.355127 0.736155
O O4 0.844925 0.120377 0.612964
O O5 0.284055 0.247801 0.672308
O O6 0.016147 0.140590 0.356029
O O7 0.248776 0.144340 0.386057
O O8 0.701442 0.739436 0.078040
O O9 0.500000 0.500000 0.000000
O O10 0.502429 0.859044 0.110174
O O11 0.687787 0.372969 0.948097
O O12 0.863907 0.600655 0.977666
O O13 0.159779 0.157673 0.114306
O O14 0.346944 0.992885 0.204428
O O15 0.088063 0.800593 0.051903
O O16 0.214491 0.782701 0.851323
O O17 0.000000 0.500000 0.500000
#
# Coordination Sequence:
#
# PCOD8027015 Si02
#       8
#     2   2   2   2   2   2   2   2
#     4  12  22  37  64  99 130 159 213 270 319 367
#     4  12  24  39  67  96 126 165 216 268 314 372
#     4  10  24  44  64  90 128 176 209 251 319 391
#     4  11  20  40  65  92 128 169 209 260 317 378
#     4  11  22  38  63  96 130 165 213 263 322 373
#     4  11  23  41  65  92 131 173 210 253 322 383
#     4  12  21  38  63  95 128 161 213 269 310 366
#     4  11  22  38  63 100 132 163 206 275 323 365
#
# _framework density 22.191776999999998
#
# number of rings (size 3 to 8) (size 9 to 14) (size 15 to 20)
#    0.000    0.750    5.000    4.500    0.000    0.500 
#    0.000    2.500    0.000    4.500    0.000    0.000 
#    0.000    0.000    0.000    0.000    0.000    0.000 
#
# Total GULP energy -198262.721306 kJ/mol
# GULP energy per Si atom -12391.420082 kJ/mol
# Density = 2.214127 g / cm^3
# Si number density = 22.191777 Si / 1000 Ang^3
#
#
#
# Elastic Constant Matrix: (Units=GPa)
#
#
# Indices 1 2 3 4 5 6 
#
# 1 146.8679 37.4408 41.5506 -13.0537 -20.9879 -43.5003
# 2 37.4408 73.5252 17.8370 -8.3371 -8.6010 -10.2690
# 3 41.5506 17.8370 76.4477 -11.3814 -16.8822 -16.2531
# 4 -13.0537 -8.3371 -11.3814 29.7917 -1.0877 -1.7452
# 5 -20.9879 -8.6010 -16.8822 -1.0877 35.9081 -0.3394
# 6 -43.5003 -10.2690 -16.2531 -1.7452 -0.3394 34.3008
#
#
#
# Elastic Compliance Matrix: (Units=1/GPa)
#
#
# Indices 1 2 3 4 5 6 
#
# 1 0.014905 -0.003200 -0.000778 0.006683 0.007952 0.017994
# 2 -0.003200 0.016049 -0.001203 0.002703 0.001493 0.000329
# 3 -0.000778 -0.001203 0.018281 0.007058 0.008139 0.007756
# 4 0.006683 0.002703 0.007058 0.041153 0.009258 0.014814
# 5 0.007952 0.001493 0.008139 0.009258 0.037105 0.015227
# 6 0.017994 0.000329 0.007756 0.014814 0.015227 0.056652
#
#
# Mechanical properties :
#
#
# Convention : Reuss Voigt Hill
#
# Bulk Modulus (GPa) = 25.72459 54.49972 40.11215
# Shear Modulus (GPa) = 24.10042 33.33428 28.71735
#
# Velocity S-wave (km/s) = 3.29904 3.87990 3.60120
# Velocity P-wave (km/s) = 5.11162 6.68456 5.95029
#
# Compressibility (1/GPa) = 0.03887332
#
# Stress axis : x y z
#
# Youngs Moduli (GPa) = 67.09369 62.30791 54.70043
#
# Poissons Ratio (x) = 0.19938 0.04254
# Poissons Ratio (y) = 0.21470 0.06582
# Poissons Ratio (z) = 0.05218 0.07498
#
# Static dielectric constant tensor:
#      x y z
#    x 4.817390 -0.428940 0.076240 
#    y -0.428940 4.191500 -0.209510 
#    z 0.076240 -0.209510 4.147680 
# 
# 
# High freq. dielectric constant tensor:
#      x y z
#    x 1.878130 -0.014250 -0.031180 
#    y -0.014250 1.877670 0.001310 
#    z -0.031180 0.001310 1.849550 
# 
# From -- ./inp_files/419822.got.cif
#   From: 2010.06.25/outbox.cif.g09.slc.cpg/sg2_210_cif.got.tgz:419822.got - 2010.06.27 13:26:56.
