data_PCOD8027192
_publ_section_title
;
Structure prediction by ZEFSAII (Michael W. Deem and Ramdas Pophale) SiO2 
 PCOD8027192
Probable space group: P -1
;
_chemical_formula_sum "Si O2"
_cell_formula_units_Z 14
_cell_length_a 16.918849
_cell_length_b 11.573002
_cell_length_c 8.687391
_cell_angle_alpha 145.213211
_cell_angle_beta 54.214493
_cell_angle_gamma 142.826964
_cell_volume 574.283564
_symmetry_space_group_name_H-M "P -1"
_symmetry_group_IT_number 2
_symmetry_cell_setting 'triclinic'
loop_
_space_group_symop_operation_xyz
x,y,z
-x,-y,-z
loop_
_atom_site_type_symbol
_atom_site_label
_atom_site_fract_x
_atom_site_fract_y
_atom_site_fract_z
Si Si1 0.131549 0.609996 0.392999
Si Si2 0.695397 0.234012 0.358924
Si Si3 0.075757 0.402480 0.752446
Si Si4 0.136834 0.242935 0.795287
Si Si5 0.724377 0.933576 0.512188
Si Si6 0.547284 0.425306 0.726433
Si Si7 0.385437 0.227387 0.233682
O O1 0.258465 0.804297 0.575603
O O2 0.000000 0.500000 0.500000
O O3 0.157388 0.786895 0.407641
O O4 0.099945 0.334086 0.079625
O O5 0.827822 0.434797 0.324578
O O6 0.624529 0.340124 0.605702
O O7 0.584338 0.942095 0.073866
O O8 0.161057 0.423022 0.817639
O O9 0.968972 0.083330 0.472842
O O10 0.000000 0.500000 0.000000
O O11 0.268868 0.303487 0.764053
O O12 0.584694 0.820865 0.487296
O O13 0.735631 0.994221 0.751490
O O14 0.651401 0.677795 0.763456
O O15 0.500000 0.500000 0.000000
O O16 0.500000 0.500000 0.500000
#
# Coordination Sequence:
#
# PCOD8027192 Si02
#       7
#     2   2   2   2   2   2   2
#     4  12  27  43  67 103 142 184 233 285 347 420
#     4  12  25  43  70 101 140 183 229 288 352 411
#     4  11  24  44  71 102 135 180 235 290 347 413
#     4  11  23  42  69  96 135 182 228 284 350 406
#     4  11  24  43  67  97 137 180 230 285 343 415
#     4  11  25  44  68 100 137 180 232 286 346 415
#     4  10  24  44  69  99 133 177 232 283 340 411
#
# _framework density 24.378201000000001
#
# number of rings (size 3 to 8) (size 9 to 14) (size 15 to 20)
#    0.000    0.857    0.000    6.857    0.000   13.714 
#    0.000    0.000    0.000    0.000    0.000    0.000 
#    0.000    0.000    0.000    0.000    0.000    0.000 
#
# Total GULP energy -173438.618887 kJ/mol
# GULP energy per Si atom -12388.472778 kJ/mol
# Density = 2.432272 g / cm^3
# Si number density = 24.378201 Si / 1000 Ang^3
#
#
#
# Elastic Constant Matrix: (Units=GPa)
#
#
# Indices 1 2 3 4 5 6 
#
# 1 128.5332 44.6592 56.8521 -11.7763 -22.4940 -14.4880
# 2 44.6592 120.6076 43.9993 -18.2401 -5.2557 -26.7887
# 3 56.8521 43.9993 184.9533 -24.2324 -8.8348 -8.5069
# 4 -11.7763 -18.2401 -24.2324 34.2170 3.9077 -3.6680
# 5 -22.4940 -5.2557 -8.8348 3.9077 44.0961 -3.0372
# 6 -14.4880 -26.7887 -8.5069 -3.6680 -3.0372 38.1363
#
#
#
# Elastic Compliance Matrix: (Units=1/GPa)
#
#
# Indices 1 2 3 4 5 6 
#
# 1 0.010798 -0.002319 -0.002358 0.000509 0.004879 0.002385
# 2 -0.002319 0.012198 -0.001055 0.005806 0.000097 0.008018
# 3 -0.002358 -0.001055 0.006841 0.003523 -0.000256 0.000208
# 4 0.000509 0.005806 0.003523 0.036004 -0.000952 0.008444
# 5 0.004879 0.000097 -0.000256 -0.000952 0.025473 0.003802
# 6 0.002385 0.008018 0.000208 0.008444 0.003802 0.033921
#
#
# Mechanical properties :
#
#
# Convention : Reuss Voigt Hill
#
# Bulk Modulus (GPa) = 54.42578 80.56838 67.49708
# Shear Modulus (GPa) = 35.00806 42.52878 38.76842
#
# Velocity S-wave (km/s) = 3.79362 4.18130 3.99217
# Velocity P-wave (km/s) = 6.44692 7.51213 6.99982
#
# Compressibility (1/GPa) = 0.01837365
#
# Stress axis : x y z
#
# Youngs Moduli (GPa) = 92.60974 81.97974 146.16751
#
# Poissons Ratio (x) = 0.19010 0.34469
# Poissons Ratio (y) = 0.21475 0.15420
# Poissons Ratio (z) = 0.21839 0.08649
#
# Static dielectric constant tensor:
#      x y z
#    x 4.801920 -0.466040 0.015670 
#    y -0.466040 4.802020 -0.050690 
#    z 0.015670 -0.050690 4.626970 
# 
# 
# High freq. dielectric constant tensor:
#      x y z
#    x 1.970470 -0.021540 0.003160 
#    y -0.021540 1.971120 -0.005140 
#    z 0.003160 -0.005140 1.984680 
# 
# From -- ./inp_files/95394.got.cif
#   From: 2010.06.25/outbox.cif.g09.slc.cpg/sg2_48_cif.got.tgz:95394.got - 2010.06.27 13:26:56.
