data_PCOD8027230
_publ_section_title
;
Structure prediction by ZEFSAII (Michael W. Deem and Ramdas Pophale) SiO2 
 PCOD8027230
Probable space group: P -1
;
_chemical_formula_sum "Si O2"
_cell_formula_units_Z 16
_cell_length_a 14.660956
_cell_length_b 11.175481
_cell_length_c 14.733434
_cell_angle_alpha 122.740519
_cell_angle_beta 151.003482
_cell_angle_gamma 41.103827
_cell_volume 714.413147
_symmetry_space_group_name_H-M "P -1"
_symmetry_group_IT_number 2
_symmetry_cell_setting 'triclinic'
loop_
_space_group_symop_operation_xyz
x,y,z
-x,-y,-z
loop_
_atom_site_type_symbol
_atom_site_label
_atom_site_fract_x
_atom_site_fract_y
_atom_site_fract_z
Si Si1 0.203521 0.700166 0.828972
Si Si2 0.388023 0.049650 0.824597
Si Si3 0.083551 0.211242 0.198956
Si Si4 0.121648 0.060509 0.858756
Si Si5 0.852522 0.369803 0.443451
Si Si6 0.485380 0.237388 0.597109
Si Si7 0.269131 0.786447 0.575578
Si Si8 0.265855 0.634403 0.214089
O O1 0.080529 0.699519 0.630675
O O2 0.052398 0.719030 0.792360
O O3 0.170617 0.886082 0.878848
O O4 0.500000 0.500000 0.000000
O O5 0.302019 0.936334 0.676645
O O6 0.605685 0.000018 0.928500
O O7 0.126935 0.280919 0.687118
O O8 0.500000 0.000000 0.000000
O O9 0.266795 0.253101 0.368429
O O10 0.265045 0.980273 0.240947
O O11 0.861399 0.334337 0.981193
O O12 0.989147 0.111192 0.665642
O O13 0.943421 0.254218 0.843776
O O14 0.637879 0.606240 0.363209
O O15 0.756226 0.278204 0.375473
O O16 0.581755 0.294892 0.626977
O O17 0.528160 0.594266 0.673557
#
# Coordination Sequence:
#
# PCOD8027230 Si02
#       8
#     2   2   2   2   2   2   2   2
#     4  12  26  44  69 104 141 182 227 281 338 410
#     4  12  25  42  71 100 138 178 224 280 346 411
#     4  11  25  46  70  99 138 182 229 277 338 406
#     4  12  26  44  69 101 138 179 227 281 345 404
#     4  11  24  45  72 100 139 179 226 285 342 400
#     4  10  24  44  70  97 135 179 227 277 336 401
#     4  11  24  47  68 100 137 176 227 285 343 401
#     4  11  25  44  73  96 135 179 228 285 337 402
#
# _framework density 22.396006
#
# number of rings (size 3 to 8) (size 9 to 14) (size 15 to 20)
#    0.000    0.750    3.750    3.375    5.250    4.000 
#    0.000    0.000    0.000    0.000    0.000    0.000 
#    0.000    0.000    0.000    0.000    0.000    0.000 
#
# Total GULP energy -198417.773568 kJ/mol
# GULP energy per Si atom -12401.110848 kJ/mol
# Density = 2.234503 g / cm^3
# Si number density = 22.396006 Si / 1000 Ang^3
#
#
#
# Elastic Constant Matrix: (Units=GPa)
#
#
# Indices 1 2 3 4 5 6 
#
# 1 71.3593 9.6531 25.6232 8.6522 11.2129 -19.1638
# 2 9.6531 74.0783 22.0201 -7.1282 13.0405 -11.9789
# 3 25.6232 22.0201 113.0732 -6.8145 13.4311 -2.5694
# 4 8.6522 -7.1282 -6.8145 38.4269 -7.0278 3.5826
# 5 11.2129 13.0405 13.4311 -7.0278 38.5607 -7.2730
# 6 -19.1638 -11.9789 -2.5694 3.5826 -7.2730 30.9713
#
#
#
# Elastic Compliance Matrix: (Units=1/GPa)
#
#
# Indices 1 2 3 4 5 6 
#
# 1 0.020253 0.000624 -0.004437 -0.007027 -0.003497 0.012397
# 2 0.000624 0.015769 -0.002617 0.001206 -0.003377 0.005336
# 3 -0.004437 -0.002617 0.010632 0.002410 -0.001762 -0.003568
# 4 -0.007027 0.001206 0.002410 0.029742 0.005099 -0.005925
# 5 -0.003497 -0.003377 -0.001762 0.005099 0.030178 0.002881
# 6 0.012397 0.005336 -0.003568 -0.005925 0.002881 0.043088
#
#
# Mechanical properties :
#
#
# Convention : Reuss Voigt Hill
#
# Bulk Modulus (GPa) = 29.59168 41.45597 35.52382
# Shear Modulus (GPa) = 28.77054 35.00606 31.88830
#
# Velocity S-wave (km/s) = 3.58806 3.95783 3.77747
# Velocity P-wave (km/s) = 5.51427 6.27985 5.90947
#
# Compressibility (1/GPa) = 0.03379329
#
# Stress axis : x y z
#
# Youngs Moduli (GPa) = 49.37483 63.41498 94.05136
#
# Poissons Ratio (x) = -0.03957 0.41734
# Poissons Ratio (y) = -0.03081 0.24616
# Poissons Ratio (z) = 0.21910 0.16598
#
# Static dielectric constant tensor:
#      x y z
#    x 3.952500 0.020900 0.343760 
#    y 0.020900 4.208000 -0.329120 
#    z 0.343760 -0.329120 4.428510 
# 
# 
# High freq. dielectric constant tensor:
#      x y z
#    x 1.874210 -0.009350 0.012990 
#    y -0.009350 1.893090 -0.015670 
#    z 0.012990 -0.015670 1.895240 
# 
# From -- ./inp_files/532642.got.cif
#   From: 2010.06.25/outbox.cif.g09.slc.cpg/sg2_267_cif.got.tgz:532642.got - 2010.06.27 13:26:56.
