data_PCOD8027872
_publ_section_title
;
Structure prediction by ZEFSAII (Michael W. Deem and Ramdas Pophale) SiO2 
 PCOD8027872
Probable space group: P -1
;
_chemical_formula_sum "Si O2"
_cell_formula_units_Z 16
_cell_length_a 12.206225
_cell_length_b 5.253720
_cell_length_c 11.224474
_cell_angle_alpha 78.324079
_cell_angle_beta 68.749169
_cell_angle_gamma 79.202474
_cell_volume 651.834227
_symmetry_space_group_name_H-M "P -1"
_symmetry_group_IT_number 2
_symmetry_cell_setting 'triclinic'
loop_
_space_group_symop_operation_xyz
x,y,z
-x,-y,-z
loop_
_atom_site_type_symbol
_atom_site_label
_atom_site_fract_x
_atom_site_fract_y
_atom_site_fract_z
Si Si1 0.135095 0.897636 0.943293
Si Si2 0.299246 0.163910 0.703235
Si Si3 0.315179 0.455286 0.906267
Si Si4 0.066118 0.214783 0.387535
Si Si5 0.753721 0.959324 0.870588
Si Si6 0.174609 0.503277 0.520281
Si Si7 0.494118 0.758438 0.711888
Si Si8 0.640016 0.215672 0.681365
O O1 0.177505 0.590227 0.928463
O O2 0.178611 0.058810 0.800871
O O3 0.201787 0.930030 0.036629
O O4 0.000000 0.000000 0.000000
O O5 0.354133 0.297707 0.783948
O O6 0.269222 0.352668 0.586909
O O7 0.399826 0.926326 0.643635
O O8 0.408802 0.670347 0.861251
O O9 0.319533 0.279475 0.040144
O O10 0.132373 0.129819 0.247926
O O11 0.161020 0.332285 0.423492
O O12 0.955158 0.432823 0.375365
O O13 0.000000 0.000000 0.500000
O O14 0.665959 0.182524 0.816071
O O15 0.232809 0.767675 0.435323
O O16 0.560969 0.490566 0.655598
O O17 0.589206 0.949090 0.692090
#
# Coordination Sequence:
#
# PCOD8027872 Si02
#       8
#     2   2   2   2   2   2   2   2
#     4  10  25  41  71 107 144 192 242 299 365 440
#     4  10  24  48  68 107 145 196 242 306 362 435
#     4  10  24  48  71 106 148 189 246 302 370 434
#     4  11  25  46  69 109 151 191 238 302 371 439
#     4  11  26  44  73 107 147 189 244 300 368 446
#     4  11  27  44  75 106 148 193 247 299 369 442
#     4  11  25  50  73 108 147 190 257 304 368 425
#     4  12  26  47  75 109 145 197 248 305 367 434
#
# _framework density 24.546120999999999
#
# number of rings (size 3 to 8) (size 9 to 14) (size 15 to 20)
#    0.000    1.250    2.500    0.750    8.750    4.000 
#    0.000    0.000    0.000    0.000    0.000    0.000 
#    0.000    0.000    0.000    0.000    0.000    0.000 
#
# Total GULP energy -198223.457116 kJ/mol
# GULP energy per Si atom -12388.966070 kJ/mol
# Density = 2.449025 g / cm^3
# Si number density = 24.546121 Si / 1000 Ang^3
#
#
#
# Elastic Constant Matrix: (Units=GPa)
#
#
# Indices 1 2 3 4 5 6 
#
# 1 97.5359 27.7567 34.3578 -19.3790 -22.6325 -1.6257
# 2 27.7567 101.7710 21.4154 -12.3855 -11.9078 -2.9221
# 3 34.3578 21.4154 99.0083 -27.5569 -9.4497 -1.0143
# 4 -19.3790 -12.3855 -27.5569 42.4095 -8.4733 -10.1639
# 5 -22.6325 -11.9078 -9.4497 -8.4733 33.7825 -7.9986
# 6 -1.6257 -2.9221 -1.0143 -10.1639 -7.9986 32.5845
#
#
#
# Elastic Compliance Matrix: (Units=1/GPa)
#
#
# Indices 1 2 3 4 5 6 
#
# 1 0.017065 -0.000885 -0.000670 0.012362 0.016058 0.008549
# 2 -0.000885 0.011454 -0.000288 0.004753 0.005455 0.003796
# 3 -0.000670 -0.000288 0.014626 0.012207 0.008067 0.006184
# 4 0.012362 0.004753 0.012207 0.051015 0.032140 0.025225
# 5 0.016058 0.005455 0.008067 0.032140 0.058753 0.025989
# 6 0.008549 0.003796 0.006184 0.025225 0.025989 0.045897
#
#
# Mechanical properties :
#
#
# Convention : Reuss Voigt Hill
#
# Bulk Modulus (GPa) = 25.34228 51.70832 38.52530
# Shear Modulus (GPa) = 23.18600 36.07432 29.63016
#
# Velocity S-wave (km/s) = 3.07675 3.83777 3.47814
# Velocity P-wave (km/s) = 4.79256 6.38353 5.64438
#
# Compressibility (1/GPa) = 0.03945975
#
# Stress axis : x y z
#
# Youngs Moduli (GPa) = 58.59954 87.30935 68.37230
#
# Poissons Ratio (x) = 0.07723 0.04579
# Poissons Ratio (y) = 0.05184 0.01969
# Poissons Ratio (z) = 0.03925 0.02514
#
# Static dielectric constant tensor:
#      x y z
#    x 4.595700 -0.241250 -0.401610 
#    y -0.241250 4.822760 -0.222220 
#    z -0.401610 -0.222220 4.375720 
# 
# 
# High freq. dielectric constant tensor:
#      x y z
#    x 1.973270 -0.016950 -0.026600 
#    y -0.016950 1.990810 -0.013560 
#    z -0.026600 -0.013560 1.968910 
# 
# From -- ./inp_files/410021.got.cif
#   From: 2010.06.25/outbox.cif.g09.slc.cpg/sg2_206_cif.got.tgz:410021.got - 2010.06.27 13:26:56.
