data_PCOD8027264
_publ_section_title
;
Structure prediction by ZEFSAII (Michael W. Deem and Ramdas Pophale) SiO2 
 PCOD8027264
Probable space group: P -1
;
_chemical_formula_sum "Si O2"
_cell_formula_units_Z 16
_cell_length_a 11.183986
_cell_length_b 7.750534
_cell_length_c 13.480897
_cell_angle_alpha 115.388075
_cell_angle_beta 96.563438
_cell_angle_gamma 42.912349
_cell_volume 679.862615
_symmetry_space_group_name_H-M "P -1"
_symmetry_group_IT_number 2
_symmetry_cell_setting 'triclinic'
loop_
_space_group_symop_operation_xyz
x,y,z
-x,-y,-z
loop_
_atom_site_type_symbol
_atom_site_label
_atom_site_fract_x
_atom_site_fract_y
_atom_site_fract_z
Si Si1 0.908715 0.819542 0.466270
Si Si2 0.990219 0.473579 0.217425
Si Si3 0.334344 0.374748 0.826668
Si Si4 0.923400 0.276262 0.846034
Si Si5 0.834126 0.014415 0.018677
Si Si6 0.465587 0.347085 0.019804
Si Si7 0.514482 0.192404 0.590280
Si Si8 0.163200 0.771036 0.599173
O O1 0.986047 0.534894 0.348770
O O2 0.075688 0.688508 0.519727
O O3 0.725570 0.007073 0.559422
O O4 0.849644 0.039653 0.430822
O O5 0.776249 0.686491 0.220241
O O6 0.078466 0.537292 0.178090
O O7 0.105409 0.140527 0.122977
O O8 0.193005 0.723780 0.924839
O O9 0.461008 0.274577 0.720595
O O10 0.456557 0.195865 0.894450
O O11 0.715675 0.446090 0.878118
O O12 0.009509 0.233716 0.948954
O O13 0.047035 0.957885 0.733051
O O14 0.644593 0.124127 0.054299
O O15 0.500000 0.500000 0.000000
O O16 0.375835 0.485277 0.581289
O O17 0.500000 0.000000 0.500000
#
# Coordination Sequence:
#
# PCOD8027264 Si02
#       8
#     2   2   2   2   2   2   2   2
#     4  10  24  46  66  97 131 173 224 268 322 390
#     4  11  23  43  66  96 134 168 214 273 323 381
#     4  11  23  43  62  97 131 171 213 260 329 392
#     4  11  23  43  67  95 132 168 219 271 319 387
#     4  11  23  42  69  91 131 173 211 266 329 384
#     4  10  25  39  62  98 126 169 217 260 318 392
#     4  12  24  42  66  97 132 170 220 272 325 384
#     4  10  24  44  71  93 128 180 220 268 328 387
#
# _framework density 23.534167
#
# number of rings (size 3 to 8) (size 9 to 14) (size 15 to 20)
#    0.000    1.250    3.750    1.125    5.250    2.000 
#    0.000    0.000    0.000    0.000    0.000    0.000 
#    0.000    0.000    0.000    0.000    0.000    0.000 
#
# Total GULP energy -198315.480145 kJ/mol
# GULP energy per Si atom -12394.717509 kJ/mol
# Density = 2.348060 g / cm^3
# Si number density = 23.534167 Si / 1000 Ang^3
#
#
#
# Elastic Constant Matrix: (Units=GPa)
#
#
# Indices 1 2 3 4 5 6 
#
# 1 120.8637 8.6030 36.2891 5.3470 -14.3463 -22.9358
# 2 8.6030 39.4141 5.1846 6.5639 -6.9544 -9.8594
# 3 36.2891 5.1846 136.7946 18.6915 5.4175 5.6803
# 4 5.3470 6.5639 18.6915 24.3632 -3.6038 -0.1412
# 5 -14.3463 -6.9544 5.4175 -3.6038 47.0256 -0.2032
# 6 -22.9358 -9.8594 5.6803 -0.1412 -0.2032 27.4362
#
#
#
# Elastic Compliance Matrix: (Units=1/GPa)
#
#
# Indices 1 2 3 4 5 6 
#
# 1 0.012041 0.001418 -0.004005 0.000773 0.004453 0.011441
# 2 0.001418 0.030244 -0.001299 -0.006712 0.004594 0.012322
# 3 -0.004005 -0.001299 0.009704 -0.006704 -0.003071 -0.005881
# 4 0.000773 -0.006712 -0.006704 0.048378 0.003723 -0.000101
# 5 0.004453 0.004594 -0.003071 0.003723 0.023969 0.006206
# 6 0.011441 0.012322 -0.005881 -0.000101 0.006206 0.051704
#
#
# Mechanical properties :
#
#
# Convention : Reuss Voigt Hill
#
# Bulk Modulus (GPa) = 22.61618 44.13620 33.37619
# Shear Modulus (GPa) = 25.18258 36.23137 30.70698
#
# Velocity S-wave (km/s) = 3.27470 3.92793 3.61610
# Velocity P-wave (km/s) = 4.89173 6.27426 5.62563
#
# Compressibility (1/GPa) = 0.04421612
#
# Stress axis : x y z
#
# Youngs Moduli (GPa) = 83.04988 33.06475 103.05219
#
# Poissons Ratio (x) = -0.04688 0.41273
# Poissons Ratio (y) = -0.11774 0.13384
# Poissons Ratio (z) = 0.33262 0.04294
#
# Static dielectric constant tensor:
#      x y z
#    x 4.569190 -0.547170 0.065110 
#    y -0.547170 4.354370 -0.121140 
#    z 0.065110 -0.121140 4.712000 
# 
# 
# High freq. dielectric constant tensor:
#      x y z
#    x 1.945750 -0.021510 0.001360 
#    y -0.021510 1.904510 -0.003530 
#    z 0.001360 -0.003530 1.944540 
# 
# From -- ./inp_files/514621.got.cif
#   From: 2010.06.25/outbox.cif.g09.slc.cpg/sg2_258_cif.got.tgz:514621.got - 2010.06.27 13:26:56.
