data_PCOD8027920
_publ_section_title
;
Structure prediction by ZEFSAII (Michael W. Deem and Ramdas Pophale) SiO2 
 PCOD8027920
Probable space group: P -1
;
_chemical_formula_sum "Si O2"
_cell_formula_units_Z 16
_cell_length_a 7.884124
_cell_length_b 18.914439
_cell_length_c 19.613799
_cell_angle_alpha 160.517754
_cell_angle_beta 48.869888
_cell_angle_gamma 132.925480
_cell_volume 712.813302
_symmetry_space_group_name_H-M "P -1"
_symmetry_group_IT_number 2
_symmetry_cell_setting 'triclinic'
loop_
_space_group_symop_operation_xyz
x,y,z
-x,-y,-z
loop_
_atom_site_type_symbol
_atom_site_label
_atom_site_fract_x
_atom_site_fract_y
_atom_site_fract_z
Si Si1 0.765580 0.813993 0.884237
Si Si2 0.553470 0.954036 0.757953
Si Si3 0.072178 0.415857 0.256358
Si Si4 0.353901 0.544792 0.517525
Si Si5 0.262311 0.302504 0.973251
Si Si6 0.028800 0.692314 0.071826
Si Si7 0.703695 0.614901 0.209634
Si Si8 0.368901 0.873077 0.588702
O O1 0.731729 0.644934 0.803021
O O2 0.768330 0.681661 0.693223
O O3 0.542610 0.915890 0.038331
O O4 0.000000 0.000000 0.000000
O O5 0.522471 0.706369 0.567277
O O6 0.394756 0.953726 0.733037
O O7 0.819754 0.071878 0.778937
O O8 0.143656 0.674470 0.458354
O O9 0.838165 0.345071 0.298214
O O10 0.061888 0.287689 0.070753
O O11 0.500000 0.500000 0.500000
O O12 0.168577 0.390400 0.008682
O O13 0.320825 0.068315 0.732522
O O14 0.497410 0.466998 0.085378
O O15 0.910521 0.727106 0.206142
O O16 0.193287 0.523706 0.886674
O O17 0.606640 0.805836 0.443961
#
# Coordination Sequence:
#
# PCOD8027920 Si02
#       8
#     2   2   2   2   2   2   2   2
#     4  12  23  43  69  90 129 189 234 277 344 411
#     4  12  24  43  67  98 135 182 230 284 346 410
#     4  11  23  42  66  95 130 180 225 279 341 411
#     4  12  29  41  63 102 141 178 233 288 342 414
#     4  11  24  44  72 103 136 179 234 287 345 416
#     4  11  25  45  72 102 141 181 227 291 351 415
#     4  10  24  49  68 101 142 182 225 285 358 418
#     4  11  22  43  72  98 134 179 236 279 344 420
#
# _framework density 22.446269999999998
#
# number of rings (size 3 to 8) (size 9 to 14) (size 15 to 20)
#    0.000    0.750    5.000    2.250    3.500    1.500 
#    2.250    0.000    0.000    0.000    0.000    0.000 
#    0.000    0.000    0.000    0.000    0.000    0.000 
#
# Total GULP energy -198402.177600 kJ/mol
# GULP energy per Si atom -12400.136100 kJ/mol
# Density = 2.239518 g / cm^3
# Si number density = 22.446270 Si / 1000 Ang^3
#
#
#
# Elastic Constant Matrix: (Units=GPa)
#
#
# Indices 1 2 3 4 5 6 
#
# 1 124.4820 33.1916 38.7116 5.8756 -7.4944 -19.2360
# 2 33.1916 110.2563 43.3694 -2.3568 -5.2207 9.7573
# 3 38.7116 43.3694 115.3786 -5.0840 -9.3374 1.4789
# 4 5.8756 -2.3568 -5.0840 32.6769 2.5725 3.9977
# 5 -7.4944 -5.2207 -9.3374 2.5725 17.1947 -3.4251
# 6 -19.2360 9.7573 1.4789 3.9977 -3.4251 35.7882
#
#
#
# Elastic Compliance Matrix: (Units=1/GPa)
#
#
# Indices 1 2 3 4 5 6 
#
# 1 0.011321 -0.002951 -0.002577 -0.003995 0.004811 0.007903
# 2 -0.002951 0.011700 -0.003339 0.001511 -0.000745 -0.004878
# 3 -0.002577 -0.003339 0.011159 0.001781 0.003497 -0.000800
# 4 -0.003995 0.001511 0.001781 0.033083 -0.006652 -0.006965
# 5 0.004811 -0.000745 0.003497 -0.006652 0.064833 0.009592
# 6 0.007903 -0.004878 -0.000800 -0.006965 0.009592 0.035249
#
#
# Mechanical properties :
#
#
# Convention : Reuss Voigt Hill
#
# Bulk Modulus (GPa) = 60.80797 64.51802 62.66299
# Shear Modulus (GPa) = 26.23822 32.78823 29.51322
#
# Velocity S-wave (km/s) = 3.42268 3.82611 3.63000
# Velocity P-wave (km/s) = 6.53979 6.95159 6.74883
#
# Compressibility (1/GPa) = 0.01644521
#
# Stress axis : x y z
#
# Youngs Moduli (GPa) = 88.33078 85.46712 89.61722
#
# Poissons Ratio (x) = 0.25225 0.23095
# Poissons Ratio (y) = 0.26070 0.29923
# Poissons Ratio (z) = 0.22763 0.28537
#
# Static dielectric constant tensor:
#      x y z
#    x 3.794420 -0.055270 0.123540 
#    y -0.055270 4.149810 0.075850 
#    z 0.123540 0.075850 3.645990 
# 
# 
# High freq. dielectric constant tensor:
#      x y z
#    x 1.870760 -0.001250 -0.006950 
#    y -0.001250 1.890620 -0.002800 
#    z -0.006950 -0.002800 1.882910 
# 
# From -- ./inp_files/39890.got.cif
#   From: 2010.06.25/outbox.cif.g09.slc.cpg/sg2_20_cif.got.tgz:39890.got - 2010.06.27 13:26:56.
