data_PCOD8027640
_publ_section_title
;
Structure prediction by ZEFSAII (Michael W. Deem and Ramdas Pophale) SiO2 
 PCOD8027640
Probable space group: P -1
;
_chemical_formula_sum "Si O2"
_cell_formula_units_Z 16
_cell_length_a 11.257640
_cell_length_b 8.946275
_cell_length_c 18.341165
_cell_angle_alpha 139.637108
_cell_angle_beta 49.516177
_cell_angle_gamma 100.321073
_cell_volume 698.717849
_symmetry_space_group_name_H-M "P -1"
_symmetry_group_IT_number 2
_symmetry_cell_setting 'triclinic'
loop_
_space_group_symop_operation_xyz
x,y,z
-x,-y,-z
loop_
_atom_site_type_symbol
_atom_site_label
_atom_site_fract_x
_atom_site_fract_y
_atom_site_fract_z
Si Si1 0.345078 0.458878 0.730784
Si Si2 0.247634 0.078604 0.690747
Si Si3 0.176218 0.405996 0.639352
Si Si4 0.946002 0.251507 0.758429
Si Si5 0.574372 0.174541 0.334624
Si Si6 0.415450 0.116781 0.911925
Si Si7 0.844129 0.855923 0.692280
Si Si8 0.800065 0.948715 0.912442
O O1 0.581098 0.257470 0.536217
O O2 0.197537 0.554250 0.755810
O O3 0.328682 0.259738 0.717547
O O4 0.275988 0.743398 0.908877
O O5 0.229559 0.051445 0.775138
O O6 0.029104 0.241556 0.801907
O O7 0.395738 0.163623 0.424931
O O8 0.091958 0.233084 0.632832
O O9 0.032023 0.672259 0.738276
O O10 0.946658 0.972645 0.651368
O O11 0.715785 0.555539 0.951212
O O12 0.500000 0.500000 0.500000
O O13 0.624156 0.075851 0.193808
O O14 0.648679 0.968223 0.765257
O O15 0.338569 0.126804 0.027317
O O16 0.777222 0.987213 0.849148
O O17 0.000000 0.500000 0.500000
#
# Coordination Sequence:
#
# PCOD8027640 Si02
#       8
#     2   2   2   2   2   2   2   2
#     4   9  18  36  65  98 137 167 215 267 328 402
#     4   9  20  37  63 103 131 172 212 263 339 395
#     4   9  20  42  64 104 135 177 214 267 342 398
#     4  10  24  46  68  92 138 174 226 279 331 398
#     4  11  23  38  70 103 142 174 216 274 335 405
#     4  11  25  47  65 101 134 176 227 277 334 398
#     4  12  28  47  69  96 128 179 234 284 334 397
#     4  11  23  41  70  94 133 176 222 279 332 396
#
# _framework density 22.899083000000001
#
# number of rings (size 3 to 8) (size 9 to 14) (size 15 to 20)
#    0.000    1.750    0.000    4.125    7.000    2.500 
#    0.000    5.625    0.000    0.000    0.000    0.000 
#    0.000    0.000    0.000    0.000    0.000    0.000 
#
# Total GULP energy -198363.187722 kJ/mol
# GULP energy per Si atom -12397.699233 kJ/mol
# Density = 2.284696 g / cm^3
# Si number density = 22.899083 Si / 1000 Ang^3
#
#
#
# Elastic Constant Matrix: (Units=GPa)
#
#
# Indices 1 2 3 4 5 6 
#
# 1 88.8752 36.4658 17.4816 6.2976 -16.6446 -4.9583
# 2 36.4658 88.8560 29.2239 12.6923 -1.2102 1.7180
# 3 17.4816 29.2239 61.4891 13.2168 -4.6501 9.8561
# 4 6.2976 12.6923 13.2168 33.0463 -4.8761 2.1247
# 5 -16.6446 -1.2102 -4.6501 -4.8761 42.1074 1.0561
# 6 -4.9583 1.7180 9.8561 2.1247 1.0561 37.9750
#
#
#
# Elastic Compliance Matrix: (Units=1/GPa)
#
#
# Indices 1 2 3 4 5 6 
#
# 1 0.015063 -0.005691 -0.001691 0.000662 0.005618 0.002470
# 2 -0.005691 0.015799 -0.005440 -0.003231 -0.002776 0.000212
# 3 -0.001691 -0.005440 0.021472 -0.005687 0.001020 -0.005258
# 4 0.000662 -0.003231 -0.005687 0.034187 0.003507 -0.000302
# 5 0.005618 -0.002776 0.001020 0.003507 0.026417 -0.000336
# 6 0.002470 0.000212 -0.005258 -0.000302 -0.000336 0.028037
#
#
# Mechanical properties :
#
#
# Convention : Reuss Voigt Hill
#
# Bulk Modulus (GPa) = 37.46902 45.06255 41.26579
# Shear Modulus (GPa) = 28.48784 33.02902 30.75843
#
# Velocity S-wave (km/s) = 3.53095 3.80198 3.66897
# Velocity P-wave (km/s) = 5.74645 6.24459 6.00069
#
# Compressibility (1/GPa) = 0.02668871
#
# Stress axis : x y z
#
# Youngs Moduli (GPa) = 66.38981 63.29681 46.57334
#
# Poissons Ratio (x) = 0.36024 0.07874
# Poissons Ratio (y) = 0.37784 0.25336
# Poissons Ratio (z) = 0.11224 0.34434
#
# Static dielectric constant tensor:
#      x y z
#    x 4.163040 -0.166430 -0.201360 
#    y -0.166430 4.427400 -0.075110 
#    z -0.201360 -0.075110 3.920840 
# 
# 
# High freq. dielectric constant tensor:
#      x y z
#    x 1.897900 -0.011690 -0.016050 
#    y -0.011690 1.919090 0.004510 
#    z -0.016050 0.004510 1.882570 
# 
# From -- ./inp_files/245674.got.cif
#   From: 2010.06.25/outbox.cif.g09.slc.cpg/sg2_123_cif.got.tgz:245674.got - 2010.06.27 13:26:56.
