data_PCOD8027884
_publ_section_title
;
Structure prediction by ZEFSAII (Michael W. Deem and Ramdas Pophale) SiO2 
 PCOD8027884
Probable space group: P -1
;
_chemical_formula_sum "Si O2"
_cell_formula_units_Z 14
_cell_length_a 15.323503
_cell_length_b 25.222299
_cell_length_c 15.572694
_cell_angle_alpha 161.534299
_cell_angle_beta 152.912759
_cell_angle_gamma 19.594787
_cell_volume 639.025589
_symmetry_space_group_name_H-M "P -1"
_symmetry_group_IT_number 2
_symmetry_cell_setting 'triclinic'
loop_
_space_group_symop_operation_xyz
x,y,z
-x,-y,-z
loop_
_atom_site_type_symbol
_atom_site_label
_atom_site_fract_x
_atom_site_fract_y
_atom_site_fract_z
Si Si1 0.307178 0.217331 0.607428
Si Si2 0.935792 0.607471 0.015626
Si Si3 0.086549 0.638525 0.813393
Si Si4 0.369540 0.862861 0.876907
Si Si5 0.247210 0.907038 0.021232
Si Si6 0.425459 0.479582 0.030414
Si Si7 0.352076 0.584461 0.311996
O O1 0.467271 0.264681 0.769098
O O2 0.059490 0.428609 0.769868
O O3 0.500000 0.000000 0.500000
O O4 0.222718 0.123432 0.321627
O O5 0.627555 0.810950 0.049197
O O6 0.000000 0.500000 0.000000
O O7 0.053588 0.725528 0.294882
O O8 0.187780 0.603349 0.945209
O O9 0.000000 0.500000 0.500000
O O10 0.315631 0.581526 0.868861
O O11 0.828970 0.900006 0.980871
O O12 0.248624 0.844153 0.826870
O O13 0.468747 0.663543 0.591607
O O14 0.495663 0.682284 0.944652
O O15 0.000000 0.000000 0.000000
O O16 0.350608 0.632127 0.283348
#
# Coordination Sequence:
#
# PCOD8027884 Si02
#       7
#     2   2   2   2   2   2   2
#     4  11  21  41  69  98 138 182 224 280 343 415
#     4  11  23  40  63  99 144 184 223 278 351 417
#     4  11  26  48  76  98 136 183 244 298 341 423
#     4  12  26  42  66 101 138 183 231 297 350 406
#     4  12  23  38  65 100 139 185 231 279 343 420
#     4  10  24  48  71 104 134 184 242 283 352 422
#     4  11  24  43  65 100 144 181 225 289 354 415
#
# _framework density 21.908356000000001
#
# number of rings (size 3 to 8) (size 9 to 14) (size 15 to 20)
#    0.000    0.857    4.286    3.000    2.000    6.286 
#    0.000    5.000    0.000    0.000    0.000    0.000 
#    0.000    0.000    0.000    0.000    0.000    0.000 
#
# Total GULP energy -173466.201360 kJ/mol
# GULP energy per Si atom -12390.442954 kJ/mol
# Density = 2.185849 g / cm^3
# Si number density = 21.908356 Si / 1000 Ang^3
#
#
#
# Elastic Constant Matrix: (Units=GPa)
#
#
# Indices 1 2 3 4 5 6 
#
# 1 150.0160 57.1860 50.3323 -11.9004 2.1237 6.1185
# 2 57.1860 143.5764 37.7842 -3.6601 7.5738 0.6325
# 3 50.3323 37.7842 88.9098 -14.7273 4.0071 -0.0826
# 4 -11.9004 -3.6601 -14.7273 33.9905 2.6381 1.3879
# 5 2.1237 7.5738 4.0071 2.6381 37.3821 -8.3981
# 6 6.1185 0.6325 -0.0826 1.3879 -8.3981 39.6046
#
#
#
# Elastic Compliance Matrix: (Units=1/GPa)
#
#
# Indices 1 2 3 4 5 6 
#
# 1 0.009097 -0.002573 -0.003843 0.001300 0.000006 -0.001417
# 2 -0.002573 0.008641 -0.002301 -0.000867 -0.001294 0.000011
# 3 -0.003843 -0.002301 0.015308 0.005129 -0.001270 0.000213
# 4 0.001300 -0.000867 0.005129 0.032332 -0.003175 -0.001983
# 5 0.000006 -0.001294 -0.001270 -0.003175 0.028772 0.006229
# 6 -0.001417 0.000011 0.000213 -0.001983 0.006229 0.026859
#
#
# Mechanical properties :
#
#
# Convention : Reuss Voigt Hill
#
# Bulk Modulus (GPa) = 64.05068 74.78968 69.42018
# Shear Modulus (GPa) = 34.80769 38.00877 36.40823
#
# Velocity S-wave (km/s) = 3.99028 4.16973 4.08099
# Velocity P-wave (km/s) = 7.10838 7.57587 7.34584
#
# Compressibility (1/GPa) = 0.01561264
#
# Stress axis : x y z
#
# Youngs Moduli (GPa) = 109.92860 115.72158 65.32694
#
# Poissons Ratio (x) = 0.29775 0.25102
# Poissons Ratio (y) = 0.28284 0.15032
# Poissons Ratio (z) = 0.42240 0.26629
#
# Static dielectric constant tensor:
#      x y z
#    x 4.190710 -0.011250 0.188070 
#    y -0.011250 4.159890 -0.616340 
#    z 0.188070 -0.616340 6.932910 
# 
# 
# High freq. dielectric constant tensor:
#      x y z
#    x 1.873630 0.000400 -0.008620 
#    y 0.000400 1.863250 -0.022300 
#    z -0.008620 -0.022300 1.857660 
# 
# From -- ./inp_files/460653.got.cif
#   From: 2010.06.25/outbox.cif.g09.slc.cpg/sg2_231_cif.got.tgz:460653.got - 2010.06.27 13:26:56.
