data_PCOD8027306
_publ_section_title
;
Structure prediction by ZEFSAII (Michael W. Deem and Ramdas Pophale) SiO2 
 PCOD8027306
Probable space group: P -1
;
_chemical_formula_sum "Si O2"
_cell_formula_units_Z 16
_cell_length_a 8.881384
_cell_length_b 15.328336
_cell_length_c 12.250220
_cell_angle_alpha 151.870162
_cell_angle_beta 102.531604
_cell_angle_gamma 68.577965
_cell_volume 710.653693
_symmetry_space_group_name_H-M "P -1"
_symmetry_group_IT_number 2
_symmetry_cell_setting 'triclinic'
loop_
_space_group_symop_operation_xyz
x,y,z
-x,-y,-z
loop_
_atom_site_type_symbol
_atom_site_label
_atom_site_fract_x
_atom_site_fract_y
_atom_site_fract_z
Si Si1 0.480474 0.418652 0.290823
Si Si2 0.827329 0.722622 0.415814
Si Si3 0.551266 0.570514 0.248334
Si Si4 0.789055 0.053297 0.925916
Si Si5 0.745707 0.248432 0.756037
Si Si6 0.148381 0.373550 0.145231
Si Si7 0.113089 0.212191 0.738590
Si Si8 0.043467 0.266026 0.220850
O O1 0.500000 0.500000 0.500000
O O2 0.536110 0.536307 0.335827
O O3 0.287849 0.458894 0.289999
O O4 0.592468 0.182985 0.043908
O O5 0.647798 0.719780 0.413973
O O6 0.862116 0.674322 0.239601
O O7 0.971201 0.555369 0.320790
O O8 0.829960 0.937799 0.688556
O O9 0.368090 0.666986 0.274340
O O10 0.655763 0.360081 0.974297
O O11 0.832446 0.882885 0.837290
O O12 0.880828 0.209109 0.125163
O O13 0.917484 0.277709 0.798505
O O14 0.783426 0.017778 0.523385
O O15 0.136858 0.220889 0.068404
O O16 0.194607 0.267211 0.918192
O O17 0.000000 0.500000 0.500000
#
# Coordination Sequence:
#
# PCOD8027306 Si02
#       8
#     2   2   2   2   2   2   2   2
#     4  12  29  47  70 104 146 184 243 303 355 425
#     4  12  25  44  74 102 144 186 241 291 360 436
#     4  11  25  46  71 101 142 193 233 294 362 416
#     4  11  27  46  77 106 138 192 244 294 361 432
#     4  10  24  44  72  98 145 188 236 295 352 433
#     4  12  26  44  72 101 144 188 233 300 361 421
#     4  11  25  43  67 108 138 185 240 294 360 425
#     4  11  24  49  75 102 139 188 246 295 357 423
#
# _framework density 22.514482000000001
#
# number of rings (size 3 to 8) (size 9 to 14) (size 15 to 20)
#    0.000    0.750    2.500    3.375   12.250    2.000 
#    0.000    0.000    0.000    0.000    0.000    0.000 
#    0.000    0.000    0.000    0.000    0.000    0.000 
#
# Total GULP energy -198465.567942 kJ/mol
# GULP energy per Si atom -12404.097996 kJ/mol
# Density = 2.246324 g / cm^3
# Si number density = 22.514482 Si / 1000 Ang^3
#
#
#
# Elastic Constant Matrix: (Units=GPa)
#
#
# Indices 1 2 3 4 5 6 
#
# 1 81.0986 45.7719 44.4092 -11.0443 4.8361 0.1384
# 2 45.7719 118.7703 43.4525 -27.6494 -0.0690 15.8785
# 3 44.4092 43.4525 79.4428 -11.8354 20.1195 -2.9370
# 4 -11.0443 -27.6494 -11.8354 42.8139 -0.3428 -1.8797
# 5 4.8361 -0.0690 20.1195 -0.3428 33.8178 -2.0488
# 6 0.1384 15.8785 -2.9370 -1.8797 -2.0488 39.7580
#
#
#
# Elastic Compliance Matrix: (Units=1/GPa)
#
#
# Indices 1 2 3 4 5 6 
#
# 1 0.019710 -0.004399 -0.009313 -0.000259 0.002779 0.001131
# 2 -0.004399 0.014426 -0.005632 0.006406 0.003731 -0.005667
# 3 -0.009313 -0.005632 0.024401 0.000754 -0.012980 0.003451
# 4 -0.000259 0.006406 0.000754 0.027581 -0.000192 -0.001208
# 5 0.002779 0.003731 -0.012980 -0.000192 0.036866 -0.000568
# 6 0.001131 -0.005667 0.003451 -0.001208 -0.000568 0.027580
#
#
# Mechanical properties :
#
#
# Convention : Reuss Voigt Hill
#
# Bulk Modulus (GPa) = 50.37441 60.73099 55.55270
# Shear Modulus (GPa) = 25.52742 32.98982 29.25862
#
# Velocity S-wave (km/s) = 3.37088 3.83204 3.60883
# Velocity P-wave (km/s) = 6.12970 6.82731 6.48789
#
# Compressibility (1/GPa) = 0.01985135
#
# Stress axis : x y z
#
# Youngs Moduli (GPa) = 50.73592 69.31787 40.98194
#
# Poissons Ratio (x) = 0.30491 0.38165
# Poissons Ratio (y) = 0.22317 0.23080
# Poissons Ratio (z) = 0.47248 0.39038
#
# Static dielectric constant tensor:
#      x y z
#    x 3.992890 -0.101820 -0.072410 
#    y -0.101820 4.274050 -0.099260 
#    z -0.072410 -0.099260 4.155090 
# 
# 
# High freq. dielectric constant tensor:
#      x y z
#    x 1.883850 -0.005090 -0.000640 
#    y -0.005090 1.905130 -0.006860 
#    z -0.000640 -0.006860 1.893980 
# 
# From -- ./inp_files/400085.got.cif
#   From: 2010.06.25/outbox.cif.g09.slc.cpg/sg2_201_cif.got.tgz:400085.got - 2010.06.27 13:26:56.
