data_PCOD8027464
_publ_section_title
;
Structure prediction by ZEFSAII (Michael W. Deem and Ramdas Pophale) SiO2 
 PCOD8027464
Probable space group: P -1
;
_chemical_formula_sum "Si O2"
_cell_formula_units_Z 14
_cell_length_a 11.368038
_cell_length_b 8.817662
_cell_length_c 10.682661
_cell_angle_alpha 98.942583
_cell_angle_beta 41.828259
_cell_angle_gamma 115.796225
_cell_volume 617.030491
_symmetry_space_group_name_H-M "P -1"
_symmetry_group_IT_number 2
_symmetry_cell_setting 'triclinic'
loop_
_space_group_symop_operation_xyz
x,y,z
-x,-y,-z
loop_
_atom_site_type_symbol
_atom_site_label
_atom_site_fract_x
_atom_site_fract_y
_atom_site_fract_z
Si Si1 0.355441 0.293285 0.084495
Si Si2 0.822544 0.352737 0.278379
Si Si3 0.937200 0.710429 0.135732
Si Si4 0.670789 0.976915 0.119686
Si Si5 0.637044 0.838468 0.398012
Si Si6 0.891789 0.157786 0.409303
Si Si7 0.398105 0.047913 0.197937
O O1 0.370931 0.212491 0.196258
O O2 0.130806 0.254343 0.231720
O O3 0.500000 0.500000 0.000000
O O4 0.417812 0.205945 0.910014
O O5 0.596431 0.269056 0.391188
O O6 0.823042 0.285701 0.410377
O O7 0.909038 0.561780 0.238338
O O8 0.968966 0.310357 0.071800
O O9 0.725292 0.706728 0.277704
O O10 0.096875 0.900274 0.089925
O O11 0.652209 0.952567 0.279441
O O12 0.549092 0.083704 0.200121
O O13 0.781636 0.966874 0.406776
O O14 0.814828 0.117693 0.609746
O O15 0.500000 0.000000 0.000000
#
# Coordination Sequence:
#
# PCOD8027464 Si02
#       7
#     2   2   2   2   2   2   2
#     4  11  26  46  69  99 130 186 241 288 335 409
#     4  11  24  39  67 109 146 178 221 277 353 431
#     4  11  23  40  65 106 150 178 216 277 355 422
#     4  11  21  45  70  95 141 179 225 284 353 416
#     4  12  22  44  70 109 138 182 221 286 369 415
#     4  12  22  45  72  99 142 180 233 290 349 421
#     4  10  24  45  69  92 134 188 236 279 342 408
#
# _framework density 22.689318
#
# number of rings (size 3 to 8) (size 9 to 14) (size 15 to 20)
#    0.000    0.857    4.286    3.429    2.000    0.000 
#    5.143    2.857    0.000    0.000    0.000    0.000 
#    0.000    0.000    0.000    0.000    0.000    0.000 
#
# Total GULP energy -173526.835569 kJ/mol
# GULP energy per Si atom -12394.773969 kJ/mol
# Density = 2.263768 g / cm^3
# Si number density = 22.689318 Si / 1000 Ang^3
#
#
#
# Elastic Constant Matrix: (Units=GPa)
#
#
# Indices 1 2 3 4 5 6 
#
# 1 96.9967 45.2617 40.5823 -3.3414 -12.2459 -18.6361
# 2 45.2617 101.2365 43.7674 -22.6611 3.8373 -5.7276
# 3 40.5823 43.7674 121.8953 -10.3907 -9.1037 -3.3758
# 4 -3.3414 -22.6611 -10.3907 33.7079 -11.0458 -0.6252
# 5 -12.2459 3.8373 -9.1037 -11.0458 44.6927 -3.0864
# 6 -18.6361 -5.7276 -3.3758 -0.6252 -3.0864 40.2821
#
#
#
# Elastic Compliance Matrix: (Units=1/GPa)
#
#
# Indices 1 2 3 4 5 6 
#
# 1 0.016150 -0.006225 -0.002790 -0.001884 0.004386 0.006660
# 2 -0.006225 0.015919 -0.003057 0.008592 -0.001631 -0.000865
# 3 -0.002790 -0.003057 0.010489 0.001534 0.001967 -0.000672
# 4 -0.001884 0.008592 0.001534 0.038620 0.008724 0.001747
# 5 0.004386 -0.001631 0.001967 0.008724 0.026559 0.004132
# 6 0.006660 -0.000865 -0.000672 0.001747 0.004132 0.028070
#
#
# Mechanical properties :
#
#
# Convention : Reuss Voigt Hill
#
# Bulk Modulus (GPa) = 54.30638 64.37235 59.33936
# Shear Modulus (GPa) = 30.10409 36.43768 33.27089
#
# Velocity S-wave (km/s) = 3.64647 4.01177 3.83347
# Velocity P-wave (km/s) = 6.45877 7.06341 6.76785
#
# Compressibility (1/GPa) = 0.01841404
#
# Stress axis : x y z
#
# Youngs Moduli (GPa) = 61.91825 62.81891 95.33575
#
# Poissons Ratio (x) = 0.39108 0.26600
# Poissons Ratio (y) = 0.38547 0.29139
# Poissons Ratio (z) = 0.17276 0.19201
#
# Static dielectric constant tensor:
#      x y z
#    x 4.605770 -0.328150 0.025240 
#    y -0.328150 3.997740 -0.116510 
#    z 0.025240 -0.116510 4.353670 
# 
# 
# High freq. dielectric constant tensor:
#      x y z
#    x 1.895050 -0.025880 -0.009040 
#    y -0.025880 1.874080 -0.002050 
#    z -0.009040 -0.002050 1.911270 
# 
# From -- ./inp_files/199852.got.cif
#   From: 2010.06.25/outbox.cif.g09.slc.cpg/sg2_100_cif.got.tgz:199852.got - 2010.06.27 13:26:56.
