data_PCOD8027419
_publ_section_title
;
Structure prediction by ZEFSAII (Michael W. Deem and Ramdas Pophale) SiO2 
 PCOD8027419
Probable space group: P -1
;
_chemical_formula_sum "Si O2"
_cell_formula_units_Z 14
_cell_length_a 22.242398
_cell_length_b 9.157090
_cell_length_c 22.299190
_cell_angle_alpha 29.580788
_cell_angle_beta 15.202678
_cell_angle_gamma 29.718089
_cell_volume 572.741292
_symmetry_space_group_name_H-M "P -1"
_symmetry_group_IT_number 2
_symmetry_cell_setting 'triclinic'
loop_
_space_group_symop_operation_xyz
x,y,z
-x,-y,-z
loop_
_atom_site_type_symbol
_atom_site_label
_atom_site_fract_x
_atom_site_fract_y
_atom_site_fract_z
Si Si1 0.081916 0.218587 0.424198
Si Si2 0.242509 0.769076 0.911007
Si Si3 0.182510 0.959505 0.542190
Si Si4 0.020772 0.602938 0.067471
Si Si5 0.363416 0.335371 0.738073
Si Si6 0.093053 0.824723 0.155897
Si Si7 0.644623 0.250926 0.755473
O O1 0.217685 0.480419 0.180020
O O2 0.809801 0.306512 0.631940
O O3 0.103425 0.216686 0.476444
O O4 0.198128 0.887222 0.404024
O O5 0.197034 0.628627 0.942173
O O6 0.487149 0.580441 0.770328
O O7 0.034411 0.774970 0.159580
O O8 0.219468 0.132227 0.793438
O O9 0.459929 0.812960 0.325851
O O10 0.125266 0.072413 0.625529
O O11 0.035966 0.716678 0.752934
O O12 0.152865 0.589925 0.879879
O O13 0.500000 0.500000 0.500000
O O14 0.266355 0.057440 0.903396
O O15 0.500000 0.000000 0.000000
#
# Coordination Sequence:
#
# PCOD8027419 Si02
#       7
#     2   2   2   2   2   2   2
#     4  11  25  43  69 102 137 186 229 280 341 408
#     4  11  22  45  71  97 137 178 223 290 339 402
#     4  11  24  44  68 100 142 181 223 284 343 407
#     4  10  24  45  68 104 138 172 232 286 339 413
#     4  11  24  46  72  99 139 185 225 282 350 407
#     4  11  25  43  68 103 138 178 233 282 336 415
#     4  11  23  43  68  99 139 180 228 282 340 401
#
# _framework density 24.443847000000002
#
# number of rings (size 3 to 8) (size 9 to 14) (size 15 to 20)
#    0.000    1.143    1.429    3.857    4.000    4.000 
#    2.571    4.286    0.000    0.000    0.000    0.000 
#    0.000    0.000    0.000    0.000    0.000    0.000 
#
# Total GULP energy -173435.543606 kJ/mol
# GULP energy per Si atom -12388.253115 kJ/mol
# Density = 2.438821 g / cm^3
# Si number density = 24.443847 Si / 1000 Ang^3
#
#
#
# Elastic Constant Matrix: (Units=GPa)
#
#
# Indices 1 2 3 4 5 6 
#
# 1 120.9309 45.1030 34.8783 -3.8705 5.8014 -8.3834
# 2 45.1030 139.3495 26.5603 4.9105 -8.6632 -2.5348
# 3 34.8783 26.5603 81.1063 -13.2508 -0.2757 0.6348
# 4 -3.8705 4.9105 -13.2508 33.4554 -10.4828 -5.1985
# 5 5.8014 -8.6632 -0.2757 -10.4828 28.1588 5.6854
# 6 -8.3834 -2.5348 0.6348 -5.1985 5.6854 45.1729
#
#
#
# Elastic Compliance Matrix: (Units=1/GPa)
#
#
# Indices 1 2 3 4 5 6 
#
# 1 0.010792 -0.002940 -0.003823 -0.000695 -0.003889 0.002301
# 2 -0.002940 0.008693 -0.001822 -0.001548 0.002800 -0.000563
# 3 -0.003823 -0.001822 0.015716 0.006919 0.003083 -0.000624
# 4 -0.000695 -0.001548 0.006919 0.037254 0.013135 0.002321
# 5 -0.003889 0.002800 0.003083 0.013135 0.043006 -0.004509
# 6 0.002301 -0.000563 -0.000624 0.002321 -0.004509 0.023376
#
#
# Mechanical properties :
#
#
# Convention : Reuss Voigt Hill
#
# Bulk Modulus (GPa) = 55.45589 61.60775 58.53182
# Shear Modulus (GPa) = 30.86114 37.01375 33.93745
#
# Velocity S-wave (km/s) = 3.55707 3.89554 3.73014
# Velocity P-wave (km/s) = 6.29338 6.74479 6.52299
#
# Compressibility (1/GPa) = 0.01803235
#
# Stress axis : x y z
#
# Youngs Moduli (GPa) = 92.66083 115.03155 63.63049
#
# Poissons Ratio (x) = 0.33817 0.24326
# Poissons Ratio (y) = 0.27240 0.11591
# Poissons Ratio (z) = 0.35424 0.20954
#
# Static dielectric constant tensor:
#      x y z
#    x 4.467990 0.170140 0.162200 
#    y 0.170140 4.980800 0.020490 
#    z 0.162200 0.020490 4.138330 
# 
# 
# High freq. dielectric constant tensor:
#      x y z
#    x 1.980790 0.007310 0.013810 
#    y 0.007310 1.996640 -0.008560 
#    z 0.013810 -0.008560 1.941250 
# 
# From -- ./inp_files/432523.got.cif
#   From: 2010.06.25/outbox.cif.g09.slc.cpg/sg2_217_cif.got.tgz:432523.got - 2010.06.27 13:26:56.
