data_PCOD8027154
_publ_section_title
;
Structure prediction by ZEFSAII (Michael W. Deem and Ramdas Pophale) SiO2 
 PCOD8027154
Probable space group: P -1
;
_chemical_formula_sum "Si O2"
_cell_formula_units_Z 16
_cell_length_a 19.624621
_cell_length_b 12.608974
_cell_length_c 22.056372
_cell_angle_alpha 32.953737
_cell_angle_beta 17.655492
_cell_angle_gamma 26.612772
_cell_volume 738.191965
_symmetry_space_group_name_H-M "P -1"
_symmetry_group_IT_number 2
_symmetry_cell_setting 'triclinic'
loop_
_space_group_symop_operation_xyz
x,y,z
-x,-y,-z
loop_
_atom_site_type_symbol
_atom_site_label
_atom_site_fract_x
_atom_site_fract_y
_atom_site_fract_z
Si Si1 0.519522 0.267635 0.434833
Si Si2 0.314365 0.223232 0.422248
Si Si3 0.499697 0.939652 0.900019
Si Si4 0.314773 0.401592 0.207134
Si Si5 0.266915 0.767293 0.858796
Si Si6 0.904470 0.586537 0.820179
Si Si7 0.949266 0.278723 0.246101
Si Si8 0.420846 0.394202 0.695350
O O1 0.697298 0.175561 0.267400
O O2 0.614444 0.400901 0.330634
O O3 0.197976 0.435642 0.610351
O O4 0.565002 0.050312 0.538972
O O5 0.371250 0.247079 0.292920
O O6 0.467058 0.307771 0.292525
O O7 0.998857 0.377597 0.634711
O O8 0.617254 0.765375 0.827571
O O9 0.710772 0.826218 0.831108
O O10 0.435527 0.197096 0.818318
O O11 0.195866 0.014776 0.140549
O O12 0.500000 0.500000 0.000000
O O13 0.241102 0.549269 0.989057
O O14 0.000000 0.000000 0.000000
O O15 0.938215 0.646024 0.830817
O O16 0.704805 0.258156 0.482682
O O17 0.835668 0.482080 0.192867
#
# Coordination Sequence:
#
# PCOD8027154 Si02
#       8
#     2   2   2   2   2   2   2   2
#     4  11  25  44  73  98 142 182 236 284 347 411
#     4  11  26  46  69 101 142 184 234 284 346 418
#     4  12  25  42  71  99 141 176 230 286 345 414
#     4  11  28  45  70 102 141 186 230 287 355 408
#     4  12  25  41  71 100 138 184 229 286 342 411
#     4  11  25  44  68 106 139 182 232 285 351 412
#     4  10  24  44  68  99 137 181 232 280 344 410
#     4  10  25  44  70  99 135 184 230 283 348 405
#
# _framework density 21.674578
#
# number of rings (size 3 to 8) (size 9 to 14) (size 15 to 20)
#    0.000    1.000    1.250    3.375   10.500    5.000 
#    0.000    0.000    0.000    0.000    0.000    0.000 
#    0.000    0.000    0.000    0.000    0.000    0.000 
#
# Total GULP energy -198480.649053 kJ/mol
# GULP energy per Si atom -12405.040566 kJ/mol
# Density = 2.162525 g / cm^3
# Si number density = 21.674578 Si / 1000 Ang^3
#
#
#
# Elastic Constant Matrix: (Units=GPa)
#
#
# Indices 1 2 3 4 5 6 
#
# 1 141.9021 60.1835 66.9013 5.6931 -17.0586 -20.5385
# 2 60.1835 108.2849 48.7193 9.4009 -13.7962 -20.1317
# 3 66.9013 48.7193 122.6991 21.4113 -0.6401 -8.2377
# 4 5.6931 9.4009 21.4113 36.9745 7.0490 -8.6808
# 5 -17.0586 -13.7962 -0.6401 7.0490 38.6438 1.7046
# 6 -20.5385 -20.1317 -8.2377 -8.6808 1.7046 33.1653
#
#
#
# Elastic Compliance Matrix: (Units=1/GPa)
#
#
# Indices 1 2 3 4 5 6 
#
# 1 0.011858 -0.003121 -0.005335 0.002495 0.003374 0.004603
# 2 -0.003121 0.013971 -0.003379 -0.000496 0.003406 0.005404
# 3 -0.005335 -0.003379 0.013276 -0.006484 -0.001997 -0.003652
# 4 0.002495 -0.000496 -0.006484 0.033684 -0.005713 0.008744
# 5 0.003374 0.003406 -0.001997 -0.005713 0.029563 0.000646
# 6 0.004603 0.005404 -0.003652 0.008744 0.000646 0.037631
#
#
# Mechanical properties :
#
#
# Convention : Reuss Voigt Hill
#
# Bulk Modulus (GPa) = 64.78256 80.49939 72.64098
# Shear Modulus (GPa) = 29.62108 34.89552 32.25830
#
# Velocity S-wave (km/s) = 3.70080 4.01680 3.86204
# Velocity P-wave (km/s) = 6.94369 7.66378 7.31261
#
# Compressibility (1/GPa) = 0.01543625
#
# Stress axis : x y z
#
# Youngs Moduli (GPa) = 84.33344 71.57490 75.32254
#
# Poissons Ratio (x) = 0.22339 0.40183
# Poissons Ratio (y) = 0.26321 0.25449
# Poissons Ratio (z) = 0.44990 0.24183
#
# Static dielectric constant tensor:
#      x y z
#    x 4.077140 -0.090590 0.026890 
#    y -0.090590 3.883970 0.073220 
#    z 0.026890 0.073220 4.273370 
# 
# 
# High freq. dielectric constant tensor:
#      x y z
#    x 1.865800 -0.004310 0.003300 
#    y -0.004310 1.849710 0.007920 
#    z 0.003300 0.007920 1.873480 
# 
# From -- ./inp_files/600060.got.cif
#   From: 2010.06.25/outbox.cif.g09.slc.cpg/sg2_301_cif.got.tgz:600060.got - 2010.06.27 13:26:56.
