data_PCOD8027694
_publ_section_title
;
Structure prediction by ZEFSAII (Michael W. Deem and Ramdas Pophale) SiO2 
 PCOD8027694
Probable space group: P -1
;
_chemical_formula_sum "Si O2"
_cell_formula_units_Z 14
_cell_length_a 5.343951
_cell_length_b 14.122062
_cell_length_c 14.816985
_cell_angle_alpha 149.439112
_cell_angle_beta 85.680593
_cell_angle_gamma 102.138887
_cell_volume 543.116570
_symmetry_space_group_name_H-M "P -1"
_symmetry_group_IT_number 2
_symmetry_cell_setting 'triclinic'
loop_
_space_group_symop_operation_xyz
x,y,z
-x,-y,-z
loop_
_atom_site_type_symbol
_atom_site_label
_atom_site_fract_x
_atom_site_fract_y
_atom_site_fract_z
Si Si1 0.997364 0.558834 0.318559
Si Si2 0.300326 0.251186 0.862016
Si Si3 0.521462 0.102619 0.409002
Si Si4 0.464757 0.026626 0.147560
Si Si5 0.726922 0.424699 0.391883
Si Si6 0.688680 0.635393 0.235641
Si Si7 0.110524 0.182470 0.994948
O O1 0.768389 0.503430 0.353745
O O2 0.872934 0.531868 0.199446
O O3 0.171230 0.778909 0.504461
O O4 0.174017 0.411009 0.204073
O O5 0.173044 0.258752 0.773033
O O6 0.082061 0.151345 0.860961
O O7 0.501728 0.118299 0.740414
O O8 0.434470 0.468941 0.073431
O O9 0.429364 0.114032 0.318144
O O10 0.369587 0.202392 0.564520
O O11 0.615178 0.190060 0.206312
O O12 0.639881 0.877429 0.025075
O O13 0.166996 0.926280 0.039949
O O14 0.500000 0.500000 0.500000
O O15 0.000000 0.500000 0.500000
#
# Coordination Sequence:
#
# PCOD8027694 Si02
#       7
#     2   2   2   2   2   2   2
#     4  12  26  43  73 103 144 185 246 295 362 431
#     4  10  24  46  71 102 148 190 241 299 366 425
#     4  11  23  43  70 104 139 194 235 301 356 435
#     4  11  25  46  73 101 149 185 244 293 372 418
#     4  12  26  45  73 109 143 190 239 303 359 432
#     4  11  24  47  69 106 144 192 242 302 357 432
#     4  11  25  47  70 107 141 191 237 308 352 432
#
# _framework density 25.777152999999998
#
# number of rings (size 3 to 8) (size 9 to 14) (size 15 to 20)
#    0.000    0.857    2.857    3.857    6.000    2.286 
#    5.143    0.000    0.000    0.000    0.000    0.000 
#    0.000    0.000    0.000    0.000    0.000    0.000 
#
# Total GULP energy -173562.075539 kJ/mol
# GULP energy per Si atom -12397.291110 kJ/mol
# Density = 2.571848 g / cm^3
# Si number density = 25.777153 Si / 1000 Ang^3
#
#
#
# Elastic Constant Matrix: (Units=GPa)
#
#
# Indices 1 2 3 4 5 6 
#
# 1 106.7242 3.8910 10.6514 6.8177 -15.2953 10.2221
# 2 3.8910 96.9900 -7.1700 1.9392 -3.5053 1.4034
# 3 10.6514 -7.1700 69.0626 3.7192 -26.9006 0.4033
# 4 6.8177 1.9392 3.7192 34.3427 -1.0846 -0.2295
# 5 -15.2953 -3.5053 -26.9006 -1.0846 45.7608 -0.7977
# 6 10.2221 1.4034 0.4033 -0.2295 -0.7977 31.2963
#
#
#
# Elastic Compliance Matrix: (Units=1/GPa)
#
#
# Indices 1 2 3 4 5 6 
#
# 1 0.010296 -0.000231 -0.000254 -0.001925 0.003172 -0.003282
# 2 -0.000231 0.010543 0.001875 -0.000698 0.001809 -0.000380
# 3 -0.000254 0.001875 0.019216 -0.001779 0.011313 0.000026
# 4 -0.001925 -0.000698 -0.001779 0.029706 -0.001023 0.000875
# 5 0.003172 0.001809 0.011313 -0.001023 0.029669 -0.000514
# 6 -0.003282 -0.000380 0.000026 0.000875 -0.000514 0.033035
#
#
# Mechanical properties :
#
#
# Convention : Reuss Voigt Hill
#
# Bulk Modulus (GPa) = 23.34596 31.94686 27.64641
# Shear Modulus (GPa) = 34.73141 39.97357 37.35249
#
# Velocity S-wave (km/s) = 3.67464 3.94221 3.81077
# Velocity P-wave (km/s) = 5.20389 5.75689 5.48736
#
# Compressibility (1/GPa) = 0.04283397
#
# Stress axis : x y z
#
# Youngs Moduli (GPa) = 97.12894 94.84918 52.04119
#
# Poissons Ratio (x) = 0.02193 0.01320
# Poissons Ratio (y) = 0.02245 -0.09756
# Poissons Ratio (z) = 0.02464 -0.17782
#
# Static dielectric constant tensor:
#      x y z
#    x 4.214390 0.035810 -0.153670 
#    y 0.035810 5.232090 -0.007490 
#    z -0.153670 -0.007490 4.690930 
# 
# 
# High freq. dielectric constant tensor:
#      x y z
#    x 2.011580 0.002200 -0.014610 
#    y 0.002200 2.044710 -0.001100 
#    z -0.014610 -0.001100 2.041800 
# 
# From -- ./inp_files/89636.got.cif
#   From: 2010.06.25/outbox.cif.g09.slc.cpg/sg2_45_cif.got.tgz:89636.got - 2010.06.27 13:26:56.
