data_PCOD8027514
_publ_section_title
;
Structure prediction by ZEFSAII (Michael W. Deem and Ramdas Pophale) SiO2 
 PCOD8027514
Probable space group: P -1
;
_chemical_formula_sum "Si O2"
_cell_formula_units_Z 16
_cell_length_a 12.139787
_cell_length_b 8.827931
_cell_length_c 14.817765
_cell_angle_alpha 130.444455
_cell_angle_beta 40.021366
_cell_angle_gamma 109.367463
_cell_volume 731.580373
_symmetry_space_group_name_H-M "P -1"
_symmetry_group_IT_number 2
_symmetry_cell_setting 'triclinic'
loop_
_space_group_symop_operation_xyz
x,y,z
-x,-y,-z
loop_
_atom_site_type_symbol
_atom_site_label
_atom_site_fract_x
_atom_site_fract_y
_atom_site_fract_z
Si Si1 0.053992 0.727318 0.774014
Si Si2 0.148273 0.811448 0.403648
Si Si3 0.659512 0.342439 0.091363
Si Si4 0.756895 0.947183 0.759114
Si Si5 0.529792 0.065501 0.778651
Si Si6 0.218756 0.485652 0.084066
Si Si7 0.760893 0.491527 0.605451
Si Si8 0.739552 0.165943 0.159584
O O1 0.127715 0.652422 0.600539
O O2 0.220977 0.727381 0.733232
O O3 0.967166 0.562994 0.807529
O O4 0.907486 0.959357 0.948442
O O5 0.281019 0.947874 0.395822
O O6 0.212107 0.696613 0.223007
O O7 0.171796 0.629689 0.391554
O O8 0.934453 0.957479 0.594937
O O9 0.448680 0.470030 0.263330
O O10 0.713854 0.332883 0.158633
O O11 0.760103 0.471853 0.018900
O O12 0.714789 0.100039 0.930165
O O13 0.801317 0.709191 0.673747
O O14 0.578013 0.014840 0.834264
O O15 0.443715 0.892383 0.730178
O O16 0.388052 0.298472 0.945472
#
# Coordination Sequence:
#
# PCOD8027514 Si02
#       8
#     2   2   2   2   2   2   2   2
#     4  10  24  47  68  91 124 173 217 259 312 376
#     4  12  23  38  62 100 130 166 205 261 325 377
#     4  12  24  40  65  98 128 168 209 264 319 378
#     4  12  24  37  62  98 132 165 210 257 319 381
#     4  11  22  40  62  92 131 166 203 262 317 371
#     4  11  23  41  66  92 134 166 205 265 323 374
#     4  12  24  41  65  97 130 168 211 259 320 380
#     4  10  24  45  70  89 125 172 219 258 311 376
#
# _framework density 21.870462
#
# number of rings (size 3 to 8) (size 9 to 14) (size 15 to 20)
#    0.000    0.750    5.000    3.000    3.500    1.000 
#    0.000    0.625    2.750    0.000    0.000    0.000 
#    0.000    0.000    0.000    0.000    0.000    0.000 
#
# Total GULP energy -198458.471585 kJ/mol
# GULP energy per Si atom -12403.654474 kJ/mol
# Density = 2.182068 g / cm^3
# Si number density = 21.870462 Si / 1000 Ang^3
#
#
#
# Elastic Constant Matrix: (Units=GPa)
#
#
# Indices 1 2 3 4 5 6 
#
# 1 94.6705 34.6981 9.9383 -2.5535 -21.7639 6.6260
# 2 34.6981 99.2496 23.0296 -18.7034 -7.5579 -2.0188
# 3 9.9383 23.0296 61.4354 -7.5977 -10.7088 5.2932
# 4 -2.5535 -18.7034 -7.5977 32.0704 4.5224 -8.1401
# 5 -21.7639 -7.5579 -10.7088 4.5224 21.2571 -6.5312
# 6 6.6260 -2.0188 5.2932 -8.1401 -6.5312 35.5704
#
#
#
# Elastic Compliance Matrix: (Units=1/GPa)
#
#
# Indices 1 2 3 4 5 6 
#
# 1 0.016083 -0.005696 0.001905 -0.004241 0.015789 -0.001674
# 2 -0.005696 0.014486 -0.004411 0.008415 -0.003520 0.003819
# 3 0.001905 -0.004411 0.019491 0.000425 0.009606 -0.001645
# 4 -0.004241 0.008415 0.000425 0.039060 -0.006708 0.008911
# 5 0.015789 -0.003520 0.009606 -0.006708 0.070314 0.006805
# 6 -0.001674 0.003819 -0.001645 0.008911 0.006805 0.032175
#
#
# Mechanical properties :
#
#
# Convention : Reuss Voigt Hill
#
# Bulk Modulus (GPa) = 29.71079 43.40970 36.56025
# Shear Modulus (GPa) = 22.80696 30.29223 26.54960
#
# Velocity S-wave (km/s) = 3.23278 3.72570 3.48795
# Velocity P-wave (km/s) = 5.24870 6.19672 5.74231
#
# Compressibility (1/GPa) = 0.03365781
#
# Stress axis : x y z
#
# Youngs Moduli (GPa) = 62.17708 69.03312 51.30548
#
# Poissons Ratio (x) = 0.39320 -0.09775
# Poissons Ratio (y) = 0.35415 0.22629
# Poissons Ratio (z) = -0.11847 0.30448
#
# Static dielectric constant tensor:
#      x y z
#    x 3.918790 -0.043020 -0.282010 
#    y -0.043020 4.143380 -0.136720 
#    z -0.282010 -0.136720 3.918340 
# 
# 
# High freq. dielectric constant tensor:
#      x y z
#    x 1.850310 -0.017350 -0.027850 
#    y -0.017350 1.880320 -0.008760 
#    z -0.027850 -0.008760 1.854040 
# 
# From -- ./inp_files/188314.got.cif
#   From: 2010.06.25/outbox.cif.g09.slc.cpg/sg2_95_cif.got.tgz:188314.got - 2010.06.27 13:26:56.
