data_PCOD8027955
_publ_section_title
;
Structure prediction by ZEFSAII (Michael W. Deem and Ramdas Pophale) SiO2 
 PCOD8027955
Probable space group: P -1
;
_chemical_formula_sum "Si O2"
_cell_formula_units_Z 14
_cell_length_a 8.820067
_cell_length_b 13.697243
_cell_length_c 5.192127
_cell_angle_alpha 62.781783
_cell_angle_beta 77.967209
_cell_angle_gamma 89.294227
_cell_volume 543.059872
_symmetry_space_group_name_H-M "P -1"
_symmetry_group_IT_number 2
_symmetry_cell_setting 'triclinic'
loop_
_space_group_symop_operation_xyz
x,y,z
-x,-y,-z
loop_
_atom_site_type_symbol
_atom_site_label
_atom_site_fract_x
_atom_site_fract_y
_atom_site_fract_z
Si Si1 0.685799 0.281161 0.712790
Si Si2 0.196448 0.045230 0.652563
Si Si3 0.147451 0.374159 0.219700
Si Si4 0.859643 0.094321 0.654284
Si Si5 0.972814 0.377410 0.758837
Si Si6 0.428276 0.238273 0.197139
Si Si7 0.369129 0.574029 0.864555
O O1 0.781392 0.206506 0.584669
O O2 0.796029 0.320202 0.871209
O O3 0.652686 0.400856 0.460615
O O4 0.516635 0.216698 0.922078
O O5 0.357373 0.123763 0.483420
O O6 0.048497 0.115477 0.567770
O O7 0.196255 0.950437 0.551567
O O8 0.192903 0.993877 0.999078
O O9 0.204172 0.506393 0.089787
O O10 0.019918 0.360235 0.056843
O O11 0.293792 0.319012 0.119507
O O12 0.079578 0.318341 0.577239
O O13 0.000000 0.500000 0.500000
O O14 0.576200 0.300435 0.217620
O O15 0.500000 0.500000 0.000000
#
# Coordination Sequence:
#
# PCOD8027955 Si02
#       7
#     2   2   2   2   2   2   2
#     4  12  27  43  74 110 146 186 247 299 360 422
#     4  10  24  50  73 103 142 188 237 295 373 425
#     4  11  26  46  72  99 146 196 241 288 358 430
#     4  10  25  47  77 104 140 184 242 304 352 431
#     4  12  25  45  71 103 141 189 246 301 345 416
#     4  11  27  44  73 104 146 196 235 295 367 438
#     4  10  25  45  68 103 153 191 236 291 361 426
#
# _framework density 25.779845999999999
#
# number of rings (size 3 to 8) (size 9 to 14) (size 15 to 20)
#    0.000    1.143    1.429    2.143   10.000    5.714 
#    0.000    0.000    0.000    0.000    0.000    0.000 
#    0.000    0.000    0.000    0.000    0.000    0.000 
#
# Total GULP energy -173437.101299 kJ/mol
# GULP energy per Si atom -12388.364378 kJ/mol
# Density = 2.572117 g / cm^3
# Si number density = 25.779846 Si / 1000 Ang^3
#
#
#
# Elastic Constant Matrix: (Units=GPa)
#
#
# Indices 1 2 3 4 5 6 
#
# 1 136.3277 42.6043 51.6760 -4.4860 -21.2642 13.6336
# 2 42.6043 88.5509 11.1796 9.4011 -4.4187 0.2791
# 3 51.6760 11.1796 100.8548 0.9400 -22.0314 12.1575
# 4 -4.4860 9.4011 0.9400 33.6272 8.3102 -4.8589
# 5 -21.2642 -4.4187 -22.0314 8.3102 51.9247 -7.0877
# 6 13.6336 0.2791 12.1575 -4.8589 -7.0877 44.8890
#
#
#
# Elastic Compliance Matrix: (Units=1/GPa)
#
#
# Indices 1 2 3 4 5 6 
#
# 1 0.011115 -0.004931 -0.004637 0.002374 0.001568 -0.001585
# 2 -0.004931 0.014047 0.001026 -0.004622 0.000447 0.000703
# 3 -0.004637 0.001026 0.013293 -0.002527 0.003981 -0.001843
# 4 0.002374 -0.004622 -0.002527 0.033152 -0.005427 0.002724
# 5 0.001568 0.000447 0.003981 -0.005427 0.022693 0.001438
# 6 -0.001585 0.000703 -0.001843 0.002724 0.001438 0.023775
#
#
# Mechanical properties :
#
#
# Convention : Reuss Voigt Hill
#
# Bulk Modulus (GPa) = 46.79568 59.62812 53.21190
# Shear Modulus (GPa) = 35.14081 40.77308 37.95695
#
# Velocity S-wave (km/s) = 3.69604 3.98123 3.84128
# Velocity P-wave (km/s) = 6.03372 6.65684 6.35292
#
# Compressibility (1/GPa) = 0.02136950
#
# Stress axis : x y z
#
# Youngs Moduli (GPa) = 89.96562 71.19022 75.22779
#
# Poissons Ratio (x) = 0.35106 0.34884
# Poissons Ratio (y) = 0.44365 -0.07715
# Poissons Ratio (z) = 0.41718 -0.07301
#
# Static dielectric constant tensor:
#      x y z
#    x 4.937230 0.100780 -0.506430 
#    y 0.100780 4.901720 0.388020 
#    z -0.506430 0.388020 5.300570 
# 
# 
# High freq. dielectric constant tensor:
#      x y z
#    x 2.049760 0.003630 -0.021720 
#    y 0.003630 2.030820 0.007710 
#    z -0.021720 0.007710 2.029860 
# 
# From -- ./inp_files/37456.got.cif
#   From: 2010.06.25/outbox.cif.g09.slc.cpg/sg2_19_cif.got.tgz:37456.got - 2010.06.27 13:26:56.
