data_PCOD8027168
_publ_section_title
;
Structure prediction by ZEFSAII (Michael W. Deem and Ramdas Pophale) SiO2 
 PCOD8027168
Probable space group: P -1
;
_chemical_formula_sum "Si O2"
_cell_formula_units_Z 14
_cell_length_a 7.862641
_cell_length_b 8.796812
_cell_length_c 12.680808
_cell_angle_alpha 119.849668
_cell_angle_beta 124.767538
_cell_angle_gamma 60.659921
_cell_volume 598.180720
_symmetry_space_group_name_H-M "P -1"
_symmetry_group_IT_number 2
_symmetry_cell_setting 'triclinic'
loop_
_space_group_symop_operation_xyz
x,y,z
-x,-y,-z
loop_
_atom_site_type_symbol
_atom_site_label
_atom_site_fract_x
_atom_site_fract_y
_atom_site_fract_z
Si Si1 0.245686 0.531452 0.929679
Si Si2 0.510658 0.231497 0.204181
Si Si3 0.091235 0.658159 0.539520
Si Si4 0.722295 0.909830 0.604756
Si Si5 0.838450 0.596860 0.693321
Si Si6 0.056408 0.891754 0.093356
Si Si7 0.306299 0.159233 0.907507
O O1 0.189564 0.338859 0.861279
O O2 0.084833 0.612782 0.801714
O O3 0.500000 0.500000 0.000000
O O4 0.167501 0.675651 0.045212
O O5 0.692698 0.330618 0.322675
O O6 0.292257 0.351150 0.225953
O O7 0.577241 0.014190 0.187047
O O8 0.473298 0.228832 0.063967
O O9 0.144832 0.607392 0.416886
O O10 0.000000 0.500000 0.500000
O O11 0.907997 0.851537 0.559552
O O12 0.709871 0.732729 0.604364
O O13 0.500000 0.000000 0.500000
O O14 0.771994 0.044719 0.755033
O O15 0.841300 0.918399 0.093610
O O16 0.000000 0.000000 0.000000
#
# Coordination Sequence:
#
# PCOD8027168 Si02
#       7
#     2   2   2   2   2   2   2
#     4  12  29  42  73 110 149 188 250 302 365 439
#     4  11  23  45  74 101 146 187 244 300 371 430
#     4  10  24  44  69 102 141 187 238 296 365 435
#     4  11  25  45  73 105 142 191 241 299 370 438
#     4  11  25  46  69 103 143 190 241 300 368 434
#     4  12  24  49  77 106 148 191 243 308 370 437
#     4  11  26  44  73 110 143 189 245 307 369 436
#
# _framework density 23.404297
#
# number of rings (size 3 to 8) (size 9 to 14) (size 15 to 20)
#    0.000    0.857    4.286    0.857   12.000    1.143 
#    2.571    1.429    0.000    0.000    0.000    0.000 
#    0.000    0.000    0.000    0.000    0.000    0.000 
#
# Total GULP energy -173450.626839 kJ/mol
# GULP energy per Si atom -12389.330489 kJ/mol
# Density = 2.335103 g / cm^3
# Si number density = 23.404297 Si / 1000 Ang^3
#
#
#
# Elastic Constant Matrix: (Units=GPa)
#
#
# Indices 1 2 3 4 5 6 
#
# 1 102.1867 28.8672 52.5224 -5.4223 16.3452 -19.2060
# 2 28.8672 94.7464 43.4615 -1.4258 -0.3302 -10.5491
# 3 52.5224 43.4615 178.0862 10.6894 23.9145 -19.7911
# 4 -5.4223 -1.4258 10.6894 47.9618 -13.6939 0.3025
# 5 16.3452 -0.3302 23.9145 -13.6939 44.8224 2.4972
# 6 -19.2060 -10.5491 -19.7911 0.3025 2.4972 38.7700
#
#
#
# Elastic Compliance Matrix: (Units=1/GPa)
#
#
# Indices 1 2 3 4 5 6 
#
# 1 0.013212 -0.002407 -0.002332 0.000884 -0.003596 0.004924
# 2 -0.002407 0.012674 -0.002796 0.001553 0.002902 0.000630
# 3 -0.002332 -0.002796 0.008114 -0.003518 -0.004717 0.002557
# 4 0.000884 0.001553 -0.003518 0.024393 0.009114 -0.001713
# 5 -0.003596 0.002902 -0.004717 0.009114 0.029242 -0.005354
# 6 0.004924 0.000630 0.002557 -0.001713 -0.005354 0.030068
#
#
# Mechanical properties :
#
#
# Convention : Reuss Voigt Hill
#
# Bulk Modulus (GPa) = 52.82521 69.41349 61.11935
# Shear Modulus (GPa) = 35.94966 42.98871 39.46919
#
# Velocity S-wave (km/s) = 3.92347 4.29043 4.11104
# Velocity P-wave (km/s) = 6.56845 7.36658 6.97893
#
# Compressibility (1/GPa) = 0.01893036
#
# Stress axis : x y z
#
# Youngs Moduli (GPa) = 75.68750 78.90186 123.24010
#
# Poissons Ratio (x) = 0.18988 0.28743
# Poissons Ratio (y) = 0.18215 0.34460
# Poissons Ratio (z) = 0.17653 0.22062
#
# Static dielectric constant tensor:
#      x y z
#    x 4.204590 -0.497490 -0.206250 
#    y -0.497490 4.543350 0.461380 
#    z -0.206250 0.461380 4.677750 
# 
# 
# High freq. dielectric constant tensor:
#      x y z
#    x 1.915820 -0.031340 0.004510 
#    y -0.031340 1.921320 0.024370 
#    z 0.004510 0.024370 1.938590 
# 
# From -- ./inp_files/383390.got.cif
#   From: 2010.06.25/outbox.cif.g09.slc.cpg/sg2_192_cif.got.tgz:383390.got - 2010.06.27 13:26:56.
