data_PCOD8027122
_publ_section_title
;
Structure prediction by ZEFSAII (Michael W. Deem and Ramdas Pophale) SiO2 
 PCOD8027122
Probable space group: P -1
;
_chemical_formula_sum "Si O2"
_cell_formula_units_Z 14
_cell_length_a 15.187196
_cell_length_b 23.456272
_cell_length_c 11.425613
_cell_angle_alpha 30.858201
_cell_angle_beta 152.385194
_cell_angle_gamma 160.515498
_cell_volume 622.229216
_symmetry_space_group_name_H-M "P -1"
_symmetry_group_IT_number 2
_symmetry_cell_setting 'triclinic'
loop_
_space_group_symop_operation_xyz
x,y,z
-x,-y,-z
loop_
_atom_site_type_symbol
_atom_site_label
_atom_site_fract_x
_atom_site_fract_y
_atom_site_fract_z
Si Si1 0.203912 0.484336 0.285764
Si Si2 0.713830 0.701219 0.914667
Si Si3 0.282695 0.590085 0.441378
Si Si4 0.786940 0.203009 0.966551
Si Si5 0.831450 0.262996 0.643120
Si Si6 0.218223 0.080979 0.221657
Si Si7 0.852431 0.751761 0.509563
O O1 0.251241 0.493092 0.465400
O O2 0.513955 0.639703 0.309035
O O3 0.073161 0.309672 0.391866
O O4 0.000000 0.500000 0.000000
O O5 0.617432 0.735888 0.631133
O O6 0.669620 0.748794 0.899739
O O7 0.500000 0.500000 0.000000
O O8 0.052782 0.810362 0.119058
O O9 0.232854 0.694706 0.157056
O O10 0.049771 0.451717 0.512038
O O11 0.830852 0.270238 0.770008
O O12 0.062033 0.255401 0.247989
O O13 0.500000 0.000000 0.000000
O O14 0.505389 0.136377 0.428271
O O15 0.046683 0.945442 0.364830
O O16 0.000000 0.000000 0.000000
#
# Coordination Sequence:
#
# PCOD8027122 Si02
#       7
#     2   2   2   2   2   2   2
#     4  11  25  45  70 101 136 189 232 286 354 426
#     4  10  24  44  68 103 132 184 233 285 347 408
#     4  11  23  44  74 102 139 182 243 290 345 422
#     4  12  22  43  70 103 141 183 230 291 352 415
#     4  11  25  44  73 103 140 185 234 291 352 412
#     4  12  28  45  68 105 147 183 235 291 355 420
#     4  11  26  46  70 101 144 185 231 294 357 414
#
# _framework density 22.499746999999999
#
# number of rings (size 3 to 8) (size 9 to 14) (size 15 to 20)
#    0.000    0.857    4.286    1.286    8.000    2.857 
#    0.000    2.857    0.000    0.000    0.000    0.000 
#    0.000    0.000    0.000    0.000    0.000    0.000 
#
# Total GULP energy -173522.890753 kJ/mol
# GULP energy per Si atom -12394.492197 kJ/mol
# Density = 2.244854 g / cm^3
# Si number density = 22.499747 Si / 1000 Ang^3
#
#
#
# Elastic Constant Matrix: (Units=GPa)
#
#
# Indices 1 2 3 4 5 6 
#
# 1 113.9695 43.6817 45.5196 5.9380 -2.0137 -8.7480
# 2 43.6817 97.7656 54.0008 8.4264 5.0280 1.2590
# 3 45.5196 54.0008 141.7469 32.1114 5.3672 5.9039
# 4 5.9380 8.4264 32.1114 56.3292 4.1862 -1.4353
# 5 -2.0137 5.0280 5.3672 4.1862 37.4600 11.4230
# 6 -8.7480 1.2590 5.9039 -1.4353 11.4230 34.3693
#
#
#
# Elastic Compliance Matrix: (Units=1/GPa)
#
#
# Indices 1 2 3 4 5 6 
#
# 1 0.011507 -0.003852 -0.002588 0.000899 0.000359 0.003433
# 2 -0.003852 0.014368 -0.004363 0.000853 -0.001542 -0.000209
# 3 -0.002588 -0.004363 0.010862 -0.005358 0.000310 -0.002692
# 4 0.000899 0.000853 -0.005358 0.020841 -0.002486 0.002815
# 5 0.000359 -0.001542 0.000310 -0.002486 0.030220 -0.010053
# 6 0.003433 -0.000209 -0.002692 0.002815 -0.010053 0.033898
#
#
# Mechanical properties :
#
#
# Convention : Reuss Voigt Hill
#
# Bulk Modulus (GPa) = 66.08777 71.09848 68.59312
# Shear Modulus (GPa) = 33.70451 39.65035 36.67743
#
# Velocity S-wave (km/s) = 3.87459 4.20248 4.04186
# Velocity P-wave (km/s) = 7.03229 7.43075 7.23426
#
# Compressibility (1/GPa) = 0.01513139
#
# Stress axis : x y z
#
# Youngs Moduli (GPa) = 86.90040 69.59933 92.06113
#
# Poissons Ratio (x) = 0.26811 0.23827
# Poissons Ratio (y) = 0.33475 0.40165
# Poissons Ratio (z) = 0.22492 0.30365
#
# Static dielectric constant tensor:
#      x y z
#    x 4.064250 -0.069400 0.191380 
#    y -0.069400 3.917270 0.327160 
#    z 0.191380 0.327160 4.641070 
# 
# 
# High freq. dielectric constant tensor:
#      x y z
#    x 1.877340 -0.010330 0.008330 
#    y -0.010330 1.873430 0.014580 
#    z 0.008330 0.014580 1.910240 
# 
# From -- ./inp_files/458064.got.cif
#   From: 2010.06.25/outbox.cif.g09.slc.cpg/sg2_230_cif.got.tgz:458064.got - 2010.06.27 13:26:56.
