data_PCOD8027175
_publ_section_title
;
Structure prediction by ZEFSAII (Michael W. Deem and Ramdas Pophale) SiO2 
 PCOD8027175
Probable space group: P -1
;
_chemical_formula_sum "Si O2"
_cell_formula_units_Z 14
_cell_length_a 11.567329
_cell_length_b 5.365112
_cell_length_c 12.872975
_cell_angle_alpha 112.274365
_cell_angle_beta 105.001718
_cell_angle_gamma 53.966150
_cell_volume 597.148309
_symmetry_space_group_name_H-M "P -1"
_symmetry_group_IT_number 2
_symmetry_cell_setting 'triclinic'
loop_
_space_group_symop_operation_xyz
x,y,z
-x,-y,-z
loop_
_atom_site_type_symbol
_atom_site_label
_atom_site_fract_x
_atom_site_fract_y
_atom_site_fract_z
Si Si1 0.638391 0.150884 0.096931
Si Si2 0.591899 0.648044 0.518061
Si Si3 0.662439 0.372672 0.929235
Si Si4 0.860659 0.517679 0.934747
Si Si5 0.016506 0.558173 0.631630
Si Si6 0.755184 0.772960 0.737326
Si Si7 0.811330 0.138231 0.328668
O O1 0.469860 0.287152 0.094013
O O2 0.704548 0.148102 0.221253
O O3 0.647566 0.383931 0.052350
O O4 0.723431 0.804874 0.008946
O O5 0.500000 0.500000 0.500000
O O6 0.657059 0.668385 0.645016
O O7 0.722356 0.406747 0.436686
O O8 0.500000 0.000000 0.500000
O O9 0.829150 0.251872 0.922275
O O10 0.647719 0.107951 0.823575
O O11 0.856669 0.521862 0.810522
O O12 0.000000 0.500000 0.000000
O O13 0.088460 0.764573 0.689631
O O14 0.000000 0.500000 0.500000
O O15 0.858075 0.782767 0.677751
O O16 0.102515 0.214900 0.656085
#
# Coordination Sequence:
#
# PCOD8027175 Si02
#       7
#     2   2   2   2   2   2   2
#     4  10  24  44  69 105 140 195 245 302 374 435
#     4  12  28  48  75 111 147 193 251 304 374 447
#     4  10  24  46  71 100 149 188 249 306 370 442
#     4  11  25  43  70 106 142 192 245 306 368 442
#     4  12  27  48  72 106 148 192 248 300 379 435
#     4  11  27  43  74 103 143 195 242 310 367 443
#     4  12  27  46  76 106 147 196 243 310 366 450
#
# _framework density 23.444763999999999
#
# number of rings (size 3 to 8) (size 9 to 14) (size 15 to 20)
#    0.000    0.857    1.429    3.429   12.000    1.143 
#    0.000    0.000    0.000    0.000    0.000    0.000 
#    0.000    0.000    0.000    0.000    0.000    0.000 
#
# Total GULP energy -173478.468665 kJ/mol
# GULP energy per Si atom -12391.319190 kJ/mol
# Density = 2.339140 g / cm^3
# Si number density = 23.444764 Si / 1000 Ang^3
#
#
#
# Elastic Constant Matrix: (Units=GPa)
#
#
# Indices 1 2 3 4 5 6 
#
# 1 158.8113 31.3358 42.7304 -11.0562 18.2111 4.7529
# 2 31.3358 103.9088 30.7940 -13.3911 2.6889 5.5931
# 3 42.7304 30.7940 161.5706 -16.9969 17.2008 -4.3845
# 4 -11.0562 -13.3911 -16.9969 39.8529 -10.1016 -2.2884
# 5 18.2111 2.6889 17.2008 -10.1016 37.0617 1.3916
# 6 4.7529 5.5931 -4.3845 -2.2884 1.3916 35.8891
#
#
#
# Elastic Compliance Matrix: (Units=1/GPa)
#
#
# Indices 1 2 3 4 5 6 
#
# 1 0.007341 -0.001688 -0.001326 0.000151 -0.002800 -0.000753
# 2 -0.001688 0.011010 -0.001561 0.002881 0.001599 -0.001561
# 3 -0.001326 -0.001561 0.007297 0.001748 -0.002202 0.001507
# 4 0.000151 0.002881 0.001748 0.028609 0.006654 0.001311
# 5 -0.002800 0.001599 -0.002202 0.006654 0.031112 -0.000930
# 6 -0.000753 -0.001561 0.001507 0.001311 -0.000930 0.028510
#
#
# Mechanical properties :
#
#
# Convention : Reuss Voigt Hill
#
# Bulk Modulus (GPa) = 60.62307 70.44568 65.53438
# Shear Modulus (GPa) = 38.90156 43.85609 41.37882
#
# Velocity S-wave (km/s) = 4.07785 4.32975 4.20569
# Velocity P-wave (km/s) = 6.93439 7.42350 7.18311
#
# Compressibility (1/GPa) = 0.01649537
#
# Stress axis : x y z
#
# Youngs Moduli (GPa) = 136.22469 90.82960 137.04751
#
# Poissons Ratio (x) = 0.15335 0.18174
# Poissons Ratio (y) = 0.23000 0.21399
# Poissons Ratio (z) = 0.18065 0.14182
#
# Static dielectric constant tensor:
#      x y z
#    x 4.714790 0.159640 -0.184710 
#    y 0.159640 4.588840 -0.106180 
#    z -0.184710 -0.106180 4.372220 
# 
# 
# High freq. dielectric constant tensor:
#      x y z
#    x 1.944030 -0.002670 -0.001600 
#    y -0.002670 1.926160 0.007880 
#    z -0.001600 0.007880 1.944720 
# 
# From -- ./inp_files/53249.got.cif
#   From: 2010.06.25/outbox.cif.g09.slc.cpg/sg2_27_cif.got.tgz:53249.got - 2010.06.27 13:26:56.
