data_PCOD8027679
_publ_section_title
;
Structure prediction by ZEFSAII (Michael W. Deem and Ramdas Pophale) SiO2 
 PCOD8027679
Probable space group: P -1
;
_chemical_formula_sum "Si O2"
_cell_formula_units_Z 16
_cell_length_a 14.546114
_cell_length_b 11.663412
_cell_length_c 14.563159
_cell_angle_alpha 43.265545
_cell_angle_beta 151.674216
_cell_angle_gamma 118.990522
_cell_volume 704.563584
_symmetry_space_group_name_H-M "P -1"
_symmetry_group_IT_number 2
_symmetry_cell_setting 'triclinic'
loop_
_space_group_symop_operation_xyz
x,y,z
-x,-y,-z
loop_
_atom_site_type_symbol
_atom_site_label
_atom_site_fract_x
_atom_site_fract_y
_atom_site_fract_z
Si Si1 0.929086 0.871531 0.070545
Si Si2 0.216604 0.393229 0.003678
Si Si3 0.565369 0.036174 0.791147
Si Si4 0.494168 0.721874 0.961664
Si Si5 0.117271 0.304945 0.161785
Si Si6 0.169297 0.773898 0.794918
Si Si7 0.299350 0.691394 0.168087
Si Si8 0.664387 0.300178 0.346881
O O1 0.098407 0.813789 0.335294
O O2 0.930995 0.686194 0.132387
O O3 0.684067 0.006456 0.814761
O O4 0.000000 0.000000 0.000000
O O5 0.241507 0.314405 0.174570
O O6 0.461278 0.310726 0.223210
O O7 0.096549 0.627597 0.766186
O O8 0.301858 0.149967 0.480313
O O9 0.637626 0.143524 0.864620
O O10 0.634271 0.833964 0.018160
O O11 0.390597 0.743902 0.957638
O O12 0.319040 0.804298 0.674557
O O13 0.648457 0.504627 0.196453
O O14 0.000000 0.500000 0.000000
O O15 0.921429 0.254220 0.998063
O O16 0.238321 0.691769 0.006725
O O17 0.000000 0.000000 0.500000
O O18 0.500000 0.500000 0.500000
#
# Coordination Sequence:
#
# PCOD8027679 Si02
#       8
#     2   2   2   2   2   2   2   2
#     4  12  27  43  74 110 138 187 247 304 360 436
#     4  11  24  46  71 104 144 193 235 299 369 424
#     4  12  26  43  72 108 140 190 246 297 365 436
#     4  10  24  46  70  97 143 194 233 296 365 430
#     4  12  24  45  72 100 151 190 233 301 369 426
#     4  11  25  44  75 108 143 196 246 294 365 442
#     4  12  26  47  71 107 146 191 242 296 362 435
#     4  10  24  49  68  99 149 183 238 300 360 429
#
# _framework density 22.709094
#
# number of rings (size 3 to 8) (size 9 to 14) (size 15 to 20)
#    0.000    0.750    3.750    2.250    5.250    6.000 
#    0.000    0.000    0.000    0.000    0.000    0.000 
#    0.000    0.000    0.000    0.000    0.000    0.000 
#
# Total GULP energy -198223.148980 kJ/mol
# GULP energy per Si atom -12388.946811 kJ/mol
# Density = 2.265741 g / cm^3
# Si number density = 22.709094 Si / 1000 Ang^3
#
#
#
# Elastic Constant Matrix: (Units=GPa)
#
#
# Indices 1 2 3 4 5 6 
#
# 1 107.0471 27.1494 23.7484 -4.4564 -5.7664 13.4781
# 2 27.1494 150.4287 45.6093 -17.6306 -2.1094 22.4914
# 3 23.7484 45.6093 94.5578 7.8172 -0.1471 2.9446
# 4 -4.4564 -17.6306 7.8172 29.9117 -0.5994 0.4053
# 5 -5.7664 -2.1094 -0.1471 -0.5994 30.5579 2.5582
# 6 13.4781 22.4914 2.9446 0.4053 2.5582 42.8873
#
#
#
# Elastic Compliance Matrix: (Units=1/GPa)
#
#
# Indices 1 2 3 4 5 6 
#
# 1 0.010608 -0.000402 -0.002543 0.002095 0.002263 -0.003103
# 2 -0.000402 0.009836 -0.005083 0.007154 0.001122 -0.004817
# 3 -0.002543 -0.005083 0.014172 -0.007137 -0.001122 0.002626
# 4 0.002095 0.007154 -0.007137 0.039926 0.002008 -0.004417
# 5 0.002263 0.001122 -0.001122 0.002008 0.033535 -0.003242
# 6 -0.003103 -0.004817 0.002626 -0.004417 -0.003242 0.026873
#
#
# Mechanical properties :
#
#
# Convention : Reuss Voigt Hill
#
# Bulk Modulus (GPa) = 53.88103 60.56088 57.22095
# Shear Modulus (GPa) = 31.80815 37.70646 34.75730
#
# Velocity S-wave (km/s) = 3.74662 4.07924 3.91646
# Velocity P-wave (km/s) = 6.51877 6.99378 6.76045
#
# Compressibility (1/GPa) = 0.01855941
#
# Stress axis : x y z
#
# Youngs Moduli (GPa) = 94.27120 101.66966 70.55944
#
# Poissons Ratio (x) = 0.04088 0.17945
# Poissons Ratio (y) = 0.03791 0.35864
# Poissons Ratio (z) = 0.23976 0.51677
#
# Static dielectric constant tensor:
#      x y z
#    x 4.141770 0.278340 0.571940 
#    y 0.278340 4.709890 -0.007520 
#    z 0.571940 -0.007520 3.585720 
# 
# 
# High freq. dielectric constant tensor:
#      x y z
#    x 1.903010 0.008780 -0.002560 
#    y 0.008780 1.920660 -0.016090 
#    z -0.002560 -0.016090 1.876940 
# 
# From -- ./inp_files/532373.got.cif
#   From: 2010.06.25/outbox.cif.g09.slc.cpg/sg2_267_cif.got.tgz:532373.got - 2010.06.27 13:26:56.
