data_PCOD8027826
_publ_section_title
;
Structure prediction by ZEFSAII (Michael W. Deem and Ramdas Pophale) SiO2 
 PCOD8027826
Probable space group: P -1
;
_chemical_formula_sum "Si O2"
_cell_formula_units_Z 16
_cell_length_a 6.031391
_cell_length_b 18.695454
_cell_length_c 11.216520
_cell_angle_alpha 135.736626
_cell_angle_beta 130.422426
_cell_angle_gamma 63.642078
_cell_volume 671.534041
_symmetry_space_group_name_H-M "P -1"
_symmetry_group_IT_number 2
_symmetry_cell_setting 'triclinic'
loop_
_space_group_symop_operation_xyz
x,y,z
-x,-y,-z
loop_
_atom_site_type_symbol
_atom_site_label
_atom_site_fract_x
_atom_site_fract_y
_atom_site_fract_z
Si Si1 0.618580 0.711705 0.942777
Si Si2 0.752555 0.784189 0.824094
Si Si3 0.733395 0.069272 0.514303
Si Si4 0.839970 0.408487 0.918376
Si Si5 0.236576 0.378545 0.765679
Si Si6 0.682181 0.110400 0.821068
Si Si7 0.984377 0.395495 0.439403
Si Si8 0.788256 0.237155 0.532850
O O1 0.760289 0.772422 0.954137
O O2 0.351438 0.642650 0.716086
O O3 0.520469 0.794937 0.104595
O O4 0.856117 0.640969 0.000116
O O5 0.432720 0.813419 0.701511
O O6 0.824082 0.681558 0.658680
O O7 0.998796 0.872676 0.986836
O O8 0.713323 0.109521 0.688846
O O9 0.784620 0.165071 0.559948
O O10 0.443541 0.998290 0.301672
O O11 0.000000 0.000000 0.500000
O O12 0.587704 0.383886 0.901166
O O13 0.703103 0.350594 0.684348
O O14 0.869855 0.534377 0.070843
O O15 0.109233 0.412500 0.635298
O O16 0.107880 0.263045 0.615273
O O17 0.000000 0.500000 0.500000
#
# Coordination Sequence:
#
# PCOD8027826 Si02
#       8
#     2   2   2   2   2   2   2   2
#     4  11  24  45  72 102 139 192 234 288 350 423
#     4  11  23  43  69 102 143 182 238 287 357 418
#     4  11  25  48  75 106 136 180 236 292 361 427
#     4  11  25  42  68 101 146 193 238 290 348 409
#     4  11  25  45  64 104 147 187 244 292 349 413
#     4  10  24  47  72 103 140 175 240 290 349 436
#     4  11  24  41  68 100 142 191 239 287 343 417
#     4  12  25  43  73 100 143 187 229 300 360 413
#
# _framework density 23.826044
#
# number of rings (size 3 to 8) (size 9 to 14) (size 15 to 20)
#    0.000    1.000    2.500    3.375    1.750   10.500 
#    0.000    2.500    0.000    0.000    0.000    0.000 
#    0.000    0.000    0.000    0.000    0.000    0.000 
#
# Total GULP energy -198335.079081 kJ/mol
# GULP energy per Si atom -12395.942443 kJ/mol
# Density = 2.377181 g / cm^3
# Si number density = 23.826044 Si / 1000 Ang^3
#
#
#
# Elastic Constant Matrix: (Units=GPa)
#
#
# Indices 1 2 3 4 5 6 
#
# 1 103.8869 45.1387 51.7044 3.9742 14.3705 6.1350
# 2 45.1387 73.7686 45.1754 2.1139 14.4714 17.6805
# 3 51.7044 45.1754 132.2474 7.1281 16.7436 -0.5455
# 4 3.9742 2.1139 7.1281 32.7307 7.3605 6.7020
# 5 14.3705 14.4714 16.7436 7.3605 58.5398 5.8281
# 6 6.1350 17.6805 -0.5455 6.7020 5.8281 48.8548
#
#
#
# Elastic Compliance Matrix: (Units=1/GPa)
#
#
# Indices 1 2 3 4 5 6 
#
# 1 0.014223 -0.006818 -0.003078 -0.000577 -0.000936 0.000838
# 2 -0.006818 0.023018 -0.005095 0.002486 -0.002113 -0.007620
# 3 -0.003078 -0.005095 0.010760 -0.001958 -0.001090 0.002749
# 4 -0.000577 0.002486 -0.001958 0.032689 -0.003534 -0.004912
# 5 -0.000936 -0.002113 -0.001090 -0.003534 0.018678 -0.000873
# 6 0.000838 -0.007620 0.002749 -0.004912 -0.000873 0.023930
#
#
# Mechanical properties :
#
#
# Convention : Reuss Voigt Hill
#
# Bulk Modulus (GPa) = 55.50144 65.99331 60.74738
# Shear Modulus (GPa) = 31.39011 39.21734 35.30372
#
# Velocity S-wave (km/s) = 3.63364 4.06148 3.85350
# Velocity P-wave (km/s) = 6.39917 7.05353 6.73430
#
# Compressibility (1/GPa) = 0.01801755
#
# Stress axis : x y z
#
# Youngs Moduli (GPa) = 70.31096 43.44505 92.93279
#
# Poissons Ratio (x) = 0.29622 0.28608
# Poissons Ratio (y) = 0.47939 0.47349
# Poissons Ratio (z) = 0.21644 0.22135
#
# Static dielectric constant tensor:
#      x y z
#    x 4.640230 -0.083020 0.025000 
#    y -0.083020 3.709210 -0.015370 
#    z 0.025000 -0.015370 4.548800 
# 
# 
# High freq. dielectric constant tensor:
#      x y z
#    x 1.980700 0.005070 0.013870 
#    y 0.005070 1.906460 0.004570 
#    z 0.013870 0.004570 1.968310 
# 
# From -- ./inp_files/370477.got.cif
#   From: 2010.06.25/outbox.cif.g09.slc.cpg/sg2_186_cif.got.tgz:370477.got - 2010.06.27 13:26:56.
