data_PCOD8027698
_publ_section_title
;
Structure prediction by ZEFSAII (Michael W. Deem and Ramdas Pophale) SiO2 
 PCOD8027698
Probable space group: P -1
;
_chemical_formula_sum "Si O2"
_cell_formula_units_Z 16
_cell_length_a 11.557726
_cell_length_b 14.118053
_cell_length_c 8.230649
_cell_angle_alpha 104.297825
_cell_angle_beta 146.442329
_cell_angle_gamma 87.740153
_cell_volume 683.813308
_symmetry_space_group_name_H-M "P -1"
_symmetry_group_IT_number 2
_symmetry_cell_setting 'triclinic'
loop_
_space_group_symop_operation_xyz
x,y,z
-x,-y,-z
loop_
_atom_site_type_symbol
_atom_site_label
_atom_site_fract_x
_atom_site_fract_y
_atom_site_fract_z
Si Si1 0.292984 0.526655 0.702655
Si Si2 0.597731 0.257422 0.925752
Si Si3 0.864593 0.801917 0.807335
Si Si4 0.622556 0.817498 0.840995
Si Si5 0.412817 0.082100 0.847012
Si Si6 0.078013 0.646615 0.907991
Si Si7 0.611975 0.419723 0.528686
Si Si8 0.676008 0.060311 0.597690
O O1 0.293920 0.541116 0.518157
O O2 0.072292 0.431229 0.435340
O O3 0.500000 0.500000 0.000000
O O4 0.289779 0.628657 0.831100
O O5 0.338133 0.226429 0.567188
O O6 0.615808 0.176591 0.050685
O O7 0.737619 0.257393 0.925895
O O8 0.808963 0.846204 0.932317
O O9 0.926790 0.696587 0.861214
O O10 0.081408 0.885678 0.021372
O O11 0.554344 0.695188 0.729528
O O12 0.415750 0.856443 0.566705
O O13 0.715905 0.870954 0.147527
O O14 0.277702 0.023322 0.508299
O O15 0.500000 0.000000 0.000000
O O16 0.190636 0.580902 0.121620
O O17 0.500000 0.500000 0.500000
O O18 0.500000 0.000000 0.500000
#
# Coordination Sequence:
#
# PCOD8027698 Si02
#       8
#     2   2   2   2   2   2   2   2
#     4  12  25  45  71 107 150 193 250 306 377 450
#     4  12  24  45  73 106 150 191 250 311 369 448
#     4  12  23  43  76 102 145 187 248 304 375 439
#     4  11  23  45  69 102 143 184 245 303 362 453
#     4  10  24  46  71 104 147 192 244 310 375 438
#     4  12  25  47  74 109 147 201 246 308 377 448
#     4  12  24  46  74 106 148 198 250 298 369 453
#     4  11  24  46  75 103 141 190 243 308 376 439
#
# _framework density 23.398198000000001
#
# number of rings (size 3 to 8) (size 9 to 14) (size 15 to 20)
#    0.000    0.500    5.000    3.750    0.000    2.500 
#    0.000    8.750    0.000    0.000    0.000    0.000 
#    0.000    0.000    0.000    0.000    0.000    0.000 
#
# Total GULP energy -198276.507280 kJ/mol
# GULP energy per Si atom -12392.281705 kJ/mol
# Density = 2.334494 g / cm^3
# Si number density = 23.398198 Si / 1000 Ang^3
#
#
#
# Elastic Constant Matrix: (Units=GPa)
#
#
# Indices 1 2 3 4 5 6 
#
# 1 132.9309 47.9399 55.3989 7.5345 -6.8343 -8.5466
# 2 47.9399 135.9338 40.2341 2.5043 4.4801 -8.6059
# 3 55.3989 40.2341 135.8527 16.1566 9.9316 -1.1074
# 4 7.5345 2.5043 16.1566 39.5885 1.1252 -7.3234
# 5 -6.8343 4.4801 9.9316 1.1252 34.5861 10.3546
# 6 -8.5466 -8.6059 -1.1074 -7.3234 10.3546 54.6302
#
#
#
# Elastic Compliance Matrix: (Units=1/GPa)
#
#
# Indices 1 2 3 4 5 6 
#
# 1 0.010162 -0.002600 -0.003569 -0.000322 0.003246 0.000450
# 2 -0.002600 0.008854 -0.001532 0.000864 -0.001665 0.001388
# 3 -0.003569 -0.001532 0.009880 -0.003250 -0.003104 -0.000447
# 4 -0.000322 0.000864 -0.003250 0.027358 -0.001311 0.003936
# 5 0.003246 -0.001665 -0.003104 -0.001311 0.032549 -0.006162
# 6 0.000450 0.001388 -0.000447 0.003936 -0.006162 0.020280
#
#
# Mechanical properties :
#
#
# Convention : Reuss Voigt Hill
#
# Bulk Modulus (GPa) = 74.10793 76.87367 75.49080
# Shear Modulus (GPa) = 38.76487 43.17058 40.96772
#
# Velocity S-wave (km/s) = 4.07473 4.30005 4.18891
# Velocity P-wave (km/s) = 7.34024 7.58813 7.46522
#
# Compressibility (1/GPa) = 0.01349383
#
# Stress axis : x y z
#
# Youngs Moduli (GPa) = 98.40771 112.94836 101.21630
#
# Poissons Ratio (x) = 0.29366 0.36126
# Poissons Ratio (y) = 0.25585 0.15502
# Poissons Ratio (z) = 0.35123 0.17299
#
# Static dielectric constant tensor:
#      x y z
#    x 4.608430 -0.184860 -0.348270 
#    y -0.184860 4.677000 0.282240 
#    z -0.348270 0.282240 4.211750 
# 
# 
# High freq. dielectric constant tensor:
#      x y z
#    x 1.929790 -0.007910 -0.009890 
#    y -0.007910 1.949810 0.022120 
#    z -0.009890 0.022120 1.909130 
# 
# From -- ./inp_files/273961.got.cif
#   From: 2010.06.25/outbox.cif.g09.slc.cpg/sg2_137_cif.got.tgz:273961.got - 2010.06.27 13:26:56.
