data_PCOD8027627
_publ_section_title
;
Structure prediction by ZEFSAII (Michael W. Deem and Ramdas Pophale) SiO2 
 PCOD8027627
Probable space group: P -1
;
_chemical_formula_sum "Si O2"
_cell_formula_units_Z 16
_cell_length_a 9.969458
_cell_length_b 14.603121
_cell_length_c 13.121963
_cell_angle_alpha 67.032621
_cell_angle_beta 35.477426
_cell_angle_gamma 47.296831
_cell_volume 753.661978
_symmetry_space_group_name_H-M "P -1"
_symmetry_group_IT_number 2
_symmetry_cell_setting 'triclinic'
loop_
_space_group_symop_operation_xyz
x,y,z
-x,-y,-z
loop_
_atom_site_type_symbol
_atom_site_label
_atom_site_fract_x
_atom_site_fract_y
_atom_site_fract_z
Si Si1 0.800572 0.312095 0.169375
Si Si2 0.131349 0.851493 0.974863
Si Si3 0.512737 0.974545 0.384579
Si Si4 0.256808 0.870032 0.464691
Si Si5 0.702207 0.781456 0.726680
Si Si6 0.900243 0.591894 0.121863
Si Si7 0.719875 0.496458 0.442174
Si Si8 0.222380 0.144375 0.149188
O O1 0.477028 0.395315 0.393598
O O2 0.091713 0.250057 0.092949
O O3 0.840636 0.195952 0.137171
O O4 0.835441 0.397585 0.035754
O O5 0.477226 0.753144 0.852431
O O6 0.881837 0.854765 0.184665
O O7 0.000000 0.000000 0.000000
O O8 0.343242 0.113983 0.368631
O O9 0.500000 0.000000 0.500000
O O10 0.359915 0.914858 0.471844
O O11 0.549374 0.743487 0.271885
O O12 0.086576 0.825793 0.638924
O O13 0.000000 0.000000 0.500000
O O14 0.618352 0.839514 0.867206
O O15 0.058750 0.641778 0.570713
O O16 0.918274 0.518275 0.244122
O O17 0.000000 0.500000 0.000000
O O18 0.500000 0.500000 0.500000
O O19 0.500000 0.000000 0.000000
#
# Coordination Sequence:
#
# PCOD8027627 Si02
#       8
#     2   2   2   2   2   2   2   2
#     4  12  24  44  72 101 144 189 239 296 360 425
#     4  10  24  46  67  97 141 188 234 293 359 431
#     4  11  25  44  69 105 145 184 238 306 364 427
#     4  12  24  42  71 109 142 182 252 305 361 431
#     4  11  24  46  67 100 145 187 242 290 363 433
#     4  12  24  43  71 105 149 189 235 302 364 428
#     4  12  24  46  71 104 145 191 237 296 362 433
#     4  12  23  39  68 105 139 184 239 303 367 422
#
# _framework density 21.229676999999999
#
# number of rings (size 3 to 8) (size 9 to 14) (size 15 to 20)
#    0.000    0.500    6.250    2.250    5.250    0.500 
#    2.250    0.625    0.000    0.000    0.000    0.000 
#    0.000    0.000    0.000    0.000    0.000    0.000 
#
# Total GULP energy -198272.791026 kJ/mol
# GULP energy per Si atom -12392.049439 kJ/mol
# Density = 2.118136 g / cm^3
# Si number density = 21.229677 Si / 1000 Ang^3
#
#
#
# Elastic Constant Matrix: (Units=GPa)
#
#
# Indices 1 2 3 4 5 6 
#
# 1 142.6061 41.4100 46.0007 5.4233 14.0481 4.7278
# 2 41.4100 96.9138 34.8660 17.4089 12.7158 -1.1183
# 3 46.0007 34.8660 128.2772 12.4306 19.0370 9.3138
# 4 5.4233 17.4089 12.4306 45.5945 11.4438 -0.2328
# 5 14.0481 12.7158 19.0370 11.4438 41.1692 8.5602
# 6 4.7278 -1.1183 9.3138 -0.2328 8.5602 37.4099
#
#
#
# Elastic Compliance Matrix: (Units=1/GPa)
#
#
# Indices 1 2 3 4 5 6 
#
# 1 0.008669 -0.002934 -0.002199 0.000998 -0.001241 -0.000346
# 2 -0.002934 0.013197 -0.002078 -0.003765 -0.001396 0.001579
# 3 -0.002199 -0.002078 0.009733 -0.000981 -0.002494 -0.001643
# 4 0.000998 -0.003765 -0.000981 0.025033 -0.006002 0.001535
# 5 -0.001241 -0.001396 -0.002494 -0.006002 0.029211 -0.005985
# 6 -0.000346 0.001579 -0.001643 0.001535 -0.005985 0.028610
#
#
# Mechanical properties :
#
#
# Convention : Reuss Voigt Hill
#
# Bulk Modulus (GPa) = 58.20895 68.03894 63.12394
# Shear Modulus (GPa) = 37.14706 41.20275 39.17490
#
# Velocity S-wave (km/s) = 4.18756 4.41024 4.30034
# Velocity P-wave (km/s) = 7.13156 7.61920 7.37941
#
# Compressibility (1/GPa) = 0.01717949
#
# Stress axis : x y z
#
# Youngs Moduli (GPa) = 115.35029 75.77422 102.73908
#
# Poissons Ratio (x) = 0.22229 0.22592
# Poissons Ratio (y) = 0.33840 0.21345
# Poissons Ratio (z) = 0.25365 0.15743
#
# Static dielectric constant tensor:
#      x y z
#    x 4.816010 0.615620 -0.571220 
#    y 0.615620 4.875040 -0.653280 
#    z -0.571220 -0.653280 4.774060 
# 
# 
# High freq. dielectric constant tensor:
#      x y z
#    x 1.826250 0.013970 0.002250 
#    y 0.013970 1.833080 0.007930 
#    z 0.002250 0.007930 1.844690 
# 
# From -- ./inp_files/398883.got.cif
#   From: 2010.06.25/outbox.cif.g09.slc.cpg/sg2_200_cif.got.tgz:398883.got - 2010.06.27 13:26:56.
