data_PCOD8027906
_publ_section_title
;
Structure prediction by ZEFSAII (Michael W. Deem and Ramdas Pophale) SiO2 
 PCOD8027906
Probable space group: P -1
;
_chemical_formula_sum "Si O2"
_cell_formula_units_Z 14
_cell_length_a 13.056856
_cell_length_b 5.359768
_cell_length_c 9.435436
_cell_angle_alpha 72.882784
_cell_angle_beta 108.166598
_cell_angle_gamma 116.105021
_cell_volume 553.756102
_symmetry_space_group_name_H-M "P -1"
_symmetry_group_IT_number 2
_symmetry_cell_setting 'triclinic'
loop_
_space_group_symop_operation_xyz
x,y,z
-x,-y,-z
loop_
_atom_site_type_symbol
_atom_site_label
_atom_site_fract_x
_atom_site_fract_y
_atom_site_fract_z
Si Si1 0.319977 0.110202 0.505839
Si Si2 0.481528 0.142843 0.324118
Si Si3 0.357528 0.550269 0.230182
Si Si4 0.186783 0.255757 0.979128
Si Si5 0.955416 0.325910 0.870844
Si Si6 0.884906 0.460720 0.538848
Si Si7 0.706949 0.624738 0.291670
O O1 0.436707 0.078763 0.487538
O O2 0.309473 0.391265 0.385287
O O3 0.344029 0.176536 0.673340
O O4 0.200523 0.861586 0.462688
O O5 0.438044 0.395195 0.221196
O O6 0.621561 0.291149 0.325721
O O7 0.421187 0.882092 0.235221
O O8 0.085305 0.492249 0.288897
O O9 0.253590 0.504931 0.079226
O O10 0.270054 0.277252 0.876627
O O11 0.156258 0.959264 0.096478
O O12 0.066556 0.269443 0.867163
O O13 0.000000 0.500000 0.000000
O O14 0.828947 0.670470 0.416033
O O15 0.000000 0.500000 0.500000
#
# Coordination Sequence:
#
# PCOD8027906 Si02
#       7
#     2   2   2   2   2   2   2
#     4  10  25  44  74 107 154 197 243 313 380 450
#     4  10  25  48  79 114 150 207 252 312 383 455
#     4  10  24  48  76 106 153 203 255 303 384 454
#     4  11  26  46  71 111 146 206 246 321 377 456
#     4  11  26  47  73 101 148 200 256 303 390 453
#     4  12  26  47  70 113 143 201 250 325 368 455
#     4  12  27  44  76 113 154 188 263 312 383 449
#
# _framework density 25.281887000000001
#
# number of rings (size 3 to 8) (size 9 to 14) (size 15 to 20)
#    0.857    0.286    2.857    1.286   10.000    2.857 
#    0.000    0.000    0.000    0.000    0.000    0.000 
#    0.000    0.000    0.000    0.000    0.000    0.000 
#
# Total GULP energy -173578.883717 kJ/mol
# GULP energy per Si atom -12398.491694 kJ/mol
# Density = 2.522434 g / cm^3
# Si number density = 25.281887 Si / 1000 Ang^3
#
#
#
# Elastic Constant Matrix: (Units=GPa)
#
#
# Indices 1 2 3 4 5 6 
#
# 1 94.6895 51.7277 40.2845 -5.0563 -13.9103 17.1344
# 2 51.7277 130.1669 53.2876 35.6289 -17.2729 12.0672
# 3 40.2845 53.2876 153.7718 18.3005 -15.7853 16.8820
# 4 -5.0563 35.6289 18.3005 39.9319 4.9633 -2.1502
# 5 -13.9103 -17.2729 -15.7853 4.9633 36.9771 0.9163
# 6 17.1344 12.0672 16.8820 -2.1502 0.9163 40.7891
#
#
#
# Elastic Compliance Matrix: (Units=1/GPa)
#
#
# Indices 1 2 3 4 5 6 
#
# 1 0.017496 -0.008567 -0.002542 0.010837 0.000120 -0.003195
# 2 -0.008567 0.017158 -0.000731 -0.017026 0.006821 -0.002226
# 3 -0.002542 -0.000731 0.008481 -0.004056 0.002929 -0.002506
# 4 0.010837 -0.017026 -0.004056 0.045190 -0.011793 0.004811
# 5 0.000120 0.006821 0.002929 -0.011793 0.033224 -0.004649
# 6 -0.003195 -0.002226 -0.002506 0.004811 -0.004649 0.027912
#
#
# Mechanical properties :
#
#
# Convention : Reuss Voigt Hill
#
# Bulk Modulus (GPa) = 51.39568 74.35863 62.87715
# Shear Modulus (GPa) = 27.83592 39.09483 33.46537
#
# Velocity S-wave (km/s) = 3.32177 3.93664 3.64220
# Velocity P-wave (km/s) = 5.92329 7.08086 6.52778
#
# Compressibility (1/GPa) = 0.01945689
#
# Stress axis : x y z
#
# Youngs Moduli (GPa) = 57.15465 58.28262 117.91530
#
# Poissons Ratio (x) = 0.49929 0.29970
# Poissons Ratio (y) = 0.48962 0.08616
# Poissons Ratio (z) = 0.14527 0.04259
#
# Static dielectric constant tensor:
#      x y z
#    x 5.276380 0.069510 -0.061440 
#    y 0.069510 4.447100 -0.001820 
#    z -0.061440 -0.001820 4.324970 
# 
# 
# High freq. dielectric constant tensor:
#      x y z
#    x 2.032580 0.005060 -0.004880 
#    y 0.005060 2.008190 0.004380 
#    z -0.004880 0.004380 1.997800 
# 
# From -- ./inp_files/510377.got.cif
#   From: 2010.06.25/outbox.cif.g09.slc.cpg/sg2_256_cif.got.tgz:510377.got - 2010.06.27 13:26:56.
