data_PCOD8027614
_publ_section_title
;
Structure prediction by ZEFSAII (Michael W. Deem and Ramdas Pophale) SiO2 
 PCOD8027614
Probable space group: P -1
;
_chemical_formula_sum "Si O2"
_cell_formula_units_Z 14
_cell_length_a 12.052570
_cell_length_b 9.352168
_cell_length_c 25.996837
_cell_angle_alpha 141.173723
_cell_angle_beta 20.978028
_cell_angle_gamma 138.223408
_cell_volume 655.532756
_symmetry_space_group_name_H-M "P -1"
_symmetry_group_IT_number 2
_symmetry_cell_setting 'triclinic'
loop_
_space_group_symop_operation_xyz
x,y,z
-x,-y,-z
loop_
_atom_site_type_symbol
_atom_site_label
_atom_site_fract_x
_atom_site_fract_y
_atom_site_fract_z
Si Si1 0.197622 0.315856 0.838639
Si Si2 0.247717 0.525499 0.767430
Si Si3 0.684267 0.042918 0.582501
Si Si4 0.382624 0.033567 0.293945
Si Si5 0.586742 0.175138 0.466125
Si Si6 0.535247 0.531792 0.053570
Si Si7 0.205659 0.114710 0.137306
O O1 0.310582 0.389688 0.753939
O O2 0.513513 0.281142 0.723938
O O3 0.984173 0.078503 0.868470
O O4 0.000000 0.500000 0.000000
O O5 0.447756 0.415834 0.605467
O O6 0.357393 0.794712 0.797986
O O7 0.883591 0.492317 0.906637
O O8 0.608453 0.920096 0.635571
O O9 0.550080 0.898733 0.551230
O O10 0.052160 0.092634 0.430693
O O11 0.443725 0.776271 0.180952
O O12 0.964375 0.198459 0.307873
O O13 0.500000 0.000000 0.500000
O O14 0.305496 0.335334 0.122594
O O15 0.500000 0.500000 0.000000
O O16 0.500000 0.000000 0.000000
#
# Coordination Sequence:
#
# PCOD8027614 Si02
#       7
#     2   2   2   2   2   2   2
#     4  11  24  44  71 100 137 181 230 289 346 406
#     4  12  25  45  70 104 139 180 240 292 345 416
#     4  10  24  46  66 100 141 184 232 280 357 412
#     4  11  27  44  67 102 142 185 229 286 352 424
#     4  11  22  45  71 103 137 176 237 292 348 410
#     4  12  27  46  69 102 142 187 234 280 352 425
#     4  11  24  44  71  99 136 182 227 289 343 412
#
# _framework density 21.356676
#
# number of rings (size 3 to 8) (size 9 to 14) (size 15 to 20)
#    0.000    0.857    4.286    2.143   10.000    1.143 
#    0.000    0.000    0.000    0.000    0.000    0.000 
#    0.000    0.000    0.000    0.000    0.000    0.000 
#
# Total GULP energy -173563.107734 kJ/mol
# GULP energy per Si atom -12397.364838 kJ/mol
# Density = 2.130807 g / cm^3
# Si number density = 21.356676 Si / 1000 Ang^3
#
#
#
# Elastic Constant Matrix: (Units=GPa)
#
#
# Indices 1 2 3 4 5 6 
#
# 1 111.6571 42.2063 52.1717 -5.8075 -7.5216 -5.4679
# 2 42.2063 162.4400 57.4522 -7.8236 11.7239 -12.2830
# 3 52.1717 57.4522 174.5517 8.7513 -1.0113 -10.3753
# 4 -5.8075 -7.8236 8.7513 45.8430 -0.9107 8.9942
# 5 -7.5216 11.7239 -1.0113 -0.9107 37.0863 9.7252
# 6 -5.4679 -12.2830 -10.3753 8.9942 9.7252 22.3566
#
#
#
# Elastic Compliance Matrix: (Units=1/GPa)
#
#
# Indices 1 2 3 4 5 6 
#
# 1 0.011400 -0.002268 -0.002877 0.002109 0.003579 -0.002198
# 2 -0.002268 0.008048 -0.001732 0.000395 -0.004293 0.004771
# 3 -0.002877 -0.001732 0.007485 -0.002741 -0.000751 0.003248
# 4 0.002109 0.000395 -0.002741 0.025199 0.004116 -0.012467
# 5 0.003579 -0.004293 -0.000751 0.004116 0.033910 -0.018239
# 6 -0.002198 0.004771 0.003248 -0.012467 -0.018239 0.061270
#
#
# Mechanical properties :
#
#
# Convention : Reuss Voigt Hill
#
# Bulk Modulus (GPa) = 75.87186 83.58990 79.73088
# Shear Modulus (GPa) = 30.21897 40.84509 35.53203
#
# Velocity S-wave (km/s) = 3.76568 4.37798 4.08333
# Velocity P-wave (km/s) = 7.38311 8.04864 7.72305
#
# Compressibility (1/GPa) = 0.01318012
#
# Stress axis : x y z
#
# Youngs Moduli (GPa) = 87.71612 124.26131 133.60026
#
# Poissons Ratio (x) = 0.28177 0.38433
# Poissons Ratio (y) = 0.19890 0.23141
# Poissons Ratio (z) = 0.25233 0.21524
#
# Static dielectric constant tensor:
#      x y z
#    x 4.213160 -0.047590 -0.092000 
#    y -0.047590 3.868490 0.110620 
#    z -0.092000 0.110620 4.489210 
# 
# 
# High freq. dielectric constant tensor:
#      x y z
#    x 1.836570 -0.008480 -0.003970 
#    y -0.008480 1.836660 0.007240 
#    z -0.003970 0.007240 1.867550 
# 
# From -- ./inp_files/274148.got.cif
#   From: 2010.06.25/outbox.cif.g09.slc.cpg/sg2_138_cif.got.tgz:274148.got - 2010.06.27 13:26:56.
