data_PCOD8027517
_publ_section_title
;
Structure prediction by ZEFSAII (Michael W. Deem and Ramdas Pophale) SiO2 
 PCOD8027517
Probable space group: P -1
;
_chemical_formula_sum "Si O2"
_cell_formula_units_Z 14
_cell_length_a 8.423882
_cell_length_b 8.707288
_cell_length_c 12.339771
_cell_angle_alpha 81.310849
_cell_angle_beta 131.465211
_cell_angle_gamma 115.113094
_cell_volume 602.769784
_symmetry_space_group_name_H-M "P -1"
_symmetry_group_IT_number 2
_symmetry_cell_setting 'triclinic'
loop_
_space_group_symop_operation_xyz
x,y,z
-x,-y,-z
loop_
_atom_site_type_symbol
_atom_site_label
_atom_site_fract_x
_atom_site_fract_y
_atom_site_fract_z
Si Si1 0.734441 0.647667 0.705857
Si Si2 0.347993 0.150958 0.800735
Si Si3 0.725967 0.676944 0.452374
Si Si4 0.806006 0.406262 0.089132
Si Si5 0.877072 0.785628 0.100097
Si Si6 0.291116 0.084951 0.185506
Si Si7 0.760460 0.211488 0.291360
O O1 0.707413 0.712576 0.567159
O O2 0.480647 0.510067 0.649337
O O3 0.812241 0.810540 0.800140
O O4 0.929362 0.574224 0.809890
O O5 0.301335 0.184035 0.651821
O O6 0.189185 0.200773 0.806594
O O7 0.269839 0.945907 0.787316
O O8 0.624532 0.265377 0.939618
O O9 0.986102 0.691548 0.547359
O O10 0.796572 0.588400 0.048503
O O11 0.724047 0.348191 0.181798
O O12 0.759984 0.885960 0.965514
O O13 0.157929 0.888283 0.190419
O O14 0.571395 0.146516 0.310638
#
# Coordination Sequence:
#
# PCOD8027517 Si02
#       7
#     2   2   2   2   2   2   2
#     4  10  24  47  68  98 137 178 218 280 329 397
#     4  12  24  44  71  99 135 175 225 278 327 399
#     4  10  24  45  70  94 137 179 226 265 338 394
#     4  11  24  43  73 100 132 174 228 273 335 392
#     4  11  25  42  67 107 135 168 222 283 335 388
#     4  11  25  43  68 100 140 171 222 277 333 394
#     4  11  25  44  69 100 133 183 220 268 338 397
#
# _framework density 23.226113999999999
#
# number of rings (size 3 to 8) (size 9 to 14) (size 15 to 20)
#    0.000    1.143    1.429    3.857    8.000    1.714 
#    5.143    1.429    0.000    0.000    0.000    0.000 
#    0.000    0.000    0.000    0.000    0.000    0.000 
#
# Total GULP energy -173562.278826 kJ/mol
# GULP energy per Si atom -12397.305630 kJ/mol
# Density = 2.317325 g / cm^3
# Si number density = 23.226114 Si / 1000 Ang^3
#
#
#
# Elastic Constant Matrix: (Units=GPa)
#
#
# Indices 1 2 3 4 5 6 
#
# 1 104.4440 29.5737 32.0075 8.5343 16.6896 22.3567
# 2 29.5737 105.3608 31.2374 0.8974 11.0840 17.4960
# 3 32.0075 31.2374 88.5981 -5.4663 13.3144 15.9004
# 4 8.5343 0.8974 -5.4663 31.0605 13.0446 4.4998
# 5 16.6896 11.0840 13.3144 13.0446 31.1750 13.4113
# 6 22.3567 17.4960 15.9004 4.4998 13.4113 38.8422
#
#
#
# Elastic Compliance Matrix: (Units=1/GPa)
#
#
# Indices 1 2 3 4 5 6 
#
# 1 0.012369 -0.001665 -0.002992 -0.002465 -0.001914 -0.004198
# 2 -0.001665 0.011320 -0.002721 0.000463 -0.000986 -0.002740
# 3 -0.002992 -0.002721 0.014882 0.006115 -0.005506 -0.001952
# 4 -0.002465 0.000463 0.006115 0.041933 -0.019210 0.000482
# 5 -0.001914 -0.000986 -0.005506 -0.019210 0.048446 -0.010702
# 6 -0.004198 -0.002740 -0.001952 0.000482 -0.010702 0.033834
#
#
# Mechanical properties :
#
#
# Convention : Reuss Voigt Hill
#
# Bulk Modulus (GPa) = 41.99248 53.78223 47.88736
# Shear Modulus (GPa) = 26.95714 33.92115 30.43914
#
# Velocity S-wave (km/s) = 3.41051 3.82576 3.62409
# Velocity P-wave (km/s) = 5.79896 6.53617 6.17857
#
# Compressibility (1/GPa) = 0.02381379
#
# Stress axis : x y z
#
# Youngs Moduli (GPa) = 80.84790 88.33821 67.19399
#
# Poissons Ratio (x) = 0.14710 0.20107
# Poissons Ratio (y) = 0.13463 0.18285
# Poissons Ratio (z) = 0.24193 0.24038
#
# Static dielectric constant tensor:
#      x y z
#    x 4.100450 0.461580 0.173520 
#    y 0.461580 4.189940 0.111480 
#    z 0.173520 0.111480 4.148980 
# 
# 
# High freq. dielectric constant tensor:
#      x y z
#    x 1.917550 0.028890 0.007180 
#    y 0.028890 1.922080 0.008980 
#    z 0.007180 0.008980 1.911490 
# 
# From -- ./inp_files/156975.got.cif
#   From: 2010.06.25/outbox.cif.g09.slc.cpg/sg2_79_cif.got.tgz:156975.got - 2010.06.27 13:26:56.
