data_PCOD8027498
_publ_section_title
;
Structure prediction by ZEFSAII (Michael W. Deem and Ramdas Pophale) SiO2 
 PCOD8027498
Probable space group: P -1
;
_chemical_formula_sum "Si O2"
_cell_formula_units_Z 16
_cell_length_a 18.429902
_cell_length_b 15.424477
_cell_length_c 10.284843
_cell_angle_alpha 134.979082
_cell_angle_beta 146.695909
_cell_angle_gamma 24.020307
_cell_volume 632.216732
_symmetry_space_group_name_H-M "P -1"
_symmetry_group_IT_number 2
_symmetry_cell_setting 'triclinic'
loop_
_space_group_symop_operation_xyz
x,y,z
-x,-y,-z
loop_
_atom_site_type_symbol
_atom_site_label
_atom_site_fract_x
_atom_site_fract_y
_atom_site_fract_z
Si Si1 0.085376 0.241835 0.317544
Si Si2 0.814576 0.660959 0.208743
Si Si3 0.866517 0.424591 0.582464
Si Si4 0.310036 0.799930 0.805840
Si Si5 0.526252 0.259278 0.293779
Si Si6 0.985371 0.128644 0.253843
Si Si7 0.640306 0.172419 0.821879
Si Si8 0.852221 0.302364 0.666129
O O1 0.238124 0.198857 0.609355
O O2 0.948209 0.238978 0.185854
O O3 0.908766 0.465914 0.214207
O O4 0.246767 0.051088 0.248810
O O5 0.001236 0.567546 0.284133
O O6 0.580922 0.797268 0.923527
O O7 0.587970 0.664681 0.438261
O O8 0.955181 0.337567 0.772881
O O9 0.901492 0.267275 0.399776
O O10 0.382524 0.804869 0.785305
O O11 0.304818 0.658448 0.627821
O O12 0.471174 0.708153 0.075232
O O13 0.059156 0.049660 0.753992
O O14 0.315845 0.521397 0.281742
O O15 0.733878 0.117109 0.559912
O O16 0.828052 0.127687 0.000480
#
# Coordination Sequence:
#
# PCOD8027498 Si02
#       8
#     2   2   2   2   2   2   2   2
#     4  10  24  45  70 102 137 184 239 277 347 414
#     4  10  26  47  67 100 142 188 234 282 333 419
#     4  11  24  45  68 102 144 184 226 287 346 408
#     4  11  24  42  68 107 140 177 228 294 348 410
#     4  12  25  45  72 102 138 193 224 285 348 411
#     4  11  23  45  71 106 139 177 231 292 355 404
#     4  12  24  43  73 105 140 180 226 296 353 408
#     4  11  23  46  69 102 144 177 235 283 354 414
#
# _framework density 25.307777999999999
#
# number of rings (size 3 to 8) (size 9 to 14) (size 15 to 20)
#    0.000    1.000    2.500    3.375    5.250    4.000 
#    2.250    0.000    0.000    0.000    0.000    0.000 
#    0.000    0.000    0.000    0.000    0.000    0.000 
#
# Total GULP energy -198263.264560 kJ/mol
# GULP energy per Si atom -12391.454035 kJ/mol
# Density = 2.525018 g / cm^3
# Si number density = 25.307778 Si / 1000 Ang^3
#
#
#
# Elastic Constant Matrix: (Units=GPa)
#
#
# Indices 1 2 3 4 5 6 
#
# 1 112.0469 17.6794 36.7290 6.2980 19.6010 7.2777
# 2 17.6794 91.9802 14.3679 23.4183 15.0291 -18.0150
# 3 36.7290 14.3679 105.1060 5.9531 29.0469 -4.9244
# 4 6.2980 23.4183 5.9531 33.1565 -4.4384 -1.7814
# 5 19.6010 15.0291 29.0469 -4.4384 28.0435 2.3371
# 6 7.2777 -18.0150 -4.9244 -1.7814 2.3371 33.8237
#
#
#
# Elastic Compliance Matrix: (Units=1/GPa)
#
#
# Indices 1 2 3 4 5 6 
#
# 1 0.011008 -0.001238 -0.002527 -0.001521 -0.004390 -0.003173
# 2 -0.001238 0.019713 0.003996 -0.016101 -0.017362 0.011699
# 3 -0.002527 0.003996 0.015533 -0.007242 -0.018094 0.005802
# 4 -0.001521 -0.016101 -0.007242 0.046031 0.025196 -0.008619
# 5 -0.004390 -0.017362 -0.018094 0.025196 0.071976 -0.014583
# 6 -0.003173 0.011699 0.005802 -0.008619 -0.014583 0.037877
#
#
# Mechanical properties :
#
#
# Convention : Reuss Voigt Hill
#
# Bulk Modulus (GPa) = 21.40560 49.63175 35.51867
# Shear Modulus (GPa) = 23.01502 35.02853 29.02177
#
# Velocity S-wave (km/s) = 3.01891 3.72439 3.39005
# Velocity P-wave (km/s) = 4.54183 6.17645 5.42111
#
# Compressibility (1/GPa) = 0.04671675
#
# Stress axis : x y z
#
# Youngs Moduli (GPa) = 90.84363 50.72734 64.37707
#
# Poissons Ratio (x) = 0.06280 0.16267
# Poissons Ratio (y) = 0.11247 -0.25725
# Poissons Ratio (z) = 0.22955 -0.20270
#
# Static dielectric constant tensor:
#      x y z
#    x 4.438790 -0.046460 -0.089000 
#    y -0.046460 4.605790 0.093540 
#    z -0.089000 0.093540 4.669240 
# 
# 
# High freq. dielectric constant tensor:
#      x y z
#    x 2.017390 -0.002610 -0.008940 
#    y -0.002610 2.012820 0.011770 
#    z -0.008940 0.011770 1.996200 
# 
# From -- ./inp_files/472435.got.cif
#   From: 2010.06.25/outbox.cif.g09.slc.cpg/sg2_237_cif.got.tgz:472435.got - 2010.06.27 13:26:56.
