data_PCOD8027447
_publ_section_title
;
Structure prediction by ZEFSAII (Michael W. Deem and Ramdas Pophale) SiO2 
 PCOD8027447
Probable space group: P -1
;
_chemical_formula_sum "Si O2"
_cell_formula_units_Z 16
_cell_length_a 11.133312
_cell_length_b 25.673896
_cell_length_c 6.586816
_cell_angle_alpha 47.989223
_cell_angle_beta 63.394610
_cell_angle_gamma 32.963472
_cell_volume 730.441130
_symmetry_space_group_name_H-M "P -1"
_symmetry_group_IT_number 2
_symmetry_cell_setting 'triclinic'
loop_
_space_group_symop_operation_xyz
x,y,z
-x,-y,-z
loop_
_atom_site_type_symbol
_atom_site_label
_atom_site_fract_x
_atom_site_fract_y
_atom_site_fract_z
Si Si1 0.534653 0.048919 0.699902
Si Si2 0.059328 0.179130 0.205544
Si Si3 0.124880 0.986538 0.254664
Si Si4 0.018245 0.444160 0.325487
Si Si5 0.815012 0.166487 0.663342
Si Si6 0.237138 0.591892 0.912106
Si Si7 0.309777 0.410403 0.462835
Si Si8 0.045022 0.278874 0.578216
O O1 0.271989 0.185101 0.502786
O O2 0.670903 0.961317 0.625025
O O3 0.677834 0.049303 0.703832
O O4 0.500000 0.000000 0.000000
O O5 0.924920 0.166310 0.401917
O O6 0.966083 0.280687 0.150592
O O7 0.027759 0.217970 0.895346
O O8 0.234018 0.886923 0.267345
O O9 0.000000 0.000000 0.500000
O O10 0.953641 0.104459 0.933128
O O11 0.779923 0.560682 0.316997
O O12 0.235933 0.375515 0.474191
O O13 0.047564 0.349399 0.517639
O O14 0.000000 0.500000 0.000000
O O15 0.581347 0.303032 0.547486
O O16 0.187922 0.626744 0.622387
O O17 0.500000 0.500000 0.000000
O O18 0.194460 0.528713 0.149229
#
# Coordination Sequence:
#
# PCOD8027447 Si02
#       8
#     2   2   2   2   2   2   2   2
#     4  10  24  45  69 101 136 182 233 289 348 413
#     4  11  24  44  67 105 133 182 229 285 349 410
#     4  11  24  48  70 102 139 178 239 283 349 420
#     4  11  23  45  67  96 138 182 233 282 347 410
#     4  11  25  44  72 100 139 181 226 292 354 408
#     4  12  25  44  68 102 137 179 230 282 347 417
#     4  11  24  43  67 103 137 178 230 284 344 419
#     4  11  25  46  69  99 140 184 235 286 347 415
#
# _framework density 21.90457
#
# number of rings (size 3 to 8) (size 9 to 14) (size 15 to 20)
#    0.000    1.000    5.000    0.750    3.500    3.000 
#    6.750    0.000    0.000    0.000    0.000    0.000 
#    0.000    0.000    0.000    0.000    0.000    0.000 
#
# Total GULP energy -198214.668088 kJ/mol
# GULP energy per Si atom -12388.416755 kJ/mol
# Density = 2.185471 g / cm^3
# Si number density = 21.904570 Si / 1000 Ang^3
#
#
#
# Elastic Constant Matrix: (Units=GPa)
#
#
# Indices 1 2 3 4 5 6 
#
# 1 95.5148 51.6449 42.2404 -7.2913 -2.4334 -10.2690
# 2 51.6449 130.4761 47.0706 5.7510 9.6411 -5.0482
# 3 42.2404 47.0706 127.3629 10.0021 -4.6746 -11.3178
# 4 -7.2913 5.7510 10.0021 31.9687 -3.3607 -10.2653
# 5 -2.4334 9.6411 -4.6746 -3.3607 28.1908 3.0284
# 6 -10.2690 -5.0482 -11.3178 -10.2653 3.0284 32.0161
#
#
#
# Elastic Compliance Matrix: (Units=1/GPa)
#
#
# Indices 1 2 3 4 5 6 
#
# 1 0.016210 -0.005578 -0.003337 0.007787 0.003108 0.005343
# 2 -0.005578 0.011171 -0.002315 -0.003566 -0.004948 -0.001522
# 3 -0.003337 -0.002315 0.010207 -0.003023 0.001724 0.001041
# 4 0.007787 -0.003566 -0.003023 0.039320 0.004678 0.013031
# 5 0.003108 -0.004948 0.001724 0.004678 0.038417 -0.001308
# 6 0.005343 -0.001522 0.001041 0.013031 -0.001308 0.037378
#
#
# Mechanical properties :
#
#
# Convention : Reuss Voigt Hill
#
# Bulk Modulus (GPa) = 66.10841 70.58507 68.34674
# Shear Modulus (GPa) = 27.74589 32.59499 30.17044
#
# Velocity S-wave (km/s) = 3.56289 3.86170 3.71530
# Velocity P-wave (km/s) = 6.86814 7.22340 7.04801
#
# Compressibility (1/GPa) = 0.01512667
#
# Stress axis : x y z
#
# Youngs Moduli (GPa) = 61.69202 89.51375 97.97033
#
# Poissons Ratio (x) = 0.49934 0.32693
# Poissons Ratio (y) = 0.34414 0.22684
# Poissons Ratio (z) = 0.20587 0.20726
#
# Static dielectric constant tensor:
#      x y z
#    x 3.898100 0.015780 -0.170420 
#    y 0.015780 4.781200 -0.002710 
#    z -0.170420 -0.002710 4.018200 
# 
# 
# High freq. dielectric constant tensor:
#      x y z
#    x 1.860290 0.009180 -0.017880 
#    y 0.009180 1.876770 -0.000410 
#    z -0.017880 -0.000410 1.861520 
# 
# From -- ./inp_files/84962.got.cif
#   From: 2010.06.25/outbox.cif.g09.slc.cpg/sg2_43_cif.got.tgz:84962.got - 2010.06.27 13:26:56.
