data_PCOD8027152
_publ_section_title
;
Structure prediction by ZEFSAII (Michael W. Deem and Ramdas Pophale) SiO2 
 PCOD8027152
Probable space group: P -1
;
_chemical_formula_sum "Si O2"
_cell_formula_units_Z 16
_cell_length_a 9.554189
_cell_length_b 25.741895
_cell_length_c 4.855476
_cell_angle_alpha 130.333286
_cell_angle_beta 114.995897
_cell_angle_gamma 43.489396
_cell_volume 623.970820
_symmetry_space_group_name_H-M "P -1"
_symmetry_group_IT_number 2
_symmetry_cell_setting 'triclinic'
loop_
_space_group_symop_operation_xyz
x,y,z
-x,-y,-z
loop_
_atom_site_type_symbol
_atom_site_label
_atom_site_fract_x
_atom_site_fract_y
_atom_site_fract_z
Si Si1 0.642234 0.317666 0.820205
Si Si2 0.614148 0.833921 0.872956
Si Si3 0.361283 0.886771 0.329460
Si Si4 0.917081 0.661755 0.172463
Si Si5 0.217152 0.435704 0.107057
Si Si6 0.823329 0.406437 0.341111
Si Si7 0.297402 0.053232 0.835528
Si Si8 0.848902 0.191596 0.065080
O O1 0.718954 0.280140 0.449358
O O2 0.405328 0.365935 0.818573
O O3 0.657836 0.394399 0.150896
O O4 0.784117 0.230843 0.837940
O O5 0.415556 0.883329 0.680878
O O6 0.795034 0.750270 0.559365
O O7 0.562054 0.812348 0.048275
O O8 0.671791 0.896793 0.199422
O O9 0.271971 0.983538 0.456881
O O10 0.200570 0.872614 0.125368
O O11 0.120933 0.594668 0.298541
O O12 0.794428 0.625730 0.906304
O O13 0.981933 0.670858 0.956301
O O14 0.256410 0.496509 0.507344
O O15 0.000000 0.500000 0.000000
O O16 0.091006 0.130940 0.099749
O O17 0.500000 0.000000 0.000000
#
# Coordination Sequence:
#
# PCOD8027152 Si02
#       8
#     2   2   2   2   2   2   2   2
#     4  12  26  45  68  97 132 174 220 269 324 387
#     4  11  22  40  65  96 130 169 214 266 323 385
#     4  11  23  41  64  94 129 171 215 266 322 384
#     4  11  22  40  65  96 130 169 214 266 323 385
#     4  10  24  44  68  99 133 172 217 269 326 388
#     4  11  23  41  64  94 129 171 215 266 322 384
#     4  10  24  44  68  99 133 172 217 269 326 388
#     4  12  26  45  68  97 132 174 220 269 324 387
#
# _framework density 25.642225
#
# number of rings (size 3 to 8) (size 9 to 14) (size 15 to 20)
#    0.000    1.000    0.000    6.750    0.000   10.000 
#    0.000    8.750    0.000    0.000    0.000    0.000 
#    0.000    0.000    0.000    0.000    0.000    0.000 
#
# Total GULP energy -198304.695038 kJ/mol
# GULP energy per Si atom -12394.043440 kJ/mol
# Density = 2.558386 g / cm^3
# Si number density = 25.642225 Si / 1000 Ang^3
#
#
#
# Elastic Constant Matrix: (Units=GPa)
#
#
# Indices 1 2 3 4 5 6 
#
# 1 145.7640 23.1624 19.6518 -3.0088 19.0483 -7.1471
# 2 23.1624 44.6656 9.0830 9.7611 0.5446 -17.1597
# 3 19.6518 9.0830 77.4503 -1.3606 12.5114 2.6206
# 4 -3.0088 9.7611 -1.3606 30.9307 7.3462 -5.0977
# 5 19.0483 0.5446 12.5114 7.3462 64.0595 15.1414
# 6 -7.1471 -17.1597 2.6206 -5.0977 15.1414 47.1548
#
#
#
# Elastic Compliance Matrix: (Units=1/GPa)
#
#
# Indices 1 2 3 4 5 6 
#
# 1 0.008144 -0.004232 -0.001112 0.002880 -0.002721 0.000941
# 2 -0.004232 0.030849 -0.003076 -0.008754 0.000305 0.009711
# 3 -0.001112 -0.003076 0.014000 0.001846 -0.002325 -0.001120
# 4 0.002880 -0.008754 0.001846 0.037449 -0.006190 0.003184
# 5 -0.002721 0.000305 -0.002325 -0.006190 0.019240 -0.007019
# 6 0.000941 0.009711 -0.001120 0.003184 -0.007019 0.027544
#
#
# Mechanical properties :
#
#
# Convention : Reuss Voigt Hill
#
# Bulk Modulus (GPa) = 27.65922 41.29713 34.47817
# Shear Modulus (GPa) = 30.09951 42.82786 36.46368
#
# Velocity S-wave (km/s) = 3.42983 4.09125 3.77506
# Velocity P-wave (km/s) = 5.14733 6.20144 5.69881
#
# Compressibility (1/GPa) = 0.03615432
#
# Stress axis : x y z
#
# Youngs Moduli (GPa) = 122.79040 32.41627 71.42787
#
# Poissons Ratio (x) = 0.13718 0.07941
# Poissons Ratio (y) = 0.51962 0.21969
# Poissons Ratio (z) = 0.13652 0.09970
#
# Static dielectric constant tensor:
#      x y z
#    x 5.005210 0.314910 0.290940 
#    y 0.314910 4.589790 0.287290 
#    z 0.290940 0.287290 4.737650 
# 
# 
# High freq. dielectric constant tensor:
#      x y z
#    x 2.044920 0.006340 0.007660 
#    y 0.006340 1.998250 0.020600 
#    z 0.007660 0.020600 2.023550 
# 
# From -- ./inp_files/57060.got.cif
#   From: 2010.06.25/outbox.cif.g09.slc.cpg/sg2_29_cif.got.tgz:57060.got - 2010.06.27 13:26:56.
