data_PCOD8027153
_publ_section_title
;
Structure prediction by ZEFSAII (Michael W. Deem and Ramdas Pophale) SiO2 
 PCOD8027153
Probable space group: P -1
;
_chemical_formula_sum "Si O2"
_cell_formula_units_Z 12
_cell_length_a 13.823683
_cell_length_b 11.292409
_cell_length_c 12.003727
_cell_angle_alpha 24.478046
_cell_angle_beta 140.046776
_cell_angle_gamma 142.411135
_cell_volume 465.902834
_symmetry_space_group_name_H-M "P -1"
_symmetry_group_IT_number 2
_symmetry_cell_setting 'triclinic'
loop_
_space_group_symop_operation_xyz
x,y,z
-x,-y,-z
loop_
_atom_site_type_symbol
_atom_site_label
_atom_site_fract_x
_atom_site_fract_y
_atom_site_fract_z
Si Si1 0.914156 0.584714 0.956373
Si Si2 0.235675 0.061838 0.853123
Si Si3 0.569831 0.795178 0.885707
Si Si4 0.321827 0.489782 0.360600
Si Si5 0.841801 0.984860 0.808475
Si Si6 0.233262 0.696744 0.726496
O O1 0.765026 0.657563 0.707088
O O2 0.844337 0.293917 0.228385
O O3 0.048926 0.876724 0.884655
O O4 0.000000 0.500000 0.000000
O O5 0.230287 0.291979 0.554126
O O6 0.338557 0.260176 0.876307
O O7 0.320849 0.831007 0.082039
O O8 0.709141 0.045344 0.721238
O O9 0.422940 0.908917 0.695030
O O10 0.500000 0.500000 0.000000
O O11 0.500000 0.500000 0.500000
O O12 0.875393 0.232095 0.526520
O O13 0.768962 0.649575 0.978483
O O14 0.000000 0.000000 0.000000
#
# Coordination Sequence:
#
# PCOD8027153 Si02
#       6
#     2   2   2   2   2   2
#     4  10  24  44  68  99 137 178 227 280 337 406
#     4  11  24  42  67  97 135 180 223 280 341 401
#     4  10  24  45  69 100 137 179 229 283 339 406
#     4  11  24  43  68 101 135 177 228 281 340 406
#     4  11  24  42  67  97 130 171 223 277 336 400
#     4  11  24  42  65  94 130 175 219 275 336 397
#
# _framework density 25.756444999999999
#
# number of rings (size 3 to 8) (size 9 to 14) (size 15 to 20)
#    0.000    1.333    0.000    4.000    0.000   16.000 
#    0.000    0.000    0.000    0.000    0.000    0.000 
#    0.000    0.000    0.000    0.000    0.000    0.000 
#
# Total GULP energy -148725.728651 kJ/mol
# GULP energy per Si atom -12393.810721 kJ/mol
# Density = 2.569782 g / cm^3
# Si number density = 25.756445 Si / 1000 Ang^3
#
#
#
# Elastic Constant Matrix: (Units=GPa)
#
#
# Indices 1 2 3 4 5 6 
#
# 1 160.1459 47.7453 57.6692 28.0955 -34.8236 26.6146
# 2 47.7453 168.3934 38.6490 53.5899 -12.7645 7.6464
# 3 57.6692 38.6490 120.6915 33.5471 -39.3791 -4.1070
# 4 28.0955 53.5899 33.5471 50.6555 -12.7384 2.0544
# 5 -34.8236 -12.7645 -39.3791 -12.7384 51.0990 8.4157
# 6 26.6146 7.6464 -4.1070 2.0544 8.4157 43.5663
#
#
#
# Elastic Compliance Matrix: (Units=1/GPa)
#
#
# Indices 1 2 3 4 5 6 
#
# 1 0.010124 -0.001239 -0.002640 -0.000871 0.005531 -0.007243
# 2 -0.001239 0.009173 -0.000088 -0.009165 -0.000863 -0.000263
# 3 -0.002640 -0.000088 0.013449 -0.005710 0.006815 0.001849
# 4 -0.000871 -0.009165 -0.005710 0.034023 0.001238 -0.000241
# 5 0.005531 -0.000863 0.006815 0.001238 0.030076 -0.008453
# 6 -0.007243 -0.000263 0.001849 -0.000241 -0.008453 0.029243
#
#
# Mechanical properties :
#
#
# Convention : Reuss Voigt Hill
#
# Bulk Modulus (GPa) = 40.30516 81.92863 61.11689
# Shear Modulus (GPa) = 35.13828 49.40864 42.27346
#
# Velocity S-wave (km/s) = 3.69759 4.38459 4.05566
# Velocity P-wave (km/s) = 5.82341 7.58360 6.76103
#
# Compressibility (1/GPa) = 0.02481072
#
# Stress axis : x y z
#
# Youngs Moduli (GPa) = 98.77742 109.01076 74.35363
#
# Poissons Ratio (x) = 0.13508 0.19632
# Poissons Ratio (y) = 0.12240 0.00657
# Poissons Ratio (z) = 0.26081 0.00963
#
# Static dielectric constant tensor:
#      x y z
#    x 5.572520 0.316530 -0.433850 
#    y 0.316530 5.371290 0.469790 
#    z -0.433850 0.469790 4.857110 
# 
# 
# High freq. dielectric constant tensor:
#      x y z
#    x 2.048530 0.011270 -0.011680 
#    y 0.011270 2.031580 0.025960 
#    z -0.011680 0.025960 2.014710 
# 
# From -- ./inp_files/58885.got.cif
#   From: 2010.06.25/outbox.cif.g09.slc.cpg/sg2_30_cif.got.tgz:58885.got - 2010.06.27 13:26:56.
