data_PCOD8027201
_publ_section_title
;
Structure prediction by ZEFSAII (Michael W. Deem and Ramdas Pophale) SiO2 
 PCOD8027201
Probable space group: P -1
;
_chemical_formula_sum "Si O2"
_cell_formula_units_Z 14
_cell_length_a 10.184318
_cell_length_b 9.011093
_cell_length_c 13.269952
_cell_angle_alpha 109.958121
_cell_angle_beta 33.107607
_cell_angle_gamma 115.033115
_cell_volume 602.486185
_symmetry_space_group_name_H-M "P -1"
_symmetry_group_IT_number 2
_symmetry_cell_setting 'triclinic'
loop_
_space_group_symop_operation_xyz
x,y,z
-x,-y,-z
loop_
_atom_site_type_symbol
_atom_site_label
_atom_site_fract_x
_atom_site_fract_y
_atom_site_fract_z
Si Si1 0.060754 0.122377 0.776148
Si Si2 0.915463 0.367584 0.406169
Si Si3 0.851188 0.621728 0.080281
Si Si4 0.677381 0.028581 0.578501
Si Si5 0.163604 0.847477 0.774585
Si Si6 0.356218 0.418671 0.264896
Si Si7 0.512216 0.098648 0.117103
O O1 0.254276 0.285868 0.738186
O O2 0.132991 0.077655 0.606139
O O3 0.021404 0.958968 0.831218
O O4 0.805541 0.177857 0.959415
O O5 0.851383 0.313501 0.320537
O O6 0.808756 0.523816 0.530109
O O7 0.215887 0.422286 0.248709
O O8 0.786765 0.220680 0.531991
O O9 0.636880 0.535805 0.118932
O O10 0.000000 0.500000 0.000000
O O11 0.033934 0.779259 0.945743
O O12 0.441254 0.956777 0.641542
O O13 0.613703 0.012762 0.733427
O O14 0.361366 0.234216 0.239384
O O15 0.500000 0.000000 0.000000
#
# Coordination Sequence:
#
# PCOD8027201 Si02
#       7
#     2   2   2   2   2   2   2
#     4  11  23  42  69 103 131 179 230 274 342 399
#     4  10  24  44  70 101 132 185 228 280 345 397
#     4  12  23  41  67 102 142 179 223 280 341 404
#     4  11  23  45  73  97 136 179 232 285 331 405
#     4  11  22  42  72 101 134 180 231 282 335 405
#     4  11  24  46  63  98 145 172 229 281 338 409
#     4  12  26  45  67 100 136 179 229 281 341 407
#
# _framework density 23.237048000000001
#
# number of rings (size 3 to 8) (size 9 to 14) (size 15 to 20)
#    0.000    0.857    2.857    5.571    2.000    4.000 
#    5.143    2.857    0.000    0.000    0.000    0.000 
#    0.000    0.000    0.000    0.000    0.000    0.000 
#
# Total GULP energy -173497.342148 kJ/mol
# GULP energy per Si atom -12392.667296 kJ/mol
# Density = 2.318416 g / cm^3
# Si number density = 23.237048 Si / 1000 Ang^3
#
#
#
# Elastic Constant Matrix: (Units=GPa)
#
#
# Indices 1 2 3 4 5 6 
#
# 1 109.2981 38.9375 48.8162 11.4848 6.6041 14.2467
# 2 38.9375 87.4900 44.8392 28.2882 6.1135 20.3496
# 3 48.8162 44.8392 105.9683 18.1101 8.0982 -4.1199
# 4 11.4848 28.2882 18.1101 43.2796 4.3256 -1.8151
# 5 6.6041 6.1135 8.0982 4.3256 50.5522 7.6806
# 6 14.2467 20.3496 -4.1199 -1.8151 7.6806 33.8642
#
#
#
# Elastic Compliance Matrix: (Units=1/GPa)
#
#
# Indices 1 2 3 4 5 6 
#
# 1 0.012828 -0.001708 -0.005350 -0.000280 0.000183 -0.005077
# 2 -0.001708 0.023869 -0.007913 -0.012705 0.002083 -0.015741
# 3 -0.005350 -0.007913 0.015685 0.000661 -0.002354 0.009483
# 4 -0.000280 -0.012705 0.000661 0.031915 -0.002811 0.010181
# 5 0.000183 0.002083 -0.002354 -0.002811 0.021119 -0.006556
# 6 -0.005077 -0.015741 0.009483 0.010181 -0.006556 0.044311
#
#
# Mechanical properties :
#
#
# Convention : Reuss Voigt Hill
#
# Bulk Modulus (GPa) = 44.56386 63.10469 53.83428
# Shear Modulus (GPa) = 26.71655 36.88341 31.79998
#
# Velocity S-wave (km/s) = 3.39446 3.98837 3.70334
# Velocity P-wave (km/s) = 5.88071 6.95884 6.44236
#
# Compressibility (1/GPa) = 0.02243971
#
# Stress axis : x y z
#
# Youngs Moduli (GPa) = 77.95733 41.89501 63.75455
#
# Poissons Ratio (x) = 0.07157 0.34108
# Poissons Ratio (y) = 0.13318 0.50448
# Poissons Ratio (z) = 0.41707 0.33151
#
# Static dielectric constant tensor:
#      x y z
#    x 4.455030 0.296050 -0.166240 
#    y 0.296050 4.071170 0.284360 
#    z -0.166240 0.284360 4.199610 
# 
# 
# High freq. dielectric constant tensor:
#      x y z
#    x 1.931790 0.025100 -0.006730 
#    y 0.025100 1.915680 0.028120 
#    z -0.006730 0.028120 1.908970 
# 
# From -- ./inp_files/382492.got.cif
#   From: 2010.06.25/outbox.cif.g09.slc.cpg/sg2_192_cif.got.tgz:382492.got - 2010.06.27 13:26:56.
