data_PCOD8027528
_publ_section_title
;
Structure prediction by ZEFSAII (Michael W. Deem and Ramdas Pophale) SiO2 
 PCOD8027528
Probable space group: P -1
;
_chemical_formula_sum "Si O2"
_cell_formula_units_Z 14
_cell_length_a 26.326521
_cell_length_b 4.994407
_cell_length_c 8.297626
_cell_angle_alpha 101.881068
_cell_angle_beta 146.357991
_cell_angle_gamma 79.438286
_cell_volume 591.334376
_symmetry_space_group_name_H-M "P -1"
_symmetry_group_IT_number 2
_symmetry_cell_setting 'triclinic'
loop_
_space_group_symop_operation_xyz
x,y,z
-x,-y,-z
loop_
_atom_site_type_symbol
_atom_site_label
_atom_site_fract_x
_atom_site_fract_y
_atom_site_fract_z
Si Si1 0.688583 0.873328 0.561635
Si Si2 0.136324 0.439340 0.961292
Si Si3 0.767171 0.182229 0.504349
Si Si4 0.599729 0.488395 0.047869
Si Si5 0.084847 0.110093 0.336275
Si Si6 0.489134 0.988677 0.779367
Si Si7 0.061848 0.689914 0.489671
O O1 0.631926 0.605411 0.322234
O O2 0.622428 0.033693 0.537171
O O3 0.707670 0.047990 0.472575
O O4 0.782683 0.782634 0.886620
O O5 0.127289 0.644823 0.811406
O O6 0.043280 0.276683 0.725050
O O7 0.158372 0.613156 0.200428
O O8 0.695156 0.347622 0.216353
O O9 0.820682 0.949702 0.516074
O O10 0.522270 0.263531 0.820187
O O11 0.550922 0.731296 0.842593
O O12 0.088296 0.967594 0.503680
O O13 0.074069 0.434613 0.368653
O O14 0.000000 0.000000 0.000000
O O15 0.500000 0.000000 0.000000
#
# Coordination Sequence:
#
# PCOD8027528 Si02
#       7
#     2   2   2   2   2   2   2
#     4  10  20  32  57  87 123 149 194 244 296 344
#     4  10  24  39  62  88 118 159 200 247 290 350
#     4  11  22  35  62  90 124 152 200 244 295 347
#     4  10  19  31  50  84 124 152 182 240 302 342
#     4  12  25  42  62  88 118 159 197 246 296 352
#     4  10  17  30  49  81 125 148 184 238 306 337
#     4  11  26  44  61  84 123 160 199 241 298 349
#
# _framework density 23.675270000000001
#
# number of rings (size 3 to 8) (size 9 to 14) (size 15 to 20)
#    0.000    1.429    4.286    3.000    8.000    1.143 
#    0.000    0.000    0.000    0.000    0.000    6.000 
#    0.000    0.000    0.000    0.000    0.000    0.000 
#
# Total GULP energy -173500.653734 kJ/mol
# GULP energy per Si atom -12392.903838 kJ/mol
# Density = 2.362138 g / cm^3
# Si number density = 23.675270 Si / 1000 Ang^3
#
#
#
# Elastic Constant Matrix: (Units=GPa)
#
#
# Indices 1 2 3 4 5 6 
#
# 1 50.0619 5.3206 36.6634 -10.7199 18.6020 -0.5198
# 2 5.3206 82.5448 31.7787 -24.5817 17.7538 5.6284
# 3 36.6634 31.7787 94.3800 -39.2650 33.7556 -14.8293
# 4 -10.7199 -24.5817 -39.2650 37.6711 -10.3275 13.9416
# 5 18.6020 17.7538 33.7556 -10.3275 31.0196 -10.3971
# 6 -0.5198 5.6284 -14.8293 13.9416 -10.3971 40.1845
#
#
#
# Elastic Compliance Matrix: (Units=1/GPa)
#
#
# Indices 1 2 3 4 5 6 
#
# 1 0.032204 0.005897 -0.010101 0.001760 -0.013907 -0.008346
# 2 0.005897 0.020165 0.001211 0.016396 -0.014908 -0.011847
# 3 -0.010101 0.001211 0.033127 0.027516 -0.022695 -0.003494
# 4 0.001760 0.016396 0.027516 0.067693 -0.025267 -0.022142
# 5 -0.013907 -0.014908 -0.022695 -0.025267 0.072447 0.021044
# 6 -0.008346 -0.011847 -0.003494 -0.022142 0.021044 0.038274
#
#
# Mechanical properties :
#
#
# Convention : Reuss Voigt Hill
#
# Bulk Modulus (GPa) = 12.57692 41.61245 27.09469
# Shear Modulus (GPa) = 16.86913 31.98997 24.42955
#
# Velocity S-wave (km/s) = 2.67220 3.67985 3.21574
# Velocity P-wave (km/s) = 3.85288 5.97240 5.02565
#
# Compressibility (1/GPa) = 0.07951069
#
# Stress axis : x y z
#
# Youngs Moduli (GPa) = 31.05228 49.59034 30.18691
#
# Poissons Ratio (x) = -0.29245 0.30492
# Poissons Ratio (y) = -0.18312 -0.03656
# Poissons Ratio (z) = 0.31366 -0.06006
#
# Static dielectric constant tensor:
#      x y z
#    x 4.052830 -0.289930 0.654580 
#    y -0.289930 4.714340 -0.656490 
#    z 0.654580 -0.656490 4.660250 
# 
# 
# High freq. dielectric constant tensor:
#      x y z
#    x 1.890260 -0.003740 0.044600 
#    y -0.003740 1.953740 -0.024980 
#    z 0.044600 -0.024980 1.931190 
# 
# From -- ./inp_files/111540.got.cif
#   From: 2010.06.25/outbox.cif.g09.slc.cpg/sg2_56_cif.got.tgz:111540.got - 2010.06.27 13:26:56.
