data_PCOD8027824
_publ_section_title
;
Structure prediction by ZEFSAII (Michael W. Deem and Ramdas Pophale) SiO2 
 PCOD8027824
Probable space group: P -1
;
_chemical_formula_sum "Si O2"
_cell_formula_units_Z 16
_cell_length_a 8.581605
_cell_length_b 14.636037
_cell_length_c 8.642746
_cell_angle_alpha 108.255054
_cell_angle_beta 142.170284
_cell_angle_gamma 83.461323
_cell_volume 615.426722
_symmetry_space_group_name_H-M "P -1"
_symmetry_group_IT_number 2
_symmetry_cell_setting 'triclinic'
loop_
_space_group_symop_operation_xyz
x,y,z
-x,-y,-z
loop_
_atom_site_type_symbol
_atom_site_label
_atom_site_fract_x
_atom_site_fract_y
_atom_site_fract_z
Si Si1 0.140292 0.456841 0.949121
Si Si2 0.945984 0.390981 0.459023
Si Si3 0.283775 0.805358 0.234717
Si Si4 0.518953 0.355332 0.855012
Si Si5 0.510130 0.117475 0.265650
Si Si6 0.894430 0.063630 0.076620
Si Si7 0.224090 0.262750 0.007226
Si Si8 0.019753 0.109371 0.515464
O O1 0.911473 0.396460 0.621833
O O2 0.311797 0.379336 0.099198
O O3 0.345474 0.538826 0.057801
O O4 0.000000 0.500000 0.000000
O O5 0.208520 0.347126 0.625417
O O6 0.000000 0.500000 0.500000
O O7 0.682979 0.335717 0.130035
O O8 0.462311 0.729821 0.296330
O O9 0.419061 0.893499 0.503388
O O10 0.040174 0.745429 0.109284
O O11 0.216087 0.852133 0.046780
O O12 0.738764 0.134207 0.329408
O O13 0.412709 0.219551 0.243794
O O14 0.309903 0.013960 0.018346
O O15 0.099459 0.116673 0.398701
O O16 0.000000 0.000000 0.000000
O O17 0.216603 0.192866 0.811386
O O18 0.000000 0.000000 0.500000
#
# Coordination Sequence:
#
# PCOD8027824 Si02
#       8
#     2   2   2   2   2   2   2   2
#     4  11  23  45  74 101 141 192 239 294 361 423
#     4  10  24  47  72 101 145 185 244 296 364 429
#     4  11  25  42  69 103 139 183 241 292 356 432
#     4  11  25  49  72 106 147 193 235 307 361 431
#     4  11  24  46  67  99 141 182 232 295 355 431
#     4  12  23  43  72  98 139 184 231 294 363 426
#     4  11  24  46  67 104 142 181 241 287 358 434
#     4  11  24  45  71  99 141 181 230 295 356 432
#
# _framework density 25.998218999999999
#
# number of rings (size 3 to 8) (size 9 to 14) (size 15 to 20)
#    0.000    1.000    3.750    3.000    3.500    1.000 
#   11.250    6.250    0.000    0.000    0.000    0.000 
#    0.000    0.000    0.000    0.000    0.000    0.000 
#
# Total GULP energy -198211.036702 kJ/mol
# GULP energy per Si atom -12388.189794 kJ/mol
# Density = 2.593905 g / cm^3
# Si number density = 25.998219 Si / 1000 Ang^3
#
#
#
# Elastic Constant Matrix: (Units=GPa)
#
#
# Indices 1 2 3 4 5 6 
#
# 1 110.3298 25.4322 54.7137 -5.6222 -31.2351 -27.5109
# 2 25.4322 144.2857 17.9117 -12.1291 -15.1500 -10.6301
# 3 54.7137 17.9117 81.1608 -21.4351 -5.9643 -10.5461
# 4 -5.6222 -12.1291 -21.4351 36.1003 2.3309 -3.3203
# 5 -31.2351 -15.1500 -5.9643 2.3309 40.0293 -2.3736
# 6 -27.5109 -10.6301 -10.5461 -3.3203 -2.3736 46.2309
#
#
#
# Elastic Compliance Matrix: (Units=1/GPa)
#
#
# Indices 1 2 3 4 5 6 
#
# 1 0.023820 -0.000160 -0.014627 -0.005106 0.017316 0.011324
# 2 -0.000160 0.007627 -0.000562 0.002200 0.002659 0.001825
# 3 -0.014627 -0.000562 0.024579 0.012443 -0.008854 -0.002787
# 4 -0.005106 0.002200 0.012443 0.035487 -0.003204 0.002690
# 5 0.017316 0.002659 -0.008854 -0.003204 0.038999 0.010668
# 6 0.011324 0.001825 -0.002787 0.002690 0.010668 0.028894
#
#
# Mechanical properties :
#
#
# Convention : Reuss Voigt Hill
#
# Bulk Modulus (GPa) = 39.48088 59.09905 49.28997
# Shear Modulus (GPa) = 25.18291 40.32001 32.75146
#
# Velocity S-wave (km/s) = 3.11567 3.94239 3.55316
# Velocity P-wave (km/s) = 5.30681 6.59580 5.98610
#
# Compressibility (1/GPa) = 0.02532872
#
# Stress axis : x y z
#
# Youngs Moduli (GPa) = 41.98171 131.11036 40.68439
#
# Poissons Ratio (x) = 0.02092 0.59510
# Poissons Ratio (y) = 0.00670 0.02287
# Poissons Ratio (z) = 0.61408 0.07370
#
# Static dielectric constant tensor:
#      x y z
#    x 5.188570 0.093750 -1.397860 
#    y 0.093750 5.038010 -0.272490 
#    z -1.397860 -0.272490 13.169550 
# 
# 
# High freq. dielectric constant tensor:
#      x y z
#    x 2.041500 -0.007320 -0.021260 
#    y -0.007320 2.055350 -0.005860 
#    z -0.021260 -0.005860 2.034680 
# 
# From -- ./inp_files/208578.got.cif
#   From: 2010.06.25/outbox.cif.g09.slc.cpg/sg2_105_cif.got.tgz:208578.got - 2010.06.27 13:26:56.
