data_PCOD8027570
_publ_section_title
;
Structure prediction by ZEFSAII (Michael W. Deem and Ramdas Pophale) SiO2 
 PCOD8027570
Probable space group: P -1
;
_chemical_formula_sum "Si O2"
_cell_formula_units_Z 12
_cell_length_a 8.957794
_cell_length_b 17.661939
_cell_length_c 6.580537
_cell_angle_alpha 125.100063
_cell_angle_beta 105.551643
_cell_angle_gamma 40.076202
_cell_volume 518.369433
_symmetry_space_group_name_H-M "P -1"
_symmetry_group_IT_number 2
_symmetry_cell_setting 'triclinic'
loop_
_space_group_symop_operation_xyz
x,y,z
-x,-y,-z
loop_
_atom_site_type_symbol
_atom_site_label
_atom_site_fract_x
_atom_site_fract_y
_atom_site_fract_z
Si Si1 0.884159 0.218428 0.785855
Si Si2 0.975617 0.295993 0.569644
Si Si3 0.612014 0.218981 0.401531
Si Si4 0.265460 0.042318 0.984066
Si Si5 0.516605 0.628748 0.810069
Si Si6 0.256443 0.338182 0.789944
O O1 0.879143 0.308031 0.771406
O O2 0.825527 0.153132 0.532806
O O3 0.151382 0.088077 0.786159
O O4 0.682247 0.330543 0.059423
O O5 0.761325 0.452846 0.621256
O O6 0.220602 0.244684 0.618560
O O7 0.061481 0.172210 0.268046
O O8 0.584678 0.310309 0.359947
O O9 0.353859 0.331536 0.600023
O O10 0.672861 0.090765 0.130867
O O11 0.500000 0.000000 0.000000
O O12 0.562655 0.711289 0.041689
O O13 0.000000 0.500000 0.000000
#
# Coordination Sequence:
#
# PCOD8027570 Si02
#       6
#     2   2   2   2   2   2
#     4  11  26  44  71 100 142 177 230 282 339 404
#     4  11  24  43  71 106 138 177 229 286 337 402
#     4  11  24  47  69 101 140 179 227 280 343 409
#     4  12  27  45  69 104 137 183 228 279 343 406
#     4  10  24  45  73 102 136 182 228 281 344 402
#     4   9  21  40  66 100 135 178 222 277 337 392
#
# _framework density 23.149511
#
# number of rings (size 3 to 8) (size 9 to 14) (size 15 to 20)
#    0.000    1.333    1.667    2.000    2.333   15.333 
#    0.000    0.000    0.000    0.000    0.000    0.000 
#    0.000    0.000    0.000    0.000    0.000    0.000 
#
# Total GULP energy -148779.737716 kJ/mol
# GULP energy per Si atom -12398.311476 kJ/mol
# Density = 2.309682 g / cm^3
# Si number density = 23.149511 Si / 1000 Ang^3
#
#
#
# Elastic Constant Matrix: (Units=GPa)
#
#
# Indices 1 2 3 4 5 6 
#
# 1 135.9082 56.8563 58.1214 -14.2630 -15.6885 -2.3408
# 2 56.8563 124.8177 58.0055 -10.3099 -6.7294 1.4418
# 3 58.1214 58.0055 136.9640 -3.0306 -10.1246 6.4167
# 4 -14.2630 -10.3099 -3.0306 32.1966 7.4928 2.9165
# 5 -15.6885 -6.7294 -10.1246 7.4928 31.5492 -2.7128
# 6 -2.3408 1.4418 6.4167 2.9165 -2.7128 37.7881
#
#
#
# Elastic Compliance Matrix: (Units=1/GPa)
#
#
# Indices 1 2 3 4 5 6 
#
# 1 0.010561 -0.003072 -0.002952 0.002566 0.003152 0.001301
# 2 -0.003072 0.011129 -0.003408 0.002082 -0.000764 -0.000252
# 3 -0.002952 -0.003408 0.010131 -0.001608 0.001305 -0.001555
# 4 0.002566 0.002082 -0.001608 0.034661 -0.007273 -0.002845
# 5 0.003152 -0.000764 0.001305 -0.007273 0.035514 0.003114
# 6 0.001301 -0.000252 -0.001555 -0.002845 0.003114 0.027261
#
#
# Mechanical properties :
#
#
# Convention : Reuss Voigt Hill
#
# Bulk Modulus (GPa) = 77.18037 82.62847 79.90442
# Shear Modulus (GPa) = 32.79995 35.28723 34.04359
#
# Velocity S-wave (km/s) = 3.76822 3.90849 3.83900
# Velocity P-wave (km/s) = 7.23499 7.49261 7.36493
#
# Compressibility (1/GPa) = 0.01295666
#
# Stress axis : x y z
#
# Youngs Moduli (GPa) = 94.68928 89.85885 98.70905
#
# Poissons Ratio (x) = 0.27606 0.29136
# Poissons Ratio (y) = 0.29090 0.33640
# Poissons Ratio (z) = 0.27949 0.30624
#
# Static dielectric constant tensor:
#      x y z
#    x 4.961270 -0.337890 0.388240 
#    y -0.337890 3.917130 -0.189160 
#    z 0.388240 -0.189160 4.373170 
# 
# 
# High freq. dielectric constant tensor:
#      x y z
#    x 1.936220 -0.017540 0.004780 
#    y -0.017540 1.890850 -0.006630 
#    z 0.004780 -0.006630 1.924030 
# 
# From -- ./inp_files/22656.got.cif
#   From: 2010.06.25/outbox.cif.g09.slc.cpg/sg2_12_cif.got.tgz:22656.got - 2010.06.27 13:26:56.
