data_PCOD8027661
_publ_section_title
;
Structure prediction by ZEFSAII (Michael W. Deem and Ramdas Pophale) SiO2 
 PCOD8027661
Probable space group: P -1
;
_chemical_formula_sum "Si O2"
_cell_formula_units_Z 16
_cell_length_a 8.273470
_cell_length_b 13.617063
_cell_length_c 9.851317
_cell_angle_alpha 68.033507
_cell_angle_beta 47.905124
_cell_angle_gamma 87.647868
_cell_volume 727.433317
_symmetry_space_group_name_H-M "P -1"
_symmetry_group_IT_number 2
_symmetry_cell_setting 'triclinic'
loop_
_space_group_symop_operation_xyz
x,y,z
-x,-y,-z
loop_
_atom_site_type_symbol
_atom_site_label
_atom_site_fract_x
_atom_site_fract_y
_atom_site_fract_z
Si Si1 0.217044 0.406162 0.307848
Si Si2 0.403281 0.232604 0.165442
Si Si3 0.115527 0.708637 0.221585
Si Si4 0.560302 0.982822 0.626814
Si Si5 0.012271 0.668455 0.003555
Si Si6 0.969549 0.880974 0.774935
Si Si7 0.716985 0.493024 0.062433
Si Si8 0.716458 0.031313 0.962355
O O1 0.256803 0.291018 0.304394
O O2 0.450302 0.481544 0.206824
O O3 0.008297 0.377465 0.546307
O O4 0.154968 0.460287 0.176931
O O5 0.471664 0.146692 0.268326
O O6 0.259108 0.173554 0.149712
O O7 0.642533 0.315502 0.930481
O O8 0.962477 0.678509 0.186366
O O9 0.160611 0.836030 0.176218
O O10 0.500000 0.000000 0.500000
O O11 0.385598 0.015108 0.809180
O O12 0.821455 0.055757 0.474220
O O13 0.801888 0.579313 0.093245
O O14 0.233393 0.624264 0.877162
O O15 0.053950 0.790930 0.856462
O O16 0.909466 0.972180 0.856328
O O17 0.500000 0.000000 0.000000
#
# Coordination Sequence:
#
# PCOD8027661 Si02
#       8
#     2   2   2   2   2   2   2   2
#     4  11  23  44  76  93 127 180 222 273 336 390
#     4  11  22  42  66 101 133 172 223 265 326 402
#     4  11  24  42  69 100 135 167 218 278 328 393
#     4  11  25  40  67  99 137 176 214 270 329 389
#     4  11  24  45  66  98 138 168 218 286 330 386
#     4  12  23  42  72  92 138 184 211 269 332 385
#     4  10  24  46  69  98 128 170 231 277 329 396
#     4  11  24  42  65 103 135 170 229 263 309 415
#
# _framework density 21.995142000000001
#
# number of rings (size 3 to 8) (size 9 to 14) (size 15 to 20)
#    0.000    1.000    5.000    2.625    1.750    4.000 
#    0.000    1.250    0.000    0.000    0.000    0.000 
#    0.000    0.000    0.000    0.000    0.000    0.000 
#
# Total GULP energy -198365.764950 kJ/mol
# GULP energy per Si atom -12397.860309 kJ/mol
# Density = 2.194508 g / cm^3
# Si number density = 21.995142 Si / 1000 Ang^3
#
#
#
# Elastic Constant Matrix: (Units=GPa)
#
#
# Indices 1 2 3 4 5 6 
#
# 1 101.6300 28.6110 35.4224 -6.0196 11.2764 10.6532
# 2 28.6110 95.3086 10.8192 -5.5023 5.0276 -0.0047
# 3 35.4224 10.8192 139.0480 -7.6223 -1.3326 7.3997
# 4 -6.0196 -5.5023 -7.6223 16.8631 1.8166 5.4491
# 5 11.2764 5.0276 -1.3326 1.8166 29.3073 1.8700
# 6 10.6532 -0.0047 7.3997 5.4491 1.8700 47.3078
#
#
#
# Elastic Compliance Matrix: (Units=1/GPa)
#
#
# Indices 1 2 3 4 5 6 
#
# 1 0.012626 -0.003037 -0.002681 0.003652 -0.004515 -0.002666
# 2 -0.003037 0.011614 -0.000016 0.002672 -0.001017 0.000420
# 3 -0.002681 -0.000016 0.008103 0.002900 0.001290 -0.001049
# 4 0.003652 0.002672 0.002900 0.066164 -0.005279 -0.008688
# 5 -0.004515 -0.001017 0.001290 -0.005279 0.036420 -0.000017
# 6 -0.002666 0.000420 -0.001049 -0.008688 -0.000017 0.022904
#
#
# Mechanical properties :
#
#
# Convention : Reuss Voigt Hill
#
# Bulk Modulus (GPa) = 47.90414 53.96575 50.93495
# Shear Modulus (GPa) = 28.36772 36.10458 32.23615
#
# Velocity S-wave (km/s) = 3.59517 4.05591 3.83247
# Velocity P-wave (km/s) = 6.24983 6.82074 6.54152
#
# Compressibility (1/GPa) = 0.02087502
#
# Stress axis : x y z
#
# Youngs Moduli (GPa) = 79.20214 86.10585 123.40803
#
# Poissons Ratio (x) = 0.26150 0.33090
# Poissons Ratio (y) = 0.24053 0.00192
# Poissons Ratio (z) = 0.21237 0.00134
#
# Static dielectric constant tensor:
#      x y z
#    x 4.132430 0.014000 -0.033160 
#    y 0.014000 4.343120 -0.044520 
#    z -0.033160 -0.044520 4.007440 
# 
# 
# High freq. dielectric constant tensor:
#      x y z
#    x 1.873100 0.006200 0.003870 
#    y 0.006200 1.882870 -0.004350 
#    z 0.003870 -0.004350 1.847790 
# 
# From -- ./inp_files/196087.got.cif
#   From: 2010.06.25/outbox.cif.g09.slc.cpg/sg2_99_cif.got.tgz:196087.got - 2010.06.27 13:26:56.
