data_PCOD8027143
_publ_section_title
;
Structure prediction by ZEFSAII (Michael W. Deem and Ramdas Pophale) SiO2 
 PCOD8027143
Probable space group: P -1
;
_chemical_formula_sum "Si O2"
_cell_formula_units_Z 16
_cell_length_a 9.904538
_cell_length_b 19.263547
_cell_length_c 13.842990
_cell_angle_alpha 34.996598
_cell_angle_beta 34.546989
_cell_angle_gamma 33.246512
_cell_volume 745.494281
_symmetry_space_group_name_H-M "P -1"
_symmetry_group_IT_number 2
_symmetry_cell_setting 'triclinic'
loop_
_space_group_symop_operation_xyz
x,y,z
-x,-y,-z
loop_
_atom_site_type_symbol
_atom_site_label
_atom_site_fract_x
_atom_site_fract_y
_atom_site_fract_z
Si Si1 0.128559 0.682374 0.112497
Si Si2 0.423023 0.173668 0.640189
Si Si3 0.798044 0.834408 0.419532
Si Si4 0.522472 0.571519 0.680195
Si Si5 0.740604 0.479534 0.449148
Si Si6 0.955864 0.367280 0.983619
Si Si7 0.761589 0.946238 0.839921
Si Si8 0.215966 0.917744 0.751791
O O1 0.219252 0.561796 0.274450
O O2 0.797318 0.760465 0.218114
O O3 0.223662 0.794700 0.953353
O O4 0.225200 0.621726 0.016968
O O5 0.275642 0.136571 0.683385
O O6 0.508106 0.284669 0.424252
O O7 0.690176 0.040216 0.678142
O O8 0.527048 0.858596 0.605155
O O9 0.048217 0.680031 0.467020
O O10 0.889980 0.942662 0.281357
O O11 0.578078 0.566525 0.539909
O O12 0.250004 0.566676 0.878822
O O13 0.500000 0.500000 0.500000
O O14 0.894820 0.545013 0.224962
O O15 0.165173 0.206196 0.066881
O O16 0.013016 0.948675 0.744702
O O17 0.500000 0.000000 0.000000
#
# Coordination Sequence:
#
# PCOD8027143 Si02
#       8
#     2   2   2   2   2   2   2   2
#     4  11  20  41  69  97 132 172 225 280 334 402
#     4  12  22  40  71 101 130 178 229 279 333 406
#     4  11  25  44  66 101 138 177 231 280 345 407
#     4  12  24  43  70  99 133 175 232 283 337 403
#     4  12  27  46  70  96 140 185 225 283 347 412
#     4  11  24  43  69 101 131 175 227 287 335 403
#     4  11  22  43  70  98 137 178 229 279 341 401
#     4  10  24  44  68  97 138 184 221 284 342 404
#
# _framework density 21.462271999999999
#
# number of rings (size 3 to 8) (size 9 to 14) (size 15 to 20)
#    0.000    0.750    5.000    3.750    3.500    3.000 
#    4.500    0.000    0.000    0.000    0.000    0.000 
#    0.000    0.000    0.000    0.000    0.000    0.000 
#
# Total GULP energy -198372.818668 kJ/mol
# GULP energy per Si atom -12398.301167 kJ/mol
# Density = 2.141342 g / cm^3
# Si number density = 21.462272 Si / 1000 Ang^3
#
#
#
# Elastic Constant Matrix: (Units=GPa)
#
#
# Indices 1 2 3 4 5 6 
#
# 1 111.5032 42.4852 32.6100 -24.7735 -0.9950 -8.4773
# 2 42.4852 92.4786 35.7834 -14.1524 2.9354 -2.2245
# 3 32.6100 35.7834 115.1195 -13.5607 -11.2600 2.5388
# 4 -24.7735 -14.1524 -13.5607 53.4952 -3.8273 2.6641
# 5 -0.9950 2.9354 -11.2600 -3.8273 30.2700 -10.1229
# 6 -8.4773 -2.2245 2.5388 2.6641 -10.1229 28.0224
#
#
#
# Elastic Compliance Matrix: (Units=1/GPa)
#
#
# Indices 1 2 3 4 5 6 
#
# 1 0.012321 -0.004419 -0.001514 0.004109 0.002086 0.003877
# 2 -0.004419 0.014340 -0.003397 0.000720 -0.003065 -0.001066
# 3 -0.001514 -0.003397 0.010778 0.001459 0.004387 -0.000258
# 4 0.004109 0.000720 0.001459 0.021384 0.003438 0.000377
# 5 0.002086 -0.003065 0.004387 0.003438 0.040214 0.014191
# 6 0.003877 -0.001066 -0.000258 0.000377 0.014191 0.041888
#
#
# Mechanical properties :
#
#
# Convention : Reuss Voigt Hill
#
# Bulk Modulus (GPa) = 53.25047 60.09542 56.67294
# Shear Modulus (GPa) = 30.14888 36.23903 33.19396
#
# Velocity S-wave (km/s) = 3.75205 4.11359 3.93697
# Velocity P-wave (km/s) = 6.60572 7.11502 6.86509
#
# Compressibility (1/GPa) = 0.01877918
#
# Stress axis : x y z
#
# Youngs Moduli (GPa) = 81.16150 69.73728 92.78041
#
# Poissons Ratio (x) = 0.30814 0.14048
# Poissons Ratio (y) = 0.35862 0.31518
# Poissons Ratio (z) = 0.12289 0.23690
#
# Static dielectric constant tensor:
#      x y z
#    x 3.832390 -0.013650 0.043260 
#    y -0.013650 4.097830 -0.132720 
#    z 0.043260 -0.132720 4.027590 
# 
# 
# High freq. dielectric constant tensor:
#      x y z
#    x 1.819410 -0.006450 0.001140 
#    y -0.006450 1.855990 -0.002030 
#    z 0.001140 -0.002030 1.857960 
# 
# From -- ./inp_files/402784.got.cif
#   From: 2010.06.25/outbox.cif.g09.slc.cpg/sg2_202_cif.got.tgz:402784.got - 2010.06.27 13:26:56.
