data_PCOD8027215
_publ_section_title
;
Structure prediction by ZEFSAII (Michael W. Deem and Ramdas Pophale) SiO2 
 PCOD8027215
Probable space group: P -1
;
_chemical_formula_sum "Si O2"
_cell_formula_units_Z 16
_cell_length_a 19.665322
_cell_length_b 16.438584
_cell_length_c 6.692482
_cell_angle_alpha 77.062002
_cell_angle_beta 77.014966
_cell_angle_gamma 20.218588
_cell_volume 728.037495
_symmetry_space_group_name_H-M "P -1"
_symmetry_group_IT_number 2
_symmetry_cell_setting 'triclinic'
loop_
_space_group_symop_operation_xyz
x,y,z
-x,-y,-z
loop_
_atom_site_type_symbol
_atom_site_label
_atom_site_fract_x
_atom_site_fract_y
_atom_site_fract_z
Si Si1 0.745626 0.261356 0.244943
Si Si2 0.677194 0.217035 0.665841
Si Si3 0.616253 0.858236 0.201589
Si Si4 0.525480 0.094507 0.397358
Si Si5 0.091574 0.608734 0.241436
Si Si6 0.022081 0.099132 0.037983
Si Si7 0.243241 0.038828 0.431066
Si Si8 0.015482 0.382431 0.060228
O O1 0.758094 0.202078 0.483589
O O2 0.515907 0.540810 0.214448
O O3 0.824804 0.114555 0.097382
O O4 0.875030 0.200092 0.188764
O O5 0.636943 0.178422 0.587272
O O6 0.848393 0.001492 0.823889
O O7 0.472091 0.971301 0.382703
O O8 0.811861 0.584534 0.193653
O O9 0.664387 0.896963 0.242967
O O10 0.500000 0.000000 0.000000
O O11 0.312509 0.340285 0.302894
O O12 0.616517 0.077643 0.429210
O O13 0.102927 0.688906 0.100057
O O14 0.962735 0.754883 0.446081
O O15 0.992419 0.652359 0.132530
O O16 0.198741 0.146134 0.205850
O O17 0.000000 0.500000 0.000000
#
# Coordination Sequence:
#
# PCOD8027215 Si02
#       8
#     2   2   2   2   2   2   2   2
#     4  10  24  44  70 103 134 178 225 276 348 415
#     4  11  23  45  70 100 139 178 223 282 343 410
#     4  11  22  43  66  92 130 175 231 276 334 400
#     4  11  26  42  66  96 132 176 226 282 335 397
#     4  12  25  45  67  98 139 177 226 288 332 409
#     4  11  23  45  71 101 136 177 228 278 344 411
#     4  12  26  44  66 101 138 175 230 282 337 406
#     4  12  25  43  70  95 135 185 228 277 345 399
#
# _framework density 21.976890000000001
#
# number of rings (size 3 to 8) (size 9 to 14) (size 15 to 20)
#    0.000    0.750    5.000    2.250    1.750    4.000 
#   11.250    0.000    0.000    0.000    0.000    0.000 
#    0.000    0.000    0.000    0.000    0.000    0.000 
#
# Total GULP energy -198376.246635 kJ/mol
# GULP energy per Si atom -12398.515415 kJ/mol
# Density = 2.192687 g / cm^3
# Si number density = 21.976890 Si / 1000 Ang^3
#
#
#
# Elastic Constant Matrix: (Units=GPa)
#
#
# Indices 1 2 3 4 5 6 
#
# 1 119.2826 26.3718 38.7861 -6.0681 4.7657 12.2565
# 2 26.3718 79.3229 41.8061 -4.0214 -3.3390 6.9291
# 3 38.7861 41.8061 96.6570 -9.1365 3.2829 3.1754
# 4 -6.0681 -4.0214 -9.1365 41.6131 -0.2546 3.4956
# 5 4.7657 -3.3390 3.2829 -0.2546 33.1215 -5.6466
# 6 12.2565 6.9291 3.1754 3.4956 -5.6466 32.7397
#
#
#
# Elastic Compliance Matrix: (Units=1/GPa)
#
#
# Indices 1 2 3 4 5 6 
#
# 1 0.010245 -0.001422 -0.003222 0.000944 -0.001914 -0.003653
# 2 -0.001422 0.016909 -0.006740 0.000130 0.002234 -0.002021
# 3 -0.003222 -0.006740 0.014777 0.002054 -0.001543 0.000714
# 4 0.000944 0.000130 0.002054 0.024910 -0.000708 -0.003362
# 5 -0.001914 0.002234 -0.001543 -0.000708 0.031856 0.005963
# 6 -0.003653 -0.002021 0.000714 -0.003362 0.005963 0.033657
#
#
# Mechanical properties :
#
#
# Convention : Reuss Voigt Hill
#
# Bulk Modulus (GPa) = 52.18190 56.57670 54.37930
# Shear Modulus (GPa) = 30.95771 34.04809 32.50290
#
# Velocity S-wave (km/s) = 3.75727 3.94034 3.84989
# Velocity P-wave (km/s) = 6.52827 6.81919 6.67531
#
# Compressibility (1/GPa) = 0.01916373
#
# Stress axis : x y z
#
# Youngs Moduli (GPa) = 97.60601 59.14082 67.67232
#
# Poissons Ratio (x) = 0.08407 0.21804
# Poissons Ratio (y) = 0.13876 0.45612
# Poissons Ratio (z) = 0.31449 0.39861
#
# Static dielectric constant tensor:
#      x y z
#    x 3.917830 0.095040 -0.009810 
#    y 0.095040 4.114180 0.251910 
#    z -0.009810 0.251910 4.107960 
# 
# 
# High freq. dielectric constant tensor:
#      x y z
#    x 1.864750 0.008020 0.002810 
#    y 0.008020 1.867180 0.006500 
#    z 0.002810 0.006500 1.877710 
# 
# From -- ./inp_files/120037.got.cif
#   From: 2010.06.25/outbox.cif.g09.slc.cpg/sg2_61_cif.got.tgz:120037.got - 2010.06.27 13:26:56.
