data_PCOD8027227
_publ_section_title
;
Structure prediction by ZEFSAII (Michael W. Deem and Ramdas Pophale) SiO2 
 PCOD8027227
Probable space group: P -1
;
_chemical_formula_sum "Si O2"
_cell_formula_units_Z 14
_cell_length_a 8.818403
_cell_length_b 9.023160
_cell_length_c 12.285868
_cell_angle_alpha 118.043307
_cell_angle_beta 80.712684
_cell_angle_gamma 132.223638
_cell_volume 620.811068
_symmetry_space_group_name_H-M "P -1"
_symmetry_group_IT_number 2
_symmetry_cell_setting 'triclinic'
loop_
_space_group_symop_operation_xyz
x,y,z
-x,-y,-z
loop_
_atom_site_type_symbol
_atom_site_label
_atom_site_fract_x
_atom_site_fract_y
_atom_site_fract_z
Si Si1 0.393319 0.091812 0.071467
Si Si2 0.445498 0.265724 0.909189
Si Si3 0.860644 0.547200 0.490470
Si Si4 0.835230 0.940462 0.339467
Si Si5 0.430885 0.095946 0.462915
Si Si6 0.779715 0.228487 0.832335
Si Si7 0.175681 0.445741 0.755422
O O1 0.576522 0.353757 0.182595
O O2 0.222766 0.917372 0.122886
O O3 0.300422 0.102107 0.973889
O O4 0.500000 0.000000 0.000000
O O5 0.322059 0.137770 0.768833
O O6 0.658972 0.311927 0.903380
O O7 0.500000 0.500000 0.000000
O O8 0.625053 0.358232 0.496615
O O9 0.870924 0.543150 0.358616
O O10 0.000000 0.500000 0.500000
O O11 0.954482 0.792228 0.608857
O O12 0.730423 0.906424 0.455312
O O13 0.900797 0.797276 0.288326
O O14 0.500000 0.000000 0.500000
O O15 0.326088 0.936623 0.315797
O O16 0.025641 0.452315 0.851928
#
# Coordination Sequence:
#
# PCOD8027227 Si02
#       7
#     2   2   2   2   2   2   2
#     4  10  24  44  70  95 136 186 231 272 337 406
#     4  11  23  47  70  95 139 184 225 283 335 406
#     4  12  24  41  71 104 138 180 224 281 346 410
#     4  12  26  44  69 106 143 172 230 287 342 403
#     4  12  22  42  71 103 135 179 221 280 351 402
#     4  11  23  44  74  97 132 182 232 274 350 404
#     4  12  25  45  69 105 139 175 230 291 337 403
#
# _framework density 22.551143
#
# number of rings (size 3 to 8) (size 9 to 14) (size 15 to 20)
#    0.000    0.571    7.143    0.429    2.000    4.000 
#    0.000    2.143    0.000    0.000    0.000    0.000 
#    0.000    0.000    0.000    0.000    0.000    0.000 
#
# Total GULP energy -173571.268648 kJ/mol
# GULP energy per Si atom -12397.947761 kJ/mol
# Density = 2.249982 g / cm^3
# Si number density = 22.551143 Si / 1000 Ang^3
#
#
#
# Elastic Constant Matrix: (Units=GPa)
#
#
# Indices 1 2 3 4 5 6 
#
# 1 59.3822 28.4914 8.0505 -11.9615 -7.0123 -8.5392
# 2 28.4914 136.3128 31.1380 -10.8645 -1.5516 -5.5200
# 3 8.0505 31.1380 77.7135 -12.8700 -1.4935 -9.9753
# 4 -11.9615 -10.8645 -12.8700 42.5377 -9.2518 9.0692
# 5 -7.0123 -1.5516 -1.4935 -9.2518 30.7233 -1.0142
# 6 -8.5392 -5.5200 -9.9753 9.0692 -1.0142 42.5082
#
#
#
# Elastic Compliance Matrix: (Units=1/GPa)
#
#
# Indices 1 2 3 4 5 6 
#
# 1 0.020981 -0.003920 0.000872 0.005988 0.006528 0.002789
# 2 -0.003920 0.008873 -0.003188 0.000169 -0.000565 -0.000433
# 3 0.000872 -0.003188 0.015061 0.003892 0.002025 0.002513
# 4 0.005988 0.000169 0.003892 0.029490 0.010316 -0.003907
# 5 0.006528 -0.000565 0.002025 0.010316 0.037228 0.000401
# 6 0.002789 -0.000433 0.002513 -0.003907 0.000401 0.025462
#
#
# Mechanical properties :
#
#
# Convention : Reuss Voigt Hill
#
# Bulk Modulus (GPa) = 30.82256 45.41871 38.12063
# Shear Modulus (GPa) = 31.17601 36.86907 34.02254
#
# Velocity S-wave (km/s) = 3.72218 4.04779 3.88839
# Velocity P-wave (km/s) = 5.67189 6.48307 6.09100
#
# Compressibility (1/GPa) = 0.03244377
#
# Stress axis : x y z
#
# Youngs Moduli (GPa) = 47.66292 112.70060 66.39759
#
# Poissons Ratio (x) = 0.44179 -0.05792
# Poissons Ratio (y) = 0.18684 0.21165
# Poissons Ratio (z) = -0.04157 0.35924
#
# Static dielectric constant tensor:
#      x y z
#    x 4.032140 0.089580 -0.037450 
#    y 0.089580 5.315930 -0.484280 
#    z -0.037450 -0.484280 4.521900 
# 
# 
# High freq. dielectric constant tensor:
#      x y z
#    x 1.872830 -0.012830 0.008560 
#    y -0.012830 1.903240 -0.008930 
#    z 0.008560 -0.008930 1.907240 
# 
# From -- ./inp_files/175794.got.cif
#   From: 2010.06.25/outbox.cif.g09.slc.cpg/sg2_88_cif.got.tgz:175794.got - 2010.06.27 13:26:56.
