data_PCOD8027513
_publ_section_title
;
Structure prediction by ZEFSAII (Michael W. Deem and Ramdas Pophale) SiO2 
 PCOD8027513
Probable space group: P -1
;
_chemical_formula_sum "Si O2"
_cell_formula_units_Z 16
_cell_length_a 25.962365
_cell_length_b 11.378060
_cell_length_c 25.687476
_cell_angle_alpha 28.961684
_cell_angle_beta 11.043145
_cell_angle_gamma 29.410228
_cell_volume 697.514113
_symmetry_space_group_name_H-M "P -1"
_symmetry_group_IT_number 2
_symmetry_cell_setting 'triclinic'
loop_
_space_group_symop_operation_xyz
x,y,z
-x,-y,-z
loop_
_atom_site_type_symbol
_atom_site_label
_atom_site_fract_x
_atom_site_fract_y
_atom_site_fract_z
Si Si1 0.624941 0.751321 0.774091
Si Si2 0.995071 0.330183 0.138629
Si Si3 0.450400 0.659276 0.547282
Si Si4 0.562966 0.952761 0.514332
Si Si5 0.103290 0.681873 0.122128
Si Si6 0.222193 0.110271 0.205417
Si Si7 0.156837 0.088282 0.608692
Si Si8 0.102435 0.997442 0.248391
O O1 0.692958 0.767296 0.639387
O O2 0.898421 0.788475 0.522562
O O3 0.500000 0.500000 0.000000
O O4 0.385207 0.952151 0.953857
O O5 0.728519 0.499840 0.316202
O O6 0.964553 0.255081 0.259127
O O7 0.233430 0.476463 0.831267
O O8 0.044530 0.074702 0.157055
O O9 0.457976 0.765152 0.556390
O O10 0.384856 0.904741 0.483013
O O11 0.859379 0.800588 0.282112
O O12 0.500000 0.000000 0.500000
O O13 0.361414 0.813267 0.802171
O O14 0.182052 0.400375 0.138858
O O15 0.016955 0.722580 0.252743
O O16 0.185045 0.029966 0.213606
O O17 0.000000 0.000000 0.500000
O O18 0.500000 0.000000 0.000000
#
# Coordination Sequence:
#
# PCOD8027513 Si02
#       8
#     2   2   2   2   2   2   2   2
#     4  11  25  47  76 102 146 190 235 312 364 436
#     4  11  23  41  70 101 145 182 224 295 347 436
#     4  11  23  39  67 104 141 188 227 285 350 429
#     4  11  25  43  70 106 144 192 239 285 359 433
#     4  11  26  47  73 104 144 188 237 306 354 433
#     4  12  28  51  77 104 140 193 252 311 368 428
#     4  10  24  45  70 109 145 185 245 279 374 428
#     4  11  26  47  70 111 136 186 251 292 373 440
#
# _framework density 22.938604999999999
#
# number of rings (size 3 to 8) (size 9 to 14) (size 15 to 20)
#    0.000    1.000    0.000    6.000    5.250    8.000 
#    9.000    0.000    0.000    0.000    0.000    0.000 
#    0.000    0.000    0.000    0.000    0.000    0.000 
#
# Total GULP energy -198277.288497 kJ/mol
# GULP energy per Si atom -12392.330531 kJ/mol
# Density = 2.288640 g / cm^3
# Si number density = 22.938605 Si / 1000 Ang^3
#
#
#
# Elastic Constant Matrix: (Units=GPa)
#
#
# Indices 1 2 3 4 5 6 
#
# 1 579.0678 289.4252 505.8202 233.2338 60.9440 -166.2648
# 2 289.4252 253.5125 324.6034 133.7151 36.3701 -93.1697
# 3 505.8202 324.6034 709.9562 270.7304 67.0110 -206.3650
# 4 233.2338 133.7151 270.7304 174.0063 34.5016 -98.3471
# 5 60.9440 36.3701 67.0110 34.5016 49.7355 -27.8059
# 6 -166.2648 -93.1697 -206.3650 -98.3471 -27.8059 107.4178
#
#
#
# Elastic Compliance Matrix: (Units=1/GPa)
#
#
# Indices 1 2 3 4 5 6 
#
# 1 0.006015 -0.003068 -0.001460 -0.002543 -0.000641 0.001350
# 2 -0.003068 0.011300 -0.003330 -0.000220 -0.000853 -0.001767
# 3 -0.001460 -0.003330 0.006347 -0.002871 0.000156 0.004457
# 4 -0.002543 -0.000220 -0.002871 0.017465 -0.001662 0.005919
# 5 -0.000641 -0.000853 0.000156 -0.001662 0.024327 0.003344
# 6 0.001350 -0.001767 0.004457 0.005919 0.003344 0.024713
#
#
# Mechanical properties :
#
#
# Convention : Reuss Voigt Hill
#
# Bulk Modulus (GPa) = 125.86241 420.24825 273.05533
# Shear Modulus (GPa) = 46.06879 94.41109 70.23994
#
# Velocity S-wave (km/s) = 4.48633 6.42242 5.53961
# Velocity P-wave (km/s) = 9.04569 15.44669 12.65750
#
# Compressibility (1/GPa) = 0.00794518
#
# Stress axis : x y z
#
# Youngs Moduli (GPa) = 166.24141 88.49586 157.56091
#
# Poissons Ratio (x) = 0.27155 0.23006
# Poissons Ratio (y) = 0.51011 0.52464
# Poissons Ratio (z) = 0.24274 0.29467
#
# Static dielectric constant tensor:
#      x y z
#    x 4.437730 0.167380 -0.087280 
#    y 0.167380 4.241490 -0.034260 
#    z -0.087280 -0.034260 4.278750 
# 
# 
# High freq. dielectric constant tensor:
#      x y z
#    x 1.921520 0.001120 -0.005050 
#    y 0.001120 1.906040 -0.003990 
#    z -0.005050 -0.003990 1.923120 
# 
# From -- ./inp_files/621242.got.cif
#   From: 2010.06.25/outbox.cif.g09.slc.cpg/sg2_311_cif.got.tgz:621242.got - 2010.06.27 13:26:56.
