data_PCOD8027113
_publ_section_title
;
Structure prediction by ZEFSAII (Michael W. Deem and Ramdas Pophale) SiO2 
 PCOD8027113
Probable space group: P -1
;
_chemical_formula_sum "Si O2"
_cell_formula_units_Z 16
_cell_length_a 18.422025
_cell_length_b 7.694637
_cell_length_c 10.878761
_cell_angle_alpha 53.507597
_cell_angle_beta 52.008229
_cell_angle_gamma 34.616604
_cell_volume 676.883500
_symmetry_space_group_name_H-M "P -1"
_symmetry_group_IT_number 2
_symmetry_cell_setting 'triclinic'
loop_
_space_group_symop_operation_xyz
x,y,z
-x,-y,-z
loop_
_atom_site_type_symbol
_atom_site_label
_atom_site_fract_x
_atom_site_fract_y
_atom_site_fract_z
Si Si1 0.976310 0.753049 0.154532
Si Si2 0.800621 0.797746 0.481465
Si Si3 0.753682 0.163181 0.029574
Si Si4 0.384140 0.219864 0.430646
Si Si5 0.507424 0.729671 0.939962
Si Si6 0.764250 0.705827 0.079589
Si Si7 0.212751 0.729004 0.583643
Si Si8 0.073647 0.796197 0.265802
O O1 0.937486 0.616694 0.340456
O O2 0.024597 0.867166 0.143373
O O3 0.092092 0.497608 0.045665
O O4 0.832945 0.058321 0.117648
O O5 0.687910 0.889883 0.469913
O O6 0.835523 0.562074 0.647069
O O7 0.746943 0.103440 0.477200
O O8 0.612339 0.534863 0.026827
O O9 0.840485 0.130731 0.843699
O O10 0.739787 0.934766 0.109325
O O11 0.436527 0.213838 0.249269
O O12 0.283034 0.564970 0.449770
O O13 0.500000 0.000000 0.500000
O O14 0.358542 0.068264 0.986369
O O15 0.500000 0.500000 0.000000
O O16 0.750804 0.505509 0.250339
O O17 0.056407 0.974394 0.610530
#
# Coordination Sequence:
#
# PCOD8027113 Si02
#       8
#     2   2   2   2   2   2   2   2
#     4  11  23  41  72  98 139 181 231 289 350 410
#     4  11  27  45  71 108 142 179 234 297 351 413
#     4  11  22  40  69  98 138 181 231 293 343 413
#     4  12  25  47  73  99 138 190 235 280 357 420
#     4  10  24  44  67  99 144 176 233 296 337 423
#     4  11  23  42  69 107 133 186 243 283 344 424
#     4  11  24  43  72 103 141 183 236 292 345 418
#     4  11  24  44  66 106 142 174 235 297 350 414
#
# _framework density 23.637746
#
# number of rings (size 3 to 8) (size 9 to 14) (size 15 to 20)
#    0.000    1.000    3.750    3.000    5.250    5.000 
#    0.000    0.625    5.500    0.000    0.000    0.000 
#    0.000    0.000    0.000    0.000    0.000    0.000 
#
# Total GULP energy -198285.403264 kJ/mol
# GULP energy per Si atom -12392.837704 kJ/mol
# Density = 2.358395 g / cm^3
# Si number density = 23.637746 Si / 1000 Ang^3
#
#
#
# Elastic Constant Matrix: (Units=GPa)
#
#
# Indices 1 2 3 4 5 6 
#
# 1 94.8251 51.0050 6.3876 -7.2554 -8.8544 -10.8388
# 2 51.0050 88.5591 18.4144 -24.8749 -6.2982 -20.9058
# 3 6.3876 18.4144 44.1076 -5.9621 -3.3348 9.7233
# 4 -7.2554 -24.8749 -5.9621 36.1340 -4.4601 -0.7176
# 5 -8.8544 -6.2982 -3.3348 -4.4601 35.2922 -15.0585
# 6 -10.8388 -20.9058 9.7233 -0.7176 -15.0585 42.6536
#
#
#
# Elastic Compliance Matrix: (Units=1/GPa)
#
#
# Indices 1 2 3 4 5 6 
#
# 1 0.015959 -0.011031 0.002183 -0.003925 0.001093 -0.001529
# 2 -0.011031 0.031265 -0.012335 0.019236 0.012666 0.020128
# 3 0.002183 -0.012335 0.029679 -0.004111 -0.005448 -0.014249
# 4 -0.003925 0.019236 -0.004111 0.041431 0.013646 0.014883
# 5 0.001093 0.012666 -0.005448 0.013646 0.041766 0.022702
# 6 -0.001529 0.020128 -0.014249 0.014883 0.022702 0.044435
#
#
# Mechanical properties :
#
#
# Convention : Reuss Voigt Hill
#
# Bulk Modulus (GPa) = 28.95333 42.12289 35.53811
# Shear Modulus (GPa) = 19.34893 32.92829 26.13861
#
# Velocity S-wave (km/s) = 2.86415 3.73639 3.32896
# Velocity P-wave (km/s) = 4.81801 6.03929 5.46289
#
# Compressibility (1/GPa) = 0.03453834
#
# Stress axis : x y z
#
# Youngs Moduli (GPa) = 62.65986 31.98415 33.69421
#
# Poissons Ratio (x) = 0.35282 -0.07357
# Poissons Ratio (y) = 0.69121 0.41561
# Poissons Ratio (z) = -0.13682 0.39452
#
# Static dielectric constant tensor:
#      x y z
#    x -12.831800 4.240980 11.491480 
#    y 4.240980 3.390200 -3.322140 
#    z 11.491480 -3.322140 -3.562190 
# 
# 
# High freq. dielectric constant tensor:
#      x y z
#    x 1.934370 -0.024260 -0.021420 
#    y -0.024260 1.930390 -0.017440 
#    z -0.021420 -0.017440 1.939950 
# 
# From -- ./inp_files/416526.got.cif
#   From: 2010.06.25/outbox.cif.g09.slc.cpg/sg2_209_cif.got.tgz:416526.got - 2010.06.27 13:26:56.
