data_PCOD8027111
_publ_section_title
;
Structure prediction by ZEFSAII (Michael W. Deem and Ramdas Pophale) SiO2 
 PCOD8027111
Probable space group: P -1
;
_chemical_formula_sum "Si O2"
_cell_formula_units_Z 14
_cell_length_a 7.897450
_cell_length_b 11.686355
_cell_length_c 8.177234
_cell_angle_alpha 106.090738
_cell_angle_beta 52.657913
_cell_angle_gamma 106.529389
_cell_volume 569.768054
_symmetry_space_group_name_H-M "P -1"
_symmetry_group_IT_number 2
_symmetry_cell_setting 'triclinic'
loop_
_space_group_symop_operation_xyz
x,y,z
-x,-y,-z
loop_
_atom_site_type_symbol
_atom_site_label
_atom_site_fract_x
_atom_site_fract_y
_atom_site_fract_z
Si Si1 0.238756 0.751172 0.013561
Si Si2 0.474552 0.421165 0.645806
Si Si3 0.174507 0.625641 0.321041
Si Si4 0.047191 0.043740 0.669123
Si Si5 0.921559 0.594809 0.919853
Si Si6 0.037821 0.798765 0.706239
Si Si7 0.505029 0.824183 0.589196
O O1 0.311347 0.704628 0.128386
O O2 0.070785 0.846021 0.164864
O O3 0.448429 0.812599 0.813255
O O4 0.122073 0.629690 0.939800
O O5 0.500000 0.500000 0.500000
O O6 0.685707 0.421396 0.634959
O O7 0.389844 0.289780 0.575154
O O8 0.294912 0.461162 0.884193
O O9 0.028969 0.507009 0.280077
O O10 0.020936 0.716708 0.519182
O O11 0.308840 0.067785 0.526256
O O12 0.957534 0.927526 0.787761
O O13 0.000000 0.000000 0.500000
O O14 0.894120 0.720149 0.895009
O O15 0.287401 0.829662 0.621944
#
# Coordination Sequence:
#
# PCOD8027111 Si02
#       7
#     2   2   2   2   2   2   2
#     4  11  24  45  71 105 137 186 227 282 351 402
#     4  11  24  44  69 102 142 182 227 288 346 412
#     4  11  23  43  67 104 142 176 231 283 346 411
#     4  12  24  45  70 101 139 179 236 284 337 413
#     4  11  23  42  71 102 137 184 229 284 345 413
#     4  10  24  44  67  99 138 185 228 283 342 402
#     4  10  24  45  67  99 140 181 229 284 342 404
#
# _framework density 24.571401999999999
#
# number of rings (size 3 to 8) (size 9 to 14) (size 15 to 20)
#    0.000    1.143    2.857    2.571    0.000    8.571 
#    5.143    0.000    0.000    0.000    0.000    0.000 
#    0.000    0.000    0.000    0.000    0.000    0.000 
#
# Total GULP energy -173470.260356 kJ/mol
# GULP energy per Si atom -12390.732883 kJ/mol
# Density = 2.451548 g / cm^3
# Si number density = 24.571402 Si / 1000 Ang^3
#
#
#
# Elastic Constant Matrix: (Units=GPa)
#
#
# Indices 1 2 3 4 5 6 
#
# 1 64.1318 60.1411 41.0884 0.7233 25.3596 -17.2380
# 2 60.1411 127.3189 42.0983 0.2005 8.8566 -11.1691
# 3 41.0884 42.0983 112.1989 -6.0973 12.8562 3.5450
# 4 0.7233 0.2005 -6.0973 38.5899 -2.5982 8.4957
# 5 25.3596 8.8566 12.8562 -2.5982 37.3000 -6.8189
# 6 -17.2380 -11.1691 3.5450 8.4957 -6.8189 36.5196
#
#
#
# Elastic Compliance Matrix: (Units=1/GPa)
#
#
# Indices 1 2 3 4 5 6 
#
# 1 0.058051 -0.019907 -0.011703 -0.008964 -0.027795 0.019344
# 2 -0.019907 0.016231 0.000347 0.001650 0.009100 -0.003151
# 3 -0.011703 0.000347 0.013257 0.004055 0.002267 -0.007225
# 4 -0.008964 0.001650 0.004055 0.029236 0.004498 -0.010082
# 5 -0.027795 0.009100 0.002267 0.004498 0.042405 -0.003686
# 6 0.019344 -0.003151 -0.007225 -0.010082 -0.003686 0.037908
#
#
# Mechanical properties :
#
#
# Convention : Reuss Voigt Hill
#
# Bulk Modulus (GPa) = 39.97991 65.58948 52.78470
# Shear Modulus (GPa) = 18.66004 33.17003 25.91504
#
# Velocity S-wave (km/s) = 2.75875 3.67815 3.25111
# Velocity P-wave (km/s) = 5.14333 6.69251 5.96840
#
# Compressibility (1/GPa) = 0.02501256
#
# Stress axis : x y z
#
# Youngs Moduli (GPa) = 17.22635 61.61028 75.42958
#
# Poissons Ratio (x) = 1.22647 0.88274
# Poissons Ratio (y) = 0.34292 -0.02614
# Poissons Ratio (z) = 0.20160 -0.02135
#
# Static dielectric constant tensor:
#      x y z
#    x 4.430610 -0.596040 0.082450 
#    y -0.596040 0.654430 0.233810 
#    z 0.082450 0.233810 5.014010 
# 
# 
# High freq. dielectric constant tensor:
#      x y z
#    x 1.953380 -0.010860 0.025010 
#    y -0.010860 1.992360 -0.001430 
#    z 0.025010 -0.001430 1.984440 
# 
# From -- ./inp_files/181088.got.cif
#   From: 2010.06.25/outbox.cif.g09.slc.cpg/sg2_91_cif.got.tgz:181088.got - 2010.06.27 13:26:56.
