data_PCOD8027257
_publ_section_title
;
Structure prediction by ZEFSAII (Michael W. Deem and Ramdas Pophale) SiO2 
 PCOD8027257
Probable space group: P -1
;
_chemical_formula_sum "Si O2"
_cell_formula_units_Z 16
_cell_length_a 8.456939
_cell_length_b 14.782019
_cell_length_c 12.914678
_cell_angle_alpha 62.947911
_cell_angle_beta 107.245508
_cell_angle_gamma 52.472454
_cell_volume 665.554095
_symmetry_space_group_name_H-M "P -1"
_symmetry_group_IT_number 2
_symmetry_cell_setting 'triclinic'
loop_
_space_group_symop_operation_xyz
x,y,z
-x,-y,-z
loop_
_atom_site_type_symbol
_atom_site_label
_atom_site_fract_x
_atom_site_fract_y
_atom_site_fract_z
Si Si1 0.342651 0.420658 0.768285
Si Si2 0.451939 0.413663 0.575471
Si Si3 0.155181 0.458661 0.308892
Si Si4 0.389984 0.008827 0.582512
Si Si5 0.210420 0.015973 0.940236
Si Si6 0.393531 0.789559 0.655093
Si Si7 0.410299 0.564881 0.832507
Si Si8 0.390174 0.088613 0.096523
O O1 0.248152 0.522291 0.587623
O O2 0.565552 0.385464 0.892938
O O3 0.005706 0.568052 0.691455
O O4 0.535356 0.213829 0.889333
O O5 0.500000 0.500000 0.500000
O O6 0.219776 0.472251 0.425409
O O7 0.836901 0.165283 0.790344
O O8 0.518677 0.249966 0.429787
O O9 0.901350 0.668073 0.086518
O O10 0.546107 0.810129 0.724364
O O11 0.512974 0.993564 0.722628
O O12 0.500000 0.000000 0.500000
O O13 0.982676 0.222568 0.388098
O O14 0.282144 0.045436 0.835523
O O15 0.254200 0.059920 0.029326
O O16 0.573544 0.587759 0.829720
O O17 0.000000 0.000000 0.500000
O O18 0.500000 0.500000 0.000000
#
# Coordination Sequence:
#
# PCOD8027257 Si02
#       8
#     2   2   2   2   2   2   2   2
#     4  11  26  45  69 108 147 189 240 298 368 444
#     4  12  24  42  74 106 144 188 244 296 367 434
#     4  11  24  44  73 104 145 190 239 305 367 432
#     4  11  26  45  72 103 141 190 239 299 369 437
#     4  10  24  44  71 107 144 195 232 301 365 438
#     4  10  25  46  71 104 139 190 244 301 362 429
#     4  11  27  45  70 102 141 187 246 301 357 428
#     4  10  24  44  71 104 149 184 240 296 372 434
#
# _framework density 24.040120999999999
#
# number of rings (size 3 to 8) (size 9 to 14) (size 15 to 20)
#    0.000    1.250    1.250    2.250   10.500    3.500 
#    0.000    0.000    0.000    0.000    0.000    0.000 
#    0.000    0.000    0.000    0.000    0.000    0.000 
#
# Total GULP energy -198257.155650 kJ/mol
# GULP energy per Si atom -12391.072228 kJ/mol
# Density = 2.398540 g / cm^3
# Si number density = 24.040121 Si / 1000 Ang^3
#
#
#
# Elastic Constant Matrix: (Units=GPa)
#
#
# Indices 1 2 3 4 5 6 
#
# 1 126.7848 57.0698 35.7050 4.7751 -24.7683 3.7681
# 2 57.0698 129.2141 41.5243 30.6306 -12.7412 -10.9376
# 3 35.7050 41.5243 103.8351 37.1818 -6.4495 -6.5195
# 4 4.7751 30.6306 37.1818 40.2847 -8.8432 0.8280
# 5 -24.7683 -12.7412 -6.4495 -8.8432 30.7031 0.6261
# 6 3.7681 -10.9376 -6.5195 0.8280 0.6261 53.9649
#
#
#
# Elastic Compliance Matrix: (Units=1/GPa)
#
#
# Indices 1 2 3 4 5 6 
#
# 1 0.014048 -0.006106 -0.005761 0.010719 0.010741 -0.003204
# 2 -0.006106 0.012641 0.000743 -0.010196 -0.002527 0.003264
# 3 -0.005761 0.000743 0.017289 -0.017154 -0.005708 0.002971
# 4 0.010719 -0.010196 -0.017154 0.050666 0.015524 -0.005845
# 5 0.010741 -0.002527 -0.005708 0.015524 0.043513 -0.002695
# 6 -0.003204 0.003264 0.002971 -0.005845 -0.002695 0.019896
#
#
# Mechanical properties :
#
#
# Convention : Reuss Voigt Hill
#
# Bulk Modulus (GPa) = 46.01775 69.82579 57.92177
# Shear Modulus (GPa) = 26.66043 40.02621 33.34332
#
# Velocity S-wave (km/s) = 3.33377 4.08484 3.72827
# Velocity P-wave (km/s) = 5.83115 7.16634 6.53295
#
# Compressibility (1/GPa) = 0.02173074
#
# Stress axis : x y z
#
# Youngs Moduli (GPa) = 71.18323 79.10625 57.84125
#
# Poissons Ratio (x) = 0.48304 0.33321
# Poissons Ratio (y) = 0.43466 -0.04300
# Poissons Ratio (z) = 0.41008 -0.05881
#
# Static dielectric constant tensor:
#      x y z
#    x 4.051320 -0.088770 -0.982650 
#    y -0.088770 4.726140 -0.378030 
#    z -0.982650 -0.378030 3.324590 
# 
# 
# High freq. dielectric constant tensor:
#      x y z
#    x 1.972130 0.002970 -0.010210 
#    y 0.002970 1.970160 -0.002380 
#    z -0.010210 -0.002380 1.928540 
# 
# From -- ./inp_files/207115.got.cif
#   From: 2010.06.25/outbox.cif.g09.slc.cpg/sg2_104_cif.got.tgz:207115.got - 2010.06.27 13:26:56.
