data_PCOD8027644
_publ_section_title
;
Structure prediction by ZEFSAII (Michael W. Deem and Ramdas Pophale) SiO2 
 PCOD8027644
Probable space group: P -1
;
_chemical_formula_sum "Si O2"
_cell_formula_units_Z 16
_cell_length_a 16.553497
_cell_length_b 5.416080
_cell_length_c 13.850585
_cell_angle_alpha 102.853529
_cell_angle_beta 32.098507
_cell_angle_gamma 100.308739
_cell_volume 643.207349
_symmetry_space_group_name_H-M "P -1"
_symmetry_group_IT_number 2
_symmetry_cell_setting 'triclinic'
loop_
_space_group_symop_operation_xyz
x,y,z
-x,-y,-z
loop_
_atom_site_type_symbol
_atom_site_label
_atom_site_fract_x
_atom_site_fract_y
_atom_site_fract_z
Si Si1 0.745349 0.381943 0.880736
Si Si2 0.345111 0.784287 0.837738
Si Si3 0.825124 0.449162 0.162351
Si Si4 0.512187 0.770143 0.166539
Si Si5 0.393830 0.158617 0.549636
Si Si6 0.747036 0.038920 0.685099
Si Si7 0.909954 0.489009 0.453147
Si Si8 0.734469 0.306735 0.449763
O O1 0.721146 0.107319 0.830747
O O2 0.913364 0.483060 0.702926
O O3 0.706017 0.377923 0.033369
O O4 0.621452 0.580610 0.977745
O O5 0.204577 0.780752 0.901755
O O6 0.495372 0.676875 0.618468
O O7 0.377908 0.068043 0.862310
O O8 0.724727 0.689444 0.247443
O O9 0.744274 0.429245 0.346149
O O10 0.000000 0.500000 0.000000
O O11 0.410739 0.950036 0.214017
O O12 0.403856 0.601552 0.331555
O O13 0.500000 0.000000 0.500000
O O14 0.289470 0.992443 0.568575
O O15 0.849345 0.277400 0.569421
O O16 0.826673 0.765162 0.570870
O O17 0.888355 0.375618 0.357288
#
# Coordination Sequence:
#
# PCOD8027644 Si02
#       8
#     2   2   2   2   2   2   2   2
#     4  12  26  45  72 105 143 182 240 300 349 428
#     4  11  26  42  70 102 141 183 237 289 359 418
#     4  12  26  42  67 101 138 181 231 290 350 421
#     4  10  26  43  73 102 137 186 240 294 353 423
#     4  11  24  44  70  95 136 186 233 287 350 421
#     4  11  27  49  74 104 145 193 235 294 366 426
#     4  11  27  47  74 105 145 193 236 291 365 427
#     4  10  24  46  68  97 141 184 229 287 357 423
#
# _framework density 24.875335
#
# number of rings (size 3 to 8) (size 9 to 14) (size 15 to 20)
#    0.000    1.000    1.250    3.000   15.750    2.000 
#    0.000    0.000    0.000    0.000    0.000    0.000 
#    0.000    0.000    0.000    0.000    0.000    0.000 
#
# Total GULP energy -198240.877714 kJ/mol
# GULP energy per Si atom -12390.054857 kJ/mol
# Density = 2.481872 g / cm^3
# Si number density = 24.875335 Si / 1000 Ang^3
#
#
#
# Elastic Constant Matrix: (Units=GPa)
#
#
# Indices 1 2 3 4 5 6 
#
# 1 120.3350 31.8770 44.8087 1.0689 -3.8436 29.5312
# 2 31.8770 92.9299 44.3312 -7.7099 -16.1130 9.7928
# 3 44.8087 44.3312 102.8376 6.2325 -20.5663 1.9508
# 4 1.0689 -7.7099 6.2325 24.2909 5.1086 -7.3053
# 5 -3.8436 -16.1130 -20.5663 5.1086 36.4593 0.4927
# 6 29.5312 9.7928 1.9508 -7.3053 0.4927 47.7735
#
#
#
# Elastic Compliance Matrix: (Units=1/GPa)
#
#
# Indices 1 2 3 4 5 6 
#
# 1 0.012256 -0.001608 -0.004765 -0.001644 -0.001777 -0.007285
# 2 -0.001608 0.014958 -0.005538 0.005382 0.002577 -0.001050
# 3 -0.004765 -0.005538 0.015903 -0.006357 0.006880 0.002388
# 4 -0.001644 0.005382 -0.006357 0.048640 -0.008300 0.007696
# 5 -0.001777 0.002577 0.006880 -0.008300 0.033441 -0.001325
# 6 -0.007285 -0.001050 0.002388 0.007696 -0.001325 0.026743
#
#
# Mechanical properties :
#
#
# Convention : Reuss Voigt Hill
#
# Bulk Modulus (GPa) = 51.82553 62.01514 56.92034
# Shear Modulus (GPa) = 27.44296 34.71043 31.07669
#
# Velocity S-wave (km/s) = 3.32508 3.73952 3.53837
# Velocity P-wave (km/s) = 5.96832 6.60529 6.29487
#
# Compressibility (1/GPa) = 0.01929551
#
# Stress axis : x y z
#
# Youngs Moduli (GPa) = 81.59327 66.85188 62.87943
#
# Poissons Ratio (x) = 0.10750 0.29960
# Poissons Ratio (y) = 0.13121 0.34826
# Poissons Ratio (z) = 0.38876 0.37026
#
# Static dielectric constant tensor:
#      x y z
#    x 4.607190 0.356420 0.153180 
#    y 0.356420 4.383780 -0.135360 
#    z 0.153180 -0.135360 4.646720 
# 
# 
# High freq. dielectric constant tensor:
#      x y z
#    x 2.001090 0.024720 0.008640 
#    y 0.024720 1.985200 -0.009180 
#    z 0.008640 -0.009180 1.988170 
# 
# From -- ./inp_files/536397.got.cif
#   From: 2010.06.25/outbox.cif.g09.slc.cpg/sg2_269_cif.got.tgz:536397.got - 2010.06.27 13:26:56.
