data_PCOD8027101
_publ_section_title
;
Structure prediction by ZEFSAII (Michael W. Deem and Ramdas Pophale) SiO2 
 PCOD8027101
Probable space group: P -1
;
_chemical_formula_sum "Si O2"
_cell_formula_units_Z 14
_cell_length_a 13.474268
_cell_length_b 9.429019
_cell_length_c 9.842381
_cell_angle_alpha 137.204752
_cell_angle_beta 84.541656
_cell_angle_gamma 69.116777
_cell_volume 656.561067
_symmetry_space_group_name_H-M "P -1"
_symmetry_group_IT_number 2
_symmetry_cell_setting 'triclinic'
loop_
_space_group_symop_operation_xyz
x,y,z
-x,-y,-z
loop_
_atom_site_type_symbol
_atom_site_label
_atom_site_fract_x
_atom_site_fract_y
_atom_site_fract_z
Si Si1 0.641064 0.723563 0.280013
Si Si2 0.202024 0.503708 0.430380
Si Si3 0.005539 0.784988 0.436832
Si Si4 0.750280 0.750731 0.023192
Si Si5 0.227245 0.188362 0.448194
Si Si6 0.556842 0.390930 0.062705
Si Si7 0.383104 0.635573 0.507119
O O1 0.683144 0.681293 0.088022
O O2 0.737981 0.723945 0.362312
O O3 0.639498 0.485473 0.161527
O O4 0.500000 0.000000 0.500000
O O5 0.070556 0.759401 0.556099
O O6 0.160227 0.420133 0.506045
O O7 0.289628 0.575169 0.524974
O O8 0.284909 0.264822 0.138765
O O9 0.864203 0.879471 0.541578
O O10 0.095290 0.487607 0.145747
O O11 0.000000 0.000000 0.500000
O O12 0.704774 0.043695 0.264573
O O13 0.353408 0.929967 0.177322
O O14 0.438851 0.511779 0.264772
O O15 0.500000 0.500000 0.000000
O O16 0.500000 0.500000 0.500000
#
# Coordination Sequence:
#
# PCOD8027101 Si02
#       7
#     2   2   2   2   2   2   2
#     4  12  23  40  66 103 137 173 227 279 338 402
#     4  10  26  45  69  97 138 176 225 281 337 398
#     4  10  25  48  73  94 133 184 234 275 336 401
#     4  10  24  44  67  96 139 174 228 275 335 398
#     4  12  25  45  69 100 137 181 225 284 334 396
#     4  12  24  39  68  98 140 176 223 274 338 407
#     4  12  24  41  68 101 136 174 219 272 348 403
#
# _framework density 21.323226999999999
#
# number of rings (size 3 to 8) (size 9 to 14) (size 15 to 20)
#    0.857    0.000    2.857    3.857    4.000    1.714 
#    2.571    0.714    0.000    0.000    0.000    0.000 
#    0.000    0.000    0.000    0.000    0.000    0.000 
#
# Total GULP energy -173582.252686 kJ/mol
# GULP energy per Si atom -12398.732335 kJ/mol
# Density = 2.127469 g / cm^3
# Si number density = 21.323227 Si / 1000 Ang^3
#
#
#
# Elastic Constant Matrix: (Units=GPa)
#
#
# Indices 1 2 3 4 5 6 
#
# 1 117.7728 39.3600 8.3512 -5.1537 10.4067 0.7285
# 2 39.3600 130.7547 18.6404 -5.2612 0.0370 -0.0561
# 3 8.3512 18.6404 73.8170 7.5361 -7.1805 -4.7950
# 4 -5.1537 -5.2612 7.5361 41.3904 0.1301 0.6391
# 5 10.4067 0.0370 -7.1805 0.1301 30.0608 -1.2364
# 6 0.7285 -0.0561 -4.7950 0.6391 -1.2364 41.6198
#
#
#
# Elastic Compliance Matrix: (Units=1/GPa)
#
#
# Indices 1 2 3 4 5 6 
#
# 1 0.009860 -0.002797 -0.000898 0.001053 -0.003646 -0.000404
# 2 -0.002797 0.008819 -0.001992 0.001137 0.000470 -0.000172
# 3 -0.000898 -0.001992 0.014983 -0.003135 0.003984 0.001906
# 4 0.001053 0.001137 -0.003135 0.025023 -0.001256 -0.000800
# 5 -0.003646 0.000470 0.003984 -0.001256 0.035550 0.001599
# 6 -0.000404 -0.000172 0.001906 -0.000800 0.001599 0.024313
#
#
# Mechanical properties :
#
#
# Convention : Reuss Voigt Hill
#
# Bulk Modulus (GPa) = 44.86529 50.56087 47.71308
# Shear Modulus (GPa) = 36.40280 39.68038 38.04159
#
# Velocity S-wave (km/s) = 4.13630 4.31849 4.22838
# Velocity P-wave (km/s) = 6.62557 6.97345 6.80173
#
# Compressibility (1/GPa) = 0.02228895
#
# Stress axis : x y z
#
# Youngs Moduli (GPa) = 101.41958 113.38680 66.74206
#
# Poissons Ratio (x) = 0.31713 0.05991
# Poissons Ratio (y) = 0.28366 0.13296
# Poissons Ratio (z) = 0.09104 0.22589
#
# Static dielectric constant tensor:
#      x y z
#    x 3.735170 0.132740 0.298750 
#    y 0.132740 3.868540 -0.051530 
#    z 0.298750 -0.051530 3.727240 
# 
# 
# High freq. dielectric constant tensor:
#      x y z
#    x 1.832730 0.006330 0.000810 
#    y 0.006330 1.844740 -0.004900 
#    z 0.000810 -0.004900 1.832420 
# 
# From -- ./inp_files/299657.got.cif
#   From: 2010.06.25/outbox.cif.g09.slc.cpg/sg2_150_cif.got.tgz:299657.got - 2010.06.27 13:26:56.
