data_PCOD8027413
_publ_section_title
;
Structure prediction by ZEFSAII (Michael W. Deem and Ramdas Pophale) SiO2 
 PCOD8027413
Probable space group: P -1
;
_chemical_formula_sum "Si O2"
_cell_formula_units_Z 14
_cell_length_a 8.075579
_cell_length_b 12.665573
_cell_length_c 8.868283
_cell_angle_alpha 59.365631
_cell_angle_beta 84.551750
_cell_angle_gamma 121.669307
_cell_volume 577.176031
_symmetry_space_group_name_H-M "P -1"
_symmetry_group_IT_number 2
_symmetry_cell_setting 'triclinic'
loop_
_space_group_symop_operation_xyz
x,y,z
-x,-y,-z
loop_
_atom_site_type_symbol
_atom_site_label
_atom_site_fract_x
_atom_site_fract_y
_atom_site_fract_z
Si Si1 0.522360 0.035087 0.297962
Si Si2 0.243994 0.293492 0.520289
Si Si3 0.256955 0.322639 0.152648
Si Si4 0.485376 0.128558 0.834873
Si Si5 0.026774 0.620095 0.028362
Si Si6 0.265394 0.537589 0.543312
Si Si7 0.192665 0.046577 0.177308
O O1 0.286614 0.969788 0.304785
O O2 0.500000 0.000000 0.500000
O O3 0.583505 0.934888 0.286389
O O4 0.708200 0.226536 0.092115
O O5 0.181733 0.286629 0.357470
O O6 0.194277 0.391279 0.548681
O O7 0.496250 0.371998 0.463141
O O8 0.070649 0.101512 0.725179
O O9 0.254838 0.186786 0.181635
O O10 0.500000 0.500000 0.000000
O O11 0.085696 0.313088 0.072782
O O12 0.709637 0.324731 0.658686
O O13 0.308067 0.122604 0.947888
O O14 0.500000 0.000000 0.000000
O O15 0.922115 0.533747 0.261492
O O16 0.000000 0.500000 0.000000
#
# Coordination Sequence:
#
# PCOD8027413 Si02
#       7
#     2   2   2   2   2   2   2
#     4  11  24  44  70 104 143 188 242 292 359 427
#     4  11  25  44  72 108 142 186 238 300 359 418
#     4  12  24  44  70 105 145 182 239 292 365 423
#     4  10  24  45  68 101 143 189 234 295 361 423
#     4  12  26  45  70 105 141 192 236 296 360 428
#     4  11  25  46  72 104 143 187 245 295 355 433
#     4  11  25  45  70 104 144 189 238 297 359 429
#
# _framework density 24.256032000000001
#
# number of rings (size 3 to 8) (size 9 to 14) (size 15 to 20)
#    0.000    0.857    1.429    4.714    6.000    2.857 
#    0.000    6.429    0.000    0.000    0.000    0.000 
#    0.000    0.000    0.000    0.000    0.000    0.000 
#
# Total GULP energy -173564.003585 kJ/mol
# GULP energy per Si atom -12397.428828 kJ/mol
# Density = 2.420082 g / cm^3
# Si number density = 24.256032 Si / 1000 Ang^3
#
#
#
# Elastic Constant Matrix: (Units=GPa)
#
#
# Indices 1 2 3 4 5 6 
#
# 1 54.9773 13.4715 19.8068 2.5953 -0.4834 -1.7812
# 2 13.4715 190.9580 73.3243 6.1630 -20.2046 -25.3317
# 3 19.8068 73.3243 192.2798 11.3190 -16.5520 -15.3147
# 4 2.5953 6.1630 11.3190 57.7524 -1.5248 -5.8246
# 5 -0.4834 -20.2046 -16.5520 -1.5248 36.6435 -1.1753
# 6 -1.7812 -25.3317 -15.3147 -5.8246 -1.1753 34.5621
#
#
#
# Elastic Compliance Matrix: (Units=1/GPa)
#
#
# Indices 1 2 3 4 5 6 
#
# 1 0.019019 -0.000836 -0.001742 -0.000504 -0.001034 -0.000524
# 2 -0.000836 0.006941 -0.001964 0.000198 0.003075 0.004312
# 3 -0.001742 -0.001964 0.006431 -0.000799 0.001806 0.001247
# 4 -0.000504 0.000198 -0.000799 0.017769 0.000570 0.002779
# 5 -0.001034 0.003075 0.001806 0.000570 0.029943 0.004115
# 6 -0.000524 0.004312 0.001247 0.002779 0.004115 0.033227
#
#
# Mechanical properties :
#
#
# Convention : Reuss Voigt Hill
#
# Bulk Modulus (GPa) = 42.90364 72.38005 57.64184
# Shear Modulus (GPa) = 38.40741 47.89909 43.15325
#
# Velocity S-wave (km/s) = 3.98353 4.44861 4.22248
# Velocity P-wave (km/s) = 6.23573 7.50278 6.89840
#
# Compressibility (1/GPa) = 0.02330805
#
# Stress axis : x y z
#
# Youngs Moduli (GPa) = 52.57815 144.07284 155.49670
#
# Poissons Ratio (x) = 0.12041 0.27081
# Poissons Ratio (y) = 0.04394 0.30544
# Poissons Ratio (z) = 0.09157 0.28300
#
# Static dielectric constant tensor:
#      x y z
#    x 5.388080 1.173900 -0.661680 
#    y 1.173900 5.143790 0.322780 
#    z -0.661680 0.322780 5.274270 
# 
# 
# High freq. dielectric constant tensor:
#      x y z
#    x 1.948670 -0.004830 -0.006960 
#    y -0.004830 1.987540 0.006240 
#    z -0.006960 0.006240 1.982980 
# 
# From -- ./inp_files/177510.got.cif
#   From: 2010.06.25/outbox.cif.g09.slc.cpg/sg2_89_cif.got.tgz:177510.got - 2010.06.27 13:26:56.
