data_PCOD8027159
_publ_section_title
;
Structure prediction by ZEFSAII (Michael W. Deem and Ramdas Pophale) SiO2 
 PCOD8027159
Probable space group: P -1
;
_chemical_formula_sum "Si O2"
_cell_formula_units_Z 16
_cell_length_a 8.435697
_cell_length_b 14.421450
_cell_length_c 13.459772
_cell_angle_alpha 135.700275
_cell_angle_beta 120.112150
_cell_angle_gamma 37.328799
_cell_volume 684.633896
_symmetry_space_group_name_H-M "P -1"
_symmetry_group_IT_number 2
_symmetry_cell_setting 'triclinic'
loop_
_space_group_symop_operation_xyz
x,y,z
-x,-y,-z
loop_
_atom_site_type_symbol
_atom_site_label
_atom_site_fract_x
_atom_site_fract_y
_atom_site_fract_z
Si Si1 0.462480 0.197654 0.688462
Si Si2 0.771092 0.283751 0.128921
Si Si3 0.975915 0.372824 0.113476
Si Si4 0.709718 0.929500 0.184558
Si Si5 0.416195 0.319891 0.308920
Si Si6 0.160456 0.102463 0.574061
Si Si7 0.279108 0.964759 0.152767
Si Si8 0.443158 0.572542 0.396840
O O1 0.317218 0.412584 0.827643
O O2 0.232275 0.206954 0.629103
O O3 0.676132 0.052367 0.728774
O O4 0.625893 0.113060 0.570802
O O5 0.943348 0.252760 0.069723
O O6 0.559143 0.504295 0.269362
O O7 0.620662 0.230064 0.005404
O O8 0.968486 0.144905 0.175051
O O9 0.150951 0.385073 0.240615
O O10 0.096359 0.273165 0.967607
O O11 0.834089 0.905965 0.311227
O O12 0.435481 0.997988 0.170342
O O13 0.648989 0.088427 0.217657
O O14 0.492045 0.395668 0.314099
O O15 0.382458 0.412004 0.475247
O O16 0.862414 0.223046 0.540319
#
# Coordination Sequence:
#
# PCOD8027159 Si02
#       8
#     2   2   2   2   2   2   2   2
#     4  10  24  44  72 101 136 183 227 283 335 410
#     4  11  26  42  68 104 140 177 230 284 340 401
#     4  12  25  45  72 103 137 181 233 278 337 410
#     4  11  25  45  75  98 137 182 227 285 336 412
#     4  11  25  44  70 100 134 182 231 276 340 405
#     4  10  24  47  69 101 140 181 228 277 346 402
#     4  10  24  44  69 100 140 179 226 281 347 398
#     4  11  26  44  70  99 140 184 224 284 341 408
#
# _framework density 23.370156000000001
#
# number of rings (size 3 to 8) (size 9 to 14) (size 15 to 20)
#    0.000    1.250    2.500    1.125   10.500    3.500 
#    0.000    0.000    0.000    0.000    0.000    0.000 
#    0.000    0.000    0.000    0.000    0.000    0.000 
#
# Total GULP energy -198390.047421 kJ/mol
# GULP energy per Si atom -12399.377964 kJ/mol
# Density = 2.331696 g / cm^3
# Si number density = 23.370156 Si / 1000 Ang^3
#
#
#
# Elastic Constant Matrix: (Units=GPa)
#
#
# Indices 1 2 3 4 5 6 
#
# 1 56.1804 33.5035 38.0774 -6.6310 -2.4271 -3.9712
# 2 33.5035 91.7116 42.3783 3.7466 -8.9558 0.9699
# 3 38.0774 42.3783 123.1328 5.9677 -13.3827 -4.5673
# 4 -6.6310 3.7466 5.9677 37.1081 0.0366 1.7605
# 5 -2.4271 -8.9558 -13.3827 0.0366 40.0508 7.0526
# 6 -3.9712 0.9699 -4.5673 1.7605 7.0526 19.5223
#
#
#
# Elastic Compliance Matrix: (Units=1/GPa)
#
#
# Indices 1 2 3 4 5 6 
#
# 1 0.027778 -0.007832 -0.006359 0.006539 -0.003093 0.005080
# 2 -0.007832 0.015368 -0.002592 -0.002359 0.002758 -0.003747
# 3 -0.006359 -0.002592 0.011438 -0.002754 0.002723 0.000776
# 4 0.006539 -0.002359 -0.002754 0.028870 -0.000812 -0.001507
# 5 -0.003093 0.002758 0.002723 -0.000812 0.028106 -0.010209
# 6 0.005080 -0.003747 0.000776 -0.001507 -0.010209 0.056448
#
#
# Mechanical properties :
#
#
# Convention : Reuss Voigt Hill
#
# Bulk Modulus (GPa) = 47.58000 55.43813 51.50907
# Shear Modulus (GPa) = 23.97155 29.80730 26.88942
#
# Velocity S-wave (km/s) = 3.20618 3.57521 3.39571
# Velocity P-wave (km/s) = 5.84035 6.38875 6.12069
#
# Compressibility (1/GPa) = 0.02101723
#
# Stress axis : x y z
#
# Youngs Moduli (GPa) = 35.99998 65.07049 87.42731
#
# Poissons Ratio (x) = 0.50964 0.55596
# Poissons Ratio (y) = 0.28196 0.22662
# Poissons Ratio (z) = 0.22893 0.16867
#
# Static dielectric constant tensor:
#      x y z
#    x 3.973710 0.100110 0.140890 
#    y 0.100110 4.057460 -0.068800 
#    z 0.140890 -0.068800 4.223820 
# 
# 
# High freq. dielectric constant tensor:
#      x y z
#    x 1.916330 0.003510 0.005260 
#    y 0.003510 1.920440 -0.002750 
#    z 0.005260 -0.002750 1.932670 
# 
# From -- ./inp_files/504494.got.cif
#   From: 2010.06.25/outbox.cif.g09.slc.cpg/sg2_253_cif.got.tgz:504494.got - 2010.06.27 13:26:56.
