data_PCOD8027340
_publ_section_title
;
Structure prediction by ZEFSAII (Michael W. Deem and Ramdas Pophale) SiO2 
 PCOD8027340
Probable space group: P -1
;
_chemical_formula_sum "Si O2"
_cell_formula_units_Z 16
_cell_length_a 8.225987
_cell_length_b 14.878528
_cell_length_c 14.894410
_cell_angle_alpha 142.719050
_cell_angle_beta 33.051907
_cell_angle_gamma 137.398321
_cell_volume 588.881858
_symmetry_space_group_name_H-M "P -1"
_symmetry_group_IT_number 2
_symmetry_cell_setting 'triclinic'
loop_
_space_group_symop_operation_xyz
x,y,z
-x,-y,-z
loop_
_atom_site_type_symbol
_atom_site_label
_atom_site_fract_x
_atom_site_fract_y
_atom_site_fract_z
Si Si1 0.192665 0.769030 0.209577
Si Si2 0.799490 0.680223 0.491831
Si Si3 0.569021 0.923857 0.302237
Si Si4 0.357773 0.594881 0.213310
Si Si5 0.620940 0.781735 0.392722
Si Si6 0.738759 0.394108 0.431308
Si Si7 0.662713 0.652045 0.801818
Si Si8 0.784168 0.927715 0.836034
O O1 0.453609 0.908428 0.238390
O O2 0.944744 0.691068 0.334636
O O3 0.984793 0.827053 0.275782
O O4 0.349236 0.638253 0.991250
O O5 0.435376 0.623231 0.599384
O O6 0.863042 0.837335 0.640986
O O7 0.977167 0.557583 0.365201
O O8 0.387759 0.764627 0.296842
O O9 0.463507 0.075407 0.509503
O O10 0.928574 0.938203 0.163438
O O11 0.529195 0.621722 0.251158
O O12 0.500000 0.500000 0.000000
O O13 0.411361 0.753015 0.555401
O O14 0.654573 0.542747 0.634433
O O15 0.102724 0.385132 0.258169
O O16 0.731282 0.821510 0.864059
O O17 0.500000 0.000000 0.000000
#
# Coordination Sequence:
#
# PCOD8027340 Si02
#       8
#     2   2   2   2   2   2   2   2
#     4  10  26  40  77 102 138 176 251 288 364 408
#     4  10  24  48  69 108 137 190 239 298 360 422
#     4  11  24  46  64 103 141 187 235 296 354 423
#     4  11  25  40  72 104 143 186 238 297 358 423
#     4  11  22  45  72 101 141 187 233 305 356 418
#     4  10  24  44  75  95 155 182 242 293 363 420
#     4  11  25  47  67 110 137 200 233 299 349 436
#     4  12  28  46  72 101 150 193 240 290 365 433
#
# _framework density 27.170134000000001
#
# number of rings (size 3 to 8) (size 9 to 14) (size 15 to 20)
#    0.000    1.250    2.500    0.750   10.500    4.000 
#    0.000    0.000    0.000    0.000    0.000    0.000 
#    0.000    0.000    0.000    0.000    0.000    0.000 
#
# Total GULP energy -198335.258713 kJ/mol
# GULP energy per Si atom -12395.953670 kJ/mol
# Density = 2.710829 g / cm^3
# Si number density = 27.170134 Si / 1000 Ang^3
#
#
#
# Elastic Constant Matrix: (Units=GPa)
#
#
# Indices 1 2 3 4 5 6 
#
# 1 172.0876 45.5327 59.4476 -2.9700 -34.1770 40.7326
# 2 45.5327 97.2367 37.7501 -3.3016 -16.9239 22.9114
# 3 59.4476 37.7501 183.2603 -8.4483 -17.2250 16.0188
# 4 -2.9700 -3.3016 -8.4483 36.8476 -1.6685 -13.0056
# 5 -34.1770 -16.9239 -17.2250 -1.6685 54.9573 -6.3347
# 6 40.7326 22.9114 16.0188 -13.0056 -6.3347 67.5166
#
#
#
# Elastic Compliance Matrix: (Units=1/GPa)
#
#
# Indices 1 2 3 4 5 6 
#
# 1 0.008558 -0.001767 -0.001763 -0.001120 0.003729 -0.004011
# 2 -0.001767 0.012726 -0.001635 -0.000249 0.001986 -0.002726
# 3 -0.001763 -0.001635 0.006440 0.001351 0.000506 0.000398
# 4 -0.001120 -0.000249 0.001351 0.029604 0.001271 0.006261
# 5 0.003729 0.001986 0.000506 0.001271 0.021231 -0.000807
# 6 -0.004011 -0.002726 0.000398 0.006261 -0.000807 0.019192
#
#
# Mechanical properties :
#
#
# Convention : Reuss Voigt Hill
#
# Bulk Modulus (GPa) = 57.48646 82.00505 69.74576
# Shear Modulus (GPa) = 43.90662 52.52123 48.21392
#
# Velocity S-wave (km/s) = 4.02430 4.40142 4.21707
# Velocity P-wave (km/s) = 6.54196 7.48849 7.03117
#
# Compressibility (1/GPa) = 0.01739540
#
# Stress axis : x y z
#
# Youngs Moduli (GPa) = 116.84755 78.58041 155.27182
#
# Poissons Ratio (x) = 0.13885 0.27369
# Poissons Ratio (y) = 0.20647 0.25383
# Poissons Ratio (z) = 0.20596 0.12846
#
# Static dielectric constant tensor:
#      x y z
#    x 6.197980 0.188860 -0.326180 
#    y 0.188860 5.337630 -0.044890 
#    z -0.326180 -0.044890 4.840790 
# 
# 
# High freq. dielectric constant tensor:
#      x y z
#    x 2.135060 -0.007260 -0.019970 
#    y -0.007260 2.120440 -0.003090 
#    z -0.019970 -0.003090 2.079710 
# 
# From -- ./inp_files/562047.got.cif
#   From: 2010.06.25/outbox.cif.g09.slc.cpg/sg2_282_cif.got.tgz:562047.got - 2010.06.27 13:26:56.
