data_PCOD8027147
_publ_section_title
;
Structure prediction by ZEFSAII (Michael W. Deem and Ramdas Pophale) SiO2 
 PCOD8027147
Probable space group: P -1
;
_chemical_formula_sum "Si O2"
_cell_formula_units_Z 12
_cell_length_a 9.438250
_cell_length_b 25.873788
_cell_length_c 23.304704
_cell_angle_alpha 169.821388
_cell_angle_beta 29.676657
_cell_angle_gamma 148.268468
_cell_volume 497.233532
_symmetry_space_group_name_H-M "P -1"
_symmetry_group_IT_number 2
_symmetry_cell_setting 'triclinic'
loop_
_space_group_symop_operation_xyz
x,y,z
-x,-y,-z
loop_
_atom_site_type_symbol
_atom_site_label
_atom_site_fract_x
_atom_site_fract_y
_atom_site_fract_z
Si Si1 0.928024 0.454620 0.840183
Si Si2 0.839782 0.501464 0.383034
Si Si3 0.717536 0.021490 0.744802
Si Si4 0.154663 0.909394 0.632302
Si Si5 0.865567 0.695279 0.710624
Si Si6 0.702969 0.844075 0.433925
O O1 0.751913 0.310002 0.692822
O O2 0.196086 0.228325 0.512328
O O3 0.020072 0.774823 0.138327
O O4 0.747032 0.519053 0.033620
O O5 0.500000 0.500000 0.500000
O O6 0.944809 0.545005 0.458428
O O7 0.946983 0.753006 0.578841
O O8 0.981900 0.189976 0.972691
O O9 0.609081 0.841207 0.530390
O O10 0.475443 0.249216 0.103392
O O11 0.443587 0.009024 0.670258
O O12 0.000000 0.500000 0.500000
O O13 0.000000 0.000000 0.000000
O O14 0.000000 0.000000 0.500000
#
# Coordination Sequence:
#
# PCOD8027147 Si02
#       6
#     2   2   2   2   2   2
#     4  11  23  42  66  93 127 171 215 264 322 387
#     4  12  26  45  68  99 134 173 218 270 326 388
#     4  11  23  42  64  93 128 169 216 268 323 383
#     4  12  25  44  68  98 134 174 217 268 326 390
#     4  12  24  41  65  95 128 169 216 268 323 384
#     4  10  24  44  68  98 132 172 219 272 326 386
#
# _framework density 24.133528999999999
#
# number of rings (size 3 to 8) (size 9 to 14) (size 15 to 20)
#    0.000    0.667    0.000    8.500    0.000    6.667 
#    0.000    5.833    0.000    0.000    0.000    0.000 
#    0.000    0.000    0.000    0.000    0.000    0.000 
#
# Total GULP energy -148786.146286 kJ/mol
# GULP energy per Si atom -12398.845524 kJ/mol
# Density = 2.407860 g / cm^3
# Si number density = 24.133529 Si / 1000 Ang^3
#
#
#
# Elastic Constant Matrix: (Units=GPa)
#
#
# Indices 1 2 3 4 5 6 
#
# 1 100.3192 6.5963 25.3611 11.4847 15.5523 5.7553
# 2 6.5963 68.8365 20.1709 4.3818 -6.0652 16.6218
# 3 25.3611 20.1709 103.2364 -0.0316 2.6642 -2.4133
# 4 11.4847 4.3818 -0.0316 38.7590 -5.3948 0.2755
# 5 15.5523 -6.0652 2.6642 -5.3948 64.7383 -8.2857
# 6 5.7553 16.6218 -2.4133 0.2755 -8.2857 42.8381
#
#
#
# Elastic Compliance Matrix: (Units=1/GPa)
#
#
# Indices 1 2 3 4 5 6 
#
# 1 0.011805 0.000286 -0.002929 -0.003980 -0.003338 -0.002482
# 2 0.000286 0.017406 -0.003649 -0.001913 0.000676 -0.006855
# 3 -0.002929 -0.003649 0.011169 0.001318 0.000331 0.002494
# 4 -0.003980 -0.001913 0.001318 0.027637 0.003257 0.001803
# 5 -0.003338 0.000676 0.000331 0.003257 0.017015 0.003475
# 6 -0.002482 -0.006855 0.002494 0.001803 0.003475 0.027138
#
#
# Mechanical properties :
#
#
# Convention : Reuss Voigt Hill
#
# Bulk Modulus (GPa) = 35.97799 41.84988 38.91394
# Shear Modulus (GPa) = 37.30783 43.95133 40.62958
#
# Velocity S-wave (km/s) = 3.93605 4.27215 4.10754
# Velocity P-wave (km/s) = 5.96631 6.45861 6.21734
#
# Compressibility (1/GPa) = 0.02779477
#
# Stress axis : x y z
#
# Youngs Moduli (GPa) = 84.70735 57.45297 89.53185
#
# Poissons Ratio (x) = -0.01640 0.26224
# Poissons Ratio (y) = -0.02418 0.32672
# Poissons Ratio (z) = 0.24811 0.20966
#
# Static dielectric constant tensor:
#      x y z
#    x 4.545490 0.017790 0.255880 
#    y 0.017790 3.992880 -0.062210 
#    z 0.255880 -0.062210 4.228580 
# 
# 
# High freq. dielectric constant tensor:
#      x y z
#    x 1.978180 0.001260 0.015400 
#    y 0.001260 1.943560 -0.015060 
#    z 0.015400 -0.015060 1.967090 
# 
# From -- ./inp_files/24314.got.cif
#   From: 2010.06.25/outbox.cif.g09.slc.cpg/sg2_13_cif.got.tgz:24314.got - 2010.06.27 13:26:56.
