data_PCOD8027172
_publ_section_title
;
Structure prediction by ZEFSAII (Michael W. Deem and Ramdas Pophale) SiO2 
 PCOD8027172
Probable space group: P -1
;
_chemical_formula_sum "Si O2"
_cell_formula_units_Z 16
_cell_length_a 12.939183
_cell_length_b 8.616111
_cell_length_c 22.168020
_cell_angle_alpha 41.510140
_cell_angle_beta 26.406348
_cell_angle_gamma 49.679040
_cell_volume 726.099492
_symmetry_space_group_name_H-M "P -1"
_symmetry_group_IT_number 2
_symmetry_cell_setting 'triclinic'
loop_
_space_group_symop_operation_xyz
x,y,z
-x,-y,-z
loop_
_atom_site_type_symbol
_atom_site_label
_atom_site_fract_x
_atom_site_fract_y
_atom_site_fract_z
Si Si1 0.886511 0.395742 0.927997
Si Si2 0.067024 0.893029 0.433806
Si Si3 0.316615 0.153009 0.445084
Si Si4 0.883782 0.161853 0.871316
Si Si5 0.845834 0.279566 0.118079
Si Si6 0.790462 0.587384 0.462714
Si Si7 0.615880 0.377433 0.419832
Si Si8 0.403011 0.273199 0.078444
O O1 0.840845 0.220122 0.946803
O O2 0.726126 0.617659 0.943089
O O3 0.154084 0.478797 0.763060
O O4 0.841565 0.260820 0.053376
O O5 0.219845 0.675352 0.429601
O O6 0.832208 0.787541 0.553261
O O7 0.213252 0.097494 0.261675
O O8 0.000000 0.000000 0.500000
O O9 0.574767 0.286816 0.275543
O O10 0.166371 0.225425 0.560174
O O11 0.335166 0.878577 0.510416
O O12 0.016933 0.374295 0.702118
O O13 0.623999 0.125988 0.987944
O O14 0.038784 0.942155 0.848714
O O15 0.000000 0.500000 0.000000
O O16 0.540463 0.631229 0.554765
O O17 0.500000 0.500000 0.500000
O O18 0.500000 0.500000 0.000000
#
# Coordination Sequence:
#
# PCOD8027172 Si02
#       8
#     2   2   2   2   2   2   2   2
#     4  11  23  45  71 101 136 180 235 287 350 411
#     4  12  26  46  76 103 137 187 242 287 342 421
#     4  12  27  47  70 102 146 186 234 291 353 416
#     4  11  25  45  69 103 138 182 232 291 348 413
#     4  12  28  45  68 103 144 186 229 286 354 419
#     4  12  26  45  71 103 145 182 232 294 354 415
#     4  12  22  44  74 102 133 184 240 289 343 411
#     4  10  24  44  69 104 138 175 228 292 348 404
#
# _framework density 22.035546
#
# number of rings (size 3 to 8) (size 9 to 14) (size 15 to 20)
#    0.000    0.500    3.750    4.125   10.500    0.000 
#    0.000    1.250    0.000    0.000    0.000    0.000 
#    0.000    0.000    0.000    0.000    0.000    0.000 
#
# Total GULP energy -198379.447500 kJ/mol
# GULP energy per Si atom -12398.715469 kJ/mol
# Density = 2.198539 g / cm^3
# Si number density = 22.035546 Si / 1000 Ang^3
#
#
#
# Elastic Constant Matrix: (Units=GPa)
#
#
# Indices 1 2 3 4 5 6 
#
# 1 78.3348 22.4348 5.5537 16.2670 11.7126 0.2186
# 2 22.4348 57.7359 25.5583 1.5991 16.0997 5.9984
# 3 5.5537 25.5583 83.0770 4.5813 -8.5694 -14.6608
# 4 16.2670 1.5991 4.5813 36.2913 -9.9777 -5.2671
# 5 11.7126 16.0997 -8.5694 -9.9777 29.3463 0.2361
# 6 0.2186 5.9984 -14.6608 -5.2671 0.2361 39.5537
#
#
#
# Elastic Compliance Matrix: (Units=1/GPa)
#
#
# Indices 1 2 3 4 5 6 
#
# 1 0.017175 -0.003797 -0.000455 -0.009882 -0.008257 -0.000955
# 2 -0.003797 0.032003 -0.013363 -0.005504 -0.021732 -0.010389
# 3 -0.000455 -0.013363 0.019129 0.003685 0.014275 0.009525
# 4 -0.009882 -0.005504 0.003685 0.038622 0.021113 0.007272
# 5 -0.008257 -0.021732 0.014275 0.021113 0.060551 0.011082
# 6 -0.000955 -0.010389 0.009525 0.007272 0.011082 0.031295
#
#
# Mechanical properties :
#
#
# Convention : Reuss Voigt Hill
#
# Bulk Modulus (GPa) = 30.23358 36.24903 33.24131
# Shear Modulus (GPa) = 20.40566 32.07831 26.24198
#
# Velocity S-wave (km/s) = 3.04638 3.81957 3.45468
# Velocity P-wave (km/s) = 5.11117 5.99484 5.57056
#
# Compressibility (1/GPa) = 0.03307580
#
# Stress axis : x y z
#
# Youngs Moduli (GPa) = 58.22492 31.24730 52.27757
#
# Poissons Ratio (x) = 0.11864 0.02380
# Poissons Ratio (y) = 0.22107 0.69859
# Poissons Ratio (z) = 0.02651 0.41756
#
# Static dielectric constant tensor:
#      x y z
#    x 4.249450 -0.305510 -0.093020 
#    y -0.305510 4.959170 0.629410 
#    z -0.093020 0.629410 4.383110 
# 
# 
# High freq. dielectric constant tensor:
#      x y z
#    x 1.876620 -0.019330 -0.005940 
#    y -0.019330 1.872690 0.005960 
#    z -0.005940 0.005960 1.868570 
# 
# From -- ./inp_files/184386.got.cif
#   From: 2010.06.25/outbox.cif.g09.slc.cpg/sg2_93_cif.got.tgz:184386.got - 2010.06.27 13:26:56.
