data_PCOD8027666
_publ_section_title
;
Structure prediction by ZEFSAII (Michael W. Deem and Ramdas Pophale) SiO2 
 PCOD8027666
Probable space group: P -1
;
_chemical_formula_sum "Si O2"
_cell_formula_units_Z 14
_cell_length_a 9.436785
_cell_length_b 15.240095
_cell_length_c 12.237028
_cell_angle_alpha 47.312366
_cell_angle_beta 57.004111
_cell_angle_gamma 28.686137
_cell_volume 614.639917
_symmetry_space_group_name_H-M "P -1"
_symmetry_group_IT_number 2
_symmetry_cell_setting 'triclinic'
loop_
_space_group_symop_operation_xyz
x,y,z
-x,-y,-z
loop_
_atom_site_type_symbol
_atom_site_label
_atom_site_fract_x
_atom_site_fract_y
_atom_site_fract_z
Si Si1 0.155734 0.210024 0.430869
Si Si2 0.204759 0.926083 0.682157
Si Si3 0.817416 0.925566 0.839275
Si Si4 0.693261 0.136478 0.060202
Si Si5 0.747658 0.871275 0.147335
Si Si6 0.897742 0.427101 0.125476
Si Si7 0.160746 0.430111 0.378130
O O1 0.025834 0.403020 0.381345
O O2 0.068807 0.273813 0.286815
O O3 0.500000 0.000000 0.500000
O O4 0.023716 0.157562 0.566044
O O5 0.344370 0.814965 0.836113
O O6 0.476712 0.777345 0.605010
O O7 0.964910 0.966314 0.712863
O O8 0.035658 0.692966 0.906195
O O9 0.499289 0.090348 0.774877
O O10 0.744773 0.958653 0.969825
O O11 0.673853 0.003513 0.166833
O O12 0.459606 0.351132 0.906352
O O13 0.000000 0.000000 0.000000
O O14 0.063976 0.620377 0.225400
O O15 0.000000 0.500000 0.000000
O O16 0.000000 0.500000 0.500000
#
# Coordination Sequence:
#
# PCOD8027666 Si02
#       7
#     2   2   2   2   2   2   2
#     4  10  24  46  70 101 143 189 235 293 364 426
#     4  11  25  47  72 105 144 191 239 293 360 431
#     4  11  25  42  72 103 145 180 243 296 354 421
#     4  12  25  44  73 107 147 186 239 295 360 429
#     4  11  24  44  69 106 144 183 236 300 356 419
#     4  12  24  44  73 103 140 194 237 292 363 427
#     4  11  25  43  72  99 140 188 236 290 360 425
#
# _framework density 22.777566
#
# number of rings (size 3 to 8) (size 9 to 14) (size 15 to 20)
#    0.000    0.857    2.857    4.286    8.000    1.714 
#    0.000    1.429    0.000    0.000    0.000    0.000 
#    0.000    0.000    0.000    0.000    0.000    0.000 
#
# Total GULP energy -173469.708230 kJ/mol
# GULP energy per Si atom -12390.693445 kJ/mol
# Density = 2.272572 g / cm^3
# Si number density = 22.777566 Si / 1000 Ang^3
#
#
#
# Elastic Constant Matrix: (Units=GPa)
#
#
# Indices 1 2 3 4 5 6 
#
# 1 119.4276 30.3112 32.7288 9.4104 -21.0111 -1.9251
# 2 30.3112 104.1986 26.6171 5.3814 2.9578 -3.0884
# 3 32.7288 26.6171 96.9463 -0.9336 -1.2778 -13.4757
# 4 9.4104 5.3814 -0.9336 45.8898 0.2266 -6.2360
# 5 -21.0111 2.9578 -1.2778 0.2266 44.8003 0.3163
# 6 -1.9251 -3.0884 -13.4757 -6.2360 0.3163 41.6598
#
#
#
# Elastic Compliance Matrix: (Units=1/GPa)
#
#
# Indices 1 2 3 4 5 6 
#
# 1 0.010920 -0.002448 -0.003113 -0.002184 0.005213 -0.001050
# 2 -0.002448 0.010975 -0.002239 -0.000839 -0.001931 -0.000135
# 3 -0.003113 -0.002239 0.012541 0.001706 -0.000991 0.004010
# 4 -0.002184 -0.000839 0.001706 0.022897 -0.001063 0.003824
# 5 0.005213 -0.001931 -0.000991 -0.001063 0.024875 -0.000571
# 6 -0.001050 -0.000135 0.004010 0.003824 -0.000571 0.025819
#
#
# Mechanical properties :
#
#
# Convention : Reuss Voigt Hill
#
# Bulk Modulus (GPa) = 53.08707 55.54297 54.31502
# Shear Modulus (GPa) = 38.48938 41.86436 40.17687
#
# Velocity S-wave (km/s) = 4.11517 4.29180 4.20441
# Velocity P-wave (km/s) = 6.77767 6.99981 6.88963
#
# Compressibility (1/GPa) = 0.01883698
#
# Stress axis : x y z
#
# Youngs Moduli (GPa) = 91.57698 91.11389 79.73601
#
# Poissons Ratio (x) = 0.22302 0.24820
# Poissons Ratio (y) = 0.22415 0.17855
# Poissons Ratio (z) = 0.28506 0.20403
#
# Static dielectric constant tensor:
#      x y z
#    x 4.780880 0.458140 -0.218710 
#    y 0.458140 4.220950 0.082350 
#    z -0.218710 0.082350 3.771470 
# 
# 
# High freq. dielectric constant tensor:
#      x y z
#    x 1.907410 0.014700 -0.008890 
#    y 0.014700 1.898130 -0.003140 
#    z -0.008890 -0.003140 1.889640 
# 
# From -- ./inp_files/226817.got.cif
#   From: 2010.06.25/outbox.cif.g09.slc.cpg/sg2_114_cif.got.tgz:226817.got - 2010.06.27 13:26:56.
