data_PCOD8027209
_publ_section_title
;
Structure prediction by ZEFSAII (Michael W. Deem and Ramdas Pophale) SiO2 
 PCOD8027209
Probable space group: P -1
;
_chemical_formula_sum "Si O2"
_cell_formula_units_Z 16
_cell_length_a 11.465824
_cell_length_b 19.127612
_cell_length_c 12.318613
_cell_angle_alpha 154.222009
_cell_angle_beta 60.255277
_cell_angle_gamma 125.846616
_cell_volume 948.624479
_symmetry_space_group_name_H-M "P -1"
_symmetry_group_IT_number 2
_symmetry_cell_setting 'triclinic'
loop_
_space_group_symop_operation_xyz
x,y,z
-x,-y,-z
loop_
_atom_site_type_symbol
_atom_site_label
_atom_site_fract_x
_atom_site_fract_y
_atom_site_fract_z
Si Si1 0.649484 0.068420 0.467170
Si Si2 0.093289 0.014190 0.793013
Si Si3 0.861065 0.616367 0.669772
Si Si4 0.729348 0.007780 0.128253
Si Si5 0.148996 0.560903 0.142589
Si Si6 0.154437 0.617544 0.463527
Si Si7 0.660573 0.630286 0.587852
Si Si8 0.120038 0.344229 0.655594
O O1 0.764813 0.983646 0.337755
O O2 0.614268 0.018155 0.286174
O O3 0.500000 0.000000 0.500000
O O4 0.726087 0.273327 0.734395
O O5 0.122015 0.974299 0.850390
O O6 0.070051 0.193764 0.041652
O O7 0.946702 0.864183 0.610958
O O8 0.786570 0.476901 0.603573
O O9 0.741265 0.618695 0.644198
O O10 0.982867 0.565135 0.483024
O O11 0.765749 0.174820 0.267539
O O12 0.665352 0.825989 0.840749
O O13 0.182113 0.547222 0.235207
O O14 0.993278 0.577181 0.229133
O O15 0.153589 0.399595 0.843913
O O16 0.500000 0.500000 0.500000
O O17 0.734150 0.581904 0.380738
#
# Coordination Sequence:
#
# PCOD8027209 Si02
#       8
#     2   2   2   2   2   2   2   2
#     4   8  15  27  48  69  97 125 168 206 242 287
#     4   8  16  30  49  74  95 130 167 213 240 285
#     4  10  19  31  53  75 103 125 173 210 244 303
#     4   8  17  31  48  71  95 128 172 201 249 288
#     4   9  18  28  48  77  99 132 157 210 250 297
#     4  10  17  33  53  76  98 134 164 209 253 293
#     4  11  21  32  50  77 100 132 167 217 252 288
#     4  10  17  30  49  72 105 124 168 205 257 291
#
# _framework density 16.866524999999999
#
# number of rings (size 3 to 8) (size 9 to 14) (size 15 to 20)
#    0.750    2.000    2.500    0.750    1.750    2.000 
#    0.000    1.250    0.000    6.750    0.000    0.000 
#    0.000    0.000    0.000    0.000    0.000    0.000 
#
# Total GULP energy -198222.927883 kJ/mol
# GULP energy per Si atom -12388.932993 kJ/mol
# Density = 1.682814 g / cm^3
# Si number density = 16.866525 Si / 1000 Ang^3
#
#
#
# Elastic Constant Matrix: (Units=GPa)
#
#
# Indices 1 2 3 4 5 6 
#
# 1 33.8202 34.6866 23.8416 1.7999 0.1714 5.3993
# 2 34.6866 113.3614 51.0960 0.3009 -2.5643 9.4577
# 3 23.8416 51.0960 113.4636 6.8005 7.4818 -5.3166
# 4 1.7999 0.3009 6.8005 21.4207 -3.3819 -6.1559
# 5 0.1714 -2.5643 7.4818 -3.3819 17.3072 4.6563
# 6 5.3993 9.4577 -5.3166 -6.1559 4.6563 34.0738
#
#
#
# Elastic Compliance Matrix: (Units=1/GPa)
#
#
# Indices 1 2 3 4 5 6 
#
# 1 0.045524 -0.011425 -0.004490 -0.003731 0.000546 -0.005492
# 2 -0.011425 0.015020 -0.005056 0.002270 0.005922 -0.003547
# 3 -0.004490 -0.005056 0.013016 -0.003666 -0.008290 0.004616
# 4 -0.003731 0.002270 -0.003666 0.051844 0.010105 0.007375
# 5 0.000546 0.005922 -0.008290 0.010105 0.066995 -0.010353
# 6 -0.005492 -0.003547 0.004616 0.007375 -0.010353 0.034670
#
#
# Mechanical properties :
#
#
# Convention : Reuss Voigt Hill
#
# Bulk Modulus (GPa) = 31.62805 53.32153 42.47479
# Shear Modulus (GPa) = 17.88579 24.62842 21.25710
#
# Velocity S-wave (km/s) = 3.25996 3.82540 3.55394
# Velocity P-wave (km/s) = 5.74129 7.15500 6.48677
#
# Compressibility (1/GPa) = 0.03161750
#
# Stress axis : x y z
#
# Youngs Moduli (GPa) = 21.96644 66.57808 76.82585
#
# Poissons Ratio (x) = 0.76067 0.34497
# Poissons Ratio (y) = 0.25097 0.38843
# Poissons Ratio (z) = 0.09864 0.33661
#
# Static dielectric constant tensor:
#      x y z
#    x 2.722230 0.015840 0.010730 
#    y 0.015840 3.049280 -0.058550 
#    z 0.010730 -0.058550 3.383080 
# 
# 
# High freq. dielectric constant tensor:
#      x y z
#    x 1.595730 0.014070 -0.001690 
#    y 0.014070 1.642370 -0.003320 
#    z -0.001690 -0.003320 1.657680 
# 
# From -- ./inp_files/437075.got.cif
#   From: 2010.06.25/outbox.cif.g09.slc.cpg/sg2_219_cif.got.tgz:437075.got - 2010.06.27 13:26:56.
