data_PCOD8027903
_publ_section_title
;
Structure prediction by ZEFSAII (Michael W. Deem and Ramdas Pophale) SiO2 
 PCOD8027903
Probable space group: P -1
;
_chemical_formula_sum "Si O2"
_cell_formula_units_Z 12
_cell_length_a 10.541248
_cell_length_b 5.124577
_cell_length_c 9.366265
_cell_angle_alpha 95.723551
_cell_angle_beta 103.467309
_cell_angle_gamma 106.851892
_cell_volume 463.253233
_symmetry_space_group_name_H-M "P -1"
_symmetry_group_IT_number 2
_symmetry_cell_setting 'triclinic'
loop_
_space_group_symop_operation_xyz
x,y,z
-x,-y,-z
loop_
_atom_site_type_symbol
_atom_site_label
_atom_site_fract_x
_atom_site_fract_y
_atom_site_fract_z
Si Si1 0.560022 0.096651 0.203560
Si Si2 0.984864 0.231173 0.328640
Si Si3 0.812833 0.981272 0.765661
Si Si4 0.217407 0.754241 0.505358
Si Si5 0.377573 0.471333 0.144772
Si Si6 0.787571 0.295026 0.060560
O O1 0.644328 0.235777 0.374181
O O2 0.481390 0.301083 0.132171
O O3 0.661282 0.071266 0.100876
O O4 0.455672 0.798572 0.204998
O O5 0.871412 0.092752 0.413553
O O6 0.919841 0.394331 0.204661
O O7 0.033742 0.003572 0.244185
O O8 0.121065 0.438120 0.448061
O O9 0.713718 0.663868 0.747358
O O10 0.741266 0.101851 0.628468
O O11 0.825742 0.154000 0.923006
O O12 0.265648 0.449108 0.985889
#
# Coordination Sequence:
#
# PCOD8027903 Si02
#       6
#     2   2   2   2   2   2
#     4  11  27  48  78 103 148 193 244 290 360 432
#     4  10  24  48  75 102 147 190 248 293 366 426
#     4  12  25  42  73 111 150 183 242 298 369 421
#     4  10  25  49  70 108 140 198 238 304 354 435
#     4  12  26  47  75 110 146 191 240 298 359 430
#     4  11  25  47  73 112 141 193 239 307 351 431
#
# _framework density 25.903756000000001
#
# number of rings (size 3 to 8) (size 9 to 14) (size 15 to 20)
#    0.000    1.000    1.667    3.000    4.667    5.333 
#    6.000    0.000    0.000    0.000    0.000    0.000 
#    0.000    0.000    0.000    0.000    0.000    0.000 
#
# Total GULP energy -148741.678842 kJ/mol
# GULP energy per Si atom -12395.139903 kJ/mol
# Density = 2.584480 g / cm^3
# Si number density = 25.903756 Si / 1000 Ang^3
#
#
#
# Elastic Constant Matrix: (Units=GPa)
#
#
# Indices 1 2 3 4 5 6 
#
# 1 64.0582 -9.6883 21.5732 18.9445 -1.5577 -14.4094
# 2 -9.6883 85.2697 24.8211 -7.8063 9.8920 -5.9196
# 3 21.5732 24.8211 140.9565 -5.0923 7.0534 0.8017
# 4 18.9445 -7.8063 -5.0923 29.1191 5.5154 -5.1036
# 5 -1.5577 9.8920 7.0534 5.5154 54.0977 -4.7926
# 6 -14.4094 -5.9196 0.8017 -5.1036 -4.7926 29.2816
#
#
#
# Elastic Compliance Matrix: (Units=1/GPa)
#
#
# Indices 1 2 3 4 5 6 
#
# 1 0.024772 0.003337 -0.005139 -0.014817 0.003254 0.010956
# 2 0.003337 0.013640 -0.002768 0.002149 -0.001853 0.004547
# 3 -0.005139 -0.002768 0.008595 0.003867 -0.001412 -0.002881
# 4 -0.014817 0.002149 0.003867 0.046402 -0.006043 0.000136
# 5 0.003254 -0.001853 -0.001412 -0.006043 0.020027 0.003490
# 6 0.010956 0.004547 -0.002881 0.000136 0.003490 0.041135
#
#
# Mechanical properties :
#
#
# Convention : Reuss Voigt Hill
#
# Bulk Modulus (GPa) = 26.40879 40.41070 33.40975
# Shear Modulus (GPa) = 28.35533 39.40490 33.88012
#
# Velocity S-wave (km/s) = 3.31213 3.90449 3.62045
# Velocity P-wave (km/s) = 4.98438 5.99674 5.51384
#
# Compressibility (1/GPa) = 0.03786617
#
# Stress axis : x y z
#
# Youngs Moduli (GPa) = 40.36868 73.31467 116.34490
#
# Poissons Ratio (x) = -0.24466 0.59794
# Poissons Ratio (y) = -0.13472 0.32205
# Poissons Ratio (z) = 0.20747 0.20294
#
# Static dielectric constant tensor:
#      x y z
#    x 5.087840 0.048150 0.039650 
#    y 0.048150 4.297000 -0.318940 
#    z 0.039650 -0.318940 4.952960 
# 
# 
# High freq. dielectric constant tensor:
#      x y z
#    x 2.052830 0.000170 -0.003170 
#    y 0.000170 2.009720 -0.017920 
#    z -0.003170 -0.017920 2.047750 
# 
# From -- ./inp_files/229145.got.cif
#   From: 2010.06.25/outbox.cif.g09.slc.cpg/sg2_115_cif.got.tgz:229145.got - 2010.06.27 13:26:56.
