data_PCOD8027719
_publ_section_title
;
Structure prediction by ZEFSAII (Michael W. Deem and Ramdas Pophale) SiO2 
 PCOD8027719
Probable space group: P -1
;
_chemical_formula_sum "Si O2"
_cell_formula_units_Z 12
_cell_length_a 4.896568
_cell_length_b 15.420218
_cell_length_c 7.879456
_cell_angle_alpha 43.461882
_cell_angle_beta 100.809642
_cell_angle_gamma 87.349134
_cell_volume 387.064883
_symmetry_space_group_name_H-M "P -1"
_symmetry_group_IT_number 2
_symmetry_cell_setting 'triclinic'
loop_
_space_group_symop_operation_xyz
x,y,z
-x,-y,-z
loop_
_atom_site_type_symbol
_atom_site_label
_atom_site_fract_x
_atom_site_fract_y
_atom_site_fract_z
Si Si1 0.561681 0.795966 0.093926
Si Si2 0.322314 0.894383 0.592249
Si Si3 0.196594 0.630028 0.397379
Si Si4 0.085002 0.528928 0.191552
Si Si5 0.282265 0.288732 0.350160
Si Si6 0.163445 0.044954 0.800920
O O1 0.895637 0.740095 0.169918
O O2 0.445185 0.705812 0.345608
O O3 0.367935 0.799576 0.896254
O O4 0.486347 0.944443 0.952875
O O5 0.431073 0.801477 0.572439
O O6 0.993096 0.963113 0.392199
O O7 0.500000 0.000000 0.500000
O O8 0.171630 0.536579 0.684775
O O9 0.271906 0.542090 0.359471
O O10 0.299744 0.427382 0.233617
O O11 0.957543 0.668727 0.887970
O O12 0.178425 0.196447 0.611106
O O13 0.000000 0.000000 0.000000
#
# Coordination Sequence:
#
# PCOD8027719 Si02
#       6
#     2   2   2   2   2   2
#     4  12  25  47  79 109 148 195 252 313 377 451
#     4  12  25  46  75 109 150 200 247 310 381 459
#     4  11  25  48  76 109 147 199 255 302 376 445
#     4  10  24  46  72 103 150 200 246 307 361 458
#     4  11  24  48  69 107 149 194 252 304 383 440
#     4  12  28  45  75 112 148 193 251 325 381 442
#
# _framework density 31.002555999999998
#
# number of rings (size 3 to 8) (size 9 to 14) (size 15 to 20)
#    0.000    0.667    3.333    3.500    2.333    3.333 
#    6.000    2.500    0.000    0.000    0.000    0.000 
#    0.000    0.000    0.000    0.000    0.000    0.000 
#
# Total GULP energy -148832.831887 kJ/mol
# GULP energy per Si atom -12402.735991 kJ/mol
# Density = 3.093199 g / cm^3
# Si number density = 31.002556 Si / 1000 Ang^3
#
#
#
# Elastic Constant Matrix: (Units=GPa)
#
#
# Indices 1 2 3 4 5 6 
#
# 1 100.6696 -4.8335 15.4669 -18.3334 -4.4809 13.6987
# 2 -4.8335 110.2022 3.9371 -17.6423 -1.9537 -2.7987
# 3 15.4669 3.9371 187.4745 10.1897 -1.0623 -4.0924
# 4 -18.3334 -17.6423 10.1897 52.5501 4.2844 -12.7404
# 5 -4.4809 -1.9537 -1.0623 4.2844 47.4982 5.4608
# 6 13.6987 -2.7987 -4.0924 -12.7404 5.4608 30.1326
#
#
#
# Elastic Compliance Matrix: (Units=1/GPa)
#
#
# Indices 1 2 3 4 5 6 
#
# 1 0.011408 0.001023 -0.001233 0.003490 0.001237 -0.004007
# 2 0.001023 0.009883 -0.000479 0.004325 -0.000156 0.002244
# 3 -0.001233 -0.000479 0.005542 -0.001521 0.000054 0.000616
# 4 0.003490 0.004325 -0.001521 0.024526 -0.002830 0.009491
# 5 0.001237 -0.000156 0.000054 -0.002830 0.022083 -0.005768
# 6 -0.004007 0.002244 0.000616 0.009491 -0.005768 0.040359
#
#
# Mechanical properties :
#
#
# Convention : Reuss Voigt Hill
#
# Bulk Modulus (GPa) = 39.28327 47.49860 43.39093
# Shear Modulus (GPa) = 40.43254 51.62124 46.02689
#
# Velocity S-wave (km/s) = 3.61524 4.08495 3.85725
# Velocity P-wave (km/s) = 5.48864 6.13214 5.81929
#
# Compressibility (1/GPa) = 0.02545613
#
# Stress axis : x y z
#
# Youngs Moduli (GPa) = 87.65813 101.18606 180.43278
#
# Poissons Ratio (x) = -0.10355 0.22244
# Poissons Ratio (y) = -0.08970 0.08641
# Poissons Ratio (z) = 0.10807 0.04846
#
# Static dielectric constant tensor:
#      x y z
#    x 5.260880 0.067820 0.290220 
#    y 0.067820 6.382860 0.396970 
#    z 0.290220 0.396970 6.638940 
# 
# 
# High freq. dielectric constant tensor:
#      x y z
#    x 2.247070 0.005380 0.025620 
#    y 0.005380 2.307280 0.011030 
#    z 0.025620 0.011030 2.314640 
# 
# From -- ./inp_files/24152.got.cif
#   From: 2010.06.25/outbox.cif.g09.slc.cpg/sg2_13_cif.got.tgz:24152.got - 2010.06.27 13:26:56.
