data_PCOD8027798
_publ_section_title
;
Structure prediction by ZEFSAII (Michael W. Deem and Ramdas Pophale) SiO2 
 PCOD8027798
Probable space group: P -1
;
_chemical_formula_sum "Si O2"
_cell_formula_units_Z 14
_cell_length_a 20.017487
_cell_length_b 8.776837
_cell_length_c 11.599032
_cell_angle_alpha 116.881293
_cell_angle_beta 29.510588
_cell_angle_gamma 134.412033
_cell_volume 641.832254
_symmetry_space_group_name_H-M "P -1"
_symmetry_group_IT_number 2
_symmetry_cell_setting 'triclinic'
loop_
_space_group_symop_operation_xyz
x,y,z
-x,-y,-z
loop_
_atom_site_type_symbol
_atom_site_label
_atom_site_fract_x
_atom_site_fract_y
_atom_site_fract_z
Si Si1 0.688225 0.637304 0.339542
Si Si2 0.074886 0.873752 0.738968
Si Si3 0.628980 0.834483 0.970057
Si Si4 0.891943 0.428120 0.258631
Si Si5 0.553260 0.217234 0.559464
Si Si6 0.954928 0.270362 0.516625
Si Si7 0.222134 0.399504 0.350516
O O1 0.500000 0.500000 0.500000
O O2 0.660684 0.445740 0.394689
O O3 0.742443 0.851055 0.406740
O O4 0.870417 0.778913 0.033197
O O5 0.073139 0.694312 0.748325
O O6 0.092461 0.872084 0.576606
O O7 0.756994 0.783599 0.723344
O O8 0.607840 0.825787 0.139285
O O9 0.433002 0.664115 0.134884
O O10 0.762487 0.107458 0.825397
O O11 0.674774 0.243368 0.488299
O O12 0.922901 0.636413 0.351621
O O13 0.000000 0.500000 0.000000
O O14 0.500000 0.000000 0.500000
O O15 0.136859 0.350881 0.335153
O O16 0.000000 0.500000 0.500000
#
# Coordination Sequence:
#
# PCOD8027798 Si02
#       7
#     2   2   2   2   2   2   2
#     4  11  26  47  70 104 143 183 233 292 355 410
#     4  11  26  45  70 106 140 185 231 289 354 417
#     4  10  26  45  70 101 137 183 239 281 350 416
#     4  11  22  44  71  96 140 180 233 283 340 418
#     4  11  25  44  73  99 135 185 236 288 347 421
#     4  12  26  44  70 100 144 182 230 287 353 416
#     4  10  24  47  69 102 134 187 231 290 341 416
#
# _framework density 21.812553999999999
#
# number of rings (size 3 to 8) (size 9 to 14) (size 15 to 20)
#    0.000    1.143    2.857    1.286   12.000    0.571 
#    0.000    0.000    0.000    0.000    0.000    0.000 
#    0.000    0.000    0.000    0.000    0.000    0.000 
#
# Total GULP energy -173444.211972 kJ/mol
# GULP energy per Si atom -12388.872284 kJ/mol
# Density = 2.176291 g / cm^3
# Si number density = 21.812554 Si / 1000 Ang^3
#
#
#
# Elastic Constant Matrix: (Units=GPa)
#
#
# Indices 1 2 3 4 5 6 
#
# 1 130.4715 43.9455 46.8503 -1.2049 -7.4745 21.8140
# 2 43.9455 137.2066 58.9786 6.2932 11.3244 17.4875
# 3 46.8503 58.9786 96.6011 -3.5323 7.2498 5.1421
# 4 -1.2049 6.2932 -3.5323 42.7300 1.7833 5.5304
# 5 -7.4745 11.3244 7.2498 1.7833 39.4986 -1.5763
# 6 21.8140 17.4875 5.1421 5.5304 -1.5763 34.2373
#
#
#
# Elastic Compliance Matrix: (Units=1/GPa)
#
#
# Indices 1 2 3 4 5 6 
#
# 1 0.010732 -0.001090 -0.004434 0.000700 0.002902 -0.005594
# 2 -0.001090 0.010880 -0.005788 -0.001514 -0.002349 -0.003857
# 3 -0.004434 -0.005788 0.016099 0.001760 -0.002095 0.002983
# 4 0.000700 -0.001514 0.001760 0.024340 -0.001012 -0.003915
# 5 0.002902 -0.002349 -0.002095 -0.001012 0.027013 0.001072
# 6 -0.005594 -0.003857 0.002983 -0.003915 0.001072 0.034976
#
#
# Mechanical properties :
#
#
# Convention : Reuss Voigt Hill
#
# Bulk Modulus (GPa) = 66.28053 73.75868 70.01960
# Shear Modulus (GPa) = 32.96141 37.59348 35.27745
#
# Velocity S-wave (km/s) = 3.89153 4.15598 4.02593
# Velocity P-wave (km/s) = 7.11649 7.54439 7.33356
#
# Compressibility (1/GPa) = 0.01508739
#
# Stress axis : x y z
#
# Youngs Moduli (GPa) = 93.18083 91.90925 62.11667
#
# Poissons Ratio (x) = 0.10018 0.27541
# Poissons Ratio (y) = 0.10157 0.35953
# Poissons Ratio (z) = 0.41314 0.53197
#
# Static dielectric constant tensor:
#      x y z
#    x 2.314490 -5.235680 -5.542390 
#    y -5.235680 -10.527430 -14.654530 
#    z -5.542390 -14.654530 -10.977230 
# 
# 
# High freq. dielectric constant tensor:
#      x y z
#    x 1.861990 0.013160 -0.003160 
#    y 0.013160 1.870050 0.008080 
#    z -0.003160 0.008080 1.858670 
# 
# From -- ./inp_files/255778.got.cif
#   From: 2010.06.25/outbox.cif.g09.slc.cpg/sg2_128_cif.got.tgz:255778.got - 2010.06.27 13:26:56.
