data_PCOD8027067
_publ_section_title
;
Structure prediction by ZEFSAII (Michael W. Deem and Ramdas Pophale) SiO2 
 PCOD8027067
Probable space group: P -1
;
_chemical_formula_sum "Si O2"
_cell_formula_units_Z 14
_cell_length_a 9.756496
_cell_length_b 8.928623
_cell_length_c 17.700752
_cell_angle_alpha 52.505350
_cell_angle_beta 54.890966
_cell_angle_gamma 30.797005
_cell_volume 621.168403
_symmetry_space_group_name_H-M "P -1"
_symmetry_group_IT_number 2
_symmetry_cell_setting 'triclinic'
loop_
_space_group_symop_operation_xyz
x,y,z
-x,-y,-z
loop_
_atom_site_type_symbol
_atom_site_label
_atom_site_fract_x
_atom_site_fract_y
_atom_site_fract_z
Si Si1 0.573953 0.332768 0.449925
Si Si2 0.785068 0.853596 0.887435
Si Si3 0.942090 0.640583 0.254143
Si Si4 0.506725 0.727835 0.011969
Si Si5 0.477384 0.711834 0.855223
Si Si6 0.298013 0.434600 0.766349
Si Si7 0.028391 0.614949 0.524700
O O1 0.500000 0.500000 0.500000
O O2 0.653223 0.411781 0.337168
O O3 0.315417 0.451094 0.467671
O O4 0.813212 0.971704 0.492852
O O5 0.238903 0.353646 0.037171
O O6 0.088497 0.649154 0.835289
O O7 0.727887 0.990822 0.945217
O O8 0.578168 0.108386 0.810011
O O9 0.845759 0.581021 0.239872
O O10 0.209601 0.513774 0.183394
O O11 0.990303 0.488581 0.362112
O O12 0.704456 0.002446 0.230739
O O13 0.586255 0.447224 0.098100
O O14 0.386191 0.829941 0.934185
O O15 0.000000 0.500000 0.500000
#
# Coordination Sequence:
#
# PCOD8027067 Si02
#       7
#     2   2   2   2   2   2   2
#     4  12  26  46  77 104 138 187 239 284 344 432
#     4  11  25  42  67  99 136 177 221 292 332 397
#     4  12  24  44  70  97 138 175 231 275 349 404
#     4  10  24  44  66  98 136 175 230 275 346 399
#     4  11  25  42  69  97 133 183 223 278 338 416
#     4  12  24  43  70 100 135 175 235 275 341 403
#     4  12  28  48  73 107 146 182 229 298 357 411
#
# _framework density 22.538170999999998
#
# number of rings (size 3 to 8) (size 9 to 14) (size 15 to 20)
#    0.000    0.571    4.286    2.571    2.000   11.429 
#    0.000    0.000    0.000    0.000    0.000    0.000 
#    0.000    0.000    0.000    0.000    0.000    0.000 
#
# Total GULP energy -173648.435098 kJ/mol
# GULP energy per Si atom -12403.459650 kJ/mol
# Density = 2.248687 g / cm^3
# Si number density = 22.538171 Si / 1000 Ang^3
#
#
#
# Elastic Constant Matrix: (Units=GPa)
#
#
# Indices 1 2 3 4 5 6 
#
# 1 114.5720 57.9354 40.1529 4.0901 -36.1648 13.8296
# 2 57.9354 151.1520 29.6775 -5.1112 -32.8836 3.7089
# 3 40.1529 29.6775 116.1075 3.0980 -36.4357 5.3380
# 4 4.0901 -5.1112 3.0980 39.4583 2.8441 -2.8237
# 5 -36.1648 -32.8836 -36.4357 2.8441 31.5636 -4.2850
# 6 13.8296 3.7089 5.3380 -2.8237 -4.2850 34.0154
#
#
#
# Elastic Compliance Matrix: (Units=1/GPa)
#
#
# Indices 1 2 3 4 5 6 
#
# 1 0.015306 -0.002719 0.000337 -0.003346 0.014799 -0.004393
# 2 -0.002719 0.009111 0.000875 0.000928 0.007439 0.000989
# 3 0.000337 0.000875 0.013809 -0.002288 0.017391 -0.000399
# 4 -0.003346 0.000928 -0.002288 0.026739 -0.007525 0.002890
# 5 0.014799 0.007439 0.017391 -0.007525 0.077077 -0.000472
# 6 -0.004393 0.000989 -0.000399 0.002890 -0.000472 0.031320
#
#
# Mechanical properties :
#
#
# Convention : Reuss Voigt Hill
#
# Bulk Modulus (GPa) = 28.39774 70.81812 49.60793
# Shear Modulus (GPa) = 26.57979 37.94517 32.26248
#
# Velocity S-wave (km/s) = 3.43785 4.10762 3.78757
# Velocity P-wave (km/s) = 5.32782 7.34754 6.41763
#
# Compressibility (1/GPa) = 0.03521408
#
# Stress axis : x y z
#
# Youngs Moduli (GPa) = 65.33525 109.75240 72.41529
#
# Poissons Ratio (x) = 0.29837 -0.02441
# Poissons Ratio (y) = 0.17762 -0.06339
# Poissons Ratio (z) = -0.02202 -0.09607
#
# Static dielectric constant tensor:
#      x y z
#    x 4.178300 0.107610 -0.173700 
#    y 0.107610 4.168360 -0.035770 
#    z -0.173700 -0.035770 4.248940 
# 
# 
# High freq. dielectric constant tensor:
#      x y z
#    x 1.897380 0.004030 -0.007980 
#    y 0.004030 1.895130 -0.001530 
#    z -0.007980 -0.001530 1.905820 
# 
# From -- ./inp_files/217223.got.cif
#   From: 2010.06.25/outbox.cif.g09.slc.cpg/sg2_109_cif.got.tgz:217223.got - 2010.06.27 13:26:56.
