data_PCOD8027829
_publ_section_title
;
Structure prediction by ZEFSAII (Michael W. Deem and Ramdas Pophale) SiO2 
 PCOD8027829
Probable space group: P -1
;
_chemical_formula_sum "Si O2"
_cell_formula_units_Z 16
_cell_length_a 6.383881
_cell_length_b 19.115841
_cell_length_c 12.849361
_cell_angle_alpha 138.766743
_cell_angle_beta 137.896572
_cell_angle_gamma 57.569313
_cell_volume 692.125658
_symmetry_space_group_name_H-M "P -1"
_symmetry_group_IT_number 2
_symmetry_cell_setting 'triclinic'
loop_
_space_group_symop_operation_xyz
x,y,z
-x,-y,-z
loop_
_atom_site_type_symbol
_atom_site_label
_atom_site_fract_x
_atom_site_fract_y
_atom_site_fract_z
Si Si1 0.338465 0.147547 0.926886
Si Si2 0.735831 0.243719 0.739087
Si Si3 0.241320 0.625266 0.923053
Si Si4 0.387631 0.058705 0.282484
Si Si5 0.351343 0.471294 0.305224
Si Si6 0.785301 0.933379 0.995912
Si Si7 0.147697 0.686767 0.738028
Si Si8 0.480921 0.412110 0.690685
O O1 0.099189 0.213383 0.844339
O O2 0.367836 0.029461 0.759092
O O3 0.194797 0.149794 0.994463
O O4 0.695319 0.199656 0.113036
O O5 0.539770 0.141312 0.511416
O O6 0.710949 0.340493 0.758192
O O7 0.590649 0.280753 0.838929
O O8 0.062999 0.680871 0.823195
O O9 0.453870 0.526902 0.864437
O O10 0.989919 0.580547 0.864645
O O11 0.283429 0.118239 0.202531
O O12 0.097192 0.007479 0.182444
O O13 0.500000 0.500000 0.500000
O O14 0.575020 0.391800 0.245114
O O15 0.352169 0.573251 0.343562
O O16 0.500000 0.000000 0.000000
O O17 0.863129 0.647445 0.515054
#
# Coordination Sequence:
#
# PCOD8027829 Si02
#       8
#     2   2   2   2   2   2   2   2
#     4  11  25  45  69 103 138 176 223 278 340 406
#     4  12  27  44  65 101 140 185 214 273 359 398
#     4  11  23  46  64  97 136 180 225 280 336 398
#     4  10  24  47  72  99 138 171 229 285 323 405
#     4  11  19  42  72  95 129 176 232 283 327 393
#     4   9  22  46  74 100 132 172 228 284 330 388
#     4  11  23  41  72  98 129 180 234 275 328 400
#     4  11  25  42  68 101 133 173 236 283 326 399
#
# _framework density 23.117187000000001
#
# number of rings (size 3 to 8) (size 9 to 14) (size 15 to 20)
#    0.000    1.250    3.750    1.500    7.000    2.000 
#    6.750    0.000    0.000    0.000    0.000    0.000 
#    0.000    0.000    0.000    0.000    0.000    0.000 
#
# Total GULP energy -198254.042394 kJ/mol
# GULP energy per Si atom -12390.877650 kJ/mol
# Density = 2.306457 g / cm^3
# Si number density = 23.117187 Si / 1000 Ang^3
#
#
#
# Elastic Constant Matrix: (Units=GPa)
#
#
# Indices 1 2 3 4 5 6 
#
# 1 110.0814 53.3332 43.8195 0.7264 0.4175 14.8263
# 2 53.3332 101.0372 51.1363 -20.0435 -16.2825 14.6264
# 3 43.8195 51.1363 149.8992 7.8750 -21.0055 3.5755
# 4 0.7264 -20.0435 7.8750 29.8882 -5.0864 -0.1181
# 5 0.4175 -16.2825 -21.0055 -5.0864 35.5222 7.1530
# 6 14.8263 14.6264 3.5755 -0.1181 7.1530 35.3095
#
#
#
# Elastic Compliance Matrix: (Units=1/GPa)
#
#
# Indices 1 2 3 4 5 6 
#
# 1 0.014225 -0.008924 -0.001567 -0.006941 -0.005991 -0.000927
# 2 -0.008924 0.024220 -0.004680 0.019866 0.012970 -0.008373
# 3 -0.001567 -0.004680 0.009306 -0.005138 0.002409 0.001149
# 4 -0.006941 0.019866 -0.005138 0.050820 0.014968 -0.007657
# 5 -0.005991 0.012970 0.002409 0.014968 0.039980 -0.011150
# 6 -0.000927 -0.008373 0.001149 -0.007657 -0.011150 0.034295
#
#
# Mechanical properties :
#
#
# Convention : Reuss Voigt Hill
#
# Bulk Modulus (GPa) = 57.44234 73.06620 65.25427
# Shear Modulus (GPa) = 23.92462 34.32591 29.12526
#
# Velocity S-wave (km/s) = 3.22052 3.85758 3.55335
# Velocity P-wave (km/s) = 6.22344 7.17751 6.71744
#
# Compressibility (1/GPa) = 0.01740876
#
# Stress axis : x y z
#
# Youngs Moduli (GPa) = 70.29996 41.28881 107.45960
#
# Poissons Ratio (x) = 0.36845 0.16837
# Poissons Ratio (y) = 0.62734 0.50292
# Poissons Ratio (z) = 0.11015 0.19324
#
# Static dielectric constant tensor:
#      x y z
#    x 4.862380 0.660280 -0.257170 
#    y 0.660280 4.665380 -0.060260 
#    z -0.257170 -0.060260 4.358710 
# 
# 
# High freq. dielectric constant tensor:
#      x y z
#    x 1.917250 0.002490 -0.014900 
#    y 0.002490 1.919990 0.000060 
#    z -0.014900 0.000060 1.906780 
# 
# From -- ./inp_files/369551.got.cif
#   From: 2010.06.25/outbox.cif.g09.slc.cpg/sg2_185_cif.got.tgz:369551.got - 2010.06.27 13:26:56.
