data_PCOD8027437
_publ_section_title
;
Structure prediction by ZEFSAII (Michael W. Deem and Ramdas Pophale) SiO2 
 PCOD8027437
Probable space group: P -1
;
_chemical_formula_sum "Si O2"
_cell_formula_units_Z 16
_cell_length_a 15.710236
_cell_length_b 9.768349
_cell_length_c 9.399369
_cell_angle_alpha 105.004976
_cell_angle_beta 51.672181
_cell_angle_gamma 65.535081
_cell_volume 712.336463
_symmetry_space_group_name_H-M "P -1"
_symmetry_group_IT_number 2
_symmetry_cell_setting 'triclinic'
loop_
_space_group_symop_operation_xyz
x,y,z
-x,-y,-z
loop_
_atom_site_type_symbol
_atom_site_label
_atom_site_fract_x
_atom_site_fract_y
_atom_site_fract_z
Si Si1 0.191022 0.353742 0.607195
Si Si2 0.586972 0.303924 0.617530
Si Si3 0.204275 0.638155 0.135565
Si Si4 0.184701 0.354743 0.936513
Si Si5 0.086382 0.044872 0.291689
Si Si6 0.673440 0.047378 0.179758
Si Si7 0.411378 0.373844 0.298662
Si Si8 0.688990 0.061598 0.720223
O O1 0.245928 0.443029 0.494832
O O2 0.993469 0.543641 0.853824
O O3 0.273881 0.140962 0.383092
O O4 0.254476 0.295194 0.688543
O O5 0.611302 0.198643 0.417682
O O6 0.638339 0.414738 0.566272
O O7 0.706168 0.118127 0.563340
O O8 0.397291 0.481358 0.915861
O O9 0.175618 0.518856 0.055146
O O10 0.109547 0.730829 0.412944
O O11 0.122334 0.842146 0.176777
O O12 0.306111 0.136608 0.846203
O O13 0.181615 0.993762 0.323712
O O14 0.150706 0.066986 0.094043
O O15 0.537227 0.190986 0.237899
O O16 0.500091 0.268441 0.026137
#
# Coordination Sequence:
#
# PCOD8027437 Si02
#       8
#     2   2   2   2   2   2   2   2
#     4  11  24  45  64  97 138 173 218 270 336 393
#     4  12  24  42  71 100 133 174 223 274 331 390
#     4  11  23  43  70  96 133 175 221 274 327 389
#     4  11  25  43  68  96 133 182 215 272 333 395
#     4  10  24  45  68  98 135 176 220 275 324 395
#     4  11  24  44  65 104 132 172 228 271 326 394
#     4  11  25  42  67  97 135 172 220 276 328 391
#     4  11  22  46  65  99 134 174 218 271 335 397
#
# _framework density 22.461296000000001
#
# number of rings (size 3 to 8) (size 9 to 14) (size 15 to 20)
#    0.000    1.000    5.000    1.875    3.500    2.500 
#    2.250    0.625    0.000    0.000    0.000    0.000 
#    0.000    0.000    0.000    0.000    0.000    0.000 
#
# Total GULP energy -198461.200016 kJ/mol
# GULP energy per Si atom -12403.825001 kJ/mol
# Density = 2.241017 g / cm^3
# Si number density = 22.461296 Si / 1000 Ang^3
#
#
#
# Elastic Constant Matrix: (Units=GPa)
#
#
# Indices 1 2 3 4 5 6 
#
# 1 48.7403 36.7366 19.9270 0.4047 -2.1174 21.0407
# 2 36.7366 78.0435 17.3591 -4.3432 -1.3301 19.4430
# 3 19.9270 17.3591 93.2507 -1.0609 1.1888 18.2620
# 4 0.4047 -4.3432 -1.0609 30.2253 11.2650 4.0778
# 5 -2.1174 -1.3301 1.1888 11.2650 33.0971 -5.6057
# 6 21.0407 19.4430 18.2620 4.0778 -5.6057 36.7258
#
#
#
# Elastic Compliance Matrix: (Units=1/GPa)
#
#
# Indices 1 2 3 4 5 6 
#
# 1 0.037764 -0.014026 -0.003009 -0.000992 0.000168 -0.012578
# 2 -0.014026 0.020544 -0.000032 0.004454 -0.002206 -0.003656
# 3 -0.003009 -0.000032 0.012394 0.001938 -0.002139 -0.004964
# 4 -0.000992 0.004454 0.001938 0.040889 -0.015507 -0.009660
# 5 0.000168 -0.002206 -0.002139 -0.015507 0.037104 0.009520
# 6 -0.012578 -0.003656 -0.004964 -0.009660 0.009520 0.041364
#
#
# Mechanical properties :
#
#
# Convention : Reuss Voigt Hill
#
# Bulk Modulus (GPa) = 27.34681 40.89778 34.12229
# Shear Modulus (GPa) = 21.15221 29.74378 25.44800
#
# Velocity S-wave (km/s) = 3.07207 3.64294 3.36961
# Velocity P-wave (km/s) = 4.97846 5.99519 5.51032
#
# Compressibility (1/GPa) = 0.03656733
#
# Stress axis : x y z
#
# Youngs Moduli (GPa) = 26.48030 48.67659 80.68286
#
# Poissons Ratio (x) = 0.68272 0.24278
# Poissons Ratio (y) = 0.37141 0.00262
# Poissons Ratio (z) = 0.07968 0.00158
#
# Static dielectric constant tensor:
#      x y z
#    x 3.853670 0.173120 -0.016070 
#    y 0.173120 4.052130 -0.131030 
#    z -0.016070 -0.131030 4.366920 
# 
# 
# High freq. dielectric constant tensor:
#      x y z
#    x 1.876040 0.016090 0.001090 
#    y 0.016090 1.888930 -0.002760 
#    z 0.001090 -0.002760 1.897730 
# 
# From -- ./inp_files/206961.got.cif
#   From: 2010.06.25/outbox.cif.g09.slc.cpg/sg2_104_cif.got.tgz:206961.got - 2010.06.27 13:26:56.
