data_PCOD8027934
_publ_section_title
;
Structure prediction by ZEFSAII (Michael W. Deem and Ramdas Pophale) SiO2 
 PCOD8027934
Probable space group: P -1
;
_chemical_formula_sum "Si O2"
_cell_formula_units_Z 12
_cell_length_a 7.800748
_cell_length_b 8.886096
_cell_length_c 13.446899
_cell_angle_alpha 57.290003
_cell_angle_beta 34.726113
_cell_angle_gamma 65.907884
_cell_volume 445.520824
_symmetry_space_group_name_H-M "P -1"
_symmetry_group_IT_number 2
_symmetry_cell_setting 'triclinic'
loop_
_space_group_symop_operation_xyz
x,y,z
-x,-y,-z
loop_
_atom_site_type_symbol
_atom_site_label
_atom_site_fract_x
_atom_site_fract_y
_atom_site_fract_z
Si Si1 0.532142 0.135474 0.081251
Si Si2 0.724118 0.619085 0.610505
Si Si3 0.629611 0.350391 0.424417
Si Si4 0.836092 0.845944 0.934635
Si Si5 0.114376 0.988901 0.563060
Si Si6 0.170627 0.587039 0.005154
O O1 0.448787 0.208942 0.984260
O O2 0.724712 0.283912 0.999722
O O3 0.217321 0.058496 0.314298
O O4 0.737897 0.970375 0.026759
O O5 0.601150 0.677747 0.543961
O O6 0.464284 0.513402 0.838342
O O7 0.000000 0.500000 0.500000
O O8 0.799800 0.802052 0.570482
O O9 0.500000 0.500000 0.500000
O O10 0.652215 0.155589 0.535697
O O11 0.974858 0.414334 0.203781
O O12 0.091775 0.951825 0.706871
O O13 0.969551 0.677070 0.985253
#
# Coordination Sequence:
#
# PCOD8027934 Si02
#       6
#     2   2   2   2   2   2
#     4   9  22  40  75 113 150 204 251 317 380 457
#     4  12  29  49  80 113 153 205 261 317 385 465
#     4  12  30  49  77 114 156 203 259 318 389 457
#     4   9  21  42  73 111 152 202 249 313 383 448
#     4  10  24  49  73 105 163 199 248 322 390 440
#     4  12  26  47  77 112 156 200 264 310 388 459
#
# _framework density 26.934771000000001
#
# number of rings (size 3 to 8) (size 9 to 14) (size 15 to 20)
#    1.000    0.333    1.667    1.500    7.000    4.000 
#    0.000    0.000    0.000    0.000    0.000    0.000 
#    0.000    0.000    0.000    0.000    0.000    0.000 
#
# Total GULP energy -148716.044366 kJ/mol
# GULP energy per Si atom -12393.003697 kJ/mol
# Density = 2.687347 g / cm^3
# Si number density = 26.934771 Si / 1000 Ang^3
#
#
#
# Elastic Constant Matrix: (Units=GPa)
#
#
# Indices 1 2 3 4 5 6 
#
# 1 122.2604 50.6252 25.8814 -3.9512 -13.7736 11.9331
# 2 50.6252 209.9869 59.5931 21.4060 -18.3038 -25.3739
# 3 25.8814 59.5931 76.1820 6.2520 -19.1643 -13.7742
# 4 -3.9512 21.4060 6.2520 52.6353 3.5768 -6.0429
# 5 -13.7736 -18.3038 -19.1643 3.5768 27.2658 2.2576
# 6 11.9331 -25.3739 -13.7742 -6.0429 2.2576 42.1537
#
#
#
# Elastic Compliance Matrix: (Units=1/GPa)
#
#
# Indices 1 2 3 4 5 6 
#
# 1 0.010440 -0.002473 -0.002015 0.001283 0.002447 -0.005049
# 2 -0.002473 0.007140 -0.003695 -0.002325 0.000970 0.003405
# 3 -0.002015 -0.003695 0.020216 -0.001283 0.010531 0.004204
# 4 0.001283 -0.002325 -0.001283 0.020623 -0.004605 0.001021
# 5 0.002447 0.000970 0.010531 -0.004605 0.046555 0.000179
# 6 -0.005049 0.003405 0.004204 0.001021 0.000179 0.028712
#
#
# Mechanical properties :
#
#
# Convention : Reuss Voigt Hill
#
# Bulk Modulus (GPa) = 46.66148 75.62539 61.14343
# Shear Modulus (GPa) = 31.80790 42.56628 37.18709
#
# Velocity S-wave (km/s) = 3.44018 3.97967 3.71972
# Velocity P-wave (km/s) = 5.75685 7.01821 6.41859
#
# Compressibility (1/GPa) = 0.02143095
#
# Stress axis : x y z
#
# Youngs Moduli (GPa) = 95.78856 140.05805 49.46647
#
# Poissons Ratio (x) = 0.34630 0.09968
# Poissons Ratio (y) = 0.23684 0.18276
# Poissons Ratio (z) = 0.19302 0.51745
#
# Static dielectric constant tensor:
#      x y z
#    x 4.487760 -1.179090 -0.212530 
#    y -1.179090 1.504480 -0.270000 
#    z -0.212530 -0.270000 4.822640 
# 
# 
# High freq. dielectric constant tensor:
#      x y z
#    x 2.095900 0.007330 0.003400 
#    y 0.007330 2.112330 0.007600 
#    z 0.003400 0.007600 2.068250 
# 
# From -- ./inp_files/494441.got.cif
#   From: 2010.06.25/outbox.cif.g09.slc.cpg/sg2_248_cif.got.tgz:494441.got - 2010.06.27 13:26:56.
