data_PCOD8027523
_publ_section_title
;
Structure prediction by ZEFSAII (Michael W. Deem and Ramdas Pophale) SiO2 
 PCOD8027523
Probable space group: P -1
;
_chemical_formula_sum "Si O2"
_cell_formula_units_Z 16
_cell_length_a 11.830559
_cell_length_b 8.719363
_cell_length_c 8.251502
_cell_angle_alpha 103.499148
_cell_angle_beta 62.912543
_cell_angle_gamma 113.519954
_cell_volume 693.464607
_symmetry_space_group_name_H-M "P -1"
_symmetry_group_IT_number 2
_symmetry_cell_setting 'triclinic'
loop_
_space_group_symop_operation_xyz
x,y,z
-x,-y,-z
loop_
_atom_site_type_symbol
_atom_site_label
_atom_site_fract_x
_atom_site_fract_y
_atom_site_fract_z
Si Si1 0.387471 0.895199 0.755906
Si Si2 0.952861 0.712909 0.211139
Si Si3 0.768940 0.625160 0.021969
Si Si4 0.884209 0.415042 0.682933
Si Si5 0.234570 0.178411 0.412625
Si Si6 0.481050 0.589185 0.698360
Si Si7 0.684548 0.098890 0.550847
Si Si8 0.820583 0.975783 0.928248
O O1 0.408215 0.724804 0.751356
O O2 0.300518 0.857510 0.637830
O O3 0.527566 0.049517 0.688574
O O4 0.301611 0.950733 0.960673
O O5 0.851017 0.595443 0.117842
O O6 0.869141 0.743591 0.424547
O O7 0.053887 0.628511 0.202577
O O8 0.037400 0.878898 0.096224
O O9 0.609844 0.543497 0.145917
O O10 0.809203 0.545032 0.815210
O O11 0.799485 0.822069 0.025253
O O12 0.773801 0.253716 0.637417
O O13 0.000000 0.500000 0.500000
O O14 0.370875 0.323869 0.301383
O O15 0.166446 0.071848 0.276906
O O16 0.268336 0.060941 0.495830
O O17 0.500000 0.500000 0.500000
#
# Coordination Sequence:
#
# PCOD8027523 Si02
#       8
#     2   2   2   2   2   2   2   2
#     4  10  25  45  74  97 133 188 226 281 343 417
#     4  12  25  48  70  96 145 188 231 277 351 420
#     4  12  28  45  70 107 140 181 236 287 349 408
#     4  12  28  44  71 106 142 183 228 295 348 407
#     4  11  24  45  73 100 136 185 234 284 344 413
#     4  11  25  46  73 103 141 179 230 294 350 402
#     4  10  24  45  70  97 137 176 238 270 347 415
#     4  12  26  44  73 101 136 185 235 284 339 420
#
# _framework density 23.072552999999999
#
# number of rings (size 3 to 8) (size 9 to 14) (size 15 to 20)
#    0.000    0.750    2.500    3.375   10.500    2.500 
#    0.000    0.000    0.000    0.000    0.000    0.000 
#    0.000    0.000    0.000    0.000    0.000    0.000 
#
# Total GULP energy -198489.886018 kJ/mol
# GULP energy per Si atom -12405.617876 kJ/mol
# Density = 2.302004 g / cm^3
# Si number density = 23.072553 Si / 1000 Ang^3
#
#
#
# Elastic Constant Matrix: (Units=GPa)
#
#
# Indices 1 2 3 4 5 6 
#
# 1 63.4198 17.4096 4.3893 -0.7608 -11.8328 -0.0762
# 2 17.4096 105.8577 30.4100 -13.9431 -20.6272 3.5244
# 3 4.3893 30.4100 118.2120 1.0924 -28.2223 -0.5787
# 4 -0.7608 -13.9431 1.0924 45.4033 -1.0133 -1.3645
# 5 -11.8328 -20.6272 -28.2223 -1.0133 33.7053 -4.2668
# 6 -0.0762 3.5244 -0.5787 -1.3645 -4.2668 32.2967
#
#
#
# Elastic Compliance Matrix: (Units=1/GPa)
#
#
# Indices 1 2 3 4 5 6 
#
# 1 0.017391 -0.002135 0.001360 -0.000229 0.006069 0.001090
# 2 -0.002135 0.011799 -0.001795 0.003728 0.005016 -0.000505
# 3 0.001360 -0.001795 0.010970 -0.000552 0.008741 0.001527
# 4 -0.000229 0.003728 -0.000552 0.023263 0.002553 0.000903
# 5 0.006069 0.005016 0.008741 0.002553 0.042949 0.005406
# 6 0.001090 -0.000505 0.001527 0.000903 0.005406 0.031800
#
#
# Mechanical properties :
#
#
# Convention : Reuss Voigt Hill
#
# Bulk Modulus (GPa) = 28.55589 43.54527 36.05058
# Shear Modulus (GPa) = 32.26109 37.96644 35.11376
#
# Velocity S-wave (km/s) = 3.74337 4.06091 3.90537
# Velocity P-wave (km/s) = 5.57559 6.39548 5.99955
#
# Compressibility (1/GPa) = 0.03501904
#
# Stress axis : x y z
#
# Youngs Moduli (GPa) = 57.50215 84.75539 91.15643
#
# Poissons Ratio (x) = 0.18092 -0.12394
# Poissons Ratio (y) = 0.12275 0.16365
# Poissons Ratio (z) = -0.07818 0.15216
#
# Static dielectric constant tensor:
#      x y z
#    x 4.140360 0.105720 -0.138350 
#    y 0.105720 4.258550 -0.057360 
#    z -0.138350 -0.057360 4.049680 
# 
# 
# High freq. dielectric constant tensor:
#      x y z
#    x 1.913150 0.007130 -0.008150 
#    y 0.007130 1.920230 -0.001880 
#    z -0.008150 -0.001880 1.917250 
# 
# From -- ./inp_files/244910.got.cif
#   From: 2010.06.25/outbox.cif.g09.slc.cpg/sg2_123_cif.got.tgz:244910.got - 2010.06.27 13:26:56.
