data_PCOD8027398
_publ_section_title
;
Structure prediction by ZEFSAII (Michael W. Deem and Ramdas Pophale) SiO2 
 PCOD8027398
Probable space group: P -1
;
_chemical_formula_sum "Si O2"
_cell_formula_units_Z 16
_cell_length_a 16.310611
_cell_length_b 7.095524
_cell_length_c 13.289862
_cell_angle_alpha 111.892413
_cell_angle_beta 147.411879
_cell_angle_gamma 82.079579
_cell_volume 719.202093
_symmetry_space_group_name_H-M "P -1"
_symmetry_group_IT_number 2
_symmetry_cell_setting 'triclinic'
loop_
_space_group_symop_operation_xyz
x,y,z
-x,-y,-z
loop_
_atom_site_type_symbol
_atom_site_label
_atom_site_fract_x
_atom_site_fract_y
_atom_site_fract_z
Si Si1 0.226381 0.205349 0.375373
Si Si2 0.488204 0.522220 0.154081
Si Si3 0.935644 0.194260 0.334075
Si Si4 0.726933 0.434834 0.237177
Si Si5 0.143230 0.723961 0.162341
Si Si6 0.940293 0.341093 0.156641
Si Si7 0.186478 0.286583 0.923045
Si Si8 0.311385 0.423204 0.296691
O O1 0.401754 0.276699 0.623843
O O2 0.238853 0.259049 0.280625
O O3 0.124307 0.341137 0.346155
O O4 0.140869 0.945040 0.255314
O O5 0.608280 0.413079 0.205316
O O6 0.389238 0.607533 0.988387
O O7 0.362196 0.358047 0.066383
O O8 0.819760 0.261378 0.306499
O O9 0.862157 0.221676 0.154339
O O10 0.127303 0.330925 0.573758
O O11 0.917016 0.946217 0.275686
O O12 0.296556 0.661711 0.341328
O O13 0.151116 0.775660 0.061466
O O14 0.000000 0.500000 0.000000
O O15 0.928596 0.578740 0.197709
O O16 0.215171 0.295225 0.074251
O O17 0.500000 0.500000 0.500000
#
# Coordination Sequence:
#
# PCOD8027398 Si02
#       8
#     2   2   2   2   2   2   2   2
#     4  12  24  43  68  94 140 179 208 277 329 381
#     4  11  23  45  66  97 133 172 219 273 334 393
#     4  11  23  44  71  94 129 175 218 280 328 384
#     4  10  24  45  67  96 131 169 226 273 334 385
#     4  11  25  40  66 101 131 173 224 258 318 405
#     4  11  23  42  67  97 131 170 221 266 326 390
#     4  11  25  42  70 101 129 169 226 268 324 399
#     4  11  24  42  63 102 139 169 219 261 328 406
#
# _framework density 22.246877000000001
#
# number of rings (size 3 to 8) (size 9 to 14) (size 15 to 20)
#    0.000    1.000    5.000    1.125    3.500    2.500 
#    0.000    1.250    0.000    0.000    0.000    0.000 
#    0.000    0.000    0.000    0.000    0.000    0.000 
#
# Total GULP energy -198261.049153 kJ/mol
# GULP energy per Si atom -12391.315572 kJ/mol
# Density = 2.219624 g / cm^3
# Si number density = 22.246877 Si / 1000 Ang^3
#
#
#
# Elastic Constant Matrix: (Units=GPa)
#
#
# Indices 1 2 3 4 5 6 
#
# 1 106.7961 43.4551 34.4536 -0.1788 14.4077 -15.6569
# 2 43.4551 134.2083 68.4512 14.5402 12.3049 -27.3510
# 3 34.4536 68.4512 108.7439 0.0220 7.7620 -14.2930
# 4 -0.1788 14.5402 0.0220 35.2619 -3.2261 -3.0834
# 5 14.4077 12.3049 7.7620 -3.2261 33.6731 -14.1200
# 6 -15.6569 -27.3510 -14.2930 -3.0834 -14.1200 35.1242
#
#
#
# Elastic Compliance Matrix: (Units=1/GPa)
#
#
# Indices 1 2 3 4 5 6 
#
# 1 0.011505 -0.002353 -0.001760 0.000888 -0.002956 0.001469
# 2 -0.002353 0.013611 -0.006994 -0.005107 -0.000266 0.006149
# 3 -0.001760 -0.006994 0.014120 0.002881 0.000280 -0.000119
# 4 0.000888 -0.005107 0.002881 0.031095 0.004734 0.002225
# 5 -0.002956 -0.000266 0.000280 0.004734 0.037322 0.014009
# 6 0.001469 0.006149 -0.000119 0.002225 0.014009 0.039692
#
#
# Mechanical properties :
#
#
# Convention : Reuss Voigt Hill
#
# Bulk Modulus (GPa) = 58.75012 71.38533 65.06772
# Shear Modulus (GPa) = 28.53365 34.37108 31.45236
#
# Velocity S-wave (km/s) = 3.58521 3.93489 3.76412
# Velocity P-wave (km/s) = 6.60333 7.26650 6.94283
#
# Compressibility (1/GPa) = 0.01702124
#
# Stress axis : x y z
#
# Youngs Moduli (GPa) = 86.92218 73.47060 70.82297
#
# Poissons Ratio (x) = 0.17289 0.12464
# Poissons Ratio (y) = 0.20455 0.49533
# Poissons Ratio (z) = 0.15297 0.51385
#
# Static dielectric constant tensor:
#      x y z
#    x 4.585360 -0.328040 -0.147030 
#    y -0.328040 3.833660 -0.201580 
#    z -0.147030 -0.201580 4.016730 
# 
# 
# High freq. dielectric constant tensor:
#      x y z
#    x 1.892020 -0.011950 -0.003230 
#    y -0.011950 1.860980 -0.018760 
#    z -0.003230 -0.018760 1.874400 
# 
# From -- ./inp_files/536428.got.cif
#   From: 2010.06.25/outbox.cif.g09.slc.cpg/sg2_269_cif.got.tgz:536428.got - 2010.06.27 13:26:56.
