data_PCOD8027187
_publ_section_title
;
Structure prediction by ZEFSAII (Michael W. Deem and Ramdas Pophale) SiO2 
 PCOD8027187
Probable space group: P -1
;
_chemical_formula_sum "Si O2"
_cell_formula_units_Z 14
_cell_length_a 9.783023
_cell_length_b 9.290429
_cell_length_c 9.527793
_cell_angle_alpha 67.731697
_cell_angle_beta 114.568572
_cell_angle_gamma 138.299505
_cell_volume 520.548030
_symmetry_space_group_name_H-M "P -1"
_symmetry_group_IT_number 2
_symmetry_cell_setting 'triclinic'
loop_
_space_group_symop_operation_xyz
x,y,z
-x,-y,-z
loop_
_atom_site_type_symbol
_atom_site_label
_atom_site_fract_x
_atom_site_fract_y
_atom_site_fract_z
Si Si1 0.037803 0.880752 0.659383
Si Si2 0.342106 0.501700 0.502851
Si Si3 0.757036 0.370583 0.949931
Si Si4 0.557117 0.019718 0.229530
Si Si5 0.933844 0.828515 0.254291
Si Si6 0.708267 0.660583 0.941311
Si Si7 0.624781 0.909532 0.639257
O O1 0.260090 0.972333 0.681966
O O2 0.853984 0.619170 0.645972
O O3 0.036427 0.960216 0.784057
O O4 0.000000 0.000000 0.500000
O O5 0.500000 0.500000 0.500000
O O6 0.265703 0.378633 0.665907
O O7 0.473932 0.754321 0.500330
O O8 0.732432 0.538475 0.884116
O O9 0.648747 0.220771 0.821416
O O10 0.633974 0.212882 0.089832
O O11 0.000000 0.500000 0.000000
O O12 0.506380 0.054721 0.347581
O O13 0.899170 0.786015 0.089091
O O14 0.134890 0.868755 0.380954
O O15 0.695984 0.814670 0.799825
O O16 0.500000 0.500000 0.000000
#
# Coordination Sequence:
#
# PCOD8027187 Si02
#       7
#     2   2   2   2   2   2   2
#     4  10  24  44  69  96 135 190 232 282 344 412
#     4  11  23  44  70  98 135 180 243 288 340 414
#     4  11  25  42  68 104 144 184 226 285 359 423
#     4  11  25  45  66 103 145 179 233 294 349 415
#     4  11  23  42  71 101 137 181 237 281 353 423
#     4  12  22  42  69 104 142 180 225 286 356 420
#     4  12  25  42  72 104 139 184 230 293 352 417
#
# _framework density 26.894732000000001
#
# number of rings (size 3 to 8) (size 9 to 14) (size 15 to 20)
#    0.000    0.857    4.286    2.143    6.000    0.571 
#    0.000    2.857    0.000    0.000    0.000    0.000 
#    0.000    0.000    0.000    0.000    0.000    0.000 
#
# Total GULP energy -173582.855148 kJ/mol
# GULP energy per Si atom -12398.775368 kJ/mol
# Density = 2.683352 g / cm^3
# Si number density = 26.894732 Si / 1000 Ang^3
#
#
#
# Elastic Constant Matrix: (Units=GPa)
#
#
# Indices 1 2 3 4 5 6 
#
# 1 202.6810 46.8693 12.1983 36.8901 2.2876 -3.3889
# 2 46.8693 126.9856 15.6583 43.0097 -2.2419 2.0547
# 3 12.1983 15.6583 70.9802 45.9015 -9.4446 -6.7815
# 4 36.8901 43.0097 45.9015 57.0013 -3.1236 3.4021
# 5 2.2876 -2.2419 -9.4446 -3.1236 49.6175 9.7733
# 6 -3.3889 2.0547 -6.7815 3.4021 9.7733 52.5435
#
#
#
# Elastic Compliance Matrix: (Units=1/GPa)
#
#
# Indices 1 2 3 4 5 6 
#
# 1 0.006001 -0.000591 0.003039 -0.005979 -0.000348 0.001254
# 2 -0.000591 0.012093 0.006924 -0.014345 0.000758 0.001170
# 3 0.003039 0.006924 0.037386 -0.037484 0.003649 0.006499
# 4 -0.005979 -0.014345 -0.037484 0.062818 -0.001903 -0.008376
# 5 -0.000348 0.000758 0.003649 -0.001903 0.021459 -0.003449
# 6 0.001254 0.001170 0.006499 -0.008376 -0.003449 0.021090
#
#
# Mechanical properties :
#
#
# Convention : Reuss Voigt Hill
#
# Bulk Modulus (GPa) = 13.47313 61.12206 37.29759
# Shear Modulus (GPa) = 29.96838 53.56053 41.76445
#
# Velocity S-wave (km/s) = 3.34171 4.46745 3.94494
# Velocity P-wave (km/s) = 4.46204 7.02756 5.88627
#
# Compressibility (1/GPa) = 0.07422182
#
# Stress axis : x y z
#
# Youngs Moduli (GPa) = 166.64648 82.69569 26.74823
#
# Poissons Ratio (x) = 0.04887 -0.08129
# Poissons Ratio (y) = 0.09849 -0.18519
# Poissons Ratio (z) = -0.50643 -0.57255
#
# Static dielectric constant tensor:
#      x y z
#    x 5.419080 -0.063100 -0.478390 
#    y -0.063100 5.597090 0.427400 
#    z -0.478390 0.427400 5.475870 
# 
# 
# High freq. dielectric constant tensor:
#      x y z
#    x 2.090860 0.020010 -0.015990 
#    y 0.020010 2.101800 0.005270 
#    z -0.015990 0.005270 2.095730 
# 
# From -- ./inp_files/378824.got.cif
#   From: 2010.06.25/outbox.cif.g09.slc.cpg/sg2_190_cif.got.tgz:378824.got - 2010.06.27 13:26:56.
