data_PCOD8027974
_publ_section_title
;
Structure prediction by ZEFSAII (Michael W. Deem and Ramdas Pophale) SiO2 
 PCOD8027974
Probable space group: P -1
;
_chemical_formula_sum "Si O2"
_cell_formula_units_Z 16
_cell_length_a 20.100420
_cell_length_b 7.507063
_cell_length_c 5.165018
_cell_angle_alpha 76.532219
_cell_angle_beta 125.664427
_cell_angle_gamma 103.066153
_cell_volume 611.754523
_symmetry_space_group_name_H-M "P -1"
_symmetry_group_IT_number 2
_symmetry_cell_setting 'triclinic'
loop_
_space_group_symop_operation_xyz
x,y,z
-x,-y,-z
loop_
_atom_site_type_symbol
_atom_site_label
_atom_site_fract_x
_atom_site_fract_y
_atom_site_fract_z
Si Si1 0.839186 0.023529 0.287152
Si Si2 0.569419 0.107040 0.292652
Si Si3 0.885478 0.643582 0.697034
Si Si4 0.722540 0.590433 0.637442
Si Si5 0.264574 0.990538 0.442009
Si Si6 0.366809 0.538895 0.043444
Si Si7 0.044798 0.646582 0.360104
Si Si8 0.487211 0.247440 0.491466
O O1 0.772167 0.051641 0.344095
O O2 0.917894 0.172139 0.463068
O O3 0.861024 0.813117 0.411067
O O4 0.805220 0.062056 0.913768
O O5 0.663325 0.142636 0.383515
O O6 0.538207 0.277813 0.324648
O O7 0.570833 0.946201 0.573802
O O8 0.500000 0.000000 0.000000
O O9 0.819839 0.599136 0.795278
O O10 0.885815 0.455034 0.597736
O O11 0.976457 0.708990 0.988874
O O12 0.703620 0.462262 0.893366
O O13 0.698692 0.795330 0.569440
O O14 0.670829 0.507029 0.303622
O O15 0.426171 0.398839 0.339629
O O16 0.435399 0.724660 0.120226
O O17 0.000000 0.500000 0.500000
#
# Coordination Sequence:
#
# PCOD8027974 Si02
#       8
#     2   2   2   2   2   2   2   2
#     4  11  27  48  77 106 144 192 240 292 358 433
#     4  11  24  42  66  93 144 185 232 293 351 411
#     4  10  26  46  74 107 143 192 235 290 366 426
#     4  11  23  43  70  97 139 175 230 285 350 407
#     4  11  25  45  72 103 139 189 241 288 355 426
#     4  11  24  42  67  98 131 179 233 289 336 415
#     4  11  27  48  75 109 149 183 236 296 357 440
#     4  10  25  39  63  96 131 182 233 282 352 399
#
# _framework density 26.154283
#
# number of rings (size 3 to 8) (size 9 to 14) (size 15 to 20)
#    0.000    1.250    1.250    2.625   14.000    3.500 
#    0.000    0.000    0.000    0.000    0.000    0.000 
#    0.000    0.000    0.000    0.000    0.000    0.000 
#
# Total GULP energy -198381.145906 kJ/mol
# GULP energy per Si atom -12398.821619 kJ/mol
# Density = 2.609475 g / cm^3
# Si number density = 26.154283 Si / 1000 Ang^3
#
#
#
# Elastic Constant Matrix: (Units=GPa)
#
#
# Indices 1 2 3 4 5 6 
#
# 1 117.4532 30.1734 16.6392 -1.5474 6.6757 -9.8481
# 2 30.1734 91.7422 21.4851 18.9483 7.6463 9.7755
# 3 16.6392 21.4851 107.9318 19.2166 4.6133 -19.3157
# 4 -1.5474 18.9483 19.2166 42.7007 -7.6492 -0.4202
# 5 6.6757 7.6463 4.6133 -7.6492 41.3953 -1.9452
# 6 -9.8481 9.7755 -19.3157 -0.4202 -1.9452 49.1848
#
#
#
# Elastic Compliance Matrix: (Units=1/GPa)
#
#
# Indices 1 2 3 4 5 6 
#
# 1 0.009842 -0.003789 -0.000732 0.002345 -0.000257 0.002446
# 2 -0.003789 0.014681 -0.001872 -0.006445 -0.003299 -0.004597
# 3 -0.000732 -0.001872 0.011452 -0.004562 -0.001438 0.004627
# 4 0.002345 -0.006445 -0.004562 0.029643 0.006821 0.000482
# 5 -0.000257 -0.003299 -0.001438 0.006821 0.026282 0.001137
# 6 0.002446 -0.004597 0.004627 0.000482 0.001137 0.023601
#
#
# Mechanical properties :
#
#
# Convention : Reuss Voigt Hill
#
# Bulk Modulus (GPa) = 43.12501 50.41361 46.76931
# Shear Modulus (GPa) = 36.75978 43.24480 40.00229
#
# Velocity S-wave (km/s) = 3.75306 4.07068 3.91509
# Velocity P-wave (km/s) = 5.94181 6.43515 6.19340
#
# Compressibility (1/GPa) = 0.02318840
#
# Stress axis : x y z
#
# Youngs Moduli (GPa) = 101.60806 68.11580 87.31786
#
# Poissons Ratio (x) = 0.25810 0.06390
# Poissons Ratio (y) = 0.38500 0.16350
# Poissons Ratio (z) = 0.07436 0.12754
#
# Static dielectric constant tensor:
#      x y z
#    x 6.170340 1.570820 -0.481960 
#    y 1.570820 7.075670 -0.636360 
#    z -0.481960 -0.636360 4.982940 
# 
# 
# High freq. dielectric constant tensor:
#      x y z
#    x 2.061120 0.003910 -0.004190 
#    y 0.003910 2.060760 -0.000640 
#    z -0.004190 -0.000640 2.054820 
# 
# From -- ./inp_files/116099.got.cif
#   From: 2010.06.25/outbox.cif.g09.slc.cpg/sg2_59_cif.got.tgz:116099.got - 2010.06.27 13:26:56.
