data_PCOD8027899
_publ_section_title
;
Structure prediction by ZEFSAII (Michael W. Deem and Ramdas Pophale) SiO2 
 PCOD8027899
Probable space group: P -1
;
_chemical_formula_sum "Si O2"
_cell_formula_units_Z 16
_cell_length_a 8.620086
_cell_length_b 16.361969
_cell_length_c 12.090772
_cell_angle_alpha 42.660458
_cell_angle_beta 100.371804
_cell_angle_gamma 66.804320
_cell_volume 697.656249
_symmetry_space_group_name_H-M "P -1"
_symmetry_group_IT_number 2
_symmetry_cell_setting 'triclinic'
loop_
_space_group_symop_operation_xyz
x,y,z
-x,-y,-z
loop_
_atom_site_type_symbol
_atom_site_label
_atom_site_fract_x
_atom_site_fract_y
_atom_site_fract_z
Si Si1 0.774245 0.891762 0.186900
Si Si2 0.139745 0.047384 0.098721
Si Si3 0.619217 0.225983 0.910406
Si Si4 0.273029 0.547460 0.724742
Si Si5 0.753146 0.619188 0.921892
Si Si6 0.032433 0.333271 0.948661
Si Si7 0.503206 0.662001 0.653495
Si Si8 0.779189 0.624442 0.436079
O O1 0.623367 0.850739 0.195411
O O2 0.037124 0.678538 0.480871
O O3 0.848292 0.918516 0.058957
O O4 0.659983 0.055765 0.098409
O O5 0.384400 0.814525 0.387504
O O6 0.877465 0.135563 0.998182
O O7 0.155297 0.151819 0.077227
O O8 0.516690 0.340881 0.898166
O O9 0.418362 0.359330 0.648748
O O10 0.323466 0.655711 0.655488
O O11 0.211311 0.519789 0.859318
O O12 0.512460 0.738884 0.690125
O O13 0.000000 0.500000 0.000000
O O14 0.731325 0.750057 0.868573
O O15 0.789891 0.439077 0.886970
O O16 0.908510 0.512725 0.678650
O O17 0.000000 0.500000 0.500000
#
# Coordination Sequence:
#
# PCOD8027899 Si02
#       8
#     2   2   2   2   2   2   2   2
#     4  12  25  42  67 102 139 174 221 262 332 405
#     4  12  25  41  66 104 140 175 217 264 331 401
#     4  12  25  40  66 101 138 177 212 268 330 399
#     4  12  23  45  71  97 133 173 224 275 331 390
#     4  10  24  48  73  94 126 177 228 277 335 383
#     4  11  22  43  67  96 133 175 222 272 328 385
#     4  11  25  44  69  96 130 178 223 277 326 389
#     4  12  22  41  64  96 136 180 214 269 327 394
#
# _framework density 22.93393
#
# number of rings (size 3 to 8) (size 9 to 14) (size 15 to 20)
#    0.000    0.500    6.250    1.875    1.750    1.500 
#    0.000    3.125    0.000    0.000    0.000    0.000 
#    0.000    0.000    0.000    0.000    0.000    0.000 
#
# Total GULP energy -198356.292906 kJ/mol
# GULP energy per Si atom -12397.268307 kJ/mol
# Density = 2.288173 g / cm^3
# Si number density = 22.933930 Si / 1000 Ang^3
#
#
#
# Elastic Constant Matrix: (Units=GPa)
#
#
# Indices 1 2 3 4 5 6 
#
# 1 92.5174 26.8503 23.2039 10.5920 -12.2579 15.7114
# 2 26.8503 89.4932 27.9021 2.2047 0.8995 17.4297
# 3 23.2039 27.9021 71.1947 13.0493 -11.1368 -2.4077
# 4 10.5920 2.2047 13.0493 41.3098 0.9444 -1.8079
# 5 -12.2579 0.8995 -11.1368 0.9444 32.2480 2.1383
# 6 15.7114 17.4297 -2.4077 -1.8079 2.1383 44.3195
#
#
#
# Elastic Compliance Matrix: (Units=1/GPa)
#
#
# Indices 1 2 3 4 5 6 
#
# 1 0.013880 -0.002546 -0.002360 -0.002983 0.004912 -0.004406
# 2 -0.002546 0.014743 -0.005897 0.001582 -0.003130 -0.005000
# 3 -0.002360 -0.005897 0.019083 -0.005078 0.005761 0.003707
# 4 -0.002983 0.001582 -0.005078 0.026641 -0.003806 0.001430
# 5 0.004912 -0.003130 0.005761 -0.003806 0.035201 -0.002051
# 6 -0.004406 -0.005000 0.003707 0.001430 -0.002051 0.026450
#
#
# Mechanical properties :
#
#
# Convention : Reuss Voigt Hill
#
# Bulk Modulus (GPa) = 38.31350 45.45753 41.88552
# Shear Modulus (GPa) = 30.06534 35.25874 32.66204
#
# Velocity S-wave (km/s) = 3.62464 3.92523 3.77792
# Velocity P-wave (km/s) = 5.85317 6.35668 6.11011
#
# Compressibility (1/GPa) = 0.02610046
#
# Stress axis : x y z
#
# Youngs Moduli (GPa) = 72.04552 67.82997 52.40196
#
# Poissons Ratio (x) = 0.17272 0.12366
# Poissons Ratio (y) = 0.18346 0.30899
# Poissons Ratio (z) = 0.17002 0.39996
#
# Static dielectric constant tensor:
#      x y z
#    x 16.129500 -0.235200 -3.370440 
#    y -0.235200 4.432710 0.258330 
#    z -3.370440 0.258330 5.354440 
# 
# 
# High freq. dielectric constant tensor:
#      x y z
#    x 1.929120 0.016870 0.010550 
#    y 0.016870 1.907410 0.002570 
#    z 0.010550 0.002570 1.892400 
# 
# From -- ./inp_files/272599.got.cif
#   From: 2010.06.25/outbox.cif.g09.slc.cpg/sg2_137_cif.got.tgz:272599.got - 2010.06.27 13:26:56.
