data_PCOD8027670
_publ_section_title
;
Structure prediction by ZEFSAII (Michael W. Deem and Ramdas Pophale) SiO2 
 PCOD8027670
Probable space group: P -1
;
_chemical_formula_sum "Si O2"
_cell_formula_units_Z 16
_cell_length_a 18.190312
_cell_length_b 6.745472
_cell_length_c 8.853270
_cell_angle_alpha 56.366935
_cell_angle_beta 70.763942
_cell_angle_gamma 53.594571
_cell_volume 727.949900
_symmetry_space_group_name_H-M "P -1"
_symmetry_group_IT_number 2
_symmetry_cell_setting 'triclinic'
loop_
_space_group_symop_operation_xyz
x,y,z
-x,-y,-z
loop_
_atom_site_type_symbol
_atom_site_label
_atom_site_fract_x
_atom_site_fract_y
_atom_site_fract_z
Si Si1 0.481791 0.506003 0.761825
Si Si2 0.226024 0.946329 0.439086
Si Si3 0.905127 0.528947 0.515910
Si Si4 0.856385 0.411053 0.281903
Si Si5 0.370755 0.515428 0.107704
Si Si6 0.189722 0.073268 0.070845
Si Si7 0.969459 0.987150 0.859859
Si Si8 0.408300 0.908813 0.381057
O O1 0.566670 0.448616 0.830242
O O2 0.443505 0.796997 0.574079
O O3 0.511286 0.256430 0.726533
O O4 0.403514 0.516154 0.914989
O O5 0.212104 0.686945 0.578456
O O6 0.332631 0.833486 0.421331
O O7 0.177387 0.167391 0.512204
O O8 0.184576 0.093300 0.245909
O O9 0.896579 0.490281 0.362002
O O10 0.000000 0.500000 0.500000
O O11 0.899595 0.295209 0.713028
O O12 0.941523 0.164427 0.240141
O O13 0.795850 0.682649 0.103843
O O14 0.268102 0.773011 0.084686
O O15 0.370252 0.235712 0.260258
O O16 0.089665 0.159107 0.040162
O O17 0.000000 0.000000 0.000000
#
# Coordination Sequence:
#
# PCOD8027670 Si02
#       8
#     2   2   2   2   2   2   2   2
#     4  10  24  46  70 105 134 180 223 283 353 409
#     4  12  26  45  68 102 141 183 230 288 338 406
#     4  12  23  43  70  96 137 182 232 282 341 399
#     4  12  27  46  68 101 143 182 231 284 340 406
#     4  11  24  46  71 102 142 175 226 286 343 407
#     4  12  26  45  68 102 140 181 233 282 341 410
#     4  12  24  45  72  99 139 184 231 285 342 404
#     4  11  24  44  73 103 137 178 232 277 347 412
#
# _framework density 21.979531999999999
#
# number of rings (size 3 to 8) (size 9 to 14) (size 15 to 20)
#    0.000    0.500    3.750    4.500    1.750    1.000 
#    9.000    0.000    0.000    0.000    0.000    0.000 
#    0.000    0.000    0.000    0.000    0.000    0.000 
#
# Total GULP energy -198512.363914 kJ/mol
# GULP energy per Si atom -12407.022745 kJ/mol
# Density = 2.192951 g / cm^3
# Si number density = 21.979532 Si / 1000 Ang^3
#
#
#
# Elastic Constant Matrix: (Units=GPa)
#
#
# Indices 1 2 3 4 5 6 
#
# 1 60.4010 10.3397 19.7087 8.9786 -2.0495 -4.1219
# 2 10.3397 98.7507 42.2223 1.0437 -1.9605 -2.5234
# 3 19.7087 42.2223 148.8603 -4.3332 0.6423 6.2992
# 4 8.9786 1.0437 -4.3332 49.9482 6.6177 0.9900
# 5 -2.0495 -1.9605 0.6423 6.6177 31.5472 2.4038
# 6 -4.1219 -2.5234 6.2992 0.9900 2.4038 28.9674
#
#
#
# Elastic Compliance Matrix: (Units=1/GPa)
#
#
# Indices 1 2 3 4 5 6 
#
# 1 0.018315 -0.000708 -0.002472 -0.003785 0.001757 0.003066
# 2 -0.000708 0.011674 -0.003304 -0.000533 0.000737 0.001592
# 3 -0.002472 -0.003304 0.008126 0.001349 -0.000632 -0.002400
# 4 -0.003785 -0.000533 0.001349 0.021479 -0.004719 -0.001221
# 5 0.001757 0.000737 -0.000632 -0.004719 0.033023 -0.002128
# 6 0.003066 0.001592 -0.002400 -0.001221 -0.002128 0.035837
#
#
# Mechanical properties :
#
#
# Convention : Reuss Voigt Hill
#
# Bulk Modulus (GPa) = 39.76301 50.28371 45.02336
# Shear Modulus (GPa) = 33.37733 37.80866 35.59300
#
# Velocity S-wave (km/s) = 3.90110 4.15200 4.02851
# Velocity P-wave (km/s) = 6.19852 6.77589 6.49363
#
# Compressibility (1/GPa) = 0.02514900
#
# Stress axis : x y z
#
# Youngs Moduli (GPa) = 54.59956 85.66034 123.06897
#
# Poissons Ratio (x) = 0.06062 0.30418
# Poissons Ratio (y) = 0.03864 0.40656
# Poissons Ratio (z) = 0.13495 0.28298
#
# Static dielectric constant tensor:
#      x y z
#    x 3.349550 0.118830 -0.138970 
#    y 0.118830 4.093920 0.021810 
#    z -0.138970 0.021810 4.221290 
# 
# 
# High freq. dielectric constant tensor:
#      x y z
#    x 1.862650 0.001220 -0.001550 
#    y 0.001220 1.871140 0.004440 
#    z -0.001550 0.004440 1.881980 
# 
# From -- ./inp_files/48427.got.cif
#   From: 2010.06.25/outbox.cif.g09.slc.cpg/sg2_25_cif.got.tgz:48427.got - 2010.06.27 13:26:56.
