data_PCOD8027943
_publ_section_title
;
Structure prediction by ZEFSAII (Michael W. Deem and Ramdas Pophale) SiO2 
 PCOD8027943
Probable space group: P -1
;
_chemical_formula_sum "Si O2"
_cell_formula_units_Z 16
_cell_length_a 17.254936
_cell_length_b 14.644249
_cell_length_c 5.203716
_cell_angle_alpha 89.127848
_cell_angle_beta 81.744775
_cell_angle_gamma 149.599839
_cell_volume 632.597034
_symmetry_space_group_name_H-M "P -1"
_symmetry_group_IT_number 2
_symmetry_cell_setting 'triclinic'
loop_
_space_group_symop_operation_xyz
x,y,z
-x,-y,-z
loop_
_atom_site_type_symbol
_atom_site_label
_atom_site_fract_x
_atom_site_fract_y
_atom_site_fract_z
Si Si1 0.230183 0.368718 0.256410
Si Si2 0.057789 0.690212 0.844993
Si Si3 0.770243 0.279524 0.906903
Si Si4 0.469191 0.045173 0.310707
Si Si5 0.907837 0.694354 0.206559
Si Si6 0.400789 0.262904 0.985787
Si Si7 0.105901 0.066559 0.168367
Si Si8 0.665760 0.914120 0.472680
O O1 0.222129 0.433511 0.492624
O O2 0.123512 0.165738 0.374744
O O3 0.168680 0.349221 0.021276
O O4 0.412868 0.522375 0.130814
O O5 0.919561 0.497552 0.754738
O O6 0.152708 0.858477 0.612335
O O7 0.181945 0.739694 0.883416
O O8 0.976449 0.662614 0.125652
O O9 0.710643 0.154309 0.710110
O O10 0.617704 0.190378 0.036518
O O11 0.470854 0.148336 0.417327
O O12 0.500000 0.000000 0.500000
O O13 0.043347 0.900007 0.258063
O O14 0.291994 0.241223 0.979689
O O15 0.354990 0.184135 0.299842
O O16 0.357251 0.141831 0.804197
O O17 0.000000 0.000000 0.000000
#
# Coordination Sequence:
#
# PCOD8027943 Si02
#       8
#     2   2   2   2   2   2   2   2
#     4  11  26  46  71 110 142 192 242 294 363 435
#     4  11  24  48  71 108 145 194 248 301 363 436
#     4  10  25  47  72 104 145 195 244 301 366 432
#     4  11  24  45  70 102 144 192 236 304 364 432
#     4  11  25  45  73 106 147 190 238 304 359 429
#     4  12  27  47  76 106 145 193 239 303 364 432
#     4  10  24  49  76 107 147 190 239 301 366 437
#     4  12  27  46  74 107 146 189 248 301 364 427
#
# _framework density 25.292563999999999
#
# number of rings (size 3 to 8) (size 9 to 14) (size 15 to 20)
#    0.000    1.000    2.500    2.250    7.000    2.500 
#    2.250    4.375    0.000    0.000    0.000    0.000 
#    0.000    0.000    0.000    0.000    0.000    0.000 
#
# Total GULP energy -198287.660731 kJ/mol
# GULP energy per Si atom -12392.978796 kJ/mol
# Density = 2.523500 g / cm^3
# Si number density = 25.292564 Si / 1000 Ang^3
#
#
#
# Elastic Constant Matrix: (Units=GPa)
#
#
# Indices 1 2 3 4 5 6 
#
# 1 109.0488 27.9661 7.8578 9.9726 -23.2525 8.2670
# 2 27.9661 112.6318 10.4571 -3.3927 10.0939 4.9223
# 3 7.8578 10.4571 72.4499 14.6120 3.5650 1.2112
# 4 9.9726 -3.3927 14.6120 36.3448 -11.1047 -5.6960
# 5 -23.2525 10.0939 3.5650 -11.1047 38.8023 3.4948
# 6 8.2670 4.9223 1.2112 -5.6960 3.4948 38.2384
#
#
#
# Elastic Compliance Matrix: (Units=1/GPa)
#
#
# Indices 1 2 3 4 5 6 
#
# 1 0.012285 -0.003613 -0.000905 -0.001298 0.008294 -0.003114
# 2 -0.003613 0.010304 -0.001086 0.001037 -0.004453 0.000051
# 3 -0.000905 -0.001086 0.015769 -0.007491 -0.003768 -0.000935
# 4 -0.001298 0.001037 -0.007491 0.034491 0.009089 0.004692
# 5 0.008294 -0.004453 -0.003768 0.009089 0.035114 -0.002956
# 6 -0.003114 0.000051 -0.000935 0.004692 -0.002956 0.027817
#
#
# Mechanical properties :
#
#
# Convention : Reuss Voigt Hill
#
# Bulk Modulus (GPa) = 36.83155 42.96585 39.89870
# Shear Modulus (GPa) = 32.04307 39.20040 35.62173
#
# Velocity S-wave (km/s) = 3.56321 3.94112 3.75692
# Velocity P-wave (km/s) = 5.61449 6.14283 5.88459
#
# Compressibility (1/GPa) = 0.02715064
#
# Stress axis : x y z
#
# Youngs Moduli (GPa) = 81.39885 97.04507 63.41358
#
# Poissons Ratio (x) = 0.35059 0.05741
# Poissons Ratio (y) = 0.29406 0.06889
# Poissons Ratio (z) = 0.07369 0.10543
#
# Static dielectric constant tensor:
#      x y z
#    x 5.103020 0.225160 -0.749390 
#    y 0.225160 5.043680 -0.164930 
#    z -0.749390 -0.164930 4.493450 
# 
# 
# High freq. dielectric constant tensor:
#      x y z
#    x 2.018800 0.005830 -0.029470 
#    y 0.005830 2.020620 0.002660 
#    z -0.029470 0.002660 1.995080 
# 
# From -- ./inp_files/110838.got.cif
#   From: 2010.06.25/outbox.cif.g09.slc.cpg/sg2_56_cif.got.tgz:110838.got - 2010.06.27 13:26:56.
