data_PCOD8027083
_publ_section_title
;
Structure prediction by ZEFSAII (Michael W. Deem and Ramdas Pophale) SiO2 
 PCOD8027083
Probable space group: P -1
;
_chemical_formula_sum "Si O2"
_cell_formula_units_Z 14
_cell_length_a 18.353445
_cell_length_b 6.498486
_cell_length_c 8.815989
_cell_angle_alpha 127.510942
_cell_angle_beta 131.926059
_cell_angle_gamma 75.045808
_cell_volume 600.505436
_symmetry_space_group_name_H-M "P -1"
_symmetry_group_IT_number 2
_symmetry_cell_setting 'triclinic'
loop_
_space_group_symop_operation_xyz
x,y,z
-x,-y,-z
loop_
_atom_site_type_symbol
_atom_site_label
_atom_site_fract_x
_atom_site_fract_y
_atom_site_fract_z
Si Si1 0.072911 0.766037 0.650271
Si Si2 0.461044 0.868884 0.182332
Si Si3 0.244811 0.128189 0.576895
Si Si4 0.357061 0.731214 0.482724
Si Si5 0.726049 0.319359 0.975922
Si Si6 0.370257 0.419102 0.631047
Si Si7 0.958820 0.213568 0.736476
O O1 0.077376 0.739454 0.462443
O O2 0.000000 0.500000 0.500000
O O3 0.182697 0.791765 0.884766
O O4 0.041067 0.037943 0.769561
O O5 0.377205 0.882807 0.198069
O O6 0.538930 0.721423 0.299784
O O7 0.524915 0.165208 0.355389
O O8 0.405006 0.709088 0.888434
O O9 0.267891 0.242761 0.488586
O O10 0.325670 0.954758 0.646132
O O11 0.131852 0.949509 0.357689
O O12 0.265708 0.374955 0.831633
O O13 0.277539 0.680310 0.210746
O O14 0.343679 0.459751 0.437603
O O15 0.000000 0.500000 0.000000
#
# Coordination Sequence:
#
# PCOD8027083 Si02
#       7
#     2   2   2   2   2   2   2
#     4  11  26  50  71 106 142 179 237 299 348 427
#     4   9  20  41  63 103 141 178 231 289 338 405
#     4  10  24  44  67 103 136 179 232 284 349 415
#     4  11  23  40  70 104 137 187 233 276 346 422
#     4  11  24  45  69  99 147 182 229 287 350 414
#     4   9  20  42  67  99 142 180 232 282 337 421
#     4  11  27  49  77 103 136 185 239 292 364 414
#
# _framework density 23.313693000000001
#
# number of rings (size 3 to 8) (size 9 to 14) (size 15 to 20)
#    0.000    1.714    1.429    1.714    6.000    2.286 
#    7.714    0.000    0.000    0.000    0.000    0.000 
#    0.000    0.000    0.000    0.000    0.000    0.000 
#
# Total GULP energy -173577.969983 kJ/mol
# GULP energy per Si atom -12398.426427 kJ/mol
# Density = 2.326063 g / cm^3
# Si number density = 23.313693 Si / 1000 Ang^3
#
#
#
# Elastic Constant Matrix: (Units=GPa)
#
#
# Indices 1 2 3 4 5 6 
#
# 1 137.7803 79.5946 66.3903 -13.5541 25.7345 16.4804
# 2 79.5946 144.4528 74.4599 -12.7934 -0.6990 24.3835
# 3 66.3903 74.4599 113.0968 -7.7110 5.3208 11.3106
# 4 -13.5541 -12.7934 -7.7110 41.3966 3.5637 -3.7290
# 5 25.7345 -0.6990 5.3208 3.5637 25.1637 6.5788
# 6 16.4804 24.3835 11.3106 -3.7290 6.5788 38.3325
#
#
#
# Elastic Compliance Matrix: (Units=1/GPa)
#
#
# Indices 1 2 3 4 5 6 
#
# 1 0.016989 -0.007184 -0.004317 0.004250 -0.017787 0.002006
# 2 -0.007184 0.014796 -0.005387 -0.000295 0.010662 -0.006592
# 3 -0.004317 -0.005387 0.014780 -0.000347 0.001002 0.000716
# 4 0.004250 -0.000295 -0.000347 0.026366 -0.008673 0.002516
# 5 -0.017787 0.010662 0.001002 -0.008673 0.062101 -0.010932
# 6 0.002006 -0.006592 0.000716 0.002516 -0.010932 0.031328
#
#
# Mechanical properties :
#
#
# Convention : Reuss Voigt Hill
#
# Bulk Modulus (GPa) = 78.18721 92.91329 85.55025
# Shear Modulus (GPa) = 24.46216 32.63758 28.54987
#
# Velocity S-wave (km/s) = 3.24274 3.74563 3.50322
# Velocity P-wave (km/s) = 6.90148 7.65809 7.28960
#
# Compressibility (1/GPa) = 0.01278982
#
# Stress axis : x y z
#
# Youngs Moduli (GPa) = 58.86329 67.58681 67.65807
#
# Poissons Ratio (x) = 0.48552 0.29208
# Poissons Ratio (y) = 0.42286 0.36444
# Poissons Ratio (z) = 0.25412 0.36406
#
# Static dielectric constant tensor:
#      x y z
#    x 4.535990 0.056010 0.084010 
#    y 0.056010 4.252480 0.130980 
#    z 0.084010 0.130980 4.185520 
# 
# 
# High freq. dielectric constant tensor:
#      x y z
#    x 1.932700 0.003980 -0.002710 
#    y 0.003980 1.926100 0.010500 
#    z -0.002710 0.010500 1.913320 
# 
# From -- ./inp_files/324196.got.cif
#   From: 2010.06.25/outbox.cif.g09.slc.cpg/sg2_163_cif.got.tgz:324196.got - 2010.06.27 13:26:56.
