data_PCOD8027348
_publ_section_title
;
Structure prediction by ZEFSAII (Michael W. Deem and Ramdas Pophale) SiO2 
 PCOD8027348
Probable space group: P -1
;
_chemical_formula_sum "Si O2"
_cell_formula_units_Z 16
_cell_length_a 15.001817
_cell_length_b 9.831238
_cell_length_c 9.169368
_cell_angle_alpha 70.084349
_cell_angle_beta 104.313550
_cell_angle_gamma 49.706095
_cell_volume 735.374081
_symmetry_space_group_name_H-M "P -1"
_symmetry_group_IT_number 2
_symmetry_cell_setting 'triclinic'
loop_
_space_group_symop_operation_xyz
x,y,z
-x,-y,-z
loop_
_atom_site_type_symbol
_atom_site_label
_atom_site_fract_x
_atom_site_fract_y
_atom_site_fract_z
Si Si1 0.045029 0.042718 0.363252
Si Si2 0.885621 0.733067 0.266916
Si Si3 0.053334 0.376653 0.219607
Si Si4 0.817850 0.138786 0.100463
Si Si5 0.459863 0.910733 0.925638
Si Si6 0.585637 0.025161 0.455164
Si Si7 0.651845 0.401234 0.238439
Si Si8 0.454917 0.481803 0.335808
O O1 0.224659 0.778922 0.514341
O O2 0.028648 0.237467 0.296619
O O3 0.000000 0.000000 0.500000
O O4 0.939221 0.119088 0.161146
O O5 0.000000 0.500000 0.500000
O O6 0.926557 0.626105 0.164630
O O7 0.914853 0.867818 0.239135
O O8 0.706822 0.935678 0.153555
O O9 0.228539 0.206556 0.382266
O O10 0.000000 0.500000 0.000000
O O11 0.710413 0.271605 0.153326
O O12 0.728330 0.277857 0.859815
O O13 0.469255 0.911302 0.756191
O O14 0.600107 0.630988 0.129347
O O15 0.500000 0.000000 0.000000
O O16 0.500000 0.000000 0.500000
O O17 0.521906 0.236913 0.449707
O O18 0.510438 0.485904 0.206710
O O19 0.500000 0.500000 0.500000
#
# Coordination Sequence:
#
# PCOD8027348 Si02
#       8
#     2   2   2   2   2   2   2   2
#     4  10  24  44  77 104 139 194 248 300 366 443
#     4  12  25  45  71 108 148 191 250 304 372 444
#     4  12  29  48  73 108 158 201 239 309 385 449
#     4  11  24  43  74 105 137 189 247 309 358 433
#     4  12  28  44  78 112 146 192 253 313 369 442
#     4  12  29  51  74 108 153 196 243 309 384 441
#     4  11  22  46  73 102 139 188 249 300 364 424
#     4  12  26  45  72 102 144 190 245 299 360 437
#
# _framework density 21.757635000000001
#
# number of rings (size 3 to 8) (size 9 to 14) (size 15 to 20)
#    0.000    0.500    5.000    2.625   12.250    0.000 
#    0.000    1.250    0.000    0.000    0.000    0.000 
#    0.000    0.000    0.000    0.000    0.000    0.000 
#
# Total GULP energy -198224.417539 kJ/mol
# GULP energy per Si atom -12389.026096 kJ/mol
# Density = 2.170811 g / cm^3
# Si number density = 21.757635 Si / 1000 Ang^3
#
#
#
# Elastic Constant Matrix: (Units=GPa)
#
#
# Indices 1 2 3 4 5 6 
#
# 1 116.8736 55.4613 27.8453 6.5228 -1.6432 22.0829
# 2 55.4613 165.0694 61.8403 -4.9535 -7.7308 28.0577
# 3 27.8453 61.8403 130.7296 3.5320 12.4814 10.3173
# 4 6.5228 -4.9535 3.5320 37.3554 6.6968 -0.6276
# 5 -1.6432 -7.7308 12.4814 6.6968 37.4820 0.7756
# 6 22.0829 28.0577 10.3173 -0.6276 0.7756 33.8906
#
#
#
# Elastic Compliance Matrix: (Units=1/GPa)
#
#
# Indices 1 2 3 4 5 6 
#
# 1 0.011049 -0.002662 -0.000714 -0.002423 0.000706 -0.004839
# 2 -0.002662 0.009398 -0.003809 0.001463 0.002931 -0.004926
# 3 -0.000714 -0.003809 0.009952 -0.000586 -0.004040 0.000671
# 4 -0.002423 0.001463 -0.000586 0.028303 -0.004691 0.001177
# 5 0.000706 0.002931 -0.004040 -0.004691 0.029548 -0.002420
# 6 -0.004839 -0.004926 0.000671 0.001177 -0.002420 0.036611
#
#
# Mechanical properties :
#
#
# Convention : Reuss Voigt Hill
#
# Bulk Modulus (GPa) = 62.38916 78.10740 70.24828
# Shear Modulus (GPa) = 34.58401 39.58063 37.08232
#
# Velocity S-wave (km/s) = 3.99119 4.26979 4.13284
# Velocity P-wave (km/s) = 7.06940 7.76434 7.42500
#
# Compressibility (1/GPa) = 0.01602843
#
# Stress axis : x y z
#
# Youngs Moduli (GPa) = 90.50507 106.40611 100.48192
#
# Poissons Ratio (x) = 0.28323 0.07178
# Poissons Ratio (y) = 0.24091 0.38275
# Poissons Ratio (z) = 0.06465 0.40532
#
# Static dielectric constant tensor:
#      x y z
#    x 4.275320 0.051080 0.353360 
#    y 0.051080 3.703140 -0.084250 
#    z 0.353360 -0.084250 4.212220 
# 
# 
# High freq. dielectric constant tensor:
#      x y z
#    x 1.857230 0.007610 0.009760 
#    y 0.007610 1.859850 -0.010470 
#    z 0.009760 -0.010470 1.874530 
# 
# From -- ./inp_files/298289.got.cif
#   From: 2010.06.25/outbox.cif.g09.slc.cpg/sg2_150_cif.got.tgz:298289.got - 2010.06.27 13:26:56.
