data_PCOD8027276
_publ_section_title
;
Structure prediction by ZEFSAII (Michael W. Deem and Ramdas Pophale) SiO2 
 PCOD8027276
Probable space group: P -1
;
_chemical_formula_sum "Si O2"
_cell_formula_units_Z 16
_cell_length_a 14.870234
_cell_length_b 9.083592
_cell_length_c 15.235766
_cell_angle_alpha 35.833471
_cell_angle_beta 40.282883
_cell_angle_gamma 42.737224
_cell_volume 741.494270
_symmetry_space_group_name_H-M "P -1"
_symmetry_group_IT_number 2
_symmetry_cell_setting 'triclinic'
loop_
_space_group_symop_operation_xyz
x,y,z
-x,-y,-z
loop_
_atom_site_type_symbol
_atom_site_label
_atom_site_fract_x
_atom_site_fract_y
_atom_site_fract_z
Si Si1 0.154870 0.118141 0.118436
Si Si2 0.348471 0.216182 0.530903
Si Si3 0.622093 0.387844 0.534033
Si Si4 0.341602 0.523120 0.069248
Si Si5 0.837538 0.470340 0.640879
Si Si6 0.856001 0.507805 0.196727
Si Si7 0.368671 0.086533 0.124434
Si Si8 0.851880 0.944981 0.116299
O O1 0.221494 0.107128 0.171041
O O2 0.986615 0.286340 0.162329
O O3 0.160276 0.831967 0.218915
O O4 0.230048 0.276620 0.917771
O O5 0.386568 0.407451 0.480522
O O6 0.271160 0.375715 0.427285
O O7 0.500000 0.000000 0.500000
O O8 0.232689 0.080654 0.719727
O O9 0.500000 0.500000 0.500000
O O10 0.766028 0.338072 0.392469
O O11 0.611196 0.117239 0.712508
O O12 0.241867 0.415718 0.263164
O O13 0.359452 0.365775 0.040154
O O14 0.500000 0.500000 0.000000
O O15 0.259200 0.829293 0.966824
O O16 0.000000 0.500000 0.500000
O O17 0.905616 0.671799 0.155859
O O18 0.500000 0.000000 0.000000
O O19 0.000000 0.000000 0.000000
#
# Coordination Sequence:
#
# PCOD8027276 Si02
#       8
#     2   2   2   2   2   2   2   2
#     4  11  23  47  71 100 141 183 235 285 351 421
#     4  11  26  45  71 101 142 182 234 292 349 417
#     4  11  26  45  68 100 139 181 238 287 351 418
#     4  12  27  45  74 100 141 184 232 290 353 420
#     4  12  26  46  72 109 143 186 237 294 354 424
#     4  10  24  44  71  99 138 184 229 290 346 420
#     4  12  27  45  72 102 138 184 236 288 352 419
#     4  11  23  45  68 101 137 181 231 281 348 415
#
# _framework density 21.578047999999999
#
# number of rings (size 3 to 8) (size 9 to 14) (size 15 to 20)
#    0.000    0.750    2.500    3.750    8.750    1.500 
#    2.250    0.000    0.000    0.000    0.000    0.000 
#    0.000    0.000    0.000    0.000    0.000    0.000 
#
# Total GULP energy -198381.180701 kJ/mol
# GULP energy per Si atom -12398.823794 kJ/mol
# Density = 2.152894 g / cm^3
# Si number density = 21.578048 Si / 1000 Ang^3
#
#
#
# Elastic Constant Matrix: (Units=GPa)
#
#
# Indices 1 2 3 4 5 6 
#
# 1 97.7871 36.4230 19.9125 -3.4135 5.6174 -4.8267
# 2 36.4230 102.0737 42.0378 8.6035 4.5416 -7.8395
# 3 19.9125 42.0378 127.8296 3.1947 16.4776 -6.5865
# 4 -3.4135 8.6035 3.1947 34.4789 -2.9127 10.0422
# 5 5.6174 4.5416 16.4776 -2.9127 42.0174 -2.4253
# 6 -4.8267 -7.8395 -6.5865 10.0422 -2.4253 36.9920
#
#
#
# Elastic Compliance Matrix: (Units=1/GPa)
#
#
# Indices 1 2 3 4 5 6 
#
# 1 0.012027 -0.004277 -0.000420 0.002249 -0.000829 -0.000077
# 2 -0.004277 0.013324 -0.003515 -0.004208 0.000380 0.002807
# 3 -0.000420 -0.003515 0.009526 -0.000568 -0.003291 0.000835
# 4 0.002249 -0.004208 -0.000568 0.033305 0.002132 -0.009601
# 5 -0.000829 0.000380 -0.003291 0.002132 0.025335 0.000469
# 6 -0.000077 0.002807 0.000835 -0.009601 0.000469 0.030403
#
#
# Mechanical properties :
#
#
# Convention : Reuss Voigt Hill
#
# Bulk Modulus (GPa) = 54.19263 58.27079 56.23171
# Shear Modulus (GPa) = 34.13080 37.98546 36.05813
#
# Velocity S-wave (km/s) = 3.98142 4.20023 4.09229
# Velocity P-wave (km/s) = 6.80477 7.11238 6.96027
#
# Compressibility (1/GPa) = 0.01845269
#
# Stress axis : x y z
#
# Youngs Moduli (GPa) = 83.14346 75.05307 104.98045
#
# Poissons Ratio (x) = 0.32102 0.04411
# Poissons Ratio (y) = 0.35563 0.36896
# Poissons Ratio (z) = 0.03494 0.26378
#
# Static dielectric constant tensor:
#      x y z
#    x 3.914910 0.018170 0.315410 
#    y 0.018170 3.833900 0.000770 
#    z 0.315410 0.000770 4.324580 
# 
# 
# High freq. dielectric constant tensor:
#      x y z
#    x 1.853310 -0.000300 0.011280 
#    y -0.000300 1.856520 0.003700 
#    z 0.011280 0.003700 1.865070 
# 
# From -- ./inp_files/209142.got.cif
#   From: 2010.06.25/outbox.cif.g09.slc.cpg/sg2_105_cif.got.tgz:209142.got - 2010.06.27 13:26:56.
