data_PCOD8027530
_publ_section_title
;
Structure prediction by ZEFSAII (Michael W. Deem and Ramdas Pophale) SiO2 
 PCOD8027530
Probable space group: P -1
;
_chemical_formula_sum "Si O2"
_cell_formula_units_Z 16
_cell_length_a 9.256363
_cell_length_b 23.526752
_cell_length_c 9.509474
_cell_angle_alpha 128.098745
_cell_angle_beta 134.721048
_cell_angle_gamma 27.102879
_cell_volume 670.100422
_symmetry_space_group_name_H-M "P -1"
_symmetry_group_IT_number 2
_symmetry_cell_setting 'triclinic'
loop_
_space_group_symop_operation_xyz
x,y,z
-x,-y,-z
loop_
_atom_site_type_symbol
_atom_site_label
_atom_site_fract_x
_atom_site_fract_y
_atom_site_fract_z
Si Si1 0.678373 0.371683 0.938962
Si Si2 0.292718 0.000363 0.273352
Si Si3 0.413681 0.189508 0.309344
Si Si4 0.255538 0.018765 0.952297
Si Si5 0.510428 0.694250 0.098109
Si Si6 0.318104 0.723524 0.711875
Si Si7 0.290138 0.213126 0.577253
Si Si8 0.382155 0.363963 0.509234
O O1 0.427182 0.393226 0.895025
O O2 0.678540 0.332199 0.726732
O O3 0.500000 0.500000 0.000000
O O4 0.063500 0.268579 0.106713
O O5 0.883944 0.140520 0.222412
O O6 0.500000 0.000000 0.500000
O O7 0.388582 0.897612 0.261415
O O8 0.399181 0.967082 0.131253
O O9 0.393833 0.162247 0.411099
O O10 0.463030 0.260626 0.463822
O O11 0.735880 0.060563 0.246354
O O12 0.869737 0.162866 0.907270
O O13 0.500000 0.000000 0.000000
O O14 0.788991 0.678100 0.295147
O O15 0.546795 0.654751 0.904548
O O16 0.594325 0.640019 0.648243
O O17 0.055176 0.731721 0.535547
O O18 0.000000 0.500000 0.500000
#
# Coordination Sequence:
#
# PCOD8027530 Si02
#       8
#     2   2   2   2   2   2   2   2
#     4  12  25  48  74  96 142 186 236 304 352 416
#     4   9  21  38  64 104 145 189 229 273 352 428
#     4  12  25  44  71 103 149 186 235 297 355 416
#     4  11  22  39  69 109 153 187 234 291 354 428
#     4  11  24  43  71 108 144 186 236 286 358 431
#     4  10  24  45  70  99 147 185 232 293 352 423
#     4  11  23  43  68 103 150 184 232 283 354 432
#     4  12  28  48  72 106 131 185 252 295 356 428
#
# _framework density 23.877016999999999
#
# number of rings (size 3 to 8) (size 9 to 14) (size 15 to 20)
#    0.000    1.000    5.000    1.500    7.000    2.500 
#    0.000    3.125    0.000    0.000    0.000    0.000 
#    0.000    0.000    0.000    0.000    0.000    0.000 
#
# Total GULP energy -198388.226581 kJ/mol
# GULP energy per Si atom -12399.264161 kJ/mol
# Density = 2.382267 g / cm^3
# Si number density = 23.877017 Si / 1000 Ang^3
#
#
#
# Elastic Constant Matrix: (Units=GPa)
#
#
# Indices 1 2 3 4 5 6 
#
# 1 125.0253 50.2261 51.9159 22.2662 -21.0696 10.8505
# 2 50.2261 60.8843 37.2775 16.6698 -13.5746 10.4278
# 3 51.9159 37.2775 123.5080 11.6298 -14.8074 5.0600
# 4 22.2662 16.6698 11.6298 34.2917 0.9942 1.2049
# 5 -21.0696 -13.5746 -14.8074 0.9942 58.7593 8.3131
# 6 10.8505 10.4278 5.0600 1.2049 8.3131 38.5873
#
#
#
# Elastic Compliance Matrix: (Units=1/GPa)
#
#
# Indices 1 2 3 4 5 6 
#
# 1 0.013442 -0.007367 -0.002609 -0.004276 0.002804 -0.001917
# 2 -0.007367 0.029141 -0.004242 -0.007854 0.003984 -0.005860
# 3 -0.002609 -0.004242 0.010527 0.000154 0.000686 0.000347
# 4 -0.004276 -0.007854 0.000154 0.035720 -0.004356 0.003128
# 5 0.002804 0.003984 0.000686 -0.004356 0.020060 -0.006141
# 6 -0.001917 -0.005860 0.000347 0.003128 -0.006141 0.029218
#
#
# Mechanical properties :
#
#
# Convention : Reuss Voigt Hill
#
# Bulk Modulus (GPa) = 40.52781 65.36185 52.94483
# Shear Modulus (GPa) = 28.60940 37.66086 33.13513
#
# Velocity S-wave (km/s) = 3.46526 3.97581 3.72928
# Velocity P-wave (km/s) = 5.74640 6.96491 6.38479
#
# Compressibility (1/GPa) = 0.02467441
#
# Stress axis : x y z
#
# Youngs Moduli (GPa) = 74.39479 34.31591 94.99235
#
# Poissons Ratio (x) = 0.25280 0.24787
# Poissons Ratio (y) = 0.54805 0.40292
# Poissons Ratio (z) = 0.19412 0.14555
#
# Static dielectric constant tensor:
#      x y z
#    x 4.714730 0.567800 -0.071110 
#    y 0.567800 4.595220 0.145200 
#    z -0.071110 0.145200 4.735420 
# 
# 
# High freq. dielectric constant tensor:
#      x y z
#    x 1.952530 0.020470 -0.004600 
#    y 0.020470 1.920870 0.002230 
#    z -0.004600 0.002230 1.970140 
# 
# From -- ./inp_files/226562.got.cif
#   From: 2010.06.25/outbox.cif.g09.slc.cpg/sg2_114_cif.got.tgz:226562.got - 2010.06.27 13:26:56.
