data_PCOD8027959
_publ_section_title
;
Structure prediction by ZEFSAII (Michael W. Deem and Ramdas Pophale) SiO2 
 PCOD8027959
Probable space group: P -1
;
_chemical_formula_sum "Si O2"
_cell_formula_units_Z 16
_cell_length_a 14.470624
_cell_length_b 11.261333
_cell_length_c 9.216721
_cell_angle_alpha 68.895012
_cell_angle_beta 73.282650
_cell_angle_gamma 27.562627
_cell_volume 646.623358
_symmetry_space_group_name_H-M "P -1"
_symmetry_group_IT_number 2
_symmetry_cell_setting 'triclinic'
loop_
_space_group_symop_operation_xyz
x,y,z
-x,-y,-z
loop_
_atom_site_type_symbol
_atom_site_label
_atom_site_fract_x
_atom_site_fract_y
_atom_site_fract_z
Si Si1 0.715322 0.817197 0.824830
Si Si2 0.593491 0.617714 0.248350
Si Si3 0.060311 0.498642 0.618425
Si Si4 0.086025 0.646698 0.965325
Si Si5 0.191071 0.717577 0.109349
Si Si6 0.546119 0.090092 0.247936
Si Si7 0.624467 0.242523 0.958489
Si Si8 0.301558 0.464722 0.448523
O O1 0.589769 0.869959 0.755875
O O2 0.866961 0.732417 0.705445
O O3 0.555749 0.092205 0.857001
O O4 0.850686 0.574874 0.979074
O O5 0.820659 0.388033 0.199476
O O6 0.507728 0.599325 0.200222
O O7 0.600529 0.581375 0.433362
O O8 0.141237 0.546165 0.535634
O O9 0.000000 0.500000 0.500000
O O10 0.225820 0.215692 0.739997
O O11 0.201676 0.566889 0.093080
O O12 0.849268 0.939388 0.947854
O O13 0.362145 0.627709 0.038309
O O14 0.185278 0.700594 0.293472
O O15 0.000000 0.000000 0.000000
O O16 0.484767 0.188968 0.399030
O O17 0.522683 0.255086 0.105696
#
# Coordination Sequence:
#
# PCOD8027959 Si02
#       8
#     2   2   2   2   2   2   2   2
#     4  12  23  42  69 106 143 185 225 280 347 424
#     4  12  27  41  68 108 151 176 223 287 362 417
#     4  12  23  39  69 103 143 185 227 284 356 401
#     4  11  23  47  70 102 141 184 237 284 333 413
#     4  10  24  50  76 100 127 185 254 283 329 412
#     4  12  23  44  69 104 140 182 239 279 336 422
#     4  11  26  45  74 101 132 194 236 282 343 406
#     4  12  25  44  68 105 145 178 227 300 344 408
#
# _framework density 24.743925999999998
#
# number of rings (size 3 to 8) (size 9 to 14) (size 15 to 20)
#    0.000    0.500    6.250    1.500    3.500    3.000 
#    0.000    2.500    0.000    0.000    0.000    0.000 
#    0.000    0.000    0.000    0.000    0.000    0.000 
#
# Total GULP energy -198315.733662 kJ/mol
# GULP energy per Si atom -12394.733354 kJ/mol
# Density = 2.468761 g / cm^3
# Si number density = 24.743926 Si / 1000 Ang^3
#
#
#
# Elastic Constant Matrix: (Units=GPa)
#
#
# Indices 1 2 3 4 5 6 
#
# 1 129.5257 27.0160 56.3485 -0.1838 0.1421 -17.7792
# 2 27.0160 84.0096 11.3406 -2.7769 -15.6118 -19.5163
# 3 56.3485 11.3406 102.2071 -1.0726 6.4424 -9.1282
# 4 -0.1838 -2.7769 -1.0726 47.8486 0.1595 -8.0471
# 5 0.1421 -15.6118 6.4424 0.1595 36.8025 3.9133
# 6 -17.7792 -19.5163 -9.1282 -8.0471 3.9133 40.8129
#
#
#
# Elastic Compliance Matrix: (Units=1/GPa)
#
#
# Indices 1 2 3 4 5 6 
#
# 1 0.010944 -0.002230 -0.005539 0.000215 -0.000289 0.002532
# 2 -0.002230 0.015212 -0.000268 0.001866 0.005857 0.006049
# 3 -0.005539 -0.000268 0.013089 0.000382 -0.002459 0.000697
# 4 0.000215 0.001866 0.000382 0.021923 0.000056 0.005389
# 5 -0.000289 0.005857 -0.002459 0.000056 0.030169 -0.000757
# 6 0.002532 0.006049 0.000697 0.005389 -0.000757 0.029789
#
#
# Mechanical properties :
#
#
# Convention : Reuss Voigt Hill
#
# Bulk Modulus (GPa) = 43.15810 56.12808 49.64309
# Shear Modulus (GPa) = 34.50109 39.82861 37.16485
#
# Velocity S-wave (km/s) = 3.73812 4.01637 3.87974
# Velocity P-wave (km/s) = 6.00925 6.65140 6.33847
#
# Compressibility (1/GPa) = 0.02317062
#
# Stress axis : x y z
#
# Youngs Moduli (GPa) = 91.37766 65.73724 76.39972
#
# Poissons Ratio (x) = 0.14658 0.42321
# Poissons Ratio (y) = 0.20375 0.02047
# Poissons Ratio (z) = 0.50618 0.01761
#
# Static dielectric constant tensor:
#      x y z
#    x 4.979280 0.108170 0.104390 
#    y 0.108170 5.213230 0.162530 
#    z 0.104390 0.162530 4.343160 
# 
# 
# High freq. dielectric constant tensor:
#      x y z
#    x 2.001550 -0.016790 0.001220 
#    y -0.016790 2.009240 0.006890 
#    z 0.001220 0.006890 1.967470 
# 
# From -- ./inp_files/306970.got.cif
#   From: 2010.06.25/outbox.cif.g09.slc.cpg/sg2_154_cif.got.tgz:306970.got - 2010.06.27 13:26:56.
