data_PCOD8027802
_publ_section_title
;
Structure prediction by ZEFSAII (Michael W. Deem and Ramdas Pophale) SiO2 
 PCOD8027802
Probable space group: P -1
;
_chemical_formula_sum "Si O2"
_cell_formula_units_Z 16
_cell_length_a 8.936051
_cell_length_b 10.880959
_cell_length_c 8.305773
_cell_angle_alpha 100.415035
_cell_angle_beta 57.171089
_cell_angle_gamma 91.045864
_cell_volume 664.319617
_symmetry_space_group_name_H-M "P -1"
_symmetry_group_IT_number 2
_symmetry_cell_setting 'triclinic'
loop_
_space_group_symop_operation_xyz
x,y,z
-x,-y,-z
loop_
_atom_site_type_symbol
_atom_site_label
_atom_site_fract_x
_atom_site_fract_y
_atom_site_fract_z
Si Si1 0.778999 0.859227 0.231676
Si Si2 0.346681 0.764243 0.978357
Si Si3 0.971229 0.615240 0.923725
Si Si4 0.550372 0.698269 0.537512
Si Si5 0.282728 0.553814 0.492393
Si Si6 0.291298 0.527819 0.124148
Si Si7 0.631293 0.892345 0.986362
Si Si8 0.942873 0.008880 0.719215
O O1 0.658987 0.807719 0.430122
O O2 0.882602 0.974266 0.268550
O O3 0.929662 0.748719 0.065516
O O4 0.648773 0.909861 0.173477
O O5 0.398457 0.763008 0.759843
O O6 0.533312 0.767787 0.972900
O O7 0.249802 0.640529 0.047104
O O8 0.205596 0.878231 0.132304
O O9 0.800096 0.593353 0.908699
O O10 0.140304 0.621449 0.712596
O O11 0.000000 0.500000 0.000000
O O12 0.463305 0.623203 0.425955
O O13 0.682327 0.595459 0.531544
O O14 0.215381 0.572756 0.353560
O O15 0.500000 0.500000 0.000000
O O16 0.837391 0.887234 0.797477
O O17 0.500000 0.000000 0.000000
O O18 0.000000 0.000000 0.500000
#
# Coordination Sequence:
#
# PCOD8027802 Si02
#       8
#     2   2   2   2   2   2   2   2
#     4  12  24  43  73 101 133 185 226 282 356 404
#     4  11  23  43  69  98 135 186 225 278 346 409
#     4  12  24  41  64 103 146 180 226 272 332 420
#     4  11  22  39  66  97 139 184 226 266 333 411
#     4  11  23  38  59  99 146 187 223 268 318 403
#     4  12  23  40  65 101 143 186 225 269 332 411
#     4  10  24  47  69  96 130 172 235 292 345 402
#     4  11  25  47  70  99 132 170 232 303 348 402
#
# _framework density 24.084793999999999
#
# number of rings (size 3 to 8) (size 9 to 14) (size 15 to 20)
#    0.000    0.750    2.500    6.000    0.000    1.000 
#    0.000   15.000    0.000    0.000    0.000    0.000 
#    0.000    0.000    0.000    0.000    0.000    0.000 
#
# Total GULP energy -198363.410121 kJ/mol
# GULP energy per Si atom -12397.713133 kJ/mol
# Density = 2.402998 g / cm^3
# Si number density = 24.084794 Si / 1000 Ang^3
#
#
#
# Elastic Constant Matrix: (Units=GPa)
#
#
# Indices 1 2 3 4 5 6 
#
# 1 119.9879 20.2123 17.0118 -9.4878 11.0274 27.6280
# 2 20.2123 45.9889 18.7842 -12.5028 -3.1286 7.8592
# 3 17.0118 18.7842 156.5115 -9.9737 10.5004 -3.7885
# 4 -9.4878 -12.5028 -9.9737 42.1986 2.3622 -7.8565
# 5 11.0274 -3.1286 10.5004 2.3622 37.6495 -1.4197
# 6 27.6280 7.8592 -3.7885 -7.8565 -1.4197 48.7196
#
#
#
# Elastic Compliance Matrix: (Units=1/GPa)
#
#
# Indices 1 2 3 4 5 6 
#
# 1 0.010657 -0.003635 -0.000601 0.000339 -0.003486 -0.005551
# 2 -0.003635 0.026535 -0.002684 0.005955 0.003593 -0.001363
# 3 -0.000601 -0.002684 0.007018 0.001109 -0.002020 0.001440
# 4 0.000339 0.005955 0.001109 0.026470 -0.001455 0.003160
# 5 -0.003486 0.003593 -0.002020 -0.001455 0.028604 0.001839
# 6 -0.005551 -0.001363 0.001440 0.003160 0.001839 0.024568
#
#
# Mechanical properties :
#
#
# Convention : Reuss Voigt Hill
#
# Bulk Modulus (GPa) = 32.92763 48.27830 40.60296
# Shear Modulus (GPa) = 33.82607 43.47887 38.65247
#
# Velocity S-wave (km/s) = 3.75168 4.25342 4.01040
# Velocity P-wave (km/s) = 5.69807 6.64912 6.19188
#
# Compressibility (1/GPa) = 0.03036963
#
# Stress axis : x y z
#
# Youngs Moduli (GPa) = 93.83529 37.68668 142.49466
#
# Poissons Ratio (x) = 0.13698 0.08563
# Poissons Ratio (y) = 0.34107 0.38247
# Poissons Ratio (z) = 0.05639 0.10115
#
# Static dielectric constant tensor:
#      x y z
#    x 4.972570 0.368810 0.212180 
#    y 0.368810 4.218990 -0.120310 
#    z 0.212180 -0.120310 4.278370 
# 
# 
# High freq. dielectric constant tensor:
#      x y z
#    x 1.970970 0.019830 0.001960 
#    y 0.019830 1.945890 -0.014310 
#    z 0.001960 -0.014310 1.956320 
# 
# From -- ./inp_files/188147.got.cif
#   From: 2010.06.25/outbox.cif.g09.slc.cpg/sg2_95_cif.got.tgz:188147.got - 2010.06.27 13:26:56.
