data_PCOD8027910
_publ_section_title
;
Structure prediction by ZEFSAII (Michael W. Deem and Ramdas Pophale) SiO2 
 PCOD8027910
Probable space group: P -1
;
_chemical_formula_sum "Si O2"
_cell_formula_units_Z 12
_cell_length_a 7.863507
_cell_length_b 17.264772
_cell_length_c 5.267266
_cell_angle_alpha 77.253678
_cell_angle_beta 62.089237
_cell_angle_gamma 48.589338
_cell_volume 469.634490
_symmetry_space_group_name_H-M "P -1"
_symmetry_group_IT_number 2
_symmetry_cell_setting 'triclinic'
loop_
_space_group_symop_operation_xyz
x,y,z
-x,-y,-z
loop_
_atom_site_type_symbol
_atom_site_label
_atom_site_fract_x
_atom_site_fract_y
_atom_site_fract_z
Si Si1 0.656144 0.975406 0.656979
Si Si2 0.838511 0.226225 0.424923
Si Si3 0.574894 0.714050 0.944275
Si Si4 0.847561 0.407641 0.230153
Si Si5 0.741659 0.524767 0.705604
Si Si6 0.221172 0.903899 0.754535
O O1 0.904150 0.854365 0.538033
O O2 0.500000 0.000000 0.500000
O O3 0.720808 0.052782 0.552991
O O4 0.500000 0.000000 0.000000
O O5 0.810096 0.324273 0.292291
O O6 0.876944 0.156570 0.212309
O O7 0.588575 0.264610 0.714193
O O8 0.544634 0.648883 0.809212
O O9 0.474115 0.822011 0.807008
O O10 0.860801 0.647940 0.886701
O O11 0.678658 0.489668 0.521782
O O12 0.753351 0.464996 0.985239
O O13 0.000000 0.500000 0.500000
O O14 0.000000 0.000000 0.000000
#
# Coordination Sequence:
#
# PCOD8027910 Si02
#       6
#     2   2   2   2   2   2
#     4  12  28  49  76 107 149 199 252 310 376 445
#     4  12  29  45  77 111 148 197 255 305 381 448
#     4  11  26  47  79 106 150 202 247 311 375 443
#     4  11  27  48  76 110 153 194 250 307 375 449
#     4  10  24  48  76 110 150 197 248 307 374 443
#     4  12  27  50  73 110 156 192 255 318 373 449
#
# _framework density 25.551783
#
# number of rings (size 3 to 8) (size 9 to 14) (size 15 to 20)
#    0.000    0.667    1.667    4.500   14.000    1.333 
#    0.000    0.000    0.000    0.000    0.000    0.000 
#    0.000    0.000    0.000    0.000    0.000    0.000 
#
# Total GULP energy -148820.391569 kJ/mol
# GULP energy per Si atom -12401.699297 kJ/mol
# Density = 2.549363 g / cm^3
# Si number density = 25.551783 Si / 1000 Ang^3
#
#
#
# Elastic Constant Matrix: (Units=GPa)
#
#
# Indices 1 2 3 4 5 6 
#
# 1 83.3701 22.7176 36.7962 8.5899 19.5332 27.1751
# 2 22.7176 180.3070 77.2684 -7.0841 3.4466 19.3230
# 3 36.7962 77.2684 174.7980 -15.5996 12.0892 16.6599
# 4 8.5899 -7.0841 -15.5996 53.2008 5.2280 -1.6166
# 5 19.5332 3.4466 12.0892 5.2280 42.3435 -1.1577
# 6 27.1751 19.3230 16.6599 -1.6166 -1.1577 52.2841
#
#
#
# Elastic Compliance Matrix: (Units=1/GPa)
#
#
# Indices 1 2 3 4 5 6 
#
# 1 0.018176 -0.000184 -0.002686 -0.003283 -0.007438 -0.008790
# 2 -0.000184 0.006981 -0.002918 0.000027 0.000304 -0.001547
# 3 -0.002686 -0.002918 0.007868 0.002458 -0.001073 0.000020
# 4 -0.003283 0.000027 0.002458 0.020259 -0.001650 0.001503
# 5 -0.007438 0.000304 -0.001073 -0.001650 0.027660 0.004657
# 6 -0.008790 -0.001547 0.000020 0.001503 0.004657 0.024410
#
#
# Mechanical properties :
#
#
# Convention : Reuss Voigt Hill
#
# Bulk Modulus (GPa) = 46.62229 79.11548 62.86889
# Shear Modulus (GPa) = 40.29667 49.67855 44.98761
#
# Velocity S-wave (km/s) = 3.97553 4.41413 4.20056
# Velocity P-wave (km/s) = 6.27367 7.55045 6.94148
#
# Compressibility (1/GPa) = 0.02144897
#
# Stress axis : x y z
#
# Youngs Moduli (GPa) = 55.01692 143.24764 127.09724
#
# Poissons Ratio (x) = 0.02636 0.34135
# Poissons Ratio (y) = 0.01012 0.37092
# Poissons Ratio (z) = 0.14776 0.41805
#
# Static dielectric constant tensor:
#      x y z
#    x 4.347190 -0.612430 0.099960 
#    y -0.612430 4.295950 0.305400 
#    z 0.099960 0.305400 4.551190 
# 
# 
# High freq. dielectric constant tensor:
#      x y z
#    x 2.032350 -0.004240 -0.004500 
#    y -0.004240 2.048810 0.001390 
#    z -0.004500 0.001390 2.025900 
# 
# From -- ./inp_files/43474.got.cif
#   From: 2010.06.25/outbox.cif.g09.slc.cpg/sg2_22_cif.got.tgz:43474.got - 2010.06.27 13:26:56.
