data_PCOD8027070
_publ_section_title
;
Structure prediction by ZEFSAII (Michael W. Deem and Ramdas Pophale) SiO2 
 PCOD8027070
Probable space group: P -1
;
_chemical_formula_sum "Si O2"
_cell_formula_units_Z 16
_cell_length_a 8.782130
_cell_length_b 7.563172
_cell_length_c 15.927958
_cell_angle_alpha 127.562845
_cell_angle_beta 69.388620
_cell_angle_gamma 125.493115
_cell_volume 682.788150
_symmetry_space_group_name_H-M "P -1"
_symmetry_group_IT_number 2
_symmetry_cell_setting 'triclinic'
loop_
_space_group_symop_operation_xyz
x,y,z
-x,-y,-z
loop_
_atom_site_type_symbol
_atom_site_label
_atom_site_fract_x
_atom_site_fract_y
_atom_site_fract_z
Si Si1 0.757261 0.008929 0.500934
Si Si2 0.021805 0.534470 0.855520
Si Si3 0.881587 0.976431 0.748461
Si Si4 0.820466 0.665648 0.508410
Si Si5 0.700679 0.028165 0.956736
Si Si6 0.597299 0.058047 0.380373
Si Si7 0.711704 0.655690 0.976097
Si Si8 0.848345 0.079625 0.202382
O O1 0.666685 0.939943 0.406245
O O2 0.962750 0.256115 0.524456
O O3 0.759641 0.759842 0.464502
O O4 0.627054 0.071336 0.605804
O O5 0.020942 0.266297 0.773887
O O6 0.809212 0.483931 0.892313
O O7 0.147624 0.695631 0.956792
O O8 0.106064 0.673747 0.791034
O O9 0.787565 0.800715 0.635044
O O10 0.730218 0.994849 0.843185
O O11 0.994123 0.858398 0.740630
O O12 0.695966 0.365014 0.458701
O O13 0.500000 0.000000 0.000000
O O14 0.722695 0.806471 0.933543
O O15 0.649385 0.987457 0.260206
O O16 0.500000 0.500000 0.000000
O O17 0.835285 0.855168 0.081757
#
# Coordination Sequence:
#
# PCOD8027070 Si02
#       8
#     2   2   2   2   2   2   2   2
#     4  10  24  44  66  99 133 175 226 276 338 388
#     4  11  24  43  68  91 139 171 216 284 325 395
#     4  12  24  42  70  99 128 182 221 265 343 394
#     4  11  25  44  70  99 138 173 229 276 336 397
#     4  11  23  43  65 100 135 172 224 274 329 402
#     4  11  24  46  70  96 140 175 220 288 329 399
#     4  11  23  44  66 100 136 174 218 280 329 400
#     4  11  24  43  68  99 129 176 224 264 345 396
#
# _framework density 23.433330000000002
#
# number of rings (size 3 to 8) (size 9 to 14) (size 15 to 20)
#    0.000    1.000    3.750    2.625    5.250    3.000 
#    6.750    0.000    0.000    0.000    0.000    0.000 
#    0.000    0.000    0.000    0.000    0.000    0.000 
#
# Total GULP energy -198435.245212 kJ/mol
# GULP energy per Si atom -12402.202826 kJ/mol
# Density = 2.338000 g / cm^3
# Si number density = 23.433330 Si / 1000 Ang^3
#
#
#
# Elastic Constant Matrix: (Units=GPa)
#
#
# Indices 1 2 3 4 5 6 
#
# 1 103.3699 25.0336 23.4754 -12.4698 -5.7033 11.4761
# 2 25.0336 90.4828 38.4005 -20.0799 -0.5305 -3.6953
# 3 23.4754 38.4005 74.7674 -21.9198 -11.4145 -13.5173
# 4 -12.4698 -20.0799 -21.9198 44.1867 8.9536 -14.2462
# 5 -5.7033 -0.5305 -11.4145 8.9536 22.6454 -8.5485
# 6 11.4761 -3.6953 -13.5173 -14.2462 -8.5485 41.9468
#
#
#
# Elastic Compliance Matrix: (Units=1/GPa)
#
#
# Indices 1 2 3 4 5 6 
#
# 1 0.011433 -0.001957 -0.003923 -0.001119 -0.000615 -0.005070
# 2 -0.001957 0.015394 -0.006896 0.004078 -0.005224 -0.000010
# 3 -0.003923 -0.006896 0.026224 0.010993 0.013539 0.015409
# 4 -0.001119 0.004078 0.010993 0.035197 -0.002666 0.015618
# 5 -0.000615 -0.005224 0.013539 -0.002666 0.057369 0.014857
# 6 -0.005070 -0.000010 0.015409 0.015618 0.014857 0.038523
#
#
# Mechanical properties :
#
#
# Convention : Reuss Voigt Hill
#
# Bulk Modulus (GPa) = 36.36584 49.15990 42.76287
# Shear Modulus (GPa) = 22.84593 33.86982 28.35787
#
# Velocity S-wave (km/s) = 3.12578 3.80593 3.48250
# Velocity P-wave (km/s) = 5.34601 6.35119 5.87016
#
# Compressibility (1/GPa) = 0.02749833
#
# Stress axis : x y z
#
# Youngs Moduli (GPa) = 87.46745 64.96198 38.13351
#
# Poissons Ratio (x) = 0.12714 0.14960
# Poissons Ratio (y) = 0.17119 0.26296
# Poissons Ratio (z) = 0.34314 0.44796
#
# Static dielectric constant tensor:
#      x y z
#    x 4.335860 -0.047080 -0.040970 
#    y -0.047080 4.470100 -0.351700 
#    z -0.040970 -0.351700 4.056600 
# 
# 
# High freq. dielectric constant tensor:
#      x y z
#    x 1.935540 -0.009230 -0.007610 
#    y -0.009230 1.936530 -0.027510 
#    z -0.007610 -0.027510 1.910900 
# 
# From -- ./inp_files/556540.got.cif
#   From: 2010.06.25/outbox.cif.g09.slc.cpg/sg2_279_cif.got.tgz:556540.got - 2010.06.27 13:26:56.
