data_PCOD8027479
_publ_section_title
;
Structure prediction by ZEFSAII (Michael W. Deem and Ramdas Pophale) SiO2 
 PCOD8027479
Probable space group: P -1
;
_chemical_formula_sum "Si O2"
_cell_formula_units_Z 10
_cell_length_a 8.846956
_cell_length_b 13.933652
_cell_length_c 10.863818
_cell_angle_alpha 150.945945
_cell_angle_beta 119.823213
_cell_angle_gamma 43.136006
_cell_volume 402.850180
_symmetry_space_group_name_H-M "P -1"
_symmetry_group_IT_number 2
_symmetry_cell_setting 'triclinic'
loop_
_space_group_symop_operation_xyz
x,y,z
-x,-y,-z
loop_
_atom_site_type_symbol
_atom_site_label
_atom_site_fract_x
_atom_site_fract_y
_atom_site_fract_z
Si Si1 0.454730 0.911036 0.748116
Si Si2 0.943698 0.449878 0.050694
Si Si3 0.693439 0.515071 0.608351
Si Si4 0.610270 0.485354 0.805333
Si Si5 0.227987 0.109690 0.337251
O O1 0.557312 0.810560 0.819508
O O2 0.450056 0.695156 0.444817
O O3 0.643582 0.896554 0.735261
O O4 0.179929 0.216886 0.970055
O O5 0.770055 0.734134 0.375919
O O6 0.791017 0.370322 0.867043
O O7 0.000000 0.500000 0.000000
O O8 0.500000 0.500000 0.500000
O O9 0.740509 0.493427 0.749743
O O10 0.949491 0.270474 0.369754
O O11 0.360971 0.802359 0.087227
#
# Coordination Sequence:
#
# PCOD8027479 Si02
#       5
#     2   2   2   2   2
#     4  11  26  43  71 102 132 179 224 271 333 397
#     4  12  24  46  69  97 139 178 219 277 335 392
#     4  10  24  45  69  98 138 175 219 276 336 395
#     4  11  25  46  70 100 138 175 221 274 333 399
#     4  12  24  43  72  98 136 172 229 274 331 391
#
# _framework density 24.823122000000001
#
# number of rings (size 3 to 8) (size 9 to 14) (size 15 to 20)
#    0.000    0.800    4.000    1.800    0.000   12.000 
#    0.000    0.000    0.000    0.000    0.000    0.000 
#    0.000    0.000    0.000    0.000    0.000    0.000 
#
# Total GULP energy -123956.605163 kJ/mol
# GULP energy per Si atom -12395.660516 kJ/mol
# Density = 2.476662 g / cm^3
# Si number density = 24.823122 Si / 1000 Ang^3
#
#
#
# Elastic Constant Matrix: (Units=GPa)
#
#
# Indices 1 2 3 4 5 6 
#
# 1 105.0851 39.2767 33.8759 11.6532 -2.0921 -22.1730
# 2 39.2767 170.5883 27.1435 7.0712 -3.5099 -23.1715
# 3 33.8759 27.1435 126.2030 20.4186 -0.9915 -3.9665
# 4 11.6532 7.0712 20.4186 49.2019 -1.1520 -3.7522
# 5 -2.0921 -3.5099 -0.9915 -1.1520 42.3542 0.4669
# 6 -22.1730 -23.1715 -3.9665 -3.7522 0.4669 37.0951
#
#
#
# Elastic Compliance Matrix: (Units=1/GPa)
#
#
# Indices 1 2 3 4 5 6 
#
# 1 0.012337 -0.001557 -0.002599 -0.001154 0.000322 0.006003
# 2 -0.001557 0.006817 -0.000950 0.000039 0.000431 0.003224
# 3 -0.002599 -0.000950 0.009300 -0.003222 -0.000061 -0.001477
# 4 -0.001154 0.000039 -0.003222 0.022032 0.000457 0.001213
# 5 0.000322 0.000431 -0.000061 0.000457 0.023671 0.000204
# 6 0.006003 0.003224 -0.001477 0.001213 0.000204 0.032522
#
#
# Mechanical properties :
#
#
# Convention : Reuss Voigt Hill
#
# Bulk Modulus (GPa) = 54.81711 66.94095 60.87903
# Shear Modulus (GPa) = 40.66005 45.83559 43.24782
#
# Velocity S-wave (km/s) = 4.05160 4.30174 4.17854
# Velocity P-wave (km/s) = 6.63463 7.19020 6.91800
#
# Compressibility (1/GPa) = 0.01824248
#
# Stress axis : x y z
#
# Youngs Moduli (GPa) = 81.05821 146.69312 107.52834
#
# Poissons Ratio (x) = 0.22842 0.27943
# Poissons Ratio (y) = 0.12622 0.10213
# Poissons Ratio (z) = 0.21064 0.13933
#
# Static dielectric constant tensor:
#      x y z
#    x 4.966520 0.703610 -0.005300 
#    y 0.703610 6.731860 -0.519300 
#    z -0.005300 -0.519300 4.942780 
# 
# 
# High freq. dielectric constant tensor:
#      x y z
#    x 1.987420 -0.017110 0.019120 
#    y -0.017110 2.015140 -0.013240 
#    z 0.019120 -0.013240 2.013560 
# 
# From -- ./inp_files/16590.got.cif
#   From: 2010.06.25/outbox.cif.g09.slc.cpg/sg2_9_cif.got.tgz:16590.got - 2010.06.27 13:26:56.
