data_PCOD8027375
_publ_section_title
;
Structure prediction by ZEFSAII (Michael W. Deem and Ramdas Pophale) SiO2 
 PCOD8027375
Probable space group: P -1
;
_chemical_formula_sum "Si O2"
_cell_formula_units_Z 16
_cell_length_a 14.508135
_cell_length_b 12.717405
_cell_length_c 10.842301
_cell_angle_alpha 36.461216
_cell_angle_beta 73.165666
_cell_angle_gamma 47.105757
_cell_volume 701.832839
_symmetry_space_group_name_H-M "P -1"
_symmetry_group_IT_number 2
_symmetry_cell_setting 'triclinic'
loop_
_space_group_symop_operation_xyz
x,y,z
-x,-y,-z
loop_
_atom_site_type_symbol
_atom_site_label
_atom_site_fract_x
_atom_site_fract_y
_atom_site_fract_z
Si Si1 0.595255 0.835594 0.742745
Si Si2 0.230046 0.724673 0.712713
Si Si3 0.398210 0.816326 0.494152
Si Si4 0.209887 0.156100 0.007008
Si Si5 0.981173 0.886747 0.961582
Si Si6 0.595389 0.920189 0.159275
Si Si7 0.083351 0.727793 0.568058
Si Si8 0.250751 0.593334 0.286128
O O1 0.500000 0.000000 0.500000
O O2 0.680467 0.899732 0.675752
O O3 0.493165 0.932052 0.814643
O O4 0.720637 0.495691 0.996808
O O5 0.360552 0.687389 0.696472
O O6 0.223810 0.630024 0.673603
O O7 0.066586 0.056965 0.486858
O O8 0.584011 0.570240 0.668446
O O9 0.333670 0.908019 0.293687
O O10 0.310074 0.037202 0.953597
O O11 0.132270 0.455663 0.786190
O O12 0.070834 0.214141 0.995706
O O13 0.860367 0.082955 0.937562
O O14 0.968712 0.088572 0.703585
O O15 0.160178 0.610992 0.198399
O O16 0.720358 0.580564 0.446172
O O17 0.500000 0.000000 0.000000
#
# Coordination Sequence:
#
# PCOD8027375 Si02
#       8
#     2   2   2   2   2   2   2   2
#     4  11  26  46  68 107 154 185 237 311 371 422
#     4  11  25  44  73 100 142 200 243 292 363 444
#     4  11  24  45  74 108 136 191 253 300 357 435
#     4  12  23  43  77 109 136 188 253 306 358 428
#     4  11  25  44  68 103 150 188 232 307 380 423
#     4  11  21  43  76 105 139 185 244 303 350 435
#     4  11  24  45  68 102 147 188 247 301 358 439
#     4  10  24  45  66 102 153 180 233 310 373 426
#
# _framework density 22.797450999999999
#
# number of rings (size 3 to 8) (size 9 to 14) (size 15 to 20)
#    0.000    1.000    6.250    0.000    5.250    3.000 
#    0.000    0.000    0.000    0.000    0.000    0.000 
#    0.000    0.000    0.000    0.000    0.000    0.000 
#
# Total GULP energy -198260.353577 kJ/mol
# GULP energy per Si atom -12391.272099 kJ/mol
# Density = 2.274556 g / cm^3
# Si number density = 22.797451 Si / 1000 Ang^3
#
#
#
# Elastic Constant Matrix: (Units=GPa)
#
#
# Indices 1 2 3 4 5 6 
#
# 1 171.8619 29.9522 61.8156 -3.7603 5.8720 -10.4450
# 2 29.9522 51.7588 19.5764 0.8738 4.9236 4.1360
# 3 61.8156 19.5764 127.9131 -0.9084 13.2855 -1.9762
# 4 -3.7603 0.8738 -0.9084 33.6436 5.8461 4.0846
# 5 5.8720 4.9236 13.2855 5.8461 45.2631 -2.7485
# 6 -10.4450 4.1360 -1.9762 4.0846 -2.7485 24.5513
#
#
#
# Elastic Compliance Matrix: (Units=1/GPa)
#
#
# Indices 1 2 3 4 5 6 
#
# 1 0.007828 -0.003662 -0.003216 0.000348 0.000506 0.003687
# 2 -0.003662 0.022678 -0.001595 -0.000023 -0.001867 -0.005712
# 3 -0.003216 -0.001595 0.009858 0.000444 -0.002400 -0.000648
# 4 0.000348 -0.000023 0.000444 0.031234 -0.004542 -0.005517
# 5 0.000506 -0.001867 -0.002400 -0.004542 0.023749 0.003751
# 6 0.003687 -0.005712 -0.000648 -0.005517 0.003751 0.044547
#
#
# Mechanical properties :
#
#
# Convention : Reuss Voigt Hill
#
# Bulk Modulus (GPa) = 42.70320 63.80249 53.25285
# Shear Modulus (GPa) = 30.36811 36.70424 33.53617
#
# Velocity S-wave (km/s) = 3.65373 4.01685 3.83959
# Velocity P-wave (km/s) = 6.04747 7.03995 6.56250
#
# Compressibility (1/GPa) = 0.02341745
#
# Stress axis : x y z
#
# Youngs Moduli (GPa) = 127.74856 44.09648 101.43782
#
# Poissons Ratio (x) = 0.16150 0.32617
# Poissons Ratio (y) = 0.46786 0.16182
# Poissons Ratio (z) = 0.41078 0.07035
#
# Static dielectric constant tensor:
#      x y z
#    x 4.180270 -0.026200 -0.040880 
#    y -0.026200 4.180130 -0.151330 
#    z -0.040880 -0.151330 4.350310 
# 
# 
# High freq. dielectric constant tensor:
#      x y z
#    x 1.892760 -0.001710 0.003540 
#    y -0.001710 1.891140 -0.004040 
#    z 0.003540 -0.004040 1.912400 
# 
# From -- ./inp_files/454355.got.cif
#   From: 2010.06.25/outbox.cif.g09.slc.cpg/sg2_228_cif.got.tgz:454355.got - 2010.06.27 13:26:56.
