data_PCOD8027079
_publ_section_title
;
Structure prediction by ZEFSAII (Michael W. Deem and Ramdas Pophale) SiO2 
 PCOD8027079
Probable space group: P -1
;
_chemical_formula_sum "Si O2"
_cell_formula_units_Z 14
_cell_length_a 5.857724
_cell_length_b 11.992152
_cell_length_c 17.485187
_cell_angle_alpha 30.267288
_cell_angle_beta 70.897460
_cell_angle_gamma 73.530672
_cell_volume 585.002373
_symmetry_space_group_name_H-M "P -1"
_symmetry_group_IT_number 2
_symmetry_cell_setting 'triclinic'
loop_
_space_group_symop_operation_xyz
x,y,z
-x,-y,-z
loop_
_atom_site_type_symbol
_atom_site_label
_atom_site_fract_x
_atom_site_fract_y
_atom_site_fract_z
Si Si1 0.830241 0.171947 0.813712
Si Si2 0.622537 0.667262 0.991559
Si Si3 0.024593 0.573784 0.645428
Si Si4 0.343629 0.283703 0.869374
Si Si5 0.621774 0.218120 0.194693
Si Si6 0.048335 0.919457 0.312210
Si Si7 0.266725 0.112919 0.416657
O O1 0.982186 0.338515 0.749537
O O2 0.546579 0.231584 0.814914
O O3 0.922536 0.205295 0.697477
O O4 0.855227 0.915674 0.989411
O O5 0.394324 0.705338 0.937603
O O6 0.812140 0.851967 0.838075
O O7 0.539446 0.693874 0.072427
O O8 0.735452 0.422870 0.109442
O O9 0.784804 0.668010 0.656846
O O10 0.222692 0.518169 0.721530
O O11 0.132888 0.750838 0.468747
O O12 0.355862 0.172375 0.286615
O O13 0.773115 0.991422 0.317510
O O14 0.500000 0.000000 0.500000
O O15 0.000000 0.000000 0.500000
#
# Coordination Sequence:
#
# PCOD8027079 Si02
#       7
#     2   2   2   2   2   2   2
#     4  10  24  44  67 101 143 193 248 303 370 452
#     4  10  24  44  69 101 141 199 245 305 371 447
#     4  12  25  42  74 102 146 189 243 314 375 445
#     4  10  24  44  70 101 141 189 252 307 374 445
#     4  11  24  44  71 100 146 194 249 304 374 449
#     4  11  24  43  69 104 146 188 246 307 374 447
#     4  12  28  48  77 115 154 194 248 316 383 452
#
# _framework density 23.931526999999999
#
# number of rings (size 3 to 8) (size 9 to 14) (size 15 to 20)
#    0.000    1.143    1.429    3.000    4.000   12.000 
#    0.000    0.000    0.000    0.000    0.000    0.000 
#    0.000    0.000    0.000    0.000    0.000    0.000 
#
# Total GULP energy -173494.375309 kJ/mol
# GULP energy per Si atom -12392.455379 kJ/mol
# Density = 2.387706 g / cm^3
# Si number density = 23.931527 Si / 1000 Ang^3
#
#
#
# Elastic Constant Matrix: (Units=GPa)
#
#
# Indices 1 2 3 4 5 6 
#
# 1 79.5818 39.4463 53.8692 -3.4410 5.1029 -1.6820
# 2 39.4463 160.4742 61.5099 -1.0397 5.9708 -5.2901
# 3 53.8692 61.5099 138.0183 11.8358 17.1864 -6.4432
# 4 -3.4410 -1.0397 11.8358 26.4507 -0.1132 -6.5575
# 5 5.1029 5.9708 17.1864 -0.1132 44.4335 -5.9251
# 6 -1.6820 -5.2901 -6.4432 -6.5575 -5.9251 36.1964
#
#
#
# Elastic Compliance Matrix: (Units=1/GPa)
#
#
# Indices 1 2 3 4 5 6 
#
# 1 0.018342 -0.001845 -0.006898 0.005529 0.000891 0.000502
# 2 -0.001845 0.007827 -0.002914 0.001595 0.000411 0.000896
# 3 -0.006898 -0.002914 0.012235 -0.006590 -0.003612 -0.000354
# 4 0.005529 0.001595 -0.006590 0.043446 0.002830 0.007651
# 5 0.000891 0.000411 -0.003612 0.002830 0.024279 0.003945
# 6 0.000502 0.000896 -0.000354 0.007651 0.003945 0.029750
#
#
# Mechanical properties :
#
#
# Convention : Reuss Voigt Hill
#
# Bulk Modulus (GPa) = 66.27461 76.41390 71.34426
# Shear Modulus (GPa) = 30.44630 36.29936 33.37283
#
# Velocity S-wave (km/s) = 3.57070 3.89884 3.73837
# Velocity P-wave (km/s) = 6.68980 7.22962 6.96494
#
# Compressibility (1/GPa) = 0.01508873
#
# Stress axis : x y z
#
# Youngs Moduli (GPa) = 54.51836 127.76875 81.73325
#
# Poissons Ratio (x) = 0.23579 0.56382
# Poissons Ratio (y) = 0.10061 0.23816
# Poissons Ratio (z) = 0.37608 0.37231
#
# Static dielectric constant tensor:
#      x y z
#    x 3.982090 -0.009580 0.017930 
#    y -0.009580 4.634510 0.013790 
#    z 0.017930 0.013790 4.484190 
# 
# 
# High freq. dielectric constant tensor:
#      x y z
#    x 1.920870 0.002950 -0.001880 
#    y 0.002950 1.969370 0.000050 
#    z -0.001880 0.000050 1.960430 
# 
# From -- ./inp_files/549367.got.cif
#   From: 2010.06.25/outbox.cif.g09.slc.cpg/sg2_275_cif.got.tgz:549367.got - 2010.06.27 13:26:56.
