data_PCOD8027621
_publ_section_title
;
Structure prediction by ZEFSAII (Michael W. Deem and Ramdas Pophale) SiO2 
 PCOD8027621
Probable space group: P -1
;
_chemical_formula_sum "Si O2"
_cell_formula_units_Z 14
_cell_length_a 6.522975
_cell_length_b 11.991727
_cell_length_c 13.453711
_cell_angle_alpha 46.683288
_cell_angle_beta 65.822495
_cell_angle_gamma 56.248406
_cell_volume 635.923325
_symmetry_space_group_name_H-M "P -1"
_symmetry_group_IT_number 2
_symmetry_cell_setting 'triclinic'
loop_
_space_group_symop_operation_xyz
x,y,z
-x,-y,-z
loop_
_atom_site_type_symbol
_atom_site_label
_atom_site_fract_x
_atom_site_fract_y
_atom_site_fract_z
Si Si1 0.734984 0.888259 0.958847
Si Si2 0.062232 0.330279 0.425157
Si Si3 0.093963 0.653974 0.192061
Si Si4 0.985394 0.170436 0.355633
Si Si5 0.499253 0.341565 0.233239
Si Si6 0.549222 0.835309 0.831259
Si Si7 0.989360 0.885650 0.252298
O O1 0.651564 0.789412 0.951386
O O2 0.853099 0.009394 0.812739
O O3 0.935768 0.751698 0.070668
O O4 0.500000 0.000000 0.000000
O O5 0.975130 0.531354 0.337835
O O6 0.353191 0.252992 0.382295
O O7 0.005845 0.240901 0.584626
O O8 0.911957 0.308133 0.374061
O O9 0.112575 0.779596 0.194075
O O10 0.369482 0.541575 0.162177
O O11 0.785915 0.251462 0.258590
O O12 0.256772 0.114778 0.294132
O O13 0.000000 0.000000 0.500000
O O14 0.475264 0.315640 0.134836
O O15 0.290294 0.995238 0.790399
#
# Coordination Sequence:
#
# PCOD8027621 Si02
#       7
#     2   2   2   2   2   2   2
#     4  12  26  45  69  98 133 180 232 273 328 407
#     4   9  22  41  68 102 135 171 216 281 333 392
#     4  10  24  46  66  99 141 175 218 281 340 387
#     4  11  20  40  68 104 136 175 223 268 333 406
#     4   9  22  42  65 102 136 173 213 283 333 392
#     4  11  23  41  70  97 133 176 228 269 328 404
#     4  12  23  45  71 100 133 180 227 274 335 397
#
# _framework density 22.015231
#
# number of rings (size 3 to 8) (size 9 to 14) (size 15 to 20)
#    0.857    0.571    1.429    4.286    0.000    4.000 
#    0.000    2.857    0.000    0.000    0.000    0.000 
#    0.000    0.000    0.000    0.000    0.000    0.000 
#
# Total GULP energy -173486.908710 kJ/mol
# GULP energy per Si atom -12391.922051 kJ/mol
# Density = 2.196512 g / cm^3
# Si number density = 22.015231 Si / 1000 Ang^3
#
#
#
# Elastic Constant Matrix: (Units=GPa)
#
#
# Indices 1 2 3 4 5 6 
#
# 1 98.2064 47.7595 12.3998 7.8555 9.1740 9.7013
# 2 47.7595 132.0713 13.9439 12.3368 11.4739 5.4059
# 3 12.3998 13.9439 64.4995 3.8384 5.4044 -1.5024
# 4 7.8555 12.3368 3.8384 32.3250 6.3000 8.9838
# 5 9.1740 11.4739 5.4044 6.3000 32.1302 10.0301
# 6 9.7013 5.4059 -1.5024 8.9838 10.0301 35.7741
#
#
#
# Elastic Compliance Matrix: (Units=1/GPa)
#
#
# Indices 1 2 3 4 5 6 
#
# 1 0.012812 -0.004245 -0.001493 -0.000421 -0.001028 -0.002502
# 2 -0.004245 0.009553 -0.000938 -0.002363 -0.001819 0.000771
# 3 -0.001493 -0.000938 0.016331 -0.001374 -0.002421 0.002256
# 4 -0.000421 -0.002363 -0.001374 0.034806 -0.003321 -0.007396
# 5 -0.001028 -0.001819 -0.002421 -0.003321 0.035862 -0.008769
# 6 -0.002502 0.000771 0.002256 -0.007396 -0.008769 0.032926
#
#
# Mechanical properties :
#
#
# Convention : Reuss Voigt Hill
#
# Bulk Modulus (GPa) = 39.45516 49.22039 44.33777
# Shear Modulus (GPa) = 30.47140 34.75745 32.61443
#
# Velocity S-wave (km/s) = 3.72439 3.97771 3.85313
# Velocity P-wave (km/s) = 6.03784 6.59562 6.32288
#
# Compressibility (1/GPa) = 0.02534523
#
# Stress axis : x y z
#
# Youngs Moduli (GPa) = 78.05126 104.68143 61.23373
#
# Poissons Ratio (x) = 0.44432 0.09140
# Poissons Ratio (y) = 0.33129 0.05745
# Poissons Ratio (z) = 0.11650 0.09821
#
# Static dielectric constant tensor:
#      x y z
#    x 4.072410 0.271750 -0.037130 
#    y 0.271750 4.166240 0.111390 
#    z -0.037130 0.111390 3.800550 
# 
# 
# High freq. dielectric constant tensor:
#      x y z
#    x 1.866800 0.011750 -0.002210 
#    y 0.011750 1.872850 0.012770 
#    z -0.002210 0.012770 1.858160 
# 
# From -- ./inp_files/66829.got.cif
#   From: 2010.06.25/outbox.cif.g09.slc.cpg/sg2_34_cif.got.tgz:66829.got - 2010.06.27 13:26:56.
