data_PCOD8027198
_publ_section_title
;
Structure prediction by ZEFSAII (Michael W. Deem and Ramdas Pophale) SiO2 
 PCOD8027198
Probable space group: P -1
;
_chemical_formula_sum "Si O2"
_cell_formula_units_Z 16
_cell_length_a 15.860849
_cell_length_b 15.904373
_cell_length_c 9.089420
_cell_angle_alpha 114.203390
_cell_angle_beta 95.102149
_cell_angle_gamma 28.102294
_cell_volume 761.213990
_symmetry_space_group_name_H-M "P -1"
_symmetry_group_IT_number 2
_symmetry_cell_setting 'triclinic'
loop_
_space_group_symop_operation_xyz
x,y,z
-x,-y,-z
loop_
_atom_site_type_symbol
_atom_site_label
_atom_site_fract_x
_atom_site_fract_y
_atom_site_fract_z
Si Si1 0.483127 0.929800 0.050916
Si Si2 0.677505 0.559453 0.223586
Si Si3 0.614253 0.971724 0.574225
Si Si4 0.469798 0.669153 0.536675
Si Si5 0.834782 0.880796 0.048864
Si Si6 0.205465 0.755453 0.509572
Si Si7 0.273995 0.670416 0.130177
Si Si8 0.992825 0.407979 0.858359
O O1 0.342104 0.097201 0.297516
O O2 0.345156 0.993215 0.985587
O O3 0.736564 0.638740 0.932976
O O4 0.500000 0.000000 0.000000
O O5 0.528911 0.681938 0.428866
O O6 0.926996 0.343709 0.163183
O O7 0.548595 0.773305 0.275130
O O8 0.719842 0.430536 0.030451
O O9 0.859685 0.743428 0.376050
O O10 0.500000 0.000000 0.500000
O O11 0.362219 0.686885 0.464516
O O12 0.702943 0.408065 0.472374
O O13 0.283579 0.901178 0.784263
O O14 0.897558 0.773035 0.138407
O O15 0.234350 0.679569 0.299837
O O16 0.947489 0.040264 0.730066
O O17 0.500000 0.500000 0.000000
O O18 0.000000 0.500000 0.000000
#
# Coordination Sequence:
#
# PCOD8027198 Si02
#       8
#     2   2   2   2   2   2   2   2
#     4  12  27  45  72 105 137 192 239 292 358 421
#     4  12  25  44  72 101 141 189 236 294 355 418
#     4  12  25  46  74 103 140 192 239 288 362 424
#     4  11  24  44  69 100 136 186 230 292 354 427
#     4  12  25  46  68 104 146 180 240 294 355 425
#     4  10  24  44  70 100 139 181 233 291 358 422
#     4  11  23  44  70 102 139 185 234 288 357 426
#     4  12  23  48  72  95 145 187 229 302 354 414
#
# _framework density 21.019058999999999
#
# number of rings (size 3 to 8) (size 9 to 14) (size 15 to 20)
#    0.000    0.500    7.500    0.000    1.750    3.000 
#    2.250    0.000    0.000    0.000    0.000    0.000 
#    0.000    0.000    0.000    0.000    0.000    0.000 
#
# Total GULP energy -198397.114291 kJ/mol
# GULP energy per Si atom -12399.819643 kJ/mol
# Density = 2.097122 g / cm^3
# Si number density = 21.019059 Si / 1000 Ang^3
#
#
#
# Elastic Constant Matrix: (Units=GPa)
#
#
# Indices 1 2 3 4 5 6 
#
# 1 72.7948 35.8072 22.3371 2.9848 1.3611 2.9664
# 2 35.8072 125.0133 43.9110 1.9890 -1.8388 -7.4671
# 3 22.3371 43.9110 121.5627 8.6341 -5.8458 0.6881
# 4 2.9848 1.9890 8.6341 36.6183 -1.8655 -4.7434
# 5 1.3611 -1.8388 -5.8458 -1.8655 33.5989 -2.4991
# 6 2.9664 -7.4671 0.6881 -4.7434 -2.4991 29.8344
#
#
#
# Elastic Compliance Matrix: (Units=1/GPa)
#
#
# Indices 1 2 3 4 5 6 
#
# 1 0.016550 -0.004430 -0.001405 -0.001245 -0.001453 -0.003041
# 2 -0.004430 0.010533 -0.003053 0.000969 0.000527 0.003345
# 3 -0.001405 -0.003053 0.009810 -0.002100 0.001401 -0.001067
# 4 -0.001245 0.000969 -0.002100 0.028601 0.001706 0.005105
# 5 -0.001453 0.000527 0.001401 0.001706 0.030417 0.003063
# 6 -0.003041 0.003345 -0.001067 0.005105 0.003063 0.035751
#
#
# Mechanical properties :
#
#
# Convention : Reuss Voigt Hill
#
# Bulk Modulus (GPa) = 52.31236 58.16459 55.23848
# Shear Modulus (GPa) = 32.09074 34.49803 33.29438
#
# Velocity S-wave (km/s) = 3.91160 4.05566 3.98428
# Velocity P-wave (km/s) = 6.73371 7.04724 6.89226
#
# Compressibility (1/GPa) = 0.01911594
#
# Stress axis : x y z
#
# Youngs Moduli (GPa) = 60.42447 94.94398 101.94008
#
# Poissons Ratio (x) = 0.42060 0.14322
# Poissons Ratio (y) = 0.26768 0.31122
# Poissons Ratio (z) = 0.08490 0.28986
#
# Static dielectric constant tensor:
#      x y z
#    x 3.865780 -0.056400 -0.067860 
#    y -0.056400 3.976050 0.032620 
#    z -0.067860 0.032620 4.074790 
# 
# 
# High freq. dielectric constant tensor:
#      x y z
#    x 1.827080 -0.000840 -0.003780 
#    y -0.000840 1.826370 0.005920 
#    z -0.003780 0.005920 1.839210 
# 
# From -- ./inp_files/315603.got.cif
#   From: 2010.06.25/outbox.cif.g09.slc.cpg/sg2_158_cif.got.tgz:315603.got - 2010.06.27 13:26:56.
