data_PCOD8027633
_publ_section_title
;
Structure prediction by ZEFSAII (Michael W. Deem and Ramdas Pophale) SiO2 
 PCOD8027633
Probable space group: P -1
;
_chemical_formula_sum "Si O2"
_cell_formula_units_Z 14
_cell_length_a 14.645827
_cell_length_b 14.340766
_cell_length_c 6.783707
_cell_angle_alpha 77.420197
_cell_angle_beta 70.289354
_cell_angle_gamma 30.001666
_cell_volume 662.288924
_symmetry_space_group_name_H-M "P -1"
_symmetry_group_IT_number 2
_symmetry_cell_setting 'triclinic'
loop_
_space_group_symop_operation_xyz
x,y,z
-x,-y,-z
loop_
_atom_site_type_symbol
_atom_site_label
_atom_site_fract_x
_atom_site_fract_y
_atom_site_fract_z
Si Si1 0.801294 0.692269 0.456293
Si Si2 0.862625 0.815344 0.108597
Si Si3 0.047239 0.830051 0.192436
Si Si4 0.736429 0.245289 0.255748
Si Si5 0.471628 0.121583 0.080716
Si Si6 0.309290 0.556462 0.479808
Si Si7 0.777195 0.563710 0.190725
O O1 0.802309 0.802553 0.345594
O O2 0.627285 0.819919 0.668783
O O3 0.771862 0.656690 0.297849
O O4 0.000000 0.500000 0.500000
O O5 0.960477 0.828608 0.103358
O O6 0.674846 0.999189 0.032824
O O7 0.005796 0.636542 0.943829
O O8 0.156130 0.683444 0.356186
O O9 0.199015 0.766380 0.994862
O O10 0.875117 0.039980 0.308934
O O11 0.520760 0.392165 0.315028
O O12 0.750933 0.309072 0.390227
O O13 0.349987 0.303086 0.967973
O O14 0.500000 0.000000 0.000000
O O15 0.310042 0.455236 0.635697
#
# Coordination Sequence:
#
# PCOD8027633 Si02
#       7
#     2   2   2   2   2   2   2
#     4  12  24  44  71  96 138 178 221 281 337 400
#     4  12  25  45  68 101 139 180 227 278 339 401
#     4  11  24  45  70 101 137 174 227 282 339 397
#     4  10  24  46  68 102 132 178 228 278 341 403
#     4  12  27  46  69  99 141 180 229 278 331 408
#     4  11  24  44  72  99 137 178 225 278 343 398
#     4  12  26  45  67 102 138 180 227 276 339 404
#
# _framework density 21.138808000000001
#
# number of rings (size 3 to 8) (size 9 to 14) (size 15 to 20)
#    0.000    0.571    4.286    3.429    2.000    1.143 
#   10.286    0.000    0.000    0.000    0.000    0.000 
#    0.000    0.000    0.000    0.000    0.000    0.000 
#
# Total GULP energy -173712.792828 kJ/mol
# GULP energy per Si atom -12408.056631 kJ/mol
# Density = 2.109070 g / cm^3
# Si number density = 21.138808 Si / 1000 Ang^3
#
#
#
# Elastic Constant Matrix: (Units=GPa)
#
#
# Indices 1 2 3 4 5 6 
#
# 1 77.7950 21.8202 15.5579 -2.5330 -10.2757 -6.9454
# 2 21.8202 91.4868 29.5502 7.0569 -13.7364 -13.2453
# 3 15.5579 29.5502 75.5103 -0.9976 -9.6929 0.9772
# 4 -2.5330 7.0569 -0.9976 36.0270 4.9320 1.0553
# 5 -10.2757 -13.7364 -9.6929 4.9320 27.6042 -6.4040
# 6 -6.9454 -13.2453 0.9772 1.0553 -6.4040 36.8279
#
#
#
# Elastic Compliance Matrix: (Units=1/GPa)
#
#
# Indices 1 2 3 4 5 6 
#
# 1 0.014593 -0.001893 -0.001725 0.000658 0.004432 0.002869
# 2 -0.001893 0.015416 -0.004807 -0.004533 0.007661 0.006777
# 3 -0.001725 -0.004807 0.015753 0.001075 0.001797 -0.002191
# 4 0.000658 -0.004533 0.001075 0.029905 -0.007848 -0.003756
# 5 0.004432 0.007661 0.001797 -0.007848 0.046470 0.011849
# 6 0.002869 0.006777 -0.002191 -0.003756 0.011849 0.032358
#
#
# Mechanical properties :
#
#
# Convention : Reuss Voigt Hill
#
# Bulk Modulus (GPa) = 34.58877 42.07210 38.33043
# Shear Modulus (GPa) = 27.62676 31.94940 29.78808
#
# Velocity S-wave (km/s) = 3.61906 3.89190 3.75796
# Velocity P-wave (km/s) = 5.81908 6.33576 6.08291
#
# Compressibility (1/GPa) = 0.02891112
#
# Stress axis : x y z
#
# Youngs Moduli (GPa) = 68.52416 64.86876 63.47964
#
# Poissons Ratio (x) = 0.12281 0.10952
# Poissons Ratio (y) = 0.12973 0.30514
# Poissons Ratio (z) = 0.11823 0.31182
#
# Static dielectric constant tensor:
#      x y z
#    x 3.846720 -0.053880 -0.071820 
#    y -0.053880 4.026610 0.089550 
#    z -0.071820 0.089550 4.014110 
# 
# 
# High freq. dielectric constant tensor:
#      x y z
#    x 1.832720 -0.003630 -0.003180 
#    y -0.003630 1.844700 0.004830 
#    z -0.003180 0.004830 1.839030 
# 
# From -- ./inp_files/39586.got.cif
#   From: 2010.06.25/outbox.cif.g09.slc.cpg/sg2_20_cif.got.tgz:39586.got - 2010.06.27 13:26:56.
