data_PCOD8027351
_publ_section_title
;
Structure prediction by ZEFSAII (Michael W. Deem and Ramdas Pophale) SiO2 
 PCOD8027351
Probable space group: P -1
;
_chemical_formula_sum "Si O2"
_cell_formula_units_Z 16
_cell_length_a 13.201211
_cell_length_b 22.776397
_cell_length_c 12.677330
_cell_angle_alpha 151.318967
_cell_angle_beta 54.498982
_cell_angle_gamma 144.610384
_cell_volume 927.176443
_symmetry_space_group_name_H-M "P -1"
_symmetry_group_IT_number 2
_symmetry_cell_setting 'triclinic'
loop_
_space_group_symop_operation_xyz
x,y,z
-x,-y,-z
loop_
_atom_site_type_symbol
_atom_site_label
_atom_site_fract_x
_atom_site_fract_y
_atom_site_fract_z
Si Si1 0.232201 0.060129 0.885681
Si Si2 0.425642 0.537775 0.801920
Si Si3 0.064356 0.233399 0.818134
Si Si4 0.094797 0.445046 0.959423
Si Si5 0.730850 0.172474 0.598114
Si Si6 0.415402 0.477773 0.126906
Si Si7 0.159019 0.115004 0.234238
Si Si8 0.782052 0.888012 0.579562
O O1 0.238768 0.921764 0.641391
O O2 0.437210 0.282790 0.078824
O O3 0.204186 0.054605 0.018844
O O4 0.049492 0.977648 0.802960
O O5 0.236905 0.475176 0.846434
O O6 0.558828 0.607020 0.933614
O O7 0.341689 0.351829 0.503519
O O8 0.069664 0.367254 0.968031
O O9 0.136555 0.185453 0.616589
O O10 0.186077 0.331878 0.010880
O O11 0.843998 0.032533 0.679890
O O12 0.872505 0.279370 0.784047
O O13 0.199436 0.657392 0.245087
O O14 0.500000 0.000000 0.500000
O O15 0.540531 0.695376 0.426526
O O16 0.500000 0.500000 0.000000
O O17 0.139303 0.023305 0.210577
#
# Coordination Sequence:
#
# PCOD8027351 Si02
#       8
#     2   2   2   2   2   2   2   2
#     4  11  21  33  55  73 104 146 178 207 262 309
#     4  11  18  33  51  80 111 135 166 214 268 313
#     4  10  17  30  49  76 106 133 160 210 267 313
#     4  11  21  34  53  75 111 133 174 224 252 304
#     4  11  23  37  52  75 103 146 181 214 250 301
#     4   9  16  26  45  74 105 130 156 200 262 318
#     4  10  20  35  50  80 109 135 170 218 261 315
#     4   9  17  28  47  73 104 130 160 205 264 309
#
# _framework density 17.256694
#
# number of rings (size 3 to 8) (size 9 to 14) (size 15 to 20)
#    0.000    1.750    6.250    1.125    0.000    3.000 
#    0.000    0.000    0.000    0.750    0.000    4.375 
#    0.000    0.000    0.000    0.000    0.000    0.000 
#
# Total GULP energy -198300.746587 kJ/mol
# GULP energy per Si atom -12393.796662 kJ/mol
# Density = 1.721742 g / cm^3
# Si number density = 17.256694 Si / 1000 Ang^3
#
#
#
# Elastic Constant Matrix: (Units=GPa)
#
#
# Indices 1 2 3 4 5 6 
#
# 1 71.7473 36.5732 33.1345 4.4934 0.7105 -6.6997
# 2 36.5732 77.9790 40.3613 8.2083 -4.6301 -7.2237
# 3 33.1345 40.3613 88.2745 2.3261 -6.2259 -2.0140
# 4 4.4934 8.2083 2.3261 30.2800 -4.0357 -1.1539
# 5 0.7105 -4.6301 -6.2259 -4.0357 32.0966 4.0224
# 6 -6.6997 -7.2237 -2.0140 -1.1539 4.0224 24.5771
#
#
#
# Elastic Compliance Matrix: (Units=1/GPa)
#
#
# Indices 1 2 3 4 5 6 
#
# 1 0.019852 -0.006739 -0.004465 -0.001022 -0.002843 0.003482
# 2 -0.006739 0.020035 -0.006395 -0.003694 0.000933 0.003202
# 3 -0.004465 -0.006395 0.016034 0.001447 0.002740 -0.002163
# 4 -0.001022 -0.003694 0.001447 0.034610 0.004160 -0.000302
# 5 -0.002843 0.000933 0.002740 0.004160 0.033097 -0.005498
# 6 0.003482 0.003202 -0.002163 -0.000302 -0.005498 0.043287
#
#
# Mechanical properties :
#
#
# Convention : Reuss Voigt Hill
#
# Bulk Modulus (GPa) = 48.25186 50.90431 49.57808
# Shear Modulus (GPa) = 23.92120 25.91952 24.92036
#
# Velocity S-wave (km/s) = 3.72721 3.87977 3.80425
# Velocity P-wave (km/s) = 6.82237 7.04503 6.93459
#
# Compressibility (1/GPa) = 0.02072459
#
# Stress axis : x y z
#
# Youngs Moduli (GPa) = 50.37261 49.91199 62.36801
#
# Poissons Ratio (x) = 0.33634 0.27845
# Poissons Ratio (y) = 0.33944 0.39885
# Poissons Ratio (z) = 0.22490 0.31919
#
# Static dielectric constant tensor:
#      x y z
#    x 3.340910 0.028750 0.395410 
#    y 0.028750 3.139470 0.333460 
#    z 0.395410 0.333460 3.583530 
# 
# 
# High freq. dielectric constant tensor:
#      x y z
#    x 1.649310 -0.014860 0.022710 
#    y -0.014860 1.656020 0.029180 
#    z 0.022710 0.029180 1.663370 
# 
# From -- ./inp_files/436755.got.cif
#   From: 2010.06.25/outbox.cif.g09.slc.cpg/sg2_219_cif.got.tgz:436755.got - 2010.06.27 13:26:56.
