data_PCOD8027433
_publ_section_title
;
Structure prediction by ZEFSAII (Michael W. Deem and Ramdas Pophale) SiO2 
 PCOD8027433
Probable space group: P -1
;
_chemical_formula_sum "Si O2"
_cell_formula_units_Z 16
_cell_length_a 11.607939
_cell_length_b 14.675001
_cell_length_c 9.265529
_cell_angle_alpha 111.131074
_cell_angle_beta 99.671770
_cell_angle_gamma 30.255634
_cell_volume 706.420964
_symmetry_space_group_name_H-M "P -1"
_symmetry_group_IT_number 2
_symmetry_cell_setting 'triclinic'
loop_
_space_group_symop_operation_xyz
x,y,z
-x,-y,-z
loop_
_atom_site_type_symbol
_atom_site_label
_atom_site_fract_x
_atom_site_fract_y
_atom_site_fract_z
Si Si1 0.572451 0.682865 0.944664
Si Si2 0.479899 0.911168 0.272862
Si Si3 0.048688 0.739719 0.681621
Si Si4 0.416035 0.341690 0.377112
Si Si5 0.655574 0.995959 0.379944
Si Si6 0.168140 0.692114 0.215752
Si Si7 0.178348 0.810165 0.531990
Si Si8 0.027321 0.083688 0.983054
O O1 0.714575 0.575999 0.759688
O O2 0.648139 0.522109 0.936402
O O3 0.628660 0.722729 0.100853
O O4 0.309848 0.895605 0.946933
O O5 0.450363 0.900122 0.426011
O O6 0.625239 0.904716 0.283331
O O7 0.211473 0.119450 0.277139
O O8 0.225043 0.524874 0.552149
O O9 0.040261 0.840390 0.631523
O O10 0.116951 0.729668 0.848873
O O11 0.494848 0.176398 0.342100
O O12 0.642768 0.251409 0.376200
O O13 0.935516 0.814959 0.315427
O O14 0.314177 0.641940 0.345715
O O15 0.074883 0.835631 0.154974
O O16 0.000000 0.000000 0.500000
O O17 0.000000 0.000000 0.000000
#
# Coordination Sequence:
#
# PCOD8027433 Si02
#       8
#     2   2   2   2   2   2   2   2
#     4  11  24  43  67  98 133 172 221 270 332 388
#     4  10  24  45  68  96 130 171 219 285 324 384
#     4  11  23  41  62  95 135 169 218 271 329 387
#     4  12  23  40  67  99 132 176 221 267 328 404
#     4  11  23  45  70  95 130 173 224 269 333 394
#     4  12  24  43  67  98 134 179 220 266 332 396
#     4  12  21  39  68  93 129 179 215 264 328 397
#     4  11  25  43  60  98 140 171 219 275 318 392
#
# _framework density 22.649384000000001
#
# number of rings (size 3 to 8) (size 9 to 14) (size 15 to 20)
#    0.000    0.750    5.000    1.875    3.500    3.000 
#    0.000    0.000    0.000    0.000    0.000    0.000 
#    0.000    0.000    0.000    0.000    0.000    0.000 
#
# Total GULP energy -198225.218423 kJ/mol
# GULP energy per Si atom -12389.076151 kJ/mol
# Density = 2.259783 g / cm^3
# Si number density = 22.649384 Si / 1000 Ang^3
#
#
#
# Elastic Constant Matrix: (Units=GPa)
#
#
# Indices 1 2 3 4 5 6 
#
# 1 70.9827 7.6958 42.6975 -11.9958 6.6209 12.4794
# 2 7.6958 66.4669 20.7065 1.8272 1.1528 20.6400
# 3 42.6975 20.7065 144.6885 -3.7341 26.3104 7.3236
# 4 -11.9958 1.8272 -3.7341 42.5054 3.4191 3.1411
# 5 6.6209 1.1528 26.3104 3.4191 32.1238 2.2380
# 6 12.4794 20.6400 7.3236 3.1411 2.2380 22.9446
#
#
#
# Elastic Compliance Matrix: (Units=1/GPa)
#
#
# Indices 1 2 3 4 5 6 
#
# 1 0.020518 0.003373 -0.005841 0.006053 0.000711 -0.013227
# 2 0.003373 0.022257 -0.003597 0.001013 0.002816 -0.021122
# 3 -0.005841 -0.003597 0.010278 -0.000289 -0.007325 0.003887
# 4 0.006053 0.001013 -0.000289 0.025974 -0.003300 -0.007345
# 5 0.000711 0.002816 -0.007325 -0.003300 0.037496 -0.003788
# 6 -0.013227 -0.021122 0.003887 -0.007345 -0.003788 0.069912
#
#
# Mechanical properties :
#
#
# Convention : Reuss Voigt Hill
#
# Bulk Modulus (GPa) = 24.43712 47.14865 35.79288
# Shear Modulus (GPa) = 23.56187 33.58397 28.57292
#
# Velocity S-wave (km/s) = 3.22885 3.85486 3.55566
# Velocity P-wave (km/s) = 4.97125 6.37771 5.71789
#
# Compressibility (1/GPa) = 0.04092136
#
# Stress axis : x y z
#
# Youngs Moduli (GPa) = 48.73821 44.92869 97.29783
#
# Poissons Ratio (x) = -0.15153 0.56833
# Poissons Ratio (y) = -0.16438 0.35002
# Poissons Ratio (z) = 0.28469 0.16163
#
# Static dielectric constant tensor:
#      x y z
#    x 3.924610 0.031460 0.216890 
#    y 0.031460 3.962330 -0.028220 
#    z 0.216890 -0.028220 4.605370 
# 
# 
# High freq. dielectric constant tensor:
#      x y z
#    x 1.866150 0.013430 0.013060 
#    y 0.013430 1.888220 0.001950 
#    z 0.013060 0.001950 1.922350 
# 
# From -- ./inp_files/186395.got.cif
#   From: 2010.06.25/outbox.cif.g09.slc.cpg/sg2_94_cif.got.tgz:186395.got - 2010.06.27 13:26:56.
