data_PCOD8027552
_publ_section_title
;
Structure prediction by ZEFSAII (Michael W. Deem and Ramdas Pophale) SiO2 
 PCOD8027552
Probable space group: P -1
;
_chemical_formula_sum "Si O2"
_cell_formula_units_Z 14
_cell_length_a 14.926503
_cell_length_b 13.956310
_cell_length_c 11.862394
_cell_angle_alpha 126.887613
_cell_angle_beta 27.924232
_cell_angle_gamma 143.682717
_cell_volume 627.364420
_symmetry_space_group_name_H-M "P -1"
_symmetry_group_IT_number 2
_symmetry_cell_setting 'triclinic'
loop_
_space_group_symop_operation_xyz
x,y,z
-x,-y,-z
loop_
_atom_site_type_symbol
_atom_site_label
_atom_site_fract_x
_atom_site_fract_y
_atom_site_fract_z
Si Si1 0.372258 0.570615 0.709587
Si Si2 0.043863 0.329169 0.394668
Si Si3 0.528650 0.069654 0.640160
Si Si4 0.758140 0.794971 0.641652
Si Si5 0.253329 0.732564 0.843321
Si Si6 0.802740 0.202279 0.808477
Si Si7 0.407805 0.269901 0.975722
O O1 0.500000 0.500000 0.500000
O O2 0.535492 0.705927 0.726888
O O3 0.405872 0.671063 0.629311
O O4 0.041885 0.401516 0.989091
O O5 0.150760 0.240593 0.211488
O O6 0.848743 0.252312 0.446241
O O7 0.860378 0.279916 0.674226
O O8 0.298356 0.539811 0.257866
O O9 0.500000 0.000000 0.500000
O O10 0.435246 0.927514 0.735604
O O11 0.351579 0.112660 0.871402
O O12 0.577627 0.741205 0.914893
O O13 0.916346 0.742660 0.435106
O O14 0.000000 0.000000 0.500000
O O15 0.200912 0.708034 0.020303
O O16 0.500000 0.000000 0.000000
#
# Coordination Sequence:
#
# PCOD8027552 Si02
#       7
#     2   2   2   2   2   2   2
#     4  11  25  43  65 102 140 173 226 286 351 406
#     4  10  24  45  72 101 136 185 229 290 346 409
#     4  12  27  45  69  99 140 187 231 282 350 414
#     4  11  23  40  72 100 135 183 224 286 345 415
#     4  11  25  43  66 102 138 180 225 289 349 404
#     4  11  20  40  70 103 134 170 233 285 337 414
#     4  10  25  46  67 103 137 181 241 279 346 413
#
# _framework density 22.315579
#
# number of rings (size 3 to 8) (size 9 to 14) (size 15 to 20)
#    0.000    1.143    2.857    2.143    6.000    2.857 
#    2.571    0.000    0.000    0.000    0.000    0.000 
#    0.000    0.000    0.000    0.000    0.000    0.000 
#
# Total GULP energy -173488.737435 kJ/mol
# GULP energy per Si atom -12392.052674 kJ/mol
# Density = 2.226479 g / cm^3
# Si number density = 22.315579 Si / 1000 Ang^3
#
#
#
# Elastic Constant Matrix: (Units=GPa)
#
#
# Indices 1 2 3 4 5 6 
#
# 1 113.7304 42.1781 50.2416 8.2188 -3.0926 9.2072
# 2 42.1781 103.9594 34.5720 10.4559 4.1892 -12.8573
# 3 50.2416 34.5720 91.6752 0.1160 8.2359 -1.7875
# 4 8.2188 10.4559 0.1160 39.7487 -7.1754 -9.6360
# 5 -3.0926 4.1892 8.2359 -7.1754 42.4643 -2.6264
# 6 9.2072 -12.8573 -1.7875 -9.6360 -2.6264 52.1602
#
#
#
# Elastic Compliance Matrix: (Units=1/GPa)
#
#
# Indices 1 2 3 4 5 6 
#
# 1 0.013446 -0.003701 -0.006217 -0.002375 0.001911 -0.003841
# 2 -0.003701 0.012619 -0.002561 -0.001965 -0.001148 0.003255
# 3 -0.006217 -0.002561 0.015559 0.001680 -0.002862 0.001165
# 4 -0.002375 -0.001965 0.001680 0.028359 0.004826 0.005474
# 5 0.001911 -0.001148 -0.002862 0.004826 0.025261 0.001445
# 6 -0.003841 0.003255 0.001165 0.005474 0.001445 0.021776
#
#
# Mechanical properties :
#
#
# Convention : Reuss Voigt Hill
#
# Bulk Modulus (GPa) = 60.00493 62.59425 61.29959
# Shear Modulus (GPa) = 33.89025 39.03286 36.46156
#
# Velocity S-wave (km/s) = 3.90125 4.18680 4.04655
# Velocity P-wave (km/s) = 6.87319 7.17515 7.02579
#
# Compressibility (1/GPa) = 0.01666530
#
# Stress axis : x y z
#
# Youngs Moduli (GPa) = 74.36992 79.24535 64.27241
#
# Poissons Ratio (x) = 0.29330 0.39958
# Poissons Ratio (y) = 0.27526 0.16462
# Poissons Ratio (z) = 0.46235 0.20297
#
# Static dielectric constant tensor:
#      x y z
#    x 3.954550 -0.080570 0.036680 
#    y -0.080570 4.171660 0.164600 
#    z 0.036680 0.164600 3.951640 
# 
# 
# High freq. dielectric constant tensor:
#      x y z
#    x 1.884540 -0.008270 -0.023360 
#    y -0.008270 1.890940 0.003900 
#    z -0.023360 0.003900 1.873900 
# 
# From -- ./inp_files/455771.got.cif
#   From: 2010.06.25/outbox.cif.g09.slc.cpg/sg2_228_cif.got.tgz:455771.got - 2010.06.27 13:26:56.
