data_PCOD8027607
_publ_section_title
;
Structure prediction by ZEFSAII (Michael W. Deem and Ramdas Pophale) SiO2 
 PCOD8027607
Probable space group: P -1
;
_chemical_formula_sum "Si O2"
_cell_formula_units_Z 16
_cell_length_a 14.673128
_cell_length_b 11.863817
_cell_length_c 8.862048
_cell_angle_alpha 79.406865
_cell_angle_beta 73.153055
_cell_angle_gamma 30.417289
_cell_volume 740.551970
_symmetry_space_group_name_H-M "P -1"
_symmetry_group_IT_number 2
_symmetry_cell_setting 'triclinic'
loop_
_space_group_symop_operation_xyz
x,y,z
-x,-y,-z
loop_
_atom_site_type_symbol
_atom_site_label
_atom_site_fract_x
_atom_site_fract_y
_atom_site_fract_z
Si Si1 0.473698 0.193755 0.171859
Si Si2 0.084483 0.800721 0.079491
Si Si3 0.416958 0.701690 0.421512
Si Si4 0.496000 0.387598 0.935815
Si Si5 0.676671 0.604679 0.482949
Si Si6 0.781858 0.695172 0.208410
Si Si7 0.904293 0.455295 0.910529
Si Si8 0.998091 0.119094 0.561222
O O1 0.572957 0.198292 0.038092
O O2 0.440810 0.268001 0.339622
O O3 0.276951 0.357900 0.155376
O O4 0.614842 0.942027 0.156874
O O5 0.099886 0.801521 0.250900
O O6 0.282142 0.580802 0.957784
O O7 0.985768 0.781431 0.093181
O O8 0.000000 0.000000 0.000000
O O9 0.500000 0.500000 0.500000
O O10 0.552830 0.665097 0.405596
O O11 0.210602 0.941470 0.526290
O O12 0.395682 0.710623 0.249062
O O13 0.500000 0.500000 0.000000
O O14 0.710699 0.697837 0.385207
O O15 0.877185 0.336970 0.474768
O O16 0.952379 0.597879 0.206304
O O17 0.850735 0.534923 0.088821
O O18 0.000000 0.000000 0.500000
#
# Coordination Sequence:
#
# PCOD8027607 Si02
#       8
#     2   2   2   2   2   2   2   2
#     4  11  24  45  68  95 138 177 238 285 341 412
#     4  11  24  43  71  99 139 179 221 284 348 411
#     4  12  25  42  70 103 141 180 230 280 350 419
#     4  11  23  43  67 102 136 178 228 288 342 414
#     4  12  25  44  66 103 137 181 234 284 349 413
#     4  11  26  43  72  94 138 184 234 286 342 414
#     4  10  24  46  65 101 133 178 237 284 339 417
#     4  12  25  44  68 103 145 178 220 289 344 414
#
# _framework density 21.605505999999998
#
# number of rings (size 3 to 8) (size 9 to 14) (size 15 to 20)
#    0.000    0.750    3.750    4.500    5.250    3.500 
#    0.000    0.000    0.000    0.000    0.000    0.000 
#    0.000    0.000    0.000    0.000    0.000    0.000 
#
# Total GULP energy -198435.075847 kJ/mol
# GULP energy per Si atom -12402.192240 kJ/mol
# Density = 2.155633 g / cm^3
# Si number density = 21.605506 Si / 1000 Ang^3
#
#
#
# Elastic Constant Matrix: (Units=GPa)
#
#
# Indices 1 2 3 4 5 6 
#
# 1 131.4211 42.0238 38.2513 -13.5967 1.2318 13.6917
# 2 42.0238 125.6502 27.7736 -15.9100 -12.3957 14.8263
# 3 38.2513 27.7736 106.2293 -14.7509 -5.8012 16.0141
# 4 -13.5967 -15.9100 -14.7509 36.1684 6.8979 -7.4383
# 5 1.2318 -12.3957 -5.8012 6.8979 36.1438 0.7984
# 6 13.6917 14.8263 16.0141 -7.4383 0.7984 43.2489
#
#
#
# Elastic Compliance Matrix: (Units=1/GPa)
#
#
# Indices 1 2 3 4 5 6 
#
# 1 0.009398 -0.002468 -0.002481 0.001603 -0.001851 -0.000900
# 2 -0.002468 0.009764 -0.000931 0.002031 0.002938 -0.001926
# 3 -0.002481 -0.000931 0.011370 0.002518 0.001169 -0.002694
# 4 0.001603 0.002031 0.002518 0.031852 -0.005109 0.003437
# 5 -0.001851 0.002938 0.001169 -0.005109 0.029951 -0.002286
# 6 -0.000900 -0.001926 -0.002694 0.003437 -0.002286 0.025698
#
#
# Mechanical properties :
#
#
# Convention : Reuss Voigt Hill
#
# Bulk Modulus (GPa) = 53.27501 64.37755 58.82628
# Shear Modulus (GPa) = 36.75075 40.12899 38.43987
#
# Velocity S-wave (km/s) = 4.12878 4.31437 4.22260
# Velocity P-wave (km/s) = 6.88772 7.39459 7.14565
#
# Compressibility (1/GPa) = 0.01877053
#
# Stress axis : x y z
#
# Youngs Moduli (GPa) = 106.41114 102.41521 87.94952
#
# Poissons Ratio (x) = 0.25275 0.21824
# Poissons Ratio (y) = 0.26261 0.08191
# Poissons Ratio (z) = 0.26405 0.09538
#
# Static dielectric constant tensor:
#      x y z
#    x 4.222350 -0.105840 -0.067450 
#    y -0.105840 4.362840 -0.123890 
#    z -0.067450 -0.123890 4.140810 
# 
# 
# High freq. dielectric constant tensor:
#      x y z
#    x 1.859800 0.007520 -0.001740 
#    y 0.007520 1.851100 0.003920 
#    z -0.001740 0.003920 1.853340 
# 
# From -- ./inp_files/283387.got.cif
#   From: 2010.06.25/outbox.cif.g09.slc.cpg/sg2_142_cif.got.tgz:283387.got - 2010.06.27 13:26:56.
