data_PCOD8027059
_publ_section_title
;
Structure prediction by ZEFSAII (Michael W. Deem and Ramdas Pophale) SiO2 
 PCOD8027059
Probable space group: P -1
;
_chemical_formula_sum "Si O2"
_cell_formula_units_Z 16
_cell_length_a 22.784261
_cell_length_b 6.853721
_cell_length_c 14.336371
_cell_angle_alpha 101.385511
_cell_angle_beta 20.965724
_cell_angle_gamma 101.798869
_cell_volume 783.977990
_symmetry_space_group_name_H-M "P -1"
_symmetry_group_IT_number 2
_symmetry_cell_setting 'triclinic'
loop_
_space_group_symop_operation_xyz
x,y,z
-x,-y,-z
loop_
_atom_site_type_symbol
_atom_site_label
_atom_site_fract_x
_atom_site_fract_y
_atom_site_fract_z
Si Si1 0.675637 0.457542 0.935216
Si Si2 0.223214 0.660472 0.030071
Si Si3 0.482360 0.049265 0.423177
Si Si4 0.147986 0.294392 0.456569
Si Si5 0.681976 0.081782 0.759016
Si Si6 0.766764 0.614164 0.180322
Si Si7 0.644808 0.360236 0.509291
Si Si8 0.147682 0.660128 0.621522
O O1 0.778402 0.440969 0.875975
O O2 0.759481 0.638465 0.768928
O O3 0.679625 0.253637 0.854529
O O4 0.487200 0.496398 0.239460
O O5 0.045469 0.732812 0.276378
O O6 0.348371 0.852659 0.858968
O O7 0.279355 0.493633 0.858890
O O8 0.337274 0.194766 0.635548
O O9 0.500000 0.000000 0.500000
O O10 0.444656 0.851362 0.401327
O O11 0.187895 0.452107 0.494408
O O12 0.208473 0.084738 0.377657
O O13 0.763045 0.158226 0.549803
O O14 0.500000 0.000000 0.000000
O O15 0.729451 0.454278 0.301269
O O16 0.955273 0.692572 0.910822
O O17 0.788322 0.334857 0.367970
#
# Coordination Sequence:
#
# PCOD8027059 Si02
#       8
#     2   2   2   2   2   2   2   2
#     4  11  24  42  64  96 126 167 211 257 312 375
#     4  11  23  44  65  93 130 166 208 261 313 372
#     4  12  25  40  65  95 127 171 209 254 316 377
#     4  10  24  44  66  92 128 166 209 263 313 369
#     4  11  24  43  66  95 126 166 213 258 315 372
#     4  11  24  45  64  93 130 165 211 260 312 372
#     4  12  24  42  66  94 129 166 212 257 314 374
#     4  10  25  42  67  94 126 166 209 265 311 368
#
# _framework density 20.408736999999999
#
# number of rings (size 3 to 8) (size 9 to 14) (size 15 to 20)
#    0.000    1.000    2.500    3.375    5.250    4.000 
#    2.250    0.000    0.000    0.000    0.000    0.000 
#    0.000    0.000    0.000    0.000    0.000    0.000 
#
# Total GULP energy -198531.529113 kJ/mol
# GULP energy per Si atom -12408.220570 kJ/mol
# Density = 2.036229 g / cm^3
# Si number density = 20.408737 Si / 1000 Ang^3
#
#
#
# Elastic Constant Matrix: (Units=GPa)
#
#
# Indices 1 2 3 4 5 6 
#
# 1 130.9488 44.2891 25.3411 0.3160 1.2076 -5.5339
# 2 44.2891 109.1638 38.9238 -0.0175 -7.0257 -11.7040
# 3 25.3411 38.9238 102.8993 -10.0682 -5.0447 -0.2625
# 4 0.3160 -0.0175 -10.0682 27.8670 0.1873 -6.4967
# 5 1.2076 -7.0257 -5.0447 0.1873 29.8567 -0.1920
# 6 -5.5339 -11.7040 -0.2625 -6.4967 -0.1920 23.7860
#
#
#
# Elastic Compliance Matrix: (Units=1/GPa)
#
#
# Indices 1 2 3 4 5 6 
#
# 1 0.008992 -0.003319 -0.001062 -0.000403 -0.001320 0.000326
# 2 -0.003319 0.012609 -0.003826 -0.000099 0.002490 0.005383
# 3 -0.001062 -0.003826 0.011880 0.004091 0.001119 -0.000872
# 4 -0.000403 -0.000099 0.004091 0.039882 0.000504 0.010800
# 5 -0.001320 0.002490 0.001119 0.000504 0.034327 0.001345
# 6 0.000326 0.005383 -0.000872 0.010800 0.001345 0.047717
#
#
# Mechanical properties :
#
#
# Convention : Reuss Voigt Hill
#
# Bulk Modulus (GPa) = 58.59683 62.23554 60.41618
# Shear Modulus (GPa) = 28.16749 31.93248 30.04999
#
# Velocity S-wave (km/s) = 3.71909 3.95985 3.84136
# Velocity P-wave (km/s) = 6.87140 7.17412 7.02439
#
# Compressibility (1/GPa) = 0.01706577
#
# Stress axis : x y z
#
# Youngs Moduli (GPa) = 111.21377 79.30972 84.17561
#
# Poissons Ratio (x) = 0.26326 0.08940
# Poissons Ratio (y) = 0.36916 0.32205
# Poissons Ratio (z) = 0.11811 0.30343
#
# Static dielectric constant tensor:
#      x y z
#    x 5.244500 3.098290 -0.199690 
#    y 3.098290 10.856390 -0.711480 
#    z -0.199690 -0.711480 3.869220 
# 
# 
# High freq. dielectric constant tensor:
#      x y z
#    x 1.812650 -0.004580 0.001200 
#    y -0.004580 1.803110 -0.004290 
#    z 0.001200 -0.004290 1.812420 
# 
# From -- ./inp_files/68682.got.cif
#   From: 2010.06.25/outbox.cif.g09.slc.cpg/sg2_35_cif.got.tgz:68682.got - 2010.06.27 13:26:56.
