data_PCOD8027088
_publ_section_title
;
Structure prediction by ZEFSAII (Michael W. Deem and Ramdas Pophale) SiO2 
 PCOD8027088
Probable space group: P -1
;
_chemical_formula_sum "Si O2"
_cell_formula_units_Z 14
_cell_length_a 14.980546
_cell_length_b 11.859132
_cell_length_c 8.976642
_cell_angle_alpha 50.335695
_cell_angle_beta 59.855068
_cell_angle_gamma 28.971732
_cell_volume 587.842980
_symmetry_space_group_name_H-M "P -1"
_symmetry_group_IT_number 2
_symmetry_cell_setting 'triclinic'
loop_
_space_group_symop_operation_xyz
x,y,z
-x,-y,-z
loop_
_atom_site_type_symbol
_atom_site_label
_atom_site_fract_x
_atom_site_fract_y
_atom_site_fract_z
Si Si1 0.434043 0.839486 0.266899
Si Si2 0.837815 0.823016 0.058958
Si Si3 0.649583 0.949165 0.390577
Si Si4 0.238245 0.308913 0.202712
Si Si5 0.496181 0.402036 0.294957
Si Si6 0.915867 0.044114 0.880424
Si Si7 0.296554 0.554996 0.867191
O O1 0.423490 0.731104 0.496715
O O2 0.633961 0.583394 0.235870
O O3 0.403795 0.035397 0.199484
O O4 0.273598 0.001381 0.143292
O O5 0.727245 0.844640 0.245009
O O6 0.043451 0.521535 0.096368
O O7 0.869106 0.930144 0.041411
O O8 0.801417 0.727057 0.577115
O O9 0.500000 0.000000 0.500000
O O10 0.573030 0.202816 0.272698
O O11 0.300994 0.404074 0.095929
O O12 0.271408 0.652432 0.270318
O O13 0.569468 0.481413 0.137431
O O14 0.083349 0.864688 0.769571
O O15 0.000000 0.000000 0.000000
#
# Coordination Sequence:
#
# PCOD8027088 Si02
#       7
#     2   2   2   2   2   2   2
#     4  11  23  45  70 101 142 183 228 284 349 402
#     4  11  23  43  73 100 141 180 233 288 337 415
#     4  11  25  43  70  99 137 183 229 281 348 408
#     4  10  24  44  67 106 136 183 233 284 343 411
#     4  11  26  47  69 102 144 178 230 290 341 412
#     4  11  26  42  70 106 137 182 232 282 350 406
#     4  11  23  44  75  96 142 181 231 278 347 405
#
# _framework density 23.815881999999998
#
# number of rings (size 3 to 8) (size 9 to 14) (size 15 to 20)
#    0.000    1.143    1.429    3.429    6.000    2.857 
#    7.714    0.000    0.000    0.000    0.000    0.000 
#    0.000    0.000    0.000    0.000    0.000    0.000 
#
# Total GULP energy -173517.541697 kJ/mol
# GULP energy per Si atom -12394.110121 kJ/mol
# Density = 2.376168 g / cm^3
# Si number density = 23.815882 Si / 1000 Ang^3
#
#
#
# Elastic Constant Matrix: (Units=GPa)
#
#
# Indices 1 2 3 4 5 6 
#
# 1 119.0890 42.0626 51.4678 -7.6149 -3.3702 -6.9119
# 2 42.0626 140.9058 52.4547 -6.0370 -0.7660 -14.7332
# 3 51.4678 52.4547 103.6975 -7.3288 10.4690 -6.0984
# 4 -7.6149 -6.0370 -7.3288 31.6783 -1.6478 1.6565
# 5 -3.3702 -0.7660 10.4690 -1.6478 36.0049 -6.8921
# 6 -6.9119 -14.7332 -6.0984 1.6565 -6.8921 36.0832
#
#
#
# Elastic Compliance Matrix: (Units=1/GPa)
#
#
# Indices 1 2 3 4 5 6 
#
# 1 0.011276 -0.001276 -0.005063 0.001376 0.002804 0.001256
# 2 -0.001276 0.009362 -0.004072 0.000465 0.001904 0.003232
# 3 -0.005063 -0.004072 0.014740 0.001217 -0.005012 -0.001154
# 4 0.001376 0.000465 0.001217 0.032360 0.001150 -0.000607
# 5 0.002804 0.001904 -0.005012 0.001150 0.030792 0.006296
# 6 0.001256 0.003232 -0.001154 -0.000607 0.006296 0.030309
#
#
# Mechanical properties :
#
#
# Convention : Reuss Voigt Hill
#
# Bulk Modulus (GPa) = 68.69629 72.85138 70.77383
# Shear Modulus (GPa) = 32.35975 35.26708 33.81341
#
# Velocity S-wave (km/s) = 3.69012 3.85232 3.77209
# Velocity P-wave (km/s) = 6.86027 7.10232 6.98234
#
# Compressibility (1/GPa) = 0.01455683
#
# Stress axis : x y z
#
# Youngs Moduli (GPa) = 88.68270 106.81762 67.84176
#
# Poissons Ratio (x) = 0.13627 0.34350
# Poissons Ratio (y) = 0.11313 0.27623
# Poissons Ratio (z) = 0.44903 0.43492
#
# Static dielectric constant tensor:
#      x y z
#    x 4.164860 0.001620 0.084810 
#    y 0.001620 4.722110 -0.250240 
#    z 0.084810 -0.250240 4.505730 
# 
# 
# High freq. dielectric constant tensor:
#      x y z
#    x 1.938570 0.003020 -0.000160 
#    y 0.003020 1.957640 -0.010500 
#    z -0.000160 -0.010500 1.935980 
# 
# From -- ./inp_files/306464.got.cif
#   From: 2010.06.25/outbox.cif.g09.slc.cpg/sg2_154_cif.got.tgz:306464.got - 2010.06.27 13:26:56.
