data_PCOD8027745
_publ_section_title
;
Structure prediction by ZEFSAII (Michael W. Deem and Ramdas Pophale) SiO2 
 PCOD8027745
Probable space group: P -1
;
_chemical_formula_sum "Si O2"
_cell_formula_units_Z 14
_cell_length_a 8.094172
_cell_length_b 17.747736
_cell_length_c 4.985577
_cell_angle_alpha 72.830063
_cell_angle_beta 123.604442
_cell_angle_gamma 90.297010
_cell_volume 558.542565
_symmetry_space_group_name_H-M "P -1"
_symmetry_group_IT_number 2
_symmetry_cell_setting 'triclinic'
loop_
_space_group_symop_operation_xyz
x,y,z
-x,-y,-z
loop_
_atom_site_type_symbol
_atom_site_label
_atom_site_fract_x
_atom_site_fract_y
_atom_site_fract_z
Si Si1 0.453164 0.186438 0.370865
Si Si2 0.906749 0.686541 0.220229
Si Si3 0.679294 0.408014 0.518599
Si Si4 0.139638 0.813556 0.430249
Si Si5 0.010116 0.908247 0.684235
Si Si6 0.418354 0.091750 0.908965
Si Si7 0.412678 0.408011 0.757432
O O1 0.634267 0.231415 0.402819
O O2 0.536292 0.142637 0.767082
O O3 0.254090 0.254347 0.171519
O O4 0.428239 0.116949 0.202000
O O5 0.781013 0.634808 0.342898
O O6 0.084206 0.634806 0.252746
O O7 0.008498 0.745639 0.434678
O O8 0.565126 0.369844 0.695377
O O9 0.685724 0.500002 0.498814
O O10 0.548897 0.402037 0.146981
O O11 0.178938 0.857365 0.695006
O O12 0.045213 0.883041 0.052883
O O13 0.808956 0.882097 0.426872
O O14 0.000000 0.000000 0.500000
O O15 0.500000 0.000000 0.000000
#
# Coordination Sequence:
#
# PCOD8027745 Si02
#       7
#     2   2   2   2   2   2   2
#     4  12  26  44  66 101 136 179 235 295 354 427
#     4  12  25  46  72 106 152 186 244 294 378 410
#     4  10  24  46  73 108 146 192 241 288 353 434
#     4  12  26  44  66 101 136 179 235 295 354 427
#     4  12  24  46  68  96 132 180 234 296 360 424
#     4  12  24  46  68  96 132 180 234 296 360 424
#     4  10  24  46  73 108 146 192 241 288 353 434
#
# _framework density 25.065231000000001
#
# number of rings (size 3 to 8) (size 9 to 14) (size 15 to 20)
#    0.000    0.571    2.857    4.714    0.000    8.000 
#    0.000    4.286    0.000    0.000    0.000    0.000 
#    0.000    0.000    0.000    0.000    0.000    0.000 
#
# Total GULP energy -173491.375762 kJ/mol
# GULP energy per Si atom -12392.241126 kJ/mol
# Density = 2.500818 g / cm^3
# Si number density = 25.065231 Si / 1000 Ang^3
#
#
#
# Elastic Constant Matrix: (Units=GPa)
#
#
# Indices 1 2 3 4 5 6 
#
# 1 196.3409 69.6175 44.3825 -11.7654 2.4360 3.7575
# 2 69.6175 110.2129 37.9511 -26.8016 -1.3316 5.1199
# 3 44.3825 37.9511 81.5564 13.3100 -11.5989 -5.0126
# 4 -11.7654 -26.8016 13.3100 23.6753 -1.6643 1.7233
# 5 2.4360 -1.3316 -11.5989 -1.6643 48.5790 0.8720
# 6 3.7575 5.1199 -5.0126 1.7233 0.8720 46.7762
#
#
#
# Elastic Compliance Matrix: (Units=1/GPa)
#
#
# Indices 1 2 3 4 5 6 
#
# 1 0.006909 -0.003000 -0.002804 0.001582 -0.001034 -0.000566
# 2 -0.003000 0.027128 -0.018126 0.039715 -0.001964 -0.006097
# 3 -0.002804 -0.018126 0.029708 -0.038732 0.005289 0.006721
# 4 0.001582 0.039715 -0.038732 0.110379 -0.004231 -0.012612
# 5 -0.001034 -0.001964 0.005289 -0.004231 0.021690 0.000616
# 6 -0.000566 -0.006097 0.006721 -0.012612 0.000616 0.023265
#
#
# Mechanical properties :
#
#
# Convention : Reuss Voigt Hill
#
# Bulk Modulus (GPa) = 62.95355 76.89026 69.92191
# Shear Modulus (GPa) = 18.36650 39.55004 28.95827
#
# Velocity S-wave (km/s) = 2.70987 3.97657 3.40268
# Velocity P-wave (km/s) = 5.91283 7.19908 6.58743
#
# Compressibility (1/GPa) = 0.01588473
#
# Stress axis : x y z
#
# Youngs Moduli (GPa) = 144.73278 36.86277 33.66047
#
# Poissons Ratio (x) = 0.11061 0.09437
# Poissons Ratio (y) = 0.43427 0.61013
# Poissons Ratio (z) = 0.40579 0.66818
#
# Static dielectric constant tensor:
#      x y z
#    x 5.312830 0.056370 -0.034400 
#    y 0.056370 4.554780 -0.060240 
#    z -0.034400 -0.060240 4.425170 
# 
# 
# High freq. dielectric constant tensor:
#      x y z
#    x 2.025820 0.006600 0.010940 
#    y 0.006600 2.000920 -0.001290 
#    z 0.010940 -0.001290 1.994810 
# 
# From -- ./inp_files/41821.got.cif
#   From: 2010.06.25/outbox.cif.g09.slc.cpg/sg2_21_cif.got.tgz:41821.got - 2010.06.27 13:26:56.
