data_PCOD8027975
_publ_section_title
;
Structure prediction by ZEFSAII (Michael W. Deem and Ramdas Pophale) SiO2 
 PCOD8027975
Probable space group: P -1
;
_chemical_formula_sum "Si O2"
_cell_formula_units_Z 16
_cell_length_a 24.301517
_cell_length_b 8.660919
_cell_length_c 8.657400
_cell_angle_alpha 106.006119
_cell_angle_beta 43.267419
_cell_angle_gamma 136.755767
_cell_volume 718.860596
_symmetry_space_group_name_H-M "P -1"
_symmetry_group_IT_number 2
_symmetry_cell_setting 'triclinic'
loop_
_space_group_symop_operation_xyz
x,y,z
-x,-y,-z
loop_
_atom_site_type_symbol
_atom_site_label
_atom_site_fract_x
_atom_site_fract_y
_atom_site_fract_z
Si Si1 0.880583 0.965410 0.983144
Si Si2 0.059682 0.297160 0.202548
Si Si3 0.650209 0.284625 0.732412
Si Si4 0.167071 0.864287 0.635502
Si Si5 0.761248 0.242407 0.257375
Si Si6 0.349745 0.232705 0.784768
Si Si7 0.119415 0.482819 0.465343
Si Si8 0.260345 0.212848 0.287409
O O1 0.742573 0.803755 0.145166
O O2 0.916576 0.124545 0.109321
O O3 0.871891 0.764871 0.986780
O O4 0.999910 0.174992 0.675314
O O5 0.128301 0.486342 0.264347
O O6 0.099708 0.474768 0.025225
O O7 0.900344 0.029659 0.470214
O O8 0.680644 0.266593 0.493229
O O9 0.742689 0.355303 0.695844
O O10 0.670980 0.507823 0.744509
O O11 0.500000 0.000000 0.000000
O O12 0.222644 0.846317 0.653631
O O13 0.083535 0.609218 0.624029
O O14 0.283693 0.133658 0.366259
O O15 0.680932 0.006773 0.232523
O O16 0.500000 0.500000 0.500000
O O17 0.329075 0.245434 0.007892
#
# Coordination Sequence:
#
# PCOD8027975 Si02
#       8
#     2   2   2   2   2   2   2   2
#     4  11  22  42  64  99 132 174 225 273 333 394
#     4  12  24  40  68 103 134 172 230 278 333 396
#     4  11  24  45  68  96 136 178 221 274 340 404
#     4  10  25  39  63  98 134 173 218 280 329 393
#     4  10  25  44  62  99 135 178 223 281 335 386
#     4  11  24  45  68  96 136 178 221 274 340 404
#     4  11  22  42  64  99 132 174 225 273 333 394
#     4  12  24  41  69 101 133 178 224 275 338 400
#
# _framework density 22.257442999999999
#
# number of rings (size 3 to 8) (size 9 to 14) (size 15 to 20)
#    0.000    1.000    2.500    3.750    7.000    2.000 
#    0.000   17.500    0.000    0.000    0.000    0.000 
#    0.000    0.000    0.000    0.000    0.000    0.000 
#
# Total GULP energy -198344.719925 kJ/mol
# GULP energy per Si atom -12396.544995 kJ/mol
# Density = 2.220678 g / cm^3
# Si number density = 22.257443 Si / 1000 Ang^3
#
#
#
# Elastic Constant Matrix: (Units=GPa)
#
#
# Indices 1 2 3 4 5 6 
#
# 1 99.5686 53.2134 62.5044 -6.5237 16.0020 -8.4672
# 2 53.2134 171.5041 73.0937 18.1063 16.6406 -12.2699
# 3 62.5044 73.0937 157.8521 -9.0047 10.6976 -2.5589
# 4 -6.5237 18.1063 -9.0047 54.1868 6.7324 -1.0231
# 5 16.0020 16.6406 10.6976 6.7324 35.6069 -15.5004
# 6 -8.4672 -12.2699 -2.5589 -1.0231 -15.5004 13.1623
#
#
#
# Elastic Compliance Matrix: (Units=1/GPa)
#
#
# Indices 1 2 3 4 5 6 
#
# 1 0.015110 -0.002563 -0.004364 0.002462 -0.003779 0.002224
# 2 -0.002563 0.008836 -0.003334 -0.003965 0.002514 0.008593
# 3 -0.004364 -0.003334 0.009843 0.002480 -0.003211 -0.007591
# 4 0.002462 -0.003965 0.002480 0.021330 -0.008247 -0.009685
# 5 -0.003779 0.002514 -0.003211 -0.008247 0.062672 0.072452
# 6 0.002224 0.008593 -0.007591 -0.009685 0.072452 0.168510
#
#
# Mechanical properties :
#
#
# Convention : Reuss Voigt Hill
#
# Bulk Modulus (GPa) = 75.36955 89.61642 82.49298
# Shear Modulus (GPa) = 16.06451 36.59874 26.33162
#
# Velocity S-wave (km/s) = 2.68947 4.05944 3.44328
# Velocity P-wave (km/s) = 6.60155 7.89450 7.27680
#
# Compressibility (1/GPa) = 0.01326796
#
# Stress axis : x y z
#
# Youngs Moduli (GPa) = 66.18090 113.16842 101.59478
#
# Poissons Ratio (x) = 0.29000 0.44335
# Poissons Ratio (y) = 0.16959 0.33875
# Poissons Ratio (z) = 0.28881 0.37734
#
# Static dielectric constant tensor:
#      x y z
#    x 4.255470 -0.147320 0.285550 
#    y -0.147320 4.656290 0.416540 
#    z 0.285550 0.416540 4.040850 
# 
# 
# High freq. dielectric constant tensor:
#      x y z
#    x 1.862470 -0.009820 0.019290 
#    y -0.009820 1.900960 0.018410 
#    z 0.019290 0.018410 1.873880 
# 
# From -- ./inp_files/356613.got.cif
#   From: 2010.06.25/outbox.cif.g09.slc.cpg/sg2_179_cif.got.tgz:356613.got - 2010.06.27 13:26:56.
