data_PCOD8027259
_publ_section_title
;
Structure prediction by ZEFSAII (Michael W. Deem and Ramdas Pophale) SiO2 
 PCOD8027259
Probable space group: P -1
;
_chemical_formula_sum "Si O2"
_cell_formula_units_Z 16
_cell_length_a 24.980858
_cell_length_b 9.186923
_cell_length_c 6.753156
_cell_angle_alpha 48.141525
_cell_angle_beta 69.619464
_cell_angle_gamma 40.543523
_cell_volume 708.800516
_symmetry_space_group_name_H-M "P -1"
_symmetry_group_IT_number 2
_symmetry_cell_setting 'triclinic'
loop_
_space_group_symop_operation_xyz
x,y,z
-x,-y,-z
loop_
_atom_site_type_symbol
_atom_site_label
_atom_site_fract_x
_atom_site_fract_y
_atom_site_fract_z
Si Si1 0.297969 0.308508 0.341249
Si Si2 0.879241 0.406040 0.675447
Si Si3 0.528895 0.324739 0.819386
Si Si4 0.616744 0.303776 0.066746
Si Si5 0.001993 0.742595 0.008482
Si Si6 0.395965 0.227185 0.925733
Si Si7 0.719549 0.324017 0.665615
Si Si8 0.110798 0.313264 0.903083
O O1 0.203432 0.489455 0.212339
O O2 0.280385 0.461793 0.433232
O O3 0.352936 0.974226 0.618492
O O4 0.349615 0.317727 0.115555
O O5 0.844096 0.646829 0.336328
O O6 0.927661 0.413065 0.768323
O O7 0.941731 0.089662 0.773901
O O8 0.500000 0.500000 0.500000
O O9 0.444027 0.432745 0.927403
O O10 0.557657 0.418442 0.846596
O O11 0.608433 0.971054 0.999792
O O12 0.691035 0.255388 0.943044
O O13 0.945099 0.692924 0.154152
O O14 0.050118 0.595520 0.870497
O O15 0.340854 0.522803 0.593346
O O16 0.500000 0.000000 0.000000
O O17 0.816700 0.997219 0.783807
#
# Coordination Sequence:
#
# PCOD8027259 Si02
#       8
#     2   2   2   2   2   2   2   2
#     4  12  25  45  68  99 138 180 231 290 339 414
#     4  11  23  45  72 103 138 183 233 283 345 417
#     4  11  22  41  66  93 127 174 230 278 348 409
#     4  11  24  42  69  91 130 180 225 287 343 405
#     4  10  24  44  71 105 140 182 226 282 352 419
#     4  12  27  45  68 100 140 181 235 290 349 411
#     4  12  26  44  67 101 139 178 233 290 345 410
#     4  11  23  45  71 102 142 183 229 281 351 418
#
# _framework density 22.573346000000001
#
# number of rings (size 3 to 8) (size 9 to 14) (size 15 to 20)
#    0.000    0.750    5.000    2.250    1.750    4.000 
#   11.250    0.000    0.000    0.000    0.000    0.000 
#    0.000    0.000    0.000    0.000    0.000    0.000 
#
# Total GULP energy -198330.970634 kJ/mol
# GULP energy per Si atom -12395.685665 kJ/mol
# Density = 2.252197 g / cm^3
# Si number density = 22.573346 Si / 1000 Ang^3
#
#
#
# Elastic Constant Matrix: (Units=GPa)
#
#
# Indices 1 2 3 4 5 6 
#
# 1 93.6485 35.0560 38.1184 2.1398 9.4514 -17.4194
# 2 35.0560 92.9776 36.1737 -3.9292 9.8327 -4.6226
# 3 38.1184 36.1737 122.3003 -4.6789 8.0432 -9.2738
# 4 2.1398 -3.9292 -4.6789 29.8399 -7.3806 -0.1249
# 5 9.4514 9.8327 8.0432 -7.3806 34.4694 -0.7360
# 6 -17.4194 -4.6226 -9.2738 -0.1249 -0.7360 38.1743
#
#
#
# Elastic Compliance Matrix: (Units=1/GPa)
#
#
# Indices 1 2 3 4 5 6 
#
# 1 0.014697 -0.003964 -0.002921 -0.002672 -0.002673 0.005456
# 2 -0.003964 0.013489 -0.002649 0.001169 -0.001911 -0.000852
# 3 -0.002921 -0.002649 0.010011 0.001315 -0.000482 0.000773
# 4 -0.002672 0.001169 0.001315 0.035988 0.007788 -0.000491
# 5 -0.002673 -0.001911 -0.000482 0.007788 0.032049 -0.000925
# 6 0.005456 -0.000852 0.000773 -0.000491 -0.000925 0.028751
#
#
# Mechanical properties :
#
#
# Convention : Reuss Voigt Hill
#
# Bulk Modulus (GPa) = 52.27264 58.62475 55.44869
# Shear Modulus (GPa) = 31.16646 33.80194 32.48420
#
# Velocity S-wave (km/s) = 3.71978 3.87386 3.79760
# Velocity P-wave (km/s) = 6.45415 6.78500 6.62164
#
# Compressibility (1/GPa) = 0.01913047
#
# Stress axis : x y z
#
# Youngs Moduli (GPa) = 68.04244 74.13243 99.89004
#
# Poissons Ratio (x) = 0.29384 0.29177
# Poissons Ratio (y) = 0.26970 0.26457
# Poissons Ratio (z) = 0.19875 0.19635
#
# Static dielectric constant tensor:
#      x y z
#    x 4.259640 0.127280 -0.041530 
#    y 0.127280 4.354590 -0.116230 
#    z -0.041530 -0.116230 3.813770 
# 
# 
# High freq. dielectric constant tensor:
#      x y z
#    x 1.895290 0.003380 -0.002010 
#    y 0.003380 1.901720 -0.007680 
#    z -0.002010 -0.007680 1.880880 
# 
# From -- ./inp_files/126371.got.cif
#   From: 2010.06.25/outbox.cif.g09.slc.cpg/sg2_64_cif.got.tgz:126371.got - 2010.06.27 13:26:56.
