data_PCOD8027459
_publ_section_title
;
Structure prediction by ZEFSAII (Michael W. Deem and Ramdas Pophale) SiO2 
 PCOD8027459
Probable space group: P -1
;
_chemical_formula_sum "Si O2"
_cell_formula_units_Z 14
_cell_length_a 15.049654
_cell_length_b 13.409954
_cell_length_c 9.227283
_cell_angle_alpha 126.899440
_cell_angle_beta 24.038353
_cell_angle_gamma 131.593116
_cell_volume 567.209966
_symmetry_space_group_name_H-M "P -1"
_symmetry_group_IT_number 2
_symmetry_cell_setting 'triclinic'
loop_
_space_group_symop_operation_xyz
x,y,z
-x,-y,-z
loop_
_atom_site_type_symbol
_atom_site_label
_atom_site_fract_x
_atom_site_fract_y
_atom_site_fract_z
Si Si1 0.297983 0.889428 0.621944
Si Si2 0.564215 0.599436 0.279042
Si Si3 0.980111 0.599031 0.492954
Si Si4 0.713648 0.110834 0.696658
Si Si5 0.076323 0.047114 0.587493
Si Si6 0.842773 0.377977 0.276182
Si Si7 0.306193 0.324274 0.530163
O O1 0.306197 0.927537 0.475547
O O2 0.304409 0.740614 0.498095
O O3 0.500000 0.000000 0.500000
O O4 0.068960 0.883533 0.043228
O O5 0.330111 0.623595 0.599851
O O6 0.519143 0.443878 0.247397
O O7 0.668233 0.682889 0.340785
O O8 0.763985 0.645938 0.898844
O O9 0.923769 0.521928 0.357997
O O10 0.000000 0.500000 0.500000
O O11 0.218896 0.730186 0.237124
O O12 0.926448 0.078319 0.423958
O O13 0.500000 0.000000 0.000000
O O14 0.313489 0.180841 0.334041
O O15 0.000000 0.000000 0.500000
O O16 0.073145 0.354077 0.855229
#
# Coordination Sequence:
#
# PCOD8027459 Si02
#       7
#     2   2   2   2   2   2   2
#     4  11  25  46  73 103 148 194 245 309 368 445
#     4  11  24  42  75 106 143 196 234 306 371 441
#     4  12  24  47  72 104 148 186 246 304 367 441
#     4  12  28  47  75 107 147 200 245 311 377 443
#     4  11  26  46  70 104 148 191 248 302 376 444
#     4  11  24  45  74 107 145 191 247 297 375 442
#     4  10  24  45  69 106 148 185 245 305 365 443
#
# _framework density 24.682217000000001
#
# number of rings (size 3 to 8) (size 9 to 14) (size 15 to 20)
#    0.000    0.857    2.857    3.000    8.000    1.143 
#    0.000    0.000    0.000    0.000    0.000    0.000 
#    0.000    0.000    0.000    0.000    0.000    0.000 
#
# Total GULP energy -173506.664893 kJ/mol
# GULP energy per Si atom -12393.333207 kJ/mol
# Density = 2.462604 g / cm^3
# Si number density = 24.682217 Si / 1000 Ang^3
#
#
#
# Elastic Constant Matrix: (Units=GPa)
#
#
# Indices 1 2 3 4 5 6 
#
# 1 151.9872 70.6148 18.2112 -2.9394 6.8039 3.3129
# 2 70.6148 185.1125 32.6259 -25.9845 12.0735 17.1457
# 3 18.2112 32.6259 45.8255 -26.3094 17.9519 2.8036
# 4 -2.9394 -25.9845 -26.3094 33.6536 0.6399 -3.4876
# 5 6.8039 12.0735 17.9519 0.6399 37.2093 -2.1194
# 6 3.3129 17.1457 2.8036 -3.4876 -2.1194 46.4949
#
#
#
# Elastic Compliance Matrix: (Units=1/GPa)
#
#
# Indices 1 2 3 4 5 6 
#
# 1 0.008561 -0.003367 -0.005421 -0.006071 0.002282 0.000607
# 2 -0.003367 0.007827 -0.000180 0.005407 -0.002063 -0.002324
# 3 -0.005421 -0.000180 0.066451 0.051829 -0.031966 -0.001124
# 4 -0.006071 0.005407 0.051829 0.074355 -0.026947 -0.000338
# 5 0.002282 -0.002063 -0.031966 -0.026947 0.043153 0.002471
# 6 0.000607 -0.002324 -0.001124 -0.000338 0.002471 0.022477
#
#
# Mechanical properties :
#
#
# Convention : Reuss Voigt Hill
#
# Bulk Modulus (GPa) = 15.40760 69.53656 42.47208
# Shear Modulus (GPa) = 19.05525 40.90310 29.97918
#
# Velocity S-wave (km/s) = 2.78155 4.07528 3.48890
# Velocity P-wave (km/s) = 4.07086 7.09773 5.78574
#
# Compressibility (1/GPa) = 0.06490304
#
# Stress axis : x y z
#
# Youngs Moduli (GPa) = 116.81126 127.75941 15.04859
#
# Poissons Ratio (x) = 0.43023 0.08158
# Poissons Ratio (y) = 0.39336 0.00271
# Poissons Ratio (z) = 0.63322 0.02298
#
# Static dielectric constant tensor:
#      x y z
#    x 3.991800 1.337880 -0.658920 
#    y 1.337880 -0.130790 1.327050 
#    z -0.658920 1.327050 4.079720 
# 
# 
# High freq. dielectric constant tensor:
#      x y z
#    x 1.983950 0.000380 -0.011400 
#    y 0.000380 2.005480 -0.016350 
#    z -0.011400 -0.016350 1.976680 
# 
# From -- ./inp_files/308243.got.cif
#   From: 2010.06.25/outbox.cif.g09.slc.cpg/sg2_155_cif.got.tgz:308243.got - 2010.06.27 13:26:56.
