data_PCOD8027684
_publ_section_title
;
Structure prediction by ZEFSAII (Michael W. Deem and Ramdas Pophale) SiO2 
 PCOD8027684
Probable space group: P -1
;
_chemical_formula_sum "Si O2"
_cell_formula_units_Z 16
_cell_length_a 9.414204
_cell_length_b 8.499158
_cell_length_c 12.028587
_cell_angle_alpha 50.508321
_cell_angle_beta 85.542860
_cell_angle_gamma 98.135375
_cell_volume 717.321410
_symmetry_space_group_name_H-M "P -1"
_symmetry_group_IT_number 2
_symmetry_cell_setting 'triclinic'
loop_
_space_group_symop_operation_xyz
x,y,z
-x,-y,-z
loop_
_atom_site_type_symbol
_atom_site_label
_atom_site_fract_x
_atom_site_fract_y
_atom_site_fract_z
Si Si1 0.699934 0.633553 0.726697
Si Si2 0.107128 0.974028 0.759028
Si Si3 0.927696 0.267390 0.579721
Si Si4 0.868600 0.612363 0.951871
Si Si5 0.654902 0.885382 0.137989
Si Si6 0.221377 0.885098 0.566723
Si Si7 0.317788 0.786283 0.205749
Si Si8 0.364722 0.542140 0.780762
O O1 0.805873 0.634651 0.823218
O O2 0.730309 0.459155 0.717309
O O3 0.529457 0.562987 0.804202
O O4 0.721087 0.864694 0.567873
O O5 0.248311 0.012569 0.810175
O O6 0.071924 0.188680 0.631816
O O7 0.135905 0.846298 0.705810
O O8 0.954122 0.844681 0.884233
O O9 0.891362 0.223120 0.472837
O O10 0.780559 0.175059 0.702184
O O11 0.000000 0.500000 0.500000
O O12 0.734780 0.496768 0.086998
O O13 0.000000 0.500000 0.000000
O O14 0.487402 0.851138 0.203956
O O15 0.685216 0.661206 0.204782
O O16 0.700491 0.055398 0.961490
O O17 0.348376 0.754552 0.623171
#
# Coordination Sequence:
#
# PCOD8027684 Si02
#       8
#     2   2   2   2   2   2   2   2
#     4  11  25  45  71 100 141 183 231 288 345 417
#     4  12  25  43  69 101 139 183 227 291 342 412
#     4  12  26  43  70  99 140 186 225 284 347 419
#     4  12  24  42  69 103 136 178 230 290 343 407
#     4  10  24  46  71 101 137 179 237 291 342 409
#     4  12  26  45  68 105 145 182 236 277 352 417
#     4  10  24  46  71 100 136 184 234 288 347 409
#     4  11  25  45  70 102 138 186 233 284 347 411
#
# _framework density 22.305204
#
# number of rings (size 3 to 8) (size 9 to 14) (size 15 to 20)
#    0.000    0.750    2.500    4.125    1.750    6.000 
#    0.000    3.125    0.000    0.000    0.000    0.000 
#    0.000    0.000    0.000    0.000    0.000    0.000 
#
# Total GULP energy -198316.340710 kJ/mol
# GULP energy per Si atom -12394.771294 kJ/mol
# Density = 2.225444 g / cm^3
# Si number density = 22.305204 Si / 1000 Ang^3
#
#
#
# Elastic Constant Matrix: (Units=GPa)
#
#
# Indices 1 2 3 4 5 6 
#
# 1 117.0788 46.5860 46.4586 10.0476 17.6943 9.8958
# 2 46.5860 123.2481 54.7230 -11.9452 11.5118 12.4568
# 3 46.4586 54.7230 93.9479 -1.6157 18.0729 4.4950
# 4 10.0476 -11.9452 -1.6157 38.5507 -4.6335 4.8670
# 5 17.6943 11.5118 18.0729 -4.6335 38.4294 -0.8790
# 6 9.8958 12.4568 4.4950 4.8670 -0.8790 45.4895
#
#
#
# Elastic Compliance Matrix: (Units=1/GPa)
#
#
# Indices 1 2 3 4 5 6 
#
# 1 0.012195 -0.003003 -0.003619 -0.004558 -0.003587 -0.001055
# 2 -0.003003 0.012450 -0.005721 0.004844 0.000866 -0.002692
# 3 -0.003619 -0.005721 0.016584 -0.000764 -0.004495 0.000710
# 4 -0.004558 0.004844 -0.000764 0.029558 0.004495 -0.003335
# 5 -0.003587 0.000866 -0.004495 0.004495 0.030094 0.001088
# 6 -0.001055 -0.002692 0.000710 -0.003335 0.001088 0.023257
#
#
# Mechanical properties :
#
#
# Convention : Reuss Voigt Hill
#
# Bulk Modulus (GPa) = 60.45294 69.97889 65.21591
# Shear Modulus (GPa) = 32.39610 36.92775 34.66192
#
# Velocity S-wave (km/s) = 3.81517 4.07328 3.94634
# Velocity P-wave (km/s) = 6.82414 7.31872 7.07575
#
# Compressibility (1/GPa) = 0.01654179
#
# Stress axis : x y z
#
# Youngs Moduli (GPa) = 82.00318 80.32306 60.29808
#
# Poissons Ratio (x) = 0.24117 0.21824
# Poissons Ratio (y) = 0.24622 0.34499
# Poissons Ratio (z) = 0.29680 0.45957
#
# Static dielectric constant tensor:
#      x y z
#    x 4.325910 -0.105570 -0.203110 
#    y -0.105570 3.915130 -0.172310 
#    z -0.203110 -0.172310 4.117330 
# 
# 
# High freq. dielectric constant tensor:
#      x y z
#    x 1.895500 -0.004050 0.006400 
#    y -0.004050 1.884710 -0.021070 
#    z 0.006400 -0.021070 1.884620 
# 
# From -- ./inp_files/381060.got.cif
#   From: 2010.06.25/outbox.cif.g09.slc.cpg/sg2_191_cif.got.tgz:381060.got - 2010.06.27 13:26:56.
