data_PCOD8027935
_publ_section_title
;
Structure prediction by ZEFSAII (Michael W. Deem and Ramdas Pophale) SiO2 
 PCOD8027935
Probable space group: P -1
;
_chemical_formula_sum "Si O2"
_cell_formula_units_Z 14
_cell_length_a 18.292356
_cell_length_b 12.276796
_cell_length_c 12.049459
_cell_angle_alpha 25.465227
_cell_angle_beta 142.106691
_cell_angle_gamma 151.441580
_cell_volume 556.102921
_symmetry_space_group_name_H-M "P -1"
_symmetry_group_IT_number 2
_symmetry_cell_setting 'triclinic'
loop_
_space_group_symop_operation_xyz
x,y,z
-x,-y,-z
loop_
_atom_site_type_symbol
_atom_site_label
_atom_site_fract_x
_atom_site_fract_y
_atom_site_fract_z
Si Si1 0.741910 0.779995 0.072396
Si Si2 0.436747 0.245621 0.753408
Si Si3 0.980213 0.693998 0.206043
Si Si4 0.087119 0.351549 0.227458
Si Si5 0.255451 0.628529 0.967688
Si Si6 0.480233 0.824852 0.749315
Si Si7 0.335525 0.545505 0.502578
O O1 0.688056 0.532988 0.128370
O O2 0.768320 0.631907 0.347168
O O3 0.605463 0.774093 0.955392
O O4 0.885183 0.142414 0.875261
O O5 0.500000 0.500000 0.500000
O O6 0.579159 0.274461 0.944228
O O7 0.377206 0.324446 0.712965
O O8 0.291458 0.918717 0.821741
O O9 0.000000 0.500000 0.500000
O O10 0.821290 0.432999 0.189029
O O11 0.000000 0.000000 0.000000
O O12 0.129068 0.323191 0.176586
O O13 0.245299 0.593048 0.261749
O O14 0.000000 0.000000 0.500000
O O15 0.000000 0.500000 0.000000
O O16 0.500000 0.000000 0.500000
O O17 0.508628 0.079019 0.642032
#
# Coordination Sequence:
#
# PCOD8027935 Si02
#       7
#     2   2   2   2   2   2   2
#     4  10  24  49  73 110 153 196 261 317 383 460
#     4  11  25  49  77 115 158 202 257 326 395 467
#     4  12  32  52  79 111 155 215 262 322 397 465
#     4  12  27  45  77 114 153 202 251 318 392 466
#     4  11  28  51  75 112 161 202 265 320 394 473
#     4   9  22  42  72 110 148 194 258 320 377 450
#     4  11  24  43  79 115 149 202 255 320 397 459
#
# _framework density 25.175196
#
# number of rings (size 3 to 8) (size 9 to 14) (size 15 to 20)
#    0.000    1.143    1.429    1.714   12.000    4.571 
#    0.000    0.000    0.000    0.000    0.000    0.000 
#    0.000    0.000    0.000    0.000    0.000    0.000 
#
# Total GULP energy -173437.784784 kJ/mol
# GULP energy per Si atom -12388.413199 kJ/mol
# Density = 2.511790 g / cm^3
# Si number density = 25.175196 Si / 1000 Ang^3
#
#
#
# Elastic Constant Matrix: (Units=GPa)
#
#
# Indices 1 2 3 4 5 6 
#
# 1 93.5350 54.1027 37.8997 2.1059 7.3295 -19.4375
# 2 54.1027 180.1353 54.8052 7.6097 6.6033 -30.3211
# 3 37.8997 54.8052 126.0348 6.7853 -1.4527 -16.9691
# 4 2.1059 7.6097 6.7853 48.6088 -6.5402 -2.5866
# 5 7.3295 6.6033 -1.4527 -6.5402 48.9655 -8.0383
# 6 -19.4375 -30.3211 -16.9691 -2.5866 -8.0383 40.0188
#
#
#
# Elastic Compliance Matrix: (Units=1/GPa)
#
#
# Indices 1 2 3 4 5 6 
#
# 1 0.014196 -0.002869 -0.002591 0.000211 -0.001230 0.003390
# 2 -0.002869 0.007626 -0.001953 -0.000635 -0.000170 0.003482
# 3 -0.002591 -0.001953 0.009830 -0.000719 0.001110 0.001607
# 4 0.000211 -0.000635 -0.000719 0.021248 0.003086 0.001310
# 5 -0.001230 -0.000170 0.001110 0.003086 0.021784 0.004319
# 6 0.003390 0.003482 0.001607 0.001310 0.004319 0.030906
#
#
# Mechanical properties :
#
#
# Convention : Reuss Voigt Hill
#
# Bulk Modulus (GPa) = 59.42183 77.03557 68.22870
# Shear Modulus (GPa) = 39.67486 44.37846 42.02666
#
# Velocity S-wave (km/s) = 3.97413 4.20311 4.09022
# Velocity P-wave (km/s) = 6.68677 7.36349 7.03327
#
# Compressibility (1/GPa) = 0.01682883
#
# Stress axis : x y z
#
# Youngs Moduli (GPa) = 70.44055 131.12772 101.72632
#
# Poissons Ratio (x) = 0.37619 0.26353
# Poissons Ratio (y) = 0.20208 0.19862
# Poissons Ratio (z) = 0.18248 0.25603
#
# Static dielectric constant tensor:
#      x y z
#    x 4.400170 -0.316200 -0.346210 
#    y -0.316200 5.317040 0.158800 
#    z -0.346210 0.158800 4.368090 
# 
# 
# High freq. dielectric constant tensor:
#      x y z
#    x 1.997410 -0.009600 -0.015420 
#    y -0.009600 2.018960 -0.002700 
#    z -0.015420 -0.002700 2.013650 
# 
# From -- ./inp_files/465000.got.cif
#   From: 2010.06.25/outbox.cif.g09.slc.cpg/sg2_233_cif.got.tgz:465000.got - 2010.06.27 13:26:56.
