data_PCOD8027173
_publ_section_title
;
Structure prediction by ZEFSAII (Michael W. Deem and Ramdas Pophale) SiO2 
 PCOD8027173
Probable space group: P -1
;
_chemical_formula_sum "Si O2"
_cell_formula_units_Z 14
_cell_length_a 12.687579
_cell_length_b 8.644730
_cell_length_c 21.363484
_cell_angle_alpha 42.878143
_cell_angle_beta 29.246298
_cell_angle_gamma 62.540293
_cell_volume 657.496065
_symmetry_space_group_name_H-M "P -1"
_symmetry_group_IT_number 2
_symmetry_cell_setting 'triclinic'
loop_
_space_group_symop_operation_xyz
x,y,z
-x,-y,-z
loop_
_atom_site_type_symbol
_atom_site_label
_atom_site_fract_x
_atom_site_fract_y
_atom_site_fract_z
Si Si1 0.297348 0.130191 0.819377
Si Si2 0.558499 0.691220 0.971103
Si Si3 0.125175 0.104635 0.568805
Si Si4 0.213620 0.908613 0.061626
Si Si5 0.569909 0.542228 0.146180
Si Si6 0.456993 0.962691 0.664954
Si Si7 0.289465 0.261871 0.576714
O O1 0.435309 0.075866 0.708548
O O2 0.445034 0.452933 0.654580
O O3 0.318793 0.994973 0.911408
O O4 0.000000 0.000000 0.000000
O O5 0.500000 0.500000 0.000000
O O6 0.349105 0.770021 0.063565
O O7 0.555557 0.537717 0.080129
O O8 0.835183 0.961434 0.739249
O O9 0.281583 0.396249 0.367053
O O10 0.149767 0.142616 0.619050
O O11 0.245019 0.928130 0.537006
O O12 0.904833 0.707178 0.286102
O O13 0.261779 0.161500 0.002054
O O14 0.690214 0.365117 0.157190
O O15 0.343886 0.048145 0.642373
#
# Coordination Sequence:
#
# PCOD8027173 Si02
#       7
#     2   2   2   2   2   2   2
#     4  12  25  45  69 107 142 182 225 287 351 408
#     4  12  27  46  71 101 141 183 236 291 344 408
#     4  10  25  45  69 100 137 185 230 280 347 407
#     4  12  26  44  72 106 138 188 233 282 347 415
#     4  10  24  47  66 102 135 187 232 281 343 408
#     4  10  24  44  69 104 141 178 232 287 345 408
#     4  12  24  45  71 106 140 185 229 284 348 418
#
# _framework density 21.292902000000002
#
# number of rings (size 3 to 8) (size 9 to 14) (size 15 to 20)
#    0.857    0.000    4.286    2.143    2.000    4.000 
#    2.571    0.000    0.000    0.000    0.000    0.000 
#    0.000    0.000    0.000    0.000    0.000    0.000 
#
# Total GULP energy -173557.830255 kJ/mol
# GULP energy per Si atom -12396.987875 kJ/mol
# Density = 2.124444 g / cm^3
# Si number density = 21.292902 Si / 1000 Ang^3
#
#
#
# Elastic Constant Matrix: (Units=GPa)
#
#
# Indices 1 2 3 4 5 6 
#
# 1 65.7129 8.5298 33.6864 -4.1521 -3.6257 17.7584
# 2 8.5298 83.8994 22.0575 4.2667 -13.8614 -1.0948
# 3 33.6864 22.0575 116.4513 5.5436 -2.0386 -7.2449
# 4 -4.1521 4.2667 5.5436 30.6657 2.9509 -2.6781
# 5 -3.6257 -13.8614 -2.0386 2.9509 36.1825 11.6334
# 6 17.7584 -1.0948 -7.2449 -2.6781 11.6334 41.2164
#
#
#
# Elastic Compliance Matrix: (Units=1/GPa)
#
#
# Indices 1 2 3 4 5 6 
#
# 1 0.022951 0.000302 -0.007513 0.002755 0.005841 -0.012671
# 2 0.000302 0.013632 -0.002590 -0.002137 0.005936 -0.002037
# 3 -0.007513 -0.002590 0.011662 -0.001980 -0.002819 0.005885
# 4 0.002755 -0.002137 -0.001980 0.034177 -0.004007 0.001760
# 5 0.005841 0.005936 -0.002819 -0.004007 0.034827 -0.012945
# 6 -0.012671 -0.002037 0.005885 0.001760 -0.012945 0.034470
#
#
# Mechanical properties :
#
#
# Convention : Reuss Voigt Hill
#
# Bulk Modulus (GPa) = 34.91521 43.84565 39.38043
# Shear Modulus (GPa) = 27.64392 35.06558 31.35475
#
# Velocity S-wave (km/s) = 3.60706 4.06251 3.84154
# Velocity P-wave (km/s) = 5.81214 6.53006 6.18153
#
# Compressibility (1/GPa) = 0.02864081
#
# Stress axis : x y z
#
# Youngs Moduli (GPa) = 43.57160 73.35552 85.74536
#
# Poissons Ratio (x) = -0.02212 0.64424
# Poissons Ratio (y) = -0.01314 0.22212
# Poissons Ratio (z) = 0.32737 0.19003
#
# Static dielectric constant tensor:
#      x y z
#    x 3.862730 -0.015280 0.222050 
#    y -0.015280 3.806530 0.097180 
#    z 0.222050 0.097180 4.005330 
# 
# 
# High freq. dielectric constant tensor:
#      x y z
#    x 1.837800 0.006410 0.015230 
#    y 0.006410 1.828540 0.008300 
#    z 0.015230 0.008300 1.844880 
# 
# From -- ./inp_files/593941.got.cif
#   From: 2010.06.25/outbox.cif.g09.slc.cpg/sg2_297_cif.got.tgz:593941.got - 2010.06.27 13:26:56.
