data_PCOD8027999
_publ_section_title
;
Structure prediction by ZEFSAII (Michael W. Deem and Ramdas Pophale) SiO2 
 PCOD8027999
Probable space group: P -1
;
_chemical_formula_sum "Si O2"
_cell_formula_units_Z 16
_cell_length_a 7.993978
_cell_length_b 11.766498
_cell_length_c 12.087116
_cell_angle_alpha 50.902105
_cell_angle_beta 56.900498
_cell_angle_gamma 74.111918
_cell_volume 734.777376
_symmetry_space_group_name_H-M "P -1"
_symmetry_group_IT_number 2
_symmetry_cell_setting 'triclinic'
loop_
_space_group_symop_operation_xyz
x,y,z
-x,-y,-z
loop_
_atom_site_type_symbol
_atom_site_label
_atom_site_fract_x
_atom_site_fract_y
_atom_site_fract_z
Si Si1 0.079974 0.831033 0.928346
Si Si2 0.182226 0.087354 0.312967
Si Si3 0.529775 0.988731 0.365654
Si Si4 0.966236 0.340201 0.161287
Si Si5 0.702939 0.484583 0.564000
Si Si6 0.363023 0.671507 0.538292
Si Si7 0.741006 0.012114 0.888349
Si Si8 0.912760 0.307927 0.759824
O O1 0.142511 0.758723 0.835397
O O2 0.245145 0.972820 0.786040
O O3 0.108473 0.716631 0.086400
O O4 0.851328 0.876710 0.984773
O O5 0.154904 0.254687 0.183352
O O6 0.384608 0.103761 0.300837
O O7 0.213815 0.983915 0.260181
O O8 0.000000 0.000000 0.500000
O O9 0.470974 0.830429 0.430207
O O10 0.500000 0.000000 0.500000
O O11 0.844951 0.350805 0.309928
O O12 0.000000 0.500000 0.000000
O O13 0.489739 0.544945 0.616299
O O14 0.684769 0.353450 0.559427
O O15 0.759583 0.419661 0.701905
O O16 0.861705 0.622183 0.388719
O O17 0.859083 0.154997 0.811464
O O18 0.500000 0.000000 0.000000
#
# Coordination Sequence:
#
# PCOD8027999 Si02
#       8
#     2   2   2   2   2   2   2   2
#     4  11  24  43  65 103 134 173 228 294 345 405
#     4  11  23  43  68 102 134 182 239 279 346 420
#     4  12  22  43  71 102 135 177 235 296 343 406
#     4  11  24  44  67  96 138 182 227 287 348 416
#     4  10  25  41  66  94 136 188 222 284 337 423
#     4  11  22  45  67  95 136 184 235 272 351 411
#     4  11  24  42  70  97 135 181 227 287 347 414
#     4  11  23  43  62  99 137 173 232 277 352 403
#
# _framework density 21.775300999999999
#
# number of rings (size 3 to 8) (size 9 to 14) (size 15 to 20)
#    0.000    1.000    2.500    4.125    0.000    6.000 
#    4.500    1.250    0.000    0.000    0.000    0.000 
#    0.000    0.000    0.000    0.000    0.000    0.000 
#
# Total GULP energy -198313.830632 kJ/mol
# GULP energy per Si atom -12394.614414 kJ/mol
# Density = 2.172574 g / cm^3
# Si number density = 21.775301 Si / 1000 Ang^3
#
#
#
# Elastic Constant Matrix: (Units=GPa)
#
#
# Indices 1 2 3 4 5 6 
#
# 1 137.5062 49.0824 46.3841 6.0733 16.9980 -8.1246
# 2 49.0824 109.3780 36.7203 -1.5554 -0.9318 -1.6618
# 3 46.3841 36.7203 97.5414 -0.0423 14.0226 -7.6028
# 4 6.0733 -1.5554 -0.0423 39.2516 0.8170 -3.9699
# 5 16.9980 -0.9318 14.0226 0.8170 44.3418 -3.8615
# 6 -8.1246 -1.6618 -7.6028 -3.9699 -3.8615 34.4573
#
#
#
# Elastic Compliance Matrix: (Units=1/GPa)
#
#
# Indices 1 2 3 4 5 6 
#
# 1 0.010008 -0.003536 -0.002936 -0.001526 -0.002863 0.001045
# 2 -0.003536 0.011822 -0.003179 0.000901 0.002542 -0.000576
# 3 -0.002936 -0.003179 0.013426 0.000593 -0.003037 0.001845
# 4 -0.001526 0.000901 0.000593 0.026032 0.000184 0.002834
# 5 -0.002863 0.002542 -0.003037 0.000184 0.024798 0.001577
# 6 0.001045 -0.000576 0.001845 0.002834 0.001577 0.030150
#
#
# Mechanical properties :
#
#
# Convention : Reuss Voigt Hill
#
# Bulk Modulus (GPa) = 62.67801 67.64437 65.16119
# Shear Modulus (GPa) = 35.49754 37.75938 36.62846
#
# Velocity S-wave (km/s) = 4.04192 4.16871 4.10580
# Velocity P-wave (km/s) = 7.11543 7.36905 7.24335
#
# Compressibility (1/GPa) = 0.01595456
#
# Stress axis : x y z
#
# Youngs Moduli (GPa) = 99.92256 84.58631 74.48435
#
# Poissons Ratio (x) = 0.29906 0.21866
# Poissons Ratio (y) = 0.35328 0.23681
# Poissons Ratio (z) = 0.29334 0.26893
#
# Static dielectric constant tensor:
#      x y z
#    x 4.314180 -0.011830 0.306020 
#    y -0.011830 4.117980 -0.187570 
#    z 0.306020 -0.187570 3.402870 
# 
# 
# High freq. dielectric constant tensor:
#      x y z
#    x 1.872090 -0.000970 0.014270 
#    y -0.000970 1.859740 0.000600 
#    z 0.014270 0.000600 1.850830 
# 
# From -- ./inp_files/391961.got.cif
#   From: 2010.06.25/outbox.cif.g09.slc.cpg/sg2_196_cif.got.tgz:391961.got - 2010.06.27 13:26:56.
