data_PCOD8027983
_publ_section_title
;
Structure prediction by ZEFSAII (Michael W. Deem and Ramdas Pophale) SiO2 
 PCOD8027983
Probable space group: P -1
;
_chemical_formula_sum "Si O2"
_cell_formula_units_Z 16
_cell_length_a 10.602845
_cell_length_b 16.922819
_cell_length_c 9.704761
_cell_angle_alpha 122.251748
_cell_angle_beta 64.017883
_cell_angle_gamma 66.236797
_cell_volume 723.270197
_symmetry_space_group_name_H-M "P -1"
_symmetry_group_IT_number 2
_symmetry_cell_setting 'triclinic'
loop_
_space_group_symop_operation_xyz
x,y,z
-x,-y,-z
loop_
_atom_site_type_symbol
_atom_site_label
_atom_site_fract_x
_atom_site_fract_y
_atom_site_fract_z
Si Si1 0.005476 0.753196 0.233688
Si Si2 0.548780 0.910496 0.259300
Si Si3 0.727565 0.131653 0.179075
Si Si4 0.888682 0.549341 0.752173
Si Si5 0.737777 0.299728 0.168608
Si Si6 0.164728 0.469378 0.792967
Si Si7 0.915274 0.839365 0.878124
Si Si8 0.752941 0.415053 0.754728
O O1 0.055526 0.704066 0.321741
O O2 0.186140 0.731564 0.057182
O O3 0.050772 0.637556 0.006540
O O4 0.721199 0.951548 0.556566
O O5 0.500000 0.000000 0.500000
O O6 0.661320 0.746721 0.087242
O O7 0.738481 0.849240 0.998334
O O8 0.687094 0.217158 0.140164
O O9 0.462940 0.302965 0.547691
O O10 0.736080 0.015591 0.048913
O O11 0.000000 0.000000 0.000000
O O12 0.750297 0.527020 0.826629
O O13 0.000000 0.500000 0.500000
O O14 0.132341 0.439575 0.630527
O O15 0.500000 0.500000 0.500000
O O16 0.975027 0.190997 0.054674
O O17 0.000000 0.500000 0.000000
O O18 0.153182 0.686624 0.523236
O O19 0.500000 0.500000 0.000000
#
# Coordination Sequence:
#
# PCOD8027983 Si02
#       8
#     2   2   2   2   2   2   2   2
#     4  12  25  43  73 107 140 191 242 308 360 445
#     4  12  24  45  76 112 144 180 258 312 364 434
#     4  10  25  40  71 105 145 187 246 307 371 433
#     4  12  27  47  76 109 150 198 240 309 380 440
#     4  11  21  41  68  99 140 189 244 294 360 436
#     4  12  23  42  74 107 138 189 252 299 364 442
#     4  11  24  45  67 102 146 192 238 307 365 433
#     4  12  29  48  70 104 156 200 242 299 383 452
#
# _framework density 22.121746000000002
#
# number of rings (size 3 to 8) (size 9 to 14) (size 15 to 20)
#    0.000    0.500    6.250    1.500    1.750    3.500 
#    0.000    1.250    0.000    0.000    0.000    0.000 
#    0.000    0.000    0.000    0.000    0.000    0.000 
#
# Total GULP energy -198235.895959 kJ/mol
# GULP energy per Si atom -12389.743497 kJ/mol
# Density = 2.207140 g / cm^3
# Si number density = 22.121746 Si / 1000 Ang^3
#
#
#
# Elastic Constant Matrix: (Units=GPa)
#
#
# Indices 1 2 3 4 5 6 
#
# 1 60.0551 33.1315 23.2709 0.6743 -12.5339 7.5243
# 2 33.1315 141.8936 45.1064 1.7261 -5.9437 25.8752
# 3 23.2709 45.1064 119.0223 4.4979 -23.9697 3.4417
# 4 0.6743 1.7261 4.4979 53.8742 2.9694 2.8227
# 5 -12.5339 -5.9437 -23.9697 2.9694 42.4286 -5.7510
# 6 7.5243 25.8752 3.4417 2.8227 -5.7510 42.6151
#
#
#
# Elastic Compliance Matrix: (Units=1/GPa)
#
#
# Indices 1 2 3 4 5 6 
#
# 1 0.020476 -0.004022 -0.001537 -0.000230 0.004577 -0.000416
# 2 -0.004022 0.009921 -0.003325 0.000428 -0.002439 -0.005403
# 3 -0.001537 -0.003325 0.011100 -0.001235 0.005743 0.002250
# 4 -0.000230 0.000428 -0.001235 0.018866 -0.002253 -0.001673
# 5 0.004577 -0.002439 0.005743 -0.002253 0.028552 0.004211
# 6 -0.000416 -0.005403 0.002250 -0.001673 0.004211 0.027317
#
#
# Mechanical properties :
#
#
# Convention : Reuss Voigt Hill
#
# Bulk Modulus (GPa) = 42.13952 58.22094 50.18023
# Shear Modulus (GPa) = 35.23358 42.41439 38.82399
#
# Velocity S-wave (km/s) = 3.99521 4.38347 4.19383
# Velocity P-wave (km/s) = 6.35394 7.21077 6.79587
#
# Compressibility (1/GPa) = 0.02373069
#
# Stress axis : x y z
#
# Youngs Moduli (GPa) = 48.83838 100.79170 90.08729
#
# Poissons Ratio (x) = 0.40540 0.13843
# Poissons Ratio (y) = 0.19643 0.29951
# Poissons Ratio (z) = 0.07505 0.33510
#
# Static dielectric constant tensor:
#      x y z
#    x 2.761550 -0.146830 -0.107620 
#    y -0.146830 3.793440 0.320930 
#    z -0.107620 0.320930 4.060350 
# 
# 
# High freq. dielectric constant tensor:
#      x y z
#    x 1.852450 0.018890 -0.019950 
#    y 0.018890 1.895360 0.003420 
#    z -0.019950 0.003420 1.870750 
# 
# From -- ./inp_files/273617.got.cif
#   From: 2010.06.25/outbox.cif.g09.slc.cpg/sg2_137_cif.got.tgz:273617.got - 2010.06.27 13:26:56.
