data_PCOD8027813
_publ_section_title
;
Structure prediction by ZEFSAII (Michael W. Deem and Ramdas Pophale) SiO2 
 PCOD8027813
Probable space group: P -1
;
_chemical_formula_sum "Si O2"
_cell_formula_units_Z 16
_cell_length_a 7.475516
_cell_length_b 9.532396
_cell_length_c 16.078158
_cell_angle_alpha 94.301470
_cell_angle_beta 45.779456
_cell_angle_gamma 113.085950
_cell_volume 720.301361
_symmetry_space_group_name_H-M "P -1"
_symmetry_group_IT_number 2
_symmetry_cell_setting 'triclinic'
loop_
_space_group_symop_operation_xyz
x,y,z
-x,-y,-z
loop_
_atom_site_type_symbol
_atom_site_label
_atom_site_fract_x
_atom_site_fract_y
_atom_site_fract_z
Si Si1 0.224758 0.234180 0.375276
Si Si2 0.616408 0.265820 0.124724
Si Si3 0.633570 0.060477 0.870895
Si Si4 0.379871 0.041954 0.437317
Si Si5 0.272832 0.121254 0.652605
Si Si6 0.390606 0.621254 0.152605
Si Si7 0.850132 0.541954 0.937317
Si Si8 0.314223 0.560477 0.370895
O O1 0.312608 0.250000 0.250000
O O2 0.372082 0.138430 0.364676
O O3 0.363647 0.412287 0.375479
O O4 0.885052 0.138360 0.487827
O O5 0.827681 0.361570 0.135324
O O6 0.577798 0.087713 0.124521
O O7 0.710174 0.361640 0.012173
O O8 0.623707 0.216204 0.849934
O O9 0.948829 0.079289 0.766964
O O10 0.500000 0.000000 0.000000
O O11 0.361788 0.139817 0.527602
O O12 0.661041 0.019532 0.341312
O O13 0.457305 0.283796 0.650066
O O14 0.165445 0.480468 0.158688
O O15 0.329570 0.579289 0.266964
O O16 0.695221 0.639817 0.027602
O O17 0.000000 0.500000 0.500000
#
# Coordination Sequence:
#
# PCOD8027813 Si02
#       8
#     2   2   2   2   2   2   2   2
#     4  11  23  44  70  99 134 183 225 286 345 410
#     4  11  23  44  70  99 134 183 225 286 345 410
#     4  12  27  44  68 102 143 179 230 289 352 398
#     4  10  24  47  70  98 136 181 237 277 342 419
#     4  11  26  45  68 102 140 182 233 286 337 428
#     4  11  26  45  68 102 140 182 233 286 337 428
#     4  10  24  47  70  98 136 181 237 277 342 419
#     4  12  27  44  68 102 143 179 230 289 352 398
#
# _framework density 22.212927000000001
#
# number of rings (size 3 to 8) (size 9 to 14) (size 15 to 20)
#    0.000    1.000    5.000    0.000    7.000    3.000 
#    0.000    0.000    0.000    0.000    0.000    0.000 
#    0.000    0.000    0.000    0.000    0.000    0.000 
#
# Total GULP energy -198274.092521 kJ/mol
# GULP energy per Si atom -12392.130783 kJ/mol
# Density = 2.216237 g / cm^3
# Si number density = 22.212927 Si / 1000 Ang^3
#
#
#
# Elastic Constant Matrix: (Units=GPa)
#
#
# Indices 1 2 3 4 5 6 
#
# 1 89.8274 53.9411 31.3864 -8.2448 -0.0508 0.3718
# 2 53.9411 158.1146 62.0304 5.3807 0.0835 0.0784
# 3 31.3864 62.0304 98.0061 1.2958 0.1625 -0.4266
# 4 -8.2448 5.3807 1.2958 26.6463 -0.1129 -0.1168
# 5 -0.0508 0.0835 0.1625 -0.1129 26.5880 18.9175
# 6 0.3718 0.0784 -0.4266 -0.1168 18.9175 36.1597
#
#
#
# Elastic Compliance Matrix: (Units=1/GPa)
#
#
# Indices 1 2 3 4 5 6 
#
# 1 0.015096 -0.004546 -0.002035 0.005688 0.000298 -0.000307
# 2 -0.004546 0.009838 -0.004730 -0.003163 0.000008 -0.000045
# 3 -0.002035 -0.004730 0.013855 -0.000348 -0.000339 0.000371
# 4 0.005688 -0.003163 -0.000348 0.039945 0.000224 -0.000044
# 5 0.000298 0.000008 -0.000339 0.000224 0.059925 -0.031357
# 6 -0.000307 -0.000045 0.000371 -0.000044 -0.031357 0.044068
#
#
# Mechanical properties :
#
#
# Convention : Reuss Voigt Hill
#
# Bulk Modulus (GPa) = 61.84108 71.18489 66.51299
# Shear Modulus (GPa) = 23.72610 31.11814 27.42212
#
# Velocity S-wave (km/s) = 3.27176 3.74692 3.51737
# Velocity P-wave (km/s) = 6.49408 7.12990 6.81940
#
# Compressibility (1/GPa) = 0.01617048
#
# Stress axis : x y z
#
# Youngs Moduli (GPa) = 66.24066 101.64246 72.17428
#
# Poissons Ratio (x) = 0.46202 0.14685
# Poissons Ratio (y) = 0.30110 0.34136
# Poissons Ratio (z) = 0.13478 0.48073
#
# Static dielectric constant tensor:
#      x y z
#    x 4.040710 0.000290 -0.000200 
#    y 0.000290 5.475460 -0.028180 
#    z -0.000200 -0.028180 4.025790 
# 
# 
# High freq. dielectric constant tensor:
#      x y z
#    x 1.870280 0.000130 0.000090 
#    y 0.000130 1.892260 0.009950 
#    z 0.000090 0.009950 1.877750 
# 
# From -- ./inp_files/557294.got.cif
#   From: 2010.06.25/outbox.cif.g09.slc.cpg/sg2_279_cif.got.tgz:557294.got - 2010.06.27 13:26:56.
