data_PCOD8027765
_publ_section_title
;
Structure prediction by ZEFSAII (Michael W. Deem and Ramdas Pophale) SiO2 
 PCOD8027765
Probable space group: P -1
;
_chemical_formula_sum "Si O2"
_cell_formula_units_Z 12
_cell_length_a 5.029556
_cell_length_b 8.503414
_cell_length_c 11.407670
_cell_angle_alpha 112.788097
_cell_angle_beta 98.431208
_cell_angle_gamma 73.680844
_cell_volume 431.289120
_symmetry_space_group_name_H-M "P -1"
_symmetry_group_IT_number 2
_symmetry_cell_setting 'triclinic'
loop_
_space_group_symop_operation_xyz
x,y,z
-x,-y,-z
loop_
_atom_site_type_symbol
_atom_site_label
_atom_site_fract_x
_atom_site_fract_y
_atom_site_fract_z
Si Si1 0.352991 0.855059 0.161680
Si Si2 0.776360 0.160819 0.583555
Si Si3 0.757990 0.076215 0.165668
Si Si4 0.473111 0.313616 0.403587
Si Si5 0.945046 0.504416 0.742225
Si Si6 0.540214 0.394254 0.094259
O O1 0.334463 0.862976 0.302149
O O2 0.605529 0.931238 0.159359
O O3 0.422683 0.644628 0.058610
O O4 0.069429 0.974293 0.126906
O O5 0.502533 0.198300 0.491536
O O6 0.934499 0.317865 0.634399
O O7 0.000000 0.000000 0.500000
O O8 0.728876 0.222982 0.308961
O O9 0.631138 0.183289 0.072068
O O10 0.500000 0.500000 0.500000
O O11 0.187256 0.340393 0.317038
O O12 0.770257 0.532458 0.859624
O O13 0.256324 0.505780 0.797137
#
# Coordination Sequence:
#
# PCOD8027765 Si02
#       6
#     2   2   2   2   2   2
#     4  12  25  41  71 106 144 183 228 296 357 416
#     4  11  24  48  70 107 146 189 231 292 356 424
#     4  11  22  42  66 105 140 182 232 291 353 414
#     4   9  20  44  68  99 136 186 233 281 339 418
#     4  10  24  46  76 102 139 188 237 293 348 417
#     4  11  23  46  73 103 140 184 242 288 352 420
#
# _framework density 27.823564000000001
#
# number of rings (size 3 to 8) (size 9 to 14) (size 15 to 20)
#    0.000    1.333    1.667    4.000    0.000    3.333 
#    9.000   11.667    0.000    0.000    0.000    0.000 
#    0.000    0.000    0.000    0.000    0.000    0.000 
#
# Total GULP energy -148745.924758 kJ/mol
# GULP energy per Si atom -12395.493730 kJ/mol
# Density = 2.776024 g / cm^3
# Si number density = 27.823564 Si / 1000 Ang^3
#
#
#
# Elastic Constant Matrix: (Units=GPa)
#
#
# Indices 1 2 3 4 5 6 
#
# 1 73.6733 18.5449 21.1808 10.4112 2.3667 1.8685
# 2 18.5449 69.4419 27.8066 16.3442 5.6558 -2.1001
# 3 21.1808 27.8066 158.7354 26.1975 -1.6079 -10.7949
# 4 10.4112 16.3442 26.1975 71.3673 -23.0750 -1.5963
# 5 2.3667 5.6558 -1.6079 -23.0750 37.2857 1.4428
# 6 1.8685 -2.1001 -10.7949 -1.5963 1.4428 41.1219
#
#
#
# Elastic Compliance Matrix: (Units=1/GPa)
#
#
# Indices 1 2 3 4 5 6 
#
# 1 0.015007 -0.003048 -0.001317 -0.001496 -0.001426 -0.001191
# 2 -0.003048 0.017525 -0.001922 -0.004603 -0.005417 0.000540
# 3 -0.001317 -0.001922 0.007301 -0.002259 -0.000778 0.001818
# 4 -0.001496 -0.004603 -0.002259 0.020420 0.013350 -0.000436
# 5 -0.001426 -0.005417 -0.000778 0.013350 0.036006 -0.001161
# 6 -0.001191 0.000540 0.001818 -0.000436 -0.001161 0.024901
#
#
# Mechanical properties :
#
#
# Convention : Reuss Voigt Hill
#
# Bulk Modulus (GPa) = 36.68568 48.54613 42.61591
# Shear Modulus (GPa) = 35.00942 45.57618 40.29280
#
# Velocity S-wave (km/s) = 3.55105 4.05166 3.80959
# Velocity P-wave (km/s) = 5.47969 6.27485 5.89070
#
# Compressibility (1/GPa) = 0.02725859
#
# Stress axis : x y z
#
# Youngs Moduli (GPa) = 66.63671 57.06151 136.97348
#
# Poissons Ratio (x) = 0.17393 0.18041
# Poissons Ratio (y) = 0.20311 0.26322
# Poissons Ratio (z) = 0.08777 0.10966
#
# Static dielectric constant tensor:
#      x y z
#    x 4.688020 -0.495990 0.167350 
#    y -0.495990 6.274570 -0.443480 
#    z 0.167350 -0.443480 6.364100 
# 
# 
# High freq. dielectric constant tensor:
#      x y z
#    x 2.095920 -0.022110 -0.004110 
#    y -0.022110 2.159840 0.001850 
#    z -0.004110 0.001850 2.160280 
# 
# From -- ./inp_files/360389.got.cif
#   From: 2010.06.25/outbox.cif.g09.slc.cpg/sg2_181_cif.got.tgz:360389.got - 2010.06.27 13:26:56.
