data_PCOD8027761
_publ_section_title
;
Structure prediction by ZEFSAII (Michael W. Deem and Ramdas Pophale) SiO2 
 PCOD8027761
Probable space group: P -1
;
_chemical_formula_sum "Si O2"
_cell_formula_units_Z 12
_cell_length_a 8.659378
_cell_length_b 5.337386
_cell_length_c 11.055947
_cell_angle_alpha 62.568284
_cell_angle_beta 87.664392
_cell_angle_gamma 90.179534
_cell_volume 453.018285
_symmetry_space_group_name_H-M "P -1"
_symmetry_group_IT_number 2
_symmetry_cell_setting 'triclinic'
loop_
_space_group_symop_operation_xyz
x,y,z
-x,-y,-z
loop_
_atom_site_type_symbol
_atom_site_label
_atom_site_fract_x
_atom_site_fract_y
_atom_site_fract_z
Si Si1 0.811791 0.388693 0.221360
Si Si2 0.295664 0.099147 0.512642
Si Si3 0.886648 0.240420 0.002543
Si Si4 0.890281 0.485142 0.702696
Si Si5 0.626247 0.283730 0.610368
Si Si6 0.404562 0.122743 0.866679
O O1 0.767161 0.068949 0.331252
O O2 0.927543 0.412816 0.091511
O O3 0.659824 0.568813 0.166371
O O4 0.921899 0.526769 0.294733
O O5 0.395620 0.894151 0.471581
O O6 0.155929 0.203175 0.408731
O O7 0.397273 0.377101 0.492594
O O8 0.738876 0.089387 0.105591
O O9 0.823154 0.425838 0.853126
O O10 0.000000 0.000000 0.000000
O O11 0.803046 0.263586 0.663495
O O12 0.508527 0.146790 0.739813
O O13 0.500000 0.000000 0.000000
#
# Coordination Sequence:
#
# PCOD8027761 Si02
#       6
#     2   2   2   2   2   2
#     4  12  28  44  75 110 146 196 247 309 367 444
#     4  10  26  48  77 110 150 194 248 301 374 441
#     4  12  27  46  75 108 149 190 253 307 374 437
#     4  10  24  46  75 106 147 192 244 308 365 441
#     4  10  26  46  76 106 155 193 246 299 371 439
#     4  12  27  45  72 106 147 200 248 303 371 440
#
# _framework density 26.488996
#
# number of rings (size 3 to 8) (size 9 to 14) (size 15 to 20)
#    1.000    0.000    3.333    1.000    9.333    2.667 
#    0.000    0.000    0.000    0.000    0.000    0.000 
#    0.000    0.000    0.000    0.000    0.000    0.000 
#
# Total GULP energy -148719.373756 kJ/mol
# GULP energy per Si atom -12393.281146 kJ/mol
# Density = 2.642871 g / cm^3
# Si number density = 26.488996 Si / 1000 Ang^3
#
#
#
# Elastic Constant Matrix: (Units=GPa)
#
#
# Indices 1 2 3 4 5 6 
#
# 1 113.5366 41.9068 42.7112 -0.1238 15.1650 -1.1355
# 2 41.9068 112.3453 47.7554 15.1666 26.2082 -3.5305
# 3 42.7112 47.7554 195.5563 -16.8850 2.2290 -14.3611
# 4 -0.1238 15.1666 -16.8850 50.6415 -5.2128 3.4818
# 5 15.1650 26.2082 2.2290 -5.2128 46.5473 -1.3776
# 6 -1.1355 -3.5305 -14.3611 3.4818 -1.3776 44.9279
#
#
#
# Elastic Compliance Matrix: (Units=1/GPa)
#
#
# Indices 1 2 3 4 5 6 
#
# 1 0.010738 -0.002955 -0.001624 0.000228 -0.001747 -0.000551
# 2 -0.002955 0.013882 -0.003160 -0.005993 -0.007366 0.000245
# 3 -0.001624 -0.003160 0.006617 0.003283 0.002408 0.001645
# 4 0.000228 -0.005993 0.003283 0.023298 0.005721 -0.001046
# 5 -0.001747 -0.007366 0.002408 0.005721 0.026741 0.000523
# 6 -0.000551 0.000245 0.001645 -0.001046 0.000523 0.022886
#
#
# Mechanical properties :
#
#
# Convention : Reuss Voigt Hill
#
# Bulk Modulus (GPa) = 63.46389 76.24279 69.85334
# Shear Modulus (GPa) = 40.03404 47.69432 43.86418
#
# Velocity S-wave (km/s) = 3.89182 4.24787 4.07374
# Velocity P-wave (km/s) = 6.64873 7.27355 6.96815
#
# Compressibility (1/GPa) = 0.01575699
#
# Stress axis : x y z
#
# Youngs Moduli (GPa) = 93.12912 72.03600 151.12626
#
# Poissons Ratio (x) = 0.21289 0.24550
# Poissons Ratio (y) = 0.27523 0.47758
# Poissons Ratio (z) = 0.15128 0.22764
#
# Static dielectric constant tensor:
#      x y z
#    x 4.986030 0.468610 0.032410 
#    y 0.468610 4.693420 -0.226690 
#    z 0.032410 -0.226690 5.165370 
# 
# 
# High freq. dielectric constant tensor:
#      x y z
#    x 2.086680 0.032390 0.007140 
#    y 0.032390 2.056130 -0.009450 
#    z 0.007140 -0.009450 2.096530 
# 
# From -- ./inp_files/371689.got.cif
#   From: 2010.06.25/outbox.cif.g09.slc.cpg/sg2_186_cif.got.tgz:371689.got - 2010.06.27 13:26:56.
