data_PCOD8027507
_publ_section_title
;
Structure prediction by ZEFSAII (Michael W. Deem and Ramdas Pophale) SiO2 
 PCOD8027507
Probable space group: P -1
;
_chemical_formula_sum "Si O2"
_cell_formula_units_Z 16
_cell_length_a 9.250355
_cell_length_b 17.167645
_cell_length_c 8.162392
_cell_angle_alpha 140.705318
_cell_angle_beta 74.225742
_cell_angle_gamma 119.219302
_cell_volume 703.184686
_symmetry_space_group_name_H-M "P -1"
_symmetry_group_IT_number 2
_symmetry_cell_setting 'triclinic'
loop_
_space_group_symop_operation_xyz
x,y,z
-x,-y,-z
loop_
_atom_site_type_symbol
_atom_site_label
_atom_site_fract_x
_atom_site_fract_y
_atom_site_fract_z
Si Si1 0.196324 0.559164 0.002226
Si Si2 0.925709 0.716504 0.568160
Si Si3 0.094969 0.406105 0.279560
Si Si4 0.805522 0.220571 0.865507
Si Si5 0.586325 0.424250 0.743909
Si Si6 0.292617 0.150354 0.252061
Si Si7 0.402597 0.000152 0.193870
Si Si8 0.732709 0.083084 0.351850
O O1 0.206468 0.426129 0.707864
O O2 0.260261 0.681546 0.047395
O O3 0.306810 0.615976 0.224275
O O4 0.000000 0.500000 0.000000
O O5 0.912910 0.689931 0.722142
O O6 0.871374 0.831064 0.709001
O O7 0.123441 0.781718 0.564454
O O8 0.287777 0.484918 0.290541
O O9 0.000000 0.500000 0.500000
O O10 0.000073 0.308796 0.997128
O O11 0.699925 0.154053 0.954020
O O12 0.788003 0.096429 0.547186
O O13 0.455911 0.294590 0.468773
O O14 0.500000 0.500000 0.000000
O O15 0.273464 0.061768 0.281626
O O16 0.306626 0.065574 0.952138
O O17 0.555524 0.094295 0.422039
O O18 0.500000 0.000000 0.000000
#
# Coordination Sequence:
#
# PCOD8027507 Si02
#       8
#     2   2   2   2   2   2   2   2
#     4  12  22  46  79 105 140 187 245 309 356 445
#     4  12  24  46  71 106 141 193 241 304 373 429
#     4  12  26  43  76 109 142 194 250 305 367 447
#     4  12  24  44  76 107 137 186 262 295 362 430
#     4  12  26  48  72 111 151 187 239 311 380 435
#     4  11  26  46  71  99 154 188 233 300 379 428
#     4  10  24  45  70 104 140 191 239 300 356 439
#     4  11  24  44  74 101 144 193 244 295 360 446
#
# _framework density 22.753623999999999
#
# number of rings (size 3 to 8) (size 9 to 14) (size 15 to 20)
#    0.000    0.500    5.000    3.000    5.250    0.500 
#    6.750    1.250    0.000    0.000    0.000    0.000 
#    0.000    0.000    0.000    0.000    0.000    0.000 
#
# Total GULP energy -198227.605115 kJ/mol
# GULP energy per Si atom -12389.225320 kJ/mol
# Density = 2.270184 g / cm^3
# Si number density = 22.753624 Si / 1000 Ang^3
#
#
#
# Elastic Constant Matrix: (Units=GPa)
#
#
# Indices 1 2 3 4 5 6 
#
# 1 104.4205 36.6527 21.3625 6.1528 0.9631 -20.6620
# 2 36.6527 140.0540 17.1144 10.8196 -5.7668 -6.6827
# 3 21.3625 17.1144 153.8571 1.0325 16.9284 0.1224
# 4 6.1528 10.8196 1.0325 34.9677 -2.3686 2.5096
# 5 0.9631 -5.7668 16.9284 -2.3686 37.3495 0.1676
# 6 -20.6620 -6.6827 0.1224 2.5096 0.1676 38.4608
#
#
#
# Elastic Compliance Matrix: (Units=1/GPa)
#
#
# Indices 1 2 3 4 5 6 
#
# 1 0.012084 -0.002577 -0.001359 -0.001747 -0.000232 0.006163
# 2 -0.002577 0.008120 -0.000699 -0.001947 0.001513 0.000149
# 3 -0.001359 -0.000699 0.007129 0.000084 -0.003295 -0.000865
# 4 -0.001747 -0.001947 0.000084 0.029846 0.001614 -0.003231
# 5 -0.000232 0.001513 -0.003295 0.001614 0.028610 -0.000081
# 6 0.006163 0.000149 -0.000865 -0.003231 -0.000081 0.029551
#
#
# Mechanical properties :
#
#
# Convention : Reuss Voigt Hill
#
# Bulk Modulus (GPa) = 55.36221 60.95452 58.15837
# Shear Modulus (GPa) = 38.27624 43.70240 40.98932
#
# Velocity S-wave (km/s) = 4.10592 4.38731 4.24894
# Velocity P-wave (km/s) = 6.84559 7.24650 7.04889
#
# Compressibility (1/GPa) = 0.01806286
#
# Stress axis : x y z
#
# Youngs Moduli (GPa) = 82.75570 123.15782 140.28058
#
# Poissons Ratio (x) = 0.31736 0.19061
# Poissons Ratio (y) = 0.21325 0.09804
# Poissons Ratio (z) = 0.11245 0.08608
#
# Static dielectric constant tensor:
#      x y z
#    x 4.599260 -0.311070 0.329420 
#    y -0.311070 4.118220 0.075500 
#    z 0.329420 0.075500 4.581920 
# 
# 
# High freq. dielectric constant tensor:
#      x y z
#    x 1.891550 -0.011320 0.028340 
#    y -0.011320 1.890740 0.006560 
#    z 0.028340 0.006560 1.911540 
# 
# From -- ./inp_files/218864.got.cif
#   From: 2010.06.25/outbox.cif.g09.slc.cpg/sg2_110_cif.got.tgz:218864.got - 2010.06.27 13:26:56.
