data_PCOD8027806
_publ_section_title
;
Structure prediction by ZEFSAII (Michael W. Deem and Ramdas Pophale) SiO2 
 PCOD8027806
Probable space group: P -1
;
_chemical_formula_sum "Si O2"
_cell_formula_units_Z 16
_cell_length_a 8.952411
_cell_length_b 12.142944
_cell_length_c 9.711861
_cell_angle_alpha 141.921830
_cell_angle_beta 94.381687
_cell_angle_gamma 70.529004
_cell_volume 581.638804
_symmetry_space_group_name_H-M "P -1"
_symmetry_group_IT_number 2
_symmetry_cell_setting 'triclinic'
loop_
_space_group_symop_operation_xyz
x,y,z
-x,-y,-z
loop_
_atom_site_type_symbol
_atom_site_label
_atom_site_fract_x
_atom_site_fract_y
_atom_site_fract_z
Si Si1 0.418232 0.279413 0.302411
Si Si2 0.284273 0.253882 0.857828
Si Si3 0.801027 0.347941 0.213254
Si Si4 0.905253 0.540503 0.694471
Si Si5 0.846159 0.065187 0.458278
Si Si6 0.600883 0.039647 0.839289
Si Si7 0.313220 0.570118 0.019936
Si Si8 0.026488 0.086229 0.234137
O O1 0.371129 0.503301 0.574177
O O2 0.252479 0.285804 0.222694
O O3 0.456942 0.129013 0.285798
O O4 0.571665 0.191944 0.117945
O O5 0.477588 0.168674 0.836964
O O6 0.268569 0.381532 0.843499
O O7 0.251012 0.064901 0.641337
O O8 0.141922 0.415437 0.105698
O O9 0.749258 0.321524 0.026033
O O10 0.922270 0.454435 0.323032
O O11 0.901258 0.120464 0.064988
O O12 0.926373 0.323798 0.424843
O O13 0.906575 0.036376 0.276502
O O14 0.749673 0.293822 0.715129
O O15 0.000000 0.000000 0.500000
O O16 0.795939 0.943499 0.714703
O O17 0.500000 0.500000 0.000000
#
# Coordination Sequence:
#
# PCOD8027806 Si02
#       8
#     2   2   2   2   2   2   2   2
#     4  10  24  47  70 103 142 187 237 291 359 423
#     4  11  25  46  75 102 146 195 226 294 369 410
#     4  12  25  43  72 105 143 187 236 290 355 419
#     4  11  23  45  73 102 142 185 233 298 352 424
#     4  12  26  45  69 108 145 183 242 292 345 435
#     4  10  24  47  74 102 144 185 236 299 355 425
#     4  12  28  45  71 109 146 189 241 288 351 432
#     4  12  24  43  73 107 138 180 241 292 349 422
#
# _framework density 27.508482999999998
#
# number of rings (size 3 to 8) (size 9 to 14) (size 15 to 20)
#    0.000    0.750    5.000    1.125    3.500    2.500 
#    0.000    0.000    0.000    0.000    0.000    0.000 
#    0.000    0.000    0.000    0.000    0.000    0.000 
#
# Total GULP energy -198227.419244 kJ/mol
# GULP energy per Si atom -12389.213703 kJ/mol
# Density = 2.744587 g / cm^3
# Si number density = 27.508483 Si / 1000 Ang^3
#
#
#
# Elastic Constant Matrix: (Units=GPa)
#
#
# Indices 1 2 3 4 5 6 
#
# 1 70.2328 5.4562 17.4896 16.3846 -4.7718 -5.8449
# 2 5.4562 108.8725 49.7040 30.1449 -7.6681 4.7108
# 3 17.4896 49.7040 115.3997 22.7207 1.8114 -8.5982
# 4 16.3846 30.1449 22.7207 44.7141 1.5084 -2.7212
# 5 -4.7718 -7.6681 1.8114 1.5084 56.8253 3.4625
# 6 -5.8449 4.7108 -8.5982 -2.7212 3.4625 19.9885
#
#
#
# Elastic Compliance Matrix: (Units=1/GPa)
#
#
# Indices 1 2 3 4 5 6 
#
# 1 0.016309 0.001737 -0.001862 -0.006109 0.001677 0.002437
# 2 0.001737 0.014272 -0.005377 -0.008034 0.002868 -0.006759
# 3 -0.001862 -0.005377 0.012005 -0.001375 -0.001592 0.005975
# 4 -0.006109 -0.008034 -0.001375 0.031062 -0.002634 0.004200
# 5 0.001677 0.002868 -0.001592 -0.002634 0.018517 -0.004437
# 6 0.002437 -0.006759 0.005975 0.004200 -0.004437 0.056245
#
#
# Mechanical properties :
#
#
# Convention : Reuss Voigt Hill
#
# Bulk Modulus (GPa) = 31.66424 48.86720 40.26572
# Shear Modulus (GPa) = 29.42206 39.09593 34.25900
#
# Velocity S-wave (km/s) = 3.27397 3.77401 3.53285
# Velocity P-wave (km/s) = 5.08208 6.06579 5.59560
#
# Compressibility (1/GPa) = 0.03158137
#
# Stress axis : x y z
#
# Youngs Moduli (GPa) = 61.31585 70.06844 83.30084
#
# Poissons Ratio (x) = -0.12170 0.15509
# Poissons Ratio (y) = -0.10650 0.44792
# Poissons Ratio (z) = 0.11416 0.37677
#
# Static dielectric constant tensor:
#      x y z
#    x 4.615740 -0.255450 -0.069650 
#    y -0.255450 5.285750 0.237040 
#    z -0.069650 0.237040 5.064350 
# 
# 
# High freq. dielectric constant tensor:
#      x y z
#    x 2.110840 -0.006860 -0.009070 
#    y -0.006860 2.114990 0.017690 
#    z -0.009070 0.017690 2.135180 
# 
# From -- ./inp_files/400079.got.cif
#   From: 2010.06.25/outbox.cif.g09.slc.cpg/sg2_201_cif.got.tgz:400079.got - 2010.06.27 13:26:56.
