data_PCOD8027894
_publ_section_title
;
Structure prediction by ZEFSAII (Michael W. Deem and Ramdas Pophale) SiO2 
 PCOD8027894
Probable space group: P -1
;
_chemical_formula_sum "Si O2"
_cell_formula_units_Z 14
_cell_length_a 8.321963
_cell_length_b 17.088506
_cell_length_c 16.238821
_cell_angle_alpha 155.124700
_cell_angle_beta 137.206121
_cell_angle_gamma 40.207124
_cell_volume 619.924436
_symmetry_space_group_name_H-M "P -1"
_symmetry_group_IT_number 2
_symmetry_cell_setting 'triclinic'
loop_
_space_group_symop_operation_xyz
x,y,z
-x,-y,-z
loop_
_atom_site_type_symbol
_atom_site_label
_atom_site_fract_x
_atom_site_fract_y
_atom_site_fract_z
Si Si1 0.451221 0.830256 0.170531
Si Si2 0.024500 0.219045 0.609916
Si Si3 0.728223 0.764066 0.588501
Si Si4 0.244930 0.411400 0.235870
Si Si5 0.282803 0.489213 0.511121
Si Si6 0.647924 0.390047 0.780953
Si Si7 0.930290 0.170402 0.830166
O O1 0.681066 0.863942 0.337406
O O2 0.232016 0.839527 0.160826
O O3 0.343767 0.001097 0.224798
O O4 0.546434 0.626948 0.961190
O O5 0.975228 0.388700 0.684728
O O6 0.863627 0.295280 0.704458
O O7 0.956152 0.038861 0.373017
O O8 0.647617 0.703620 0.588573
O O9 0.587556 0.684543 0.388566
O O10 0.025534 0.662529 0.597865
O O11 0.279270 0.402571 0.337550
O O12 0.507586 0.410702 0.296118
O O13 0.172448 0.224706 0.001070
O O14 0.760463 0.337333 0.863893
#
# Coordination Sequence:
#
# PCOD8027894 Si02
#       7
#     2   2   2   2   2   2   2
#     4  12  26  43  73 112 143 183 230 295 364 420
#     4  12  25  43  72 111 145 180 228 299 363 416
#     4  11  24  47  72 101 146 180 246 282 355 416
#     4  11  24  47  72 101 146 180 246 282 355 416
#     4  10  24  48  72  98 142 202 226 300 328 424
#     4  12  25  43  72 111 145 180 228 299 363 416
#     4  12  26  43  73 112 143 183 230 295 364 420
#
# _framework density 22.583397000000001
#
# number of rings (size 3 to 8) (size 9 to 14) (size 15 to 20)
#    0.000    0.571    4.286    3.429    2.000    0.000 
#    0.000   15.714    0.000    0.000    0.000    0.000 
#    0.000    0.000    0.000    0.000    0.000    0.000 
#
# Total GULP energy -173670.204793 kJ/mol
# GULP energy per Si atom -12405.014628 kJ/mol
# Density = 2.253200 g / cm^3
# Si number density = 22.583397 Si / 1000 Ang^3
#
#
#
# Elastic Constant Matrix: (Units=GPa)
#
#
# Indices 1 2 3 4 5 6 
#
# 1 136.6178 57.7162 65.5385 2.1254 18.5048 4.8369
# 2 57.7162 119.1709 57.2386 -0.1519 14.7691 9.1014
# 3 65.5385 57.2386 166.5058 13.6939 8.6755 -2.9826
# 4 2.1254 -0.1519 13.6939 36.0641 -4.8504 6.8947
# 5 18.5048 14.7691 8.6755 -4.8504 30.0113 0.0670
# 6 4.8369 9.1014 -2.9826 6.8947 0.0670 30.1842
#
#
#
# Elastic Compliance Matrix: (Units=1/GPa)
#
#
# Indices 1 2 3 4 5 6 
#
# 1 0.010653 -0.003163 -0.002918 0.000111 -0.004148 -0.001058
# 2 -0.003163 0.011969 -0.002930 0.001692 -0.002811 -0.003772
# 3 -0.002918 -0.002930 0.008503 -0.003620 0.000191 0.003018
# 4 0.000111 0.001692 -0.003620 0.031348 0.005230 -0.008058
# 5 -0.004148 -0.002811 0.000191 0.005230 0.038051 0.000252
# 6 -0.001058 -0.003772 0.003018 -0.008058 0.000252 0.036575
#
#
# Mechanical properties :
#
#
# Convention : Reuss Voigt Hill
#
# Bulk Modulus (GPa) = 76.31098 87.03122 81.67110
# Shear Modulus (GPa) = 31.35007 35.37201 33.36104
#
# Velocity S-wave (km/s) = 3.72989 3.96192 3.84765
# Velocity P-wave (km/s) = 7.23972 7.71690 7.48211
#
# Compressibility (1/GPa) = 0.01310427
#
# Stress axis : x y z
#
# Youngs Moduli (GPa) = 93.86721 83.54906 117.60115
#
# Poissons Ratio (x) = 0.26427 0.34315
# Poissons Ratio (y) = 0.29691 0.34455
# Poissons Ratio (z) = 0.27389 0.24478
#
# Static dielectric constant tensor:
#      x y z
#    x 4.130210 0.076040 0.263610 
#    y 0.076040 4.304930 -0.070360 
#    z 0.263610 -0.070360 4.087400 
# 
# 
# High freq. dielectric constant tensor:
#      x y z
#    x 1.894910 0.003840 0.013280 
#    y 0.003840 1.903720 -0.004260 
#    z 0.013280 -0.004260 1.890430 
# 
# From -- ./inp_files/260884.got.cif
#   From: 2010.06.25/outbox.cif.g09.slc.cpg/sg2_131_cif.got.tgz:260884.got - 2010.06.27 13:26:56.
