data_PCOD8027699
_publ_section_title
;
Structure prediction by ZEFSAII (Michael W. Deem and Ramdas Pophale) SiO2 
 PCOD8027699
Probable space group: P -1
;
_chemical_formula_sum "Si O2"
_cell_formula_units_Z 14
_cell_length_a 8.664689
_cell_length_b 13.705955
_cell_length_c 16.490354
_cell_angle_alpha 22.966212
_cell_angle_beta 100.008317
_cell_angle_gamma 111.738954
_cell_volume 629.715106
_symmetry_space_group_name_H-M "P -1"
_symmetry_group_IT_number 2
_symmetry_cell_setting 'triclinic'
loop_
_space_group_symop_operation_xyz
x,y,z
-x,-y,-z
loop_
_atom_site_type_symbol
_atom_site_label
_atom_site_fract_x
_atom_site_fract_y
_atom_site_fract_z
Si Si1 0.695147 0.593387 0.163220
Si Si2 0.514576 0.726492 0.452096
Si Si3 0.091465 0.676235 0.640716
Si Si4 0.250467 0.619320 0.069406
Si Si5 0.212736 0.752636 0.304740
Si Si6 0.416035 0.326019 0.207365
Si Si7 0.259499 0.545344 0.306807
O O1 0.554458 0.408405 0.363224
O O2 0.878650 0.578465 0.197277
O O3 0.594981 0.412685 0.210597
O O4 0.746539 0.930423 0.905139
O O5 0.340891 0.659664 0.432778
O O6 0.629452 0.583909 0.540532
O O7 0.665547 0.078713 0.204225
O O8 0.974195 0.551581 0.809795
O O9 0.960412 0.711785 0.536308
O O10 0.289608 0.978151 0.440823
O O11 0.288975 0.406489 0.184635
O O12 0.347206 0.700277 0.107691
O O13 0.257751 0.771849 0.197807
O O14 0.000000 0.500000 0.500000
O O15 0.500000 0.500000 0.000000
#
# Coordination Sequence:
#
# PCOD8027699 Si02
#       7
#     2   2   2   2   2   2   2
#     4  12  26  48  70 110 148 182 248 298 353 439
#     4  12  23  46  75 102 147 187 240 294 365 414
#     4  10  25  45  73 106 149 189 237 294 359 423
#     4  10  24  46  71 105 147 183 243 288 361 423
#     4  12  28  45  76 106 147 194 239 297 363 425
#     4  12  24  47  78 104 146 193 237 301 362 425
#     4  10  25  46  70 105 148 182 247 292 350 432
#
# _framework density 22.232275000000001
#
# number of rings (size 3 to 8) (size 9 to 14) (size 15 to 20)
#    0.857    0.000    2.857    3.000    4.000    5.714 
#    0.000    2.143    0.000    0.000    0.000    0.000 
#    0.000    0.000    0.000    0.000    0.000    0.000 
#
# Total GULP energy -173484.276329 kJ/mol
# GULP energy per Si atom -12391.734023 kJ/mol
# Density = 2.218167 g / cm^3
# Si number density = 22.232275 Si / 1000 Ang^3
#
#
#
# Elastic Constant Matrix: (Units=GPa)
#
#
# Indices 1 2 3 4 5 6 
#
# 1 150.1941 41.4237 54.5460 -4.6474 16.8801 2.4889
# 2 41.4237 112.0817 39.5333 1.6200 0.7871 2.8052
# 3 54.5460 39.5333 116.3765 1.0726 -2.4803 13.4458
# 4 -4.6474 1.6200 1.0726 29.1837 -2.8185 -5.8992
# 5 16.8801 0.7871 -2.4803 -2.8185 33.9563 -1.7068
# 6 2.4889 2.8052 13.4458 -5.8992 -1.7068 40.5367
#
#
#
# Elastic Compliance Matrix: (Units=1/GPa)
#
#
# Indices 1 2 3 4 5 6 
#
# 1 0.009155 -0.002051 -0.003805 0.001439 -0.004619 0.000857
# 2 -0.002051 0.010617 -0.002648 -0.000730 0.000529 0.000186
# 3 -0.003805 -0.002648 0.011755 -0.001371 0.002518 -0.003576
# 4 0.001439 -0.000730 -0.001371 0.035989 0.002478 0.005759
# 5 -0.004619 0.000529 0.002518 0.002478 0.032180 0.001127
# 6 0.000857 0.000186 -0.003576 0.005759 0.001127 0.026675
#
#
# Mechanical properties :
#
#
# Convention : Reuss Voigt Hill
#
# Bulk Modulus (GPa) = 68.88203 72.18427 70.53315
# Shear Modulus (GPa) = 33.73375 36.94526 35.33951
#
# Velocity S-wave (km/s) = 3.89952 4.08092 3.99125
# Velocity P-wave (km/s) = 7.16416 7.39892 7.28248
#
# Compressibility (1/GPa) = 0.01451757
#
# Stress axis : x y z
#
# Youngs Moduli (GPa) = 109.22916 94.19256 85.06822
#
# Poissons Ratio (x) = 0.19322 0.32367
# Poissons Ratio (y) = 0.22406 0.22530
# Poissons Ratio (z) = 0.41560 0.24947
#
# Static dielectric constant tensor:
#      x y z
#    x 4.320280 -0.034140 0.013460 
#    y -0.034140 3.964750 0.054930 
#    z 0.013460 0.054930 3.827200 
# 
# 
# High freq. dielectric constant tensor:
#      x y z
#    x 1.900550 -0.008210 -0.002090 
#    y -0.008210 1.868230 0.002480 
#    z -0.002090 0.002480 1.863530 
# 
# From -- ./inp_files/561087.got.cif
#   From: 2010.06.25/outbox.cif.g09.slc.cpg/sg2_281_cif.got.tgz:561087.got - 2010.06.27 13:26:56.
