data_PCOD8027036
_publ_section_title
;
Structure prediction by ZEFSAII (Michael W. Deem and Ramdas Pophale) SiO2 
 PCOD8027036
Probable space group: P -1
;
_chemical_formula_sum "Si O2"
_cell_formula_units_Z 14
_cell_length_a 15.575231
_cell_length_b 27.471090
_cell_length_c 15.539767
_cell_angle_alpha 17.433122
_cell_angle_beta 18.886235
_cell_angle_gamma 21.570647
_cell_volume 618.782749
_symmetry_space_group_name_H-M "P -1"
_symmetry_group_IT_number 2
_symmetry_cell_setting 'triclinic'
loop_
_space_group_symop_operation_xyz
x,y,z
-x,-y,-z
loop_
_atom_site_type_symbol
_atom_site_label
_atom_site_fract_x
_atom_site_fract_y
_atom_site_fract_z
Si Si1 0.094749 0.752863 0.260477
Si Si2 0.043927 0.788134 0.722417
Si Si3 0.354853 0.421139 0.068626
Si Si4 0.327070 0.133161 0.213577
Si Si5 0.871336 0.134561 0.774909
Si Si6 0.471603 0.771306 0.609063
Si Si7 0.890853 0.855232 0.944618
O O1 0.175276 0.757644 0.275518
O O2 0.906624 0.628436 0.637154
O O3 0.370754 0.684169 0.060517
O O4 0.926443 0.936669 0.076358
O O5 0.826550 0.766222 0.893417
O O6 0.871712 0.828700 0.905844
O O7 0.163172 0.945223 0.319477
O O8 0.300099 0.621070 0.767923
O O9 0.383174 0.389252 0.198511
O O10 0.124757 0.172097 0.421568
O O11 0.420510 0.933369 0.445336
O O12 0.594460 0.195800 0.876622
O O13 0.187002 0.749731 0.878405
O O14 0.659328 0.785870 0.325389
#
# Coordination Sequence:
#
# PCOD8027036 Si02
#       7
#     2   2   2   2   2   2   2
#     4  11  23  40  65  97 128 162 210 270 312 366
#     4  10  26  43  65  94 135 165 210 258 326 374
#     4  12  24  41  64 100 131 162 204 277 319 359
#     4  11  21  39  66  93 121 176 209 254 302 396
#     4  11  21  40  67  93 123 166 220 252 305 382
#     4  11  21  39  68  92 125 161 225 257 306 367
#     4  10  24  44  65  92 122 178 213 252 305 393
#
# _framework density 22.625063999999998
#
# number of rings (size 3 to 8) (size 9 to 14) (size 15 to 20)
#    0.000    1.143    2.857    3.429    0.000   14.286 
#    0.000    4.286    0.000    0.000    0.000    0.000 
#    0.000    0.000    0.000    0.000    0.000    0.000 
#
# Total GULP energy -173691.878018 kJ/mol
# GULP energy per Si atom -12406.562716 kJ/mol
# Density = 2.257357 g / cm^3
# Si number density = 22.625064 Si / 1000 Ang^3
#
#
#
# Elastic Constant Matrix: (Units=GPa)
#
#
# Indices 1 2 3 4 5 6 
#
# 1 111.9705 21.5917 11.9929 -6.5380 18.5390 -12.6195
# 2 21.5917 52.5308 22.1374 -4.3613 8.3832 -8.8084
# 3 11.9929 22.1374 52.7691 15.9865 0.5320 1.0007
# 4 -6.5380 -4.3613 15.9865 38.0932 0.6548 10.8510
# 5 18.5390 8.3832 0.5320 0.6548 26.3547 5.2744
# 6 -12.6195 -8.8084 1.0007 10.8510 5.2744 35.8080
#
#
#
# Elastic Compliance Matrix: (Units=1/GPa)
#
#
# Indices 1 2 3 4 5 6 
#
# 1 0.011497 -0.001379 -0.002565 0.001754 -0.008543 0.004511
# 2 -0.001379 0.028558 -0.013899 0.007294 -0.009231 0.006077
# 3 -0.002565 -0.013899 0.029587 -0.014036 0.006343 -0.001831
# 4 0.001754 0.007294 -0.014036 0.035476 -0.002639 -0.007557
# 5 -0.008543 -0.009231 0.006343 -0.002639 0.049211 -0.011908
# 6 0.004511 0.006077 -0.001831 -0.007557 -0.011908 0.035107
#
#
# Mechanical properties :
#
#
# Convention : Reuss Voigt Hill
#
# Bulk Modulus (GPa) = 29.44975 36.52383 32.98679
# Shear Modulus (GPa) = 21.14698 30.82106 25.98402
#
# Velocity S-wave (km/s) = 3.06056 3.69488 3.39257
# Velocity P-wave (km/s) = 5.05312 5.86353 5.47334
#
# Compressibility (1/GPa) = 0.03395615
#
# Stress axis : x y z
#
# Youngs Moduli (GPa) = 86.97946 35.01617 33.79844
#
# Poissons Ratio (x) = 0.04829 0.08669
# Poissons Ratio (y) = 0.11996 0.46976
# Poissons Ratio (z) = 0.22310 0.48669
#
# Static dielectric constant tensor:
#      x y z
#    x 4.280180 -0.072270 0.070730 
#    y -0.072270 3.971690 0.032620 
#    z 0.070730 0.032620 3.797510 
# 
# 
# High freq. dielectric constant tensor:
#      x y z
#    x 1.910780 -0.006140 0.005800 
#    y -0.006140 1.884700 0.015320 
#    z 0.005800 0.015320 1.878110 
# 
# From -- ./inp_files/97973.got.cif
#   From: 2010.06.25/outbox.cif.g09.slc.cpg/sg2_49_cif.got.tgz:97973.got - 2010.06.27 13:26:56.
