data_PCOD8027536
_publ_section_title
;
Structure prediction by ZEFSAII (Michael W. Deem and Ramdas Pophale) SiO2 
 PCOD8027536
Probable space group: P -1
;
_chemical_formula_sum "Si O2"
_cell_formula_units_Z 16
_cell_length_a 8.744311
_cell_length_b 13.105838
_cell_length_c 18.837527
_cell_angle_alpha 30.052524
_cell_angle_beta 134.752377
_cell_angle_gamma 130.377544
_cell_volume 763.268449
_symmetry_space_group_name_H-M "P -1"
_symmetry_group_IT_number 2
_symmetry_cell_setting 'triclinic'
loop_
_space_group_symop_operation_xyz
x,y,z
-x,-y,-z
loop_
_atom_site_type_symbol
_atom_site_label
_atom_site_fract_x
_atom_site_fract_y
_atom_site_fract_z
Si Si1 0.307664 0.322469 0.033962
Si Si2 0.941688 0.457934 0.925413
Si Si3 0.905605 0.434834 0.583979
Si Si4 0.166543 0.194145 0.919316
Si Si5 0.589626 0.103840 0.037855
Si Si6 0.502537 0.106234 0.634215
Si Si7 0.132246 0.106760 0.414689
Si Si8 0.164970 0.141843 0.628445
O O1 0.394206 0.103830 0.199771
O O2 0.500000 0.500000 0.000000
O O3 0.199517 0.341994 0.909484
O O4 0.126411 0.334847 0.026687
O O5 0.932726 0.665234 0.753811
O O6 0.708597 0.326522 0.923398
O O7 0.000000 0.500000 0.000000
O O8 0.682976 0.295832 0.583549
O O9 0.859941 0.624688 0.503343
O O10 0.000000 0.500000 0.500000
O O11 0.081652 0.315009 0.753058
O O12 0.396419 0.119381 0.020330
O O13 0.000000 0.000000 0.000000
O O14 0.761690 0.967946 0.210806
O O15 0.500000 0.000000 0.000000
O O16 0.384992 0.113364 0.514455
O O17 0.336567 0.127277 0.630919
O O18 0.000000 0.000000 0.500000
O O19 0.068162 0.974221 0.402585
#
# Coordination Sequence:
#
# PCOD8027536 Si02
#       8
#     2   2   2   2   2   2   2   2
#     4  12  25  45  75 102 139 184 242 283 342 424
#     4  12  26  46  73 104 142 183 229 299 352 404
#     4  12  28  44  68 104 146 178 231 292 349 406
#     4  12  25  48  71 101 139 190 236 286 344 421
#     4  12  25  43  72 103 142 182 234 291 352 404
#     4  11  25  46  70 103 135 185 232 283 343 422
#     4  10  24  45  71 101 137 180 230 278 349 423
#     4  11  23  47  69  99 142 183 230 281 347 421
#
# _framework density 20.962479999999999
#
# number of rings (size 3 to 8) (size 9 to 14) (size 15 to 20)
#    0.000    0.500    3.750    4.125   10.500    0.000 
#    0.000    1.250    0.000    0.000    0.000    0.000 
#    0.000    0.000    0.000    0.000    0.000    0.000 
#
# Total GULP energy -198475.699082 kJ/mol
# GULP energy per Si atom -12404.731193 kJ/mol
# Density = 2.091477 g / cm^3
# Si number density = 20.962480 Si / 1000 Ang^3
#
#
#
# Elastic Constant Matrix: (Units=GPa)
#
#
# Indices 1 2 3 4 5 6 
#
# 1 109.0987 48.0459 27.8312 -9.2492 1.2619 -8.8096
# 2 48.0459 199.6879 56.7117 2.0470 -4.5916 1.7454
# 3 27.8312 56.7117 136.2117 1.1073 -3.7536 -3.0191
# 4 -9.2492 2.0470 1.1073 52.4650 -1.8031 -6.6098
# 5 1.2619 -4.5916 -3.7536 -1.8031 31.8199 -0.7221
# 6 -8.8096 1.7454 -3.0191 -6.6098 -0.7221 36.7463
#
#
#
# Elastic Compliance Matrix: (Units=1/GPa)
#
#
# Indices 1 2 3 4 5 6 
#
# 1 0.010980 -0.002360 -0.001232 0.002415 -0.000715 0.003064
# 2 -0.002360 0.006206 -0.002103 -0.000736 0.000673 -0.001152
# 3 -0.001232 -0.002103 0.008502 -0.000229 0.000746 0.000476
# 4 0.002415 -0.000736 -0.000229 0.020087 0.001005 0.004228
# 5 -0.000715 0.000673 0.000746 0.001005 0.031712 0.000662
# 6 0.003064 -0.001152 0.000476 0.004228 0.000662 0.028816
#
#
# Mechanical properties :
#
#
# Convention : Reuss Voigt Hill
#
# Bulk Modulus (GPa) = 69.94036 78.90845 74.42440
# Shear Modulus (GPa) = 40.83028 45.03353 42.93190
#
# Velocity S-wave (km/s) = 4.41815 4.64000 4.53043
# Velocity P-wave (km/s) = 7.71127 8.15049 7.93392
#
# Compressibility (1/GPa) = 0.01429790
#
# Stress axis : x y z
#
# Youngs Moduli (GPa) = 91.07430 161.13828 117.62301
#
# Poissons Ratio (x) = 0.38026 0.14496
# Poissons Ratio (y) = 0.21492 0.24732
# Poissons Ratio (z) = 0.11224 0.33882
#
# Static dielectric constant tensor:
#      x y z
#    x 3.800440 0.287950 -0.113410 
#    y 0.287950 5.328360 -0.514290 
#    z -0.113410 -0.514290 4.459440 
# 
# 
# High freq. dielectric constant tensor:
#      x y z
#    x 1.815110 0.003010 -0.004350 
#    y 0.003010 1.850830 0.004560 
#    z -0.004350 0.004560 1.831940 
# 
# From -- ./inp_files/320323.got.cif
#   From: 2010.06.25/outbox.cif.g09.slc.cpg/sg2_161_cif.got.tgz:320323.got - 2010.06.27 13:26:56.
