data_PCOD8027516
_publ_section_title
;
Structure prediction by ZEFSAII (Michael W. Deem and Ramdas Pophale) SiO2 
 PCOD8027516
Probable space group: P -1
;
_chemical_formula_sum "Si O2"
_cell_formula_units_Z 16
_cell_length_a 16.777047
_cell_length_b 11.899277
_cell_length_c 8.230673
_cell_angle_alpha 35.826004
_cell_angle_beta 113.201692
_cell_angle_gamma 127.489241
_cell_volume 745.413417
_symmetry_space_group_name_H-M "P -1"
_symmetry_group_IT_number 2
_symmetry_cell_setting 'triclinic'
loop_
_space_group_symop_operation_xyz
x,y,z
-x,-y,-z
loop_
_atom_site_type_symbol
_atom_site_label
_atom_site_fract_x
_atom_site_fract_y
_atom_site_fract_z
Si Si1 0.843213 0.736801 0.751785
Si Si2 0.461247 0.572326 0.732555
Si Si3 0.587436 0.086670 0.599709
Si Si4 0.311980 0.124317 0.555642
Si Si5 0.955009 0.915753 0.303619
Si Si6 0.410658 0.263796 0.783905
Si Si7 0.779437 0.235178 0.364733
Si Si8 0.958070 0.258262 0.668214
O O1 0.739069 0.734578 0.704274
O O2 0.870246 0.774269 0.538517
O O3 0.825974 0.500011 0.069824
O O4 0.933421 0.934152 0.699925
O O5 0.393512 0.678621 0.590664
O O6 0.566769 0.754529 0.515917
O O7 0.383373 0.349046 0.826076
O O8 0.500000 0.500000 0.000000
O O9 0.688388 0.126616 0.548299
O O10 0.500000 0.000000 0.500000
O O11 0.551484 0.901765 0.932534
O O12 0.309934 0.113774 0.764317
O O13 0.254914 0.882029 0.703373
O O14 0.956777 0.742400 0.378526
O O15 0.924864 0.075149 0.999919
O O16 0.500000 0.500000 0.500000
O O17 0.862648 0.190702 0.555796
O O18 0.000000 0.500000 0.500000
#
# Coordination Sequence:
#
# PCOD8027516 Si02
#       8
#     2   2   2   2   2   2   2   2
#     4  11  24  43  68  99 127 177 216 274 334 400
#     4  11  21  43  69  90 131 179 218 273 328 381
#     4  12  24  43  68  99 132 178 229 266 328 399
#     4  11  24  41  64  95 137 167 222 271 323 395
#     4  10  24  45  70  94 132 169 219 273 340 397
#     4  10  25  42  65  94 129 180 217 278 327 378
#     4  12  25  42  69  97 135 175 222 273 332 388
#     4  11  23  46  69  99 130 170 217 278 332 396
#
# _framework density 21.464597999999999
#
# number of rings (size 3 to 8) (size 9 to 14) (size 15 to 20)
#    0.000    1.000    5.000    0.750    3.500    4.500 
#    2.250    0.000    0.000    0.000    0.000    0.000 
#    0.000    0.000    0.000    0.000    0.000    0.000 
#
# Total GULP energy -198321.755023 kJ/mol
# GULP energy per Si atom -12395.109689 kJ/mol
# Density = 2.141574 g / cm^3
# Si number density = 21.464598 Si / 1000 Ang^3
#
#
#
# Elastic Constant Matrix: (Units=GPa)
#
#
# Indices 1 2 3 4 5 6 
#
# 1 69.9599 24.5928 34.1763 -7.5386 15.0890 -9.5805
# 2 24.5928 133.0648 28.6500 2.1638 14.6198 -20.9823
# 3 34.1763 28.6500 134.0806 10.6397 15.3655 -12.0039
# 4 -7.5386 2.1638 10.6397 34.2709 -2.0321 8.0526
# 5 15.0890 14.6198 15.3655 -2.0321 37.2000 -3.1520
# 6 -9.5805 -20.9823 -12.0039 8.0526 -3.1520 34.9848
#
#
#
# Elastic Compliance Matrix: (Units=1/GPa)
#
#
# Indices 1 2 3 4 5 6 
#
# 1 0.018691 -0.001981 -0.004110 0.005010 -0.004752 0.000939
# 2 -0.001981 0.009069 -0.000561 -0.002140 -0.002222 0.004996
# 3 -0.004110 -0.000561 0.009458 -0.004548 -0.002043 0.002646
# 4 0.005010 -0.002140 -0.004548 0.034085 0.001773 -0.009158
# 5 -0.004752 -0.002222 -0.002043 0.001773 0.030539 -0.000992
# 6 0.000939 0.004996 0.002646 -0.009158 -0.000992 0.034764
#
#
# Mechanical properties :
#
#
# Convention : Reuss Voigt Hill
#
# Bulk Modulus (GPa) = 41.81648 56.88260 49.34954
# Shear Modulus (GPa) = 31.66928 37.93689 34.80309
#
# Velocity S-wave (km/s) = 3.84529 4.20863 4.03105
# Velocity P-wave (km/s) = 6.26409 7.08342 6.68632
#
# Compressibility (1/GPa) = 0.02391402
#
# Stress axis : x y z
#
# Youngs Moduli (GPa) = 53.50038 110.26709 105.73543
#
# Poissons Ratio (x) = 0.21843 0.43457
# Poissons Ratio (y) = 0.10598 0.05933
# Poissons Ratio (z) = 0.21989 0.06187
#
# Static dielectric constant tensor:
#      x y z
#    x 3.298590 -0.395340 0.337130 
#    y -0.395340 4.553410 0.188440 
#    z 0.337130 0.188440 3.858180 
# 
# 
# High freq. dielectric constant tensor:
#      x y z
#    x 1.831150 -0.018410 0.015230 
#    y -0.018410 1.859760 0.009570 
#    z 0.015230 0.009570 1.845380 
# 
# From -- ./inp_files/273534.got.cif
#   From: 2010.06.25/outbox.cif.g09.slc.cpg/sg2_137_cif.got.tgz:273534.got - 2010.06.27 13:26:56.
