data_PCOD8027382
_publ_section_title
;
Structure prediction by ZEFSAII (Michael W. Deem and Ramdas Pophale) SiO2 
 PCOD8027382
Probable space group: P -1
;
_chemical_formula_sum "Si O2"
_cell_formula_units_Z 16
_cell_length_a 9.524983
_cell_length_b 21.856618
_cell_length_c 9.129993
_cell_angle_alpha 122.642402
_cell_angle_beta 56.977180
_cell_angle_gamma 151.585376
_cell_volume 749.696697
_symmetry_space_group_name_H-M "P -1"
_symmetry_group_IT_number 2
_symmetry_cell_setting 'triclinic'
loop_
_space_group_symop_operation_xyz
x,y,z
-x,-y,-z
loop_
_atom_site_type_symbol
_atom_site_label
_atom_site_fract_x
_atom_site_fract_y
_atom_site_fract_z
Si Si1 0.793195 0.708298 0.369436
Si Si2 0.215997 0.587782 0.856824
Si Si3 0.797765 0.252239 0.972962
Si Si4 0.116642 0.473492 0.480186
Si Si5 0.860958 0.762061 0.727321
Si Si6 0.851085 0.013940 0.520518
Si Si7 0.771153 0.208929 0.261074
Si Si8 0.777800 0.971790 0.174830
O O1 0.443547 0.576085 0.359803
O O2 0.834984 0.709064 0.520493
O O3 0.918725 0.686863 0.176413
O O4 0.930393 0.836851 0.414112
O O5 0.137447 0.496230 0.670163
O O6 0.561665 0.700586 0.854943
O O7 0.155202 0.644966 0.894091
O O8 0.000000 0.500000 0.000000
O O9 0.550501 0.155682 0.864880
O O10 0.717685 0.185826 0.087159
O O11 0.000000 0.500000 0.500000
O O12 0.869763 0.323778 0.401779
O O13 0.951295 0.742212 0.784101
O O14 0.139497 0.915571 0.752562
O O15 0.540499 0.925553 0.659216
O O16 0.784675 0.958408 0.325997
O O17 0.000000 0.000000 0.500000
O O18 0.000000 0.000000 0.000000
#
# Coordination Sequence:
#
# PCOD8027382 Si02
#       8
#     2   2   2   2   2   2   2   2
#     4  10  25  44  68  96 136 176 221 278 335 399
#     4  11  26  43  69  97 134 175 229 268 336 405
#     4  12  25  44  67 101 136 174 222 282 329 393
#     4  11  24  46  68  94 138 178 216 277 340 395
#     4  10  24  45  66  98 133 176 218 275 340 399
#     4  11  24  43  70 103 134 177 227 271 341 400
#     4  12  26  41  70 100 135 173 229 279 330 395
#     4  11  22  41  70  96 136 176 217 274 332 395
#
# _framework density 21.341963
#
# number of rings (size 3 to 8) (size 9 to 14) (size 15 to 20)
#    0.000    1.000    2.500    3.000    7.000    7.500 
#    0.000    0.000    0.000    0.000    0.000    0.000 
#    0.000    0.000    0.000    0.000    0.000    0.000 
#
# Total GULP energy -198398.073349 kJ/mol
# GULP energy per Si atom -12399.879584 kJ/mol
# Density = 2.129339 g / cm^3
# Si number density = 21.341963 Si / 1000 Ang^3
#
#
#
# Elastic Constant Matrix: (Units=GPa)
#
#
# Indices 1 2 3 4 5 6 
#
# 1 127.0143 4.7751 37.1260 -14.3681 5.4138 -2.0847
# 2 4.7751 70.8841 23.1844 -14.0368 5.2753 4.3902
# 3 37.1260 23.1844 116.3948 -25.4321 1.4019 7.8433
# 4 -14.3681 -14.0368 -25.4321 42.4571 2.2346 -2.3742
# 5 5.4138 5.2753 1.4019 2.2346 37.6477 -5.7073
# 6 -2.0847 4.3902 7.8433 -2.3742 -5.7073 29.9874
#
#
#
# Elastic Compliance Matrix: (Units=1/GPa)
#
#
# Indices 1 2 3 4 5 6 
#
# 1 0.008890 0.000633 -0.002637 0.001764 -0.001203 0.001126
# 2 0.000633 0.015967 -0.002316 0.004146 -0.002774 -0.001888
# 3 -0.002637 -0.002316 0.011132 0.004893 -0.000371 -0.002439
# 4 0.001764 0.004146 0.004893 0.028594 -0.002717 -0.000017
# 5 -0.001203 -0.002774 -0.000371 -0.002717 0.028142 0.005561
# 6 0.001126 -0.001888 -0.002439 -0.000017 0.005561 0.035397
#
#
# Mechanical properties :
#
#
# Convention : Reuss Voigt Hill
#
# Bulk Modulus (GPa) = 36.56609 49.38491 42.97550
# Shear Modulus (GPa) = 34.27538 38.63228 36.45383
#
# Velocity S-wave (km/s) = 4.01185 4.25921 4.13738
# Velocity P-wave (km/s) = 6.21535 6.88316 6.55776
#
# Compressibility (1/GPa) = 0.02734774
#
# Stress axis : x y z
#
# Youngs Moduli (GPa) = 112.49149 62.63009 89.83168
#
# Poissons Ratio (x) = -0.03964 0.23693
# Poissons Ratio (y) = -0.07120 0.20802
# Poissons Ratio (z) = 0.29670 0.14503
#
# Static dielectric constant tensor:
#      x y z
#    x 4.723470 -0.811880 -0.544150 
#    y -0.811880 4.385830 0.515050 
#    z -0.544150 0.515050 4.282630 
# 
# 
# High freq. dielectric constant tensor:
#      x y z
#    x 1.849250 0.004950 -0.001700 
#    y 0.004950 1.840520 -0.000760 
#    z -0.001700 -0.000760 1.843260 
# 
# From -- ./inp_files/207978.got.cif
#   From: 2010.06.25/outbox.cif.g09.slc.cpg/sg2_104_cif.got.tgz:207978.got - 2010.06.27 13:26:56.
