data_PCOD8027601
_publ_section_title
;
Structure prediction by ZEFSAII (Michael W. Deem and Ramdas Pophale) SiO2 
 PCOD8027601
Probable space group: P -1
;
_chemical_formula_sum "Si O2"
_cell_formula_units_Z 16
_cell_length_a 17.911147
_cell_length_b 12.705027
_cell_length_c 8.627526
_cell_angle_alpha 103.125908
_cell_angle_beta 49.646340
_cell_angle_gamma 142.257823
_cell_volume 725.093375
_symmetry_space_group_name_H-M "P -1"
_symmetry_group_IT_number 2
_symmetry_cell_setting 'triclinic'
loop_
_space_group_symop_operation_xyz
x,y,z
-x,-y,-z
loop_
_atom_site_type_symbol
_atom_site_label
_atom_site_fract_x
_atom_site_fract_y
_atom_site_fract_z
Si Si1 0.649377 0.371599 0.610435
Si Si2 0.232792 0.080422 0.526401
Si Si3 0.935316 0.945412 0.747567
Si Si4 0.275340 0.065447 0.814685
Si Si5 0.988128 0.635573 0.690908
Si Si6 0.980992 0.607466 0.030983
Si Si7 0.313846 0.767852 0.252765
Si Si8 0.585246 0.483412 0.978173
O O1 0.485469 0.257141 0.675318
O O2 0.849209 0.543231 0.309268
O O3 0.595014 0.206701 0.713065
O O4 0.689606 0.501801 0.725996
O O5 0.297144 0.136215 0.637337
O O6 0.424209 0.264664 0.221512
O O7 0.114717 0.079230 0.660090
O O8 0.091711 0.847945 0.580891
O O9 0.750316 0.688609 0.939713
O O10 0.871035 0.003589 0.905004
O O11 0.000000 0.000000 0.500000
O O12 0.195234 0.866964 0.842112
O O13 0.806350 0.435185 0.755585
O O14 0.158944 0.709738 0.490373
O O15 0.891698 0.544721 0.960427
O O16 0.000000 0.500000 0.000000
O O17 0.500000 0.000000 0.000000
O O18 0.500000 0.500000 0.000000
#
# Coordination Sequence:
#
# PCOD8027601 Si02
#       8
#     2   2   2   2   2   2   2   2
#     4  12  25  43  70 102 137 179 227 290 340 412
#     4  11  25  45  68  97 146 176 231 287 347 409
#     4  12  23  44  71 101 140 183 229 290 342 410
#     4  11  27  43  69 105 136 183 233 280 353 412
#     4  10  24  46  63 103 134 179 229 284 339 412
#     4  11  25  46  69  97 140 183 227 277 344 412
#     4  11  24  41  73  99 135 178 234 281 345 400
#     4  12  24  44  71 105 134 180 234 282 347 414
#
# _framework density 22.066123000000001
#
# number of rings (size 3 to 8) (size 9 to 14) (size 15 to 20)
#    0.000    0.750    3.750    2.625    1.750    7.000 
#    0.000    0.000    0.000    0.000    0.000    0.000 
#    0.000    0.000    0.000    0.000    0.000    0.000 
#
# Total GULP energy -198419.660591 kJ/mol
# GULP energy per Si atom -12401.228787 kJ/mol
# Density = 2.201590 g / cm^3
# Si number density = 22.066123 Si / 1000 Ang^3
#
#
#
# Elastic Constant Matrix: (Units=GPa)
#
#
# Indices 1 2 3 4 5 6 
#
# 1 122.0694 27.3701 36.1706 -1.1605 4.3350 2.7486
# 2 27.3701 92.8394 36.1930 -1.2779 5.1891 -2.4900
# 3 36.1706 36.1930 120.9691 6.3548 17.2425 -4.6769
# 4 -1.1605 -1.2779 6.3548 36.9960 -5.3667 -1.4002
# 5 4.3350 5.1891 17.2425 -5.3667 40.1313 -1.1396
# 6 2.7486 -2.4900 -4.6769 -1.4002 -1.1396 32.4964
#
#
#
# Elastic Compliance Matrix: (Units=1/GPa)
#
#
# Indices 1 2 3 4 5 6 
#
# 1 0.009333 -0.001875 -0.002352 0.000628 0.000294 -0.001234
# 2 -0.001875 0.012619 -0.003256 0.000981 0.000121 0.000703
# 3 -0.002352 -0.003256 0.010734 -0.002600 -0.004249 0.001233
# 4 0.000628 0.000981 -0.002600 0.028255 0.004730 0.001031
# 5 0.000294 0.000121 -0.004249 0.004730 0.027344 0.000536
# 6 -0.001234 0.000703 0.001233 0.001031 0.000536 0.031172
#
#
# Mechanical properties :
#
#
# Convention : Reuss Voigt Hill
#
# Bulk Modulus (GPa) = 56.43823 59.48282 57.96053
# Shear Modulus (GPa) = 35.62994 37.66767 36.64880
#
# Velocity S-wave (km/s) = 4.02268 4.13611 4.07979
# Velocity P-wave (km/s) = 6.87083 7.05869 6.96539
#
# Compressibility (1/GPa) = 0.01771848
#
# Stress axis : x y z
#
# Youngs Moduli (GPa) = 107.14870 79.24396 93.16093
#
# Poissons Ratio (x) = 0.14861 0.21912
# Poissons Ratio (y) = 0.20094 0.30337
# Poissons Ratio (z) = 0.25202 0.25805
#
# Static dielectric constant tensor:
#      x y z
#    x 4.091350 -0.114750 0.079600 
#    y -0.114750 4.108330 0.057010 
#    z 0.079600 0.057010 4.089280 
# 
# 
# High freq. dielectric constant tensor:
#      x y z
#    x 1.878290 -0.008350 0.001730 
#    y -0.008350 1.874020 0.003680 
#    z 0.001730 0.003680 1.873920 
# 
# From -- ./inp_files/333358.got.cif
#   From: 2010.06.25/outbox.cif.g09.slc.cpg/sg2_167_cif.got.tgz:333358.got - 2010.06.27 13:26:56.
