data_PCOD8027575
_publ_section_title
;
Structure prediction by ZEFSAII (Michael W. Deem and Ramdas Pophale) SiO2 
 PCOD8027575
Probable space group: P -1
;
_chemical_formula_sum "Si O2"
_cell_formula_units_Z 12
_cell_length_a 18.492345
_cell_length_b 10.205944
_cell_length_c 4.974441
_cell_angle_alpha 107.203788
_cell_angle_beta 66.142218
_cell_angle_gamma 143.337012
_cell_volume 511.977092
_symmetry_space_group_name_H-M "P -1"
_symmetry_group_IT_number 2
_symmetry_cell_setting 'triclinic'
loop_
_space_group_symop_operation_xyz
x,y,z
-x,-y,-z
loop_
_atom_site_type_symbol
_atom_site_label
_atom_site_fract_x
_atom_site_fract_y
_atom_site_fract_z
Si Si1 0.972351 0.334248 0.125858
Si Si2 0.712956 0.096196 0.390130
Si Si3 0.936772 0.984809 0.835075
Si Si4 0.760987 0.331781 0.935296
Si Si5 0.524833 0.387821 0.757803
Si Si6 0.324878 0.480678 0.901511
O O1 0.967372 0.186376 0.877664
O O2 0.832810 0.168527 0.359361
O O3 0.000000 0.500000 0.000000
O O4 0.088056 0.476753 0.254275
O O5 0.673834 0.135275 0.729552
O O6 0.603442 0.846861 0.312327
O O7 0.745250 0.246130 0.198962
O O8 0.786166 0.759831 0.944469
O O9 0.000000 0.000000 0.500000
O O10 0.000000 0.000000 0.000000
O O11 0.721811 0.435966 0.079999
O O12 0.620482 0.526732 0.444523
O O13 0.500000 0.500000 0.000000
O O14 0.575152 0.361242 0.909925
#
# Coordination Sequence:
#
# PCOD8027575 Si02
#       6
#     2   2   2   2   2   2
#     4  10  24  45  73 106 146 189 240 305 361 432
#     4  11  25  44  70 102 145 191 238 290 363 435
#     4  12  26  44  73 108 145 186 241 300 372 431
#     4  11  24  43  71 107 140 183 240 301 369 422
#     4  12  27  48  71 101 144 194 242 296 359 438
#     4  12  26  45  75 104 146 185 243 305 358 434
#
# _framework density 23.438547
#
# number of rings (size 3 to 8) (size 9 to 14) (size 15 to 20)
#    0.000    0.667    1.667    5.000    4.667    8.000 
#    0.000    0.000    0.000    0.000    0.000    0.000 
#    0.000    0.000    0.000    0.000    0.000    0.000 
#
# Total GULP energy -148765.342915 kJ/mol
# GULP energy per Si atom -12397.111910 kJ/mol
# Density = 2.338520 g / cm^3
# Si number density = 23.438547 Si / 1000 Ang^3
#
#
#
# Elastic Constant Matrix: (Units=GPa)
#
#
# Indices 1 2 3 4 5 6 
#
# 1 109.8737 55.0554 51.9424 3.7591 -14.9892 0.7287
# 2 55.0554 135.9490 60.8278 15.4492 -26.4631 3.2295
# 3 51.9424 60.8278 168.8413 7.3297 -5.7948 0.1776
# 4 3.7591 15.4492 7.3297 44.5594 -2.8208 -4.2773
# 5 -14.9892 -26.4631 -5.7948 -2.8208 32.2036 10.3985
# 6 0.7287 3.2295 0.1776 -4.2773 10.3985 42.7635
#
#
#
# Elastic Compliance Matrix: (Units=1/GPa)
#
#
# Indices 1 2 3 4 5 6 
#
# 1 0.012348 -0.003414 -0.002504 0.000675 0.002724 -0.000537
# 2 -0.003414 0.012161 -0.002891 -0.003219 0.008660 -0.003276
# 3 -0.002504 -0.002891 0.007655 -0.000122 -0.002435 0.000809
# 4 0.000675 -0.003219 -0.000122 0.023723 -0.001211 0.002900
# 5 0.002724 0.008660 -0.002435 -0.001211 0.042490 -0.011144
# 6 -0.000537 -0.003276 0.000809 0.002900 -0.011144 0.026637
#
#
# Mechanical properties :
#
#
# Convention : Reuss Voigt Hill
#
# Bulk Modulus (GPa) = 68.74161 83.36837 76.05499
# Shear Modulus (GPa) = 33.90280 40.36117 37.13198
#
# Velocity S-wave (km/s) = 3.80735 4.15420 3.98455
# Velocity P-wave (km/s) = 6.97997 7.65872 7.32721
#
# Compressibility (1/GPa) = 0.01454723
#
# Stress axis : x y z
#
# Youngs Moduli (GPa) = 80.98602 82.23137 130.62848
#
# Poissons Ratio (x) = 0.28072 0.32710
# Poissons Ratio (y) = 0.27647 0.37758
# Poissons Ratio (z) = 0.20279 0.23769
#
# Static dielectric constant tensor:
#      x y z
#    x 4.839780 0.426500 0.069690 
#    y 0.426500 4.608100 0.040250 
#    z 0.069690 0.040250 4.388080 
# 
# 
# High freq. dielectric constant tensor:
#      x y z
#    x 1.942190 0.009850 -0.006530 
#    y 0.009850 1.935400 0.010050 
#    z -0.006530 0.010050 1.928550 
# 
# From -- ./inp_files/118829.got.cif
#   From: 2010.06.25/outbox.cif.g09.slc.cpg/sg2_60_cif.got.tgz:118829.got - 2010.06.27 13:26:56.
