data_PCOD8027338
_publ_section_title
;
Structure prediction by ZEFSAII (Michael W. Deem and Ramdas Pophale) SiO2 
 PCOD8027338
Probable space group: P -1
;
_chemical_formula_sum "Si O2"
_cell_formula_units_Z 14
_cell_length_a 8.688992
_cell_length_b 14.940642
_cell_length_c 13.704630
_cell_angle_alpha 30.845797
_cell_angle_beta 56.482890
_cell_angle_gamma 79.642301
_cell_volume 551.610558
_symmetry_space_group_name_H-M "P -1"
_symmetry_group_IT_number 2
_symmetry_cell_setting 'triclinic'
loop_
_space_group_symop_operation_xyz
x,y,z
-x,-y,-z
loop_
_atom_site_type_symbol
_atom_site_label
_atom_site_fract_x
_atom_site_fract_y
_atom_site_fract_z
Si Si1 0.611097 0.850568 0.822509
Si Si2 0.883156 0.023720 0.277611
Si Si3 0.835075 0.712133 0.756495
Si Si4 0.456068 0.340032 0.781118
Si Si5 0.820370 0.372478 0.965908
Si Si6 0.617760 0.213774 0.684051
Si Si7 0.273974 0.153963 0.712785
O O1 0.663325 0.680543 0.932800
O O2 0.550099 0.824438 0.984172
O O3 0.377495 0.776115 0.914059
O O4 0.877143 0.127225 0.454381
O O5 0.815585 0.839696 0.555781
O O6 0.723542 0.887371 0.363473
O O7 0.837587 0.191811 0.176930
O O8 0.173735 0.202755 0.975815
O O9 0.722945 0.450986 0.006257
O O10 0.606324 0.390581 0.582018
O O11 0.586105 0.574102 0.577615
O O12 0.087970 0.625867 0.595647
O O13 0.439008 0.108603 0.749654
O O14 0.500000 0.000000 0.000000
O O15 0.000000 0.000000 0.000000
#
# Coordination Sequence:
#
# PCOD8027338 Si02
#       7
#     2   2   2   2   2   2   2
#     4  10  24  44  75  94 133 180 223 273 343 389
#     4  11  24  43  70  98 137 174 223 274 334 396
#     4  10  24  50  67 100 136 173 225 284 327 399
#     4  11  23  46  65  97 137 180 214 275 334 399
#     4  12  25  42  70 102 133 176 225 277 332 401
#     4  12  26  42  65 101 140 171 224 279 326 404
#     4  12  24  41  65  95 132 185 217 265 338 397
#
# _framework density 25.380226
#
# number of rings (size 3 to 8) (size 9 to 14) (size 15 to 20)
#    0.000    0.857    2.857    4.286    6.000    1.143 
#    0.000    6.429    0.000    0.000    0.000    0.000 
#    0.000    0.000    0.000    0.000    0.000    0.000 
#
# Total GULP energy -173601.840754 kJ/mol
# GULP energy per Si atom -12400.131482 kJ/mol
# Density = 2.532246 g / cm^3
# Si number density = 25.380226 Si / 1000 Ang^3
#
#
#
# Elastic Constant Matrix: (Units=GPa)
#
#
# Indices 1 2 3 4 5 6 
#
# 1 138.7687 7.7288 29.5881 -5.3271 -22.7166 15.0885
# 2 7.7288 98.8139 0.9068 -12.0347 0.3630 16.0812
# 3 29.5881 0.9068 40.2743 -12.2835 -4.1368 9.0674
# 4 -5.3271 -12.0347 -12.2835 45.2298 -7.3232 -0.8054
# 5 -22.7166 0.3630 -4.1368 -7.3232 39.8020 -10.7822
# 6 15.0885 16.0812 9.0674 -0.8054 -10.7822 37.0348
#
#
#
# Elastic Compliance Matrix: (Units=1/GPa)
#
#
# Indices 1 2 3 4 5 6 
#
# 1 0.009392 -0.000579 -0.006270 -0.000033 0.004511 -0.000727
# 2 -0.000579 0.011458 0.002324 0.003337 -0.001083 -0.005551
# 3 -0.006270 0.002324 0.033522 0.008824 -0.000266 -0.006548
# 4 -0.000033 0.003337 0.008824 0.026220 0.005289 -0.001486
# 5 0.004511 -0.001083 -0.000266 0.005289 0.030758 0.007768
# 6 -0.000727 -0.005551 -0.006548 -0.001486 0.007768 0.033541
#
#
# Mechanical properties :
#
#
# Convention : Reuss Voigt Hill
#
# Bulk Modulus (GPa) = 22.06482 39.36714 30.71598
# Shear Modulus (GPa) = 29.57758 40.38885 34.98321
#
# Velocity S-wave (km/s) = 3.41747 3.99350 3.71666
# Velocity P-wave (km/s) = 4.92795 6.06702 5.52691
#
# Compressibility (1/GPa) = 0.04532101
#
# Stress axis : x y z
#
# Youngs Moduli (GPa) = 106.47919 87.27635 29.83139
#
# Poissons Ratio (x) = 0.05056 0.18704
# Poissons Ratio (y) = 0.06169 -0.06933
# Poissons Ratio (z) = 0.66760 -0.20283
#
# Static dielectric constant tensor:
#      x y z
#    x 4.625460 0.010060 -0.097610 
#    y 0.010060 4.938040 -0.233470 
#    z -0.097610 -0.233470 4.305240 
# 
# 
# High freq. dielectric constant tensor:
#      x y z
#    x 2.016250 0.004380 -0.009590 
#    y 0.004380 2.029020 -0.008580 
#    z -0.009590 -0.008580 2.009860 
# 
# From -- ./inp_files/202748.got.cif
#   From: 2010.06.25/outbox.cif.g09.slc.cpg/sg2_102_cif.got.tgz:202748.got - 2010.06.27 13:26:56.
