data_PCOD8027249
_publ_section_title
;
Structure prediction by ZEFSAII (Michael W. Deem and Ramdas Pophale) SiO2 
 PCOD8027249
Probable space group: P -1
;
_chemical_formula_sum "Si O2"
_cell_formula_units_Z 14
_cell_length_a 9.339115
_cell_length_b 7.585506
_cell_length_c 9.242446
_cell_angle_alpha 108.292095
_cell_angle_beta 90.942197
_cell_angle_gamma 69.401960
_cell_volume 578.662730
_symmetry_space_group_name_H-M "P -1"
_symmetry_group_IT_number 2
_symmetry_cell_setting 'triclinic'
loop_
_space_group_symop_operation_xyz
x,y,z
-x,-y,-z
loop_
_atom_site_type_symbol
_atom_site_label
_atom_site_fract_x
_atom_site_fract_y
_atom_site_fract_z
Si Si1 0.832265 0.033015 0.547795
Si Si2 0.596455 0.597853 0.325615
Si Si3 0.408709 0.773632 0.617316
Si Si4 0.914226 0.597667 0.379571
Si Si5 0.660485 0.000348 0.045673
Si Si6 0.325881 0.728742 0.134833
Si Si7 0.859551 0.548340 0.904097
O O1 0.809309 0.827448 0.463128
O O2 0.730851 0.210718 0.487718
O O3 0.795772 0.095283 0.729249
O O4 0.000000 0.000000 0.500000
O O5 0.545951 0.759521 0.501051
O O6 0.544332 0.419213 0.331050
O O7 0.782690 0.520878 0.290632
O O8 0.498496 0.671141 0.193265
O O9 0.351183 0.965218 0.771847
O O10 0.000000 0.500000 0.500000
O O11 0.061125 0.555848 0.268764
O O12 0.788211 0.787851 0.953192
O O13 0.684972 0.181291 0.003877
O O14 0.500000 0.000000 0.000000
O O15 0.271151 0.539821 0.075748
O O16 0.000000 0.500000 0.000000
#
# Coordination Sequence:
#
# PCOD8027249 Si02
#       7
#     2   2   2   2   2   2   2
#     4  11  22  44  72 102 141 187 239 304 363 431
#     4  10  25  46  77 104 140 191 247 310 363 430
#     4  10  24  44  71 103 140 188 247 295 366 429
#     4  12  26  44  76 106 146 185 251 307 370 429
#     4  12  29  46  76 107 153 197 248 296 369 453
#     4  11  27  49  75 107 150 196 247 301 373 442
#     4  12  29  51  73 112 154 194 244 307 375 442
#
# _framework density 24.193715000000001
#
# number of rings (size 3 to 8) (size 9 to 14) (size 15 to 20)
#    0.000    0.857    1.429    3.429   14.000    2.857 
#    0.000    0.000    0.000    0.000    0.000    0.000 
#    0.000    0.000    0.000    0.000    0.000    0.000 
#
# Total GULP energy -173471.747110 kJ/mol
# GULP energy per Si atom -12390.839079 kJ/mol
# Density = 2.413865 g / cm^3
# Si number density = 24.193715 Si / 1000 Ang^3
#
#
#
# Elastic Constant Matrix: (Units=GPa)
#
#
# Indices 1 2 3 4 5 6 
#
# 1 133.2179 29.0409 20.8065 -11.7688 2.2325 -11.0612
# 2 29.0409 112.0969 21.2893 -6.9996 1.0589 -10.7328
# 3 20.8065 21.2893 107.2571 -2.8984 0.8494 -3.7574
# 4 -11.7688 -6.9996 -2.8984 37.9581 -6.3274 -1.3810
# 5 2.2325 1.0589 0.8494 -6.3274 32.8329 2.6709
# 6 -11.0612 -10.7328 -3.7574 -1.3810 2.6709 40.5636
#
#
#
# Elastic Compliance Matrix: (Units=1/GPa)
#
#
# Indices 1 2 3 4 5 6 
#
# 1 0.008401 -0.001634 -0.001179 0.002246 -0.000205 0.001839
# 2 -0.001634 0.009917 -0.001543 0.001264 -0.000095 0.002085
# 3 -0.001179 -0.001543 0.009869 0.000090 -0.000124 0.000196
# 4 0.002246 0.001264 0.000090 0.028190 0.005108 0.001579
# 5 -0.000205 -0.000095 -0.000124 0.005108 0.031625 -0.002001
# 6 0.001839 0.002085 0.000196 0.001579 -0.002001 0.025909
#
#
# Mechanical properties :
#
#
# Convention : Reuss Voigt Hill
#
# Bulk Modulus (GPa) = 51.35026 54.98281 53.16653
# Shear Modulus (GPa) = 38.72506 41.03327 39.87917
#
# Velocity S-wave (km/s) = 4.00512 4.12276 4.06436
# Velocity P-wave (km/s) = 6.53136 6.74079 6.63690
#
# Compressibility (1/GPa) = 0.01947410
#
# Stress axis : x y z
#
# Youngs Moduli (GPa) = 119.02680 100.83882 101.33118
#
# Poissons Ratio (x) = 0.16481 0.11943
# Poissons Ratio (y) = 0.19454 0.15639
# Poissons Ratio (z) = 0.14029 0.15563
#
# Static dielectric constant tensor:
#      x y z
#    x 4.551720 1.025120 0.690080 
#    y 1.025120 6.341980 1.978870 
#    z 0.690080 1.978870 11.080930 
# 
# 
# High freq. dielectric constant tensor:
#      x y z
#    x 1.960300 -0.012730 -0.007990 
#    y -0.012730 1.962010 0.002590 
#    z -0.007990 0.002590 1.977760 
# 
# From -- ./inp_files/159726.got.cif
#   From: 2010.06.25/outbox.cif.g09.slc.cpg/sg2_80_cif.got.tgz:159726.got - 2010.06.27 13:26:56.
