data_PCOD8027832
_publ_section_title
;
Structure prediction by ZEFSAII (Michael W. Deem and Ramdas Pophale) SiO2 
 PCOD8027832
Probable space group: P -1
;
_chemical_formula_sum "Si O2"
_cell_formula_units_Z 16
_cell_length_a 11.284325
_cell_length_b 13.719919
_cell_length_c 8.410380
_cell_angle_alpha 117.077132
_cell_angle_beta 117.410653
_cell_angle_gamma 112.822913
_cell_volume 673.886411
_symmetry_space_group_name_H-M "P -1"
_symmetry_group_IT_number 2
_symmetry_cell_setting 'triclinic'
loop_
_space_group_symop_operation_xyz
x,y,z
-x,-y,-z
loop_
_atom_site_type_symbol
_atom_site_label
_atom_site_fract_x
_atom_site_fract_y
_atom_site_fract_z
Si Si1 0.906530 0.865372 0.161945
Si Si2 0.093188 0.439562 0.056914
Si Si3 0.855813 0.065310 0.160272
Si Si4 0.750041 0.146639 0.428215
Si Si5 0.178846 0.344015 0.317484
Si Si6 0.617203 0.884599 0.350528
Si Si7 0.472295 0.790891 0.530506
Si Si8 0.455536 0.388441 0.031453
O O1 0.910260 0.000769 0.266269
O O2 0.797242 0.744024 0.851203
O O3 0.777618 0.746536 0.148967
O O4 0.140587 0.977162 0.384775
O O5 0.078817 0.386134 0.191100
O O6 0.336607 0.595556 0.286306
O O7 0.000000 0.500000 0.000000
O O8 0.972522 0.278688 0.751759
O O9 0.776628 0.124263 0.247039
O O10 0.042402 0.222256 0.289667
O O11 0.688301 0.903579 0.826082
O O12 0.656815 0.209212 0.433920
O O13 0.582257 0.962448 0.265844
O O14 0.397036 0.507979 0.648830
O O15 0.513129 0.860770 0.431435
O O16 0.505823 0.707528 0.088583
O O17 0.500000 0.500000 0.000000
#
# Coordination Sequence:
#
# PCOD8027832 Si02
#       8
#     2   2   2   2   2   2   2   2
#     4  12  25  48  71 104 147 191 237 295 371 428
#     4  10  24  47  73 102 141 192 240 300 360 422
#     4  12  25  45  73 110 143 187 244 299 360 433
#     4  11  24  47  72 101 140 191 240 306 350 427
#     4  12  26  45  72 106 150 191 237 298 365 431
#     4  12  25  44  73 102 144 191 240 291 359 435
#     4  11  25  45  72 101 142 187 242 294 367 420
#     4  12  29  43  71 114 147 189 236 295 361 438
#
# _framework density 23.742874
#
# number of rings (size 3 to 8) (size 9 to 14) (size 15 to 20)
#    0.000    0.500    3.750    3.375    7.000    1.000 
#    0.000    2.500    0.000    0.000    0.000    0.000 
#    0.000    0.000    0.000    0.000    0.000    0.000 
#
# Total GULP energy -198288.718074 kJ/mol
# GULP energy per Si atom -12393.044880 kJ/mol
# Density = 2.368883 g / cm^3
# Si number density = 23.742874 Si / 1000 Ang^3
#
#
#
# Elastic Constant Matrix: (Units=GPa)
#
#
# Indices 1 2 3 4 5 6 
#
# 1 77.2621 21.0304 1.4136 7.8938 -17.4356 16.1400
# 2 21.0304 135.1785 13.8050 21.6077 -4.4347 12.5551
# 3 1.4136 13.8050 112.0532 8.2121 -11.8057 -1.4569
# 4 7.8938 21.6077 8.2121 38.4429 3.4958 -0.5161
# 5 -17.4356 -4.4347 -11.8057 3.4958 35.7807 -0.6906
# 6 16.1400 12.5551 -1.4569 -0.5161 -0.6906 44.0791
#
#
#
# Elastic Compliance Matrix: (Units=1/GPa)
#
#
# Indices 1 2 3 4 5 6 
#
# 1 0.016797 -0.001306 0.001064 -0.003804 0.008637 -0.005653
# 2 -0.001306 0.008599 -0.000675 -0.004503 0.000607 -0.002037
# 3 0.001064 -0.000675 0.009561 -0.002226 0.003810 0.000152
# 4 -0.003804 -0.004503 -0.002226 0.030390 -0.006060 0.002863
# 5 0.008637 0.000607 0.003810 -0.006060 0.034028 -0.002747
# 6 -0.005653 -0.002037 0.000152 0.002863 -0.002747 0.025332
#
#
# Mechanical properties :
#
#
# Convention : Reuss Voigt Hill
#
# Bulk Modulus (GPa) = 30.19019 44.11021 37.15020
# Shear Modulus (GPa) = 36.34225 42.87688 39.60956
#
# Velocity S-wave (km/s) = 3.91661 4.25418 4.08888
# Velocity P-wave (km/s) = 5.76161 6.53830 6.16220
#
# Compressibility (1/GPa) = 0.03312334
#
# Stress axis : x y z
#
# Youngs Moduli (GPa) = 59.53281 116.29775 104.59615
#
# Poissons Ratio (x) = 0.15183 -0.11131
# Poissons Ratio (y) = 0.07772 0.07064
# Poissons Ratio (z) = -0.06336 0.07854
#
# Static dielectric constant tensor:
#      x y z
#    x 4.041480 0.003600 -0.154740 
#    y 0.003600 4.411780 0.343920 
#    z -0.154740 0.343920 4.946730 
# 
# 
# High freq. dielectric constant tensor:
#      x y z
#    x 1.924280 0.002850 -0.010630 
#    y 0.002850 1.947550 0.014480 
#    z -0.010630 0.014480 1.964030 
# 
# From -- ./inp_files/187979.got.cif
#   From: 2010.06.25/outbox.cif.g09.slc.cpg/sg2_94_cif.got.tgz:187979.got - 2010.06.27 13:26:56.
