data_PCOD8027591
_publ_section_title
;
Structure prediction by ZEFSAII (Michael W. Deem and Ramdas Pophale) SiO2 
 PCOD8027591
Probable space group: P -1
;
_chemical_formula_sum "Si O2"
_cell_formula_units_Z 16
_cell_length_a 11.422838
_cell_length_b 16.136619
_cell_length_c 5.826289
_cell_angle_alpha 62.830552
_cell_angle_beta 81.522581
_cell_angle_gamma 123.047135
_cell_volume 678.334297
_symmetry_space_group_name_H-M "P -1"
_symmetry_group_IT_number 2
_symmetry_cell_setting 'triclinic'
loop_
_space_group_symop_operation_xyz
x,y,z
-x,-y,-z
loop_
_atom_site_type_symbol
_atom_site_label
_atom_site_fract_x
_atom_site_fract_y
_atom_site_fract_z
Si Si1 0.376647 0.960451 0.381332
Si Si2 0.405613 0.317718 0.869376
Si Si3 0.309994 0.461795 0.831182
Si Si4 0.955294 0.227446 0.051360
Si Si5 0.159589 0.646205 0.238481
Si Si6 0.401864 0.674047 0.836616
Si Si7 0.053597 0.076099 0.134278
Si Si8 0.436910 0.817613 0.257236
O O1 0.184610 0.868372 0.600827
O O2 0.386806 0.888735 0.278341
O O3 0.500000 0.000000 0.500000
O O4 0.431731 0.090888 0.098309
O O5 0.351121 0.375595 0.970415
O O6 0.562327 0.429286 0.529181
O O7 0.465330 0.267037 0.077724
O O8 0.252077 0.194026 0.925087
O O9 0.327016 0.531964 0.968631
O O10 0.120762 0.364584 0.929491
O O11 0.986035 0.144225 0.033752
O O12 0.877389 0.263338 0.861147
O O13 0.272654 0.680795 0.376254
O O14 0.000000 0.500000 0.500000
O O15 0.255258 0.665696 0.955215
O O16 0.504577 0.779860 0.468017
O O17 0.000000 0.000000 0.500000
O O18 0.000000 0.000000 0.000000
#
# Coordination Sequence:
#
# PCOD8027591 Si02
#       8
#     2   2   2   2   2   2   2   2
#     4  11  23  46  68 100 144 195 246 301 380 459
#     4  10  24  50  74 108 151 189 260 309 388 445
#     4  10  24  45  76 107 137 203 248 319 381 450
#     4  11  24  50  75 108 152 192 259 319 389 455
#     4  12  26  44  68 111 151 191 243 309 386 464
#     4  12  23  42  71 108 148 189 250 307 381 460
#     4  11  29  55  81 117 152 207 265 324 385 456
#     4  11  24  41  67 102 146 198 245 298 385 456
#
# _framework density 23.587188999999999
#
# number of rings (size 3 to 8) (size 9 to 14) (size 15 to 20)
#    0.000    1.000    2.500    2.625    3.500    5.000 
#   11.250    0.000    0.000    0.000    0.000    0.000 
#    0.000    0.000    0.000    0.000    0.000    0.000 
#
# Total GULP energy -198228.067823 kJ/mol
# GULP energy per Si atom -12389.254239 kJ/mol
# Density = 2.353350 g / cm^3
# Si number density = 23.587189 Si / 1000 Ang^3
#
#
#
# Elastic Constant Matrix: (Units=GPa)
#
#
# Indices 1 2 3 4 5 6 
#
# 1 140.1935 52.4264 55.6583 -7.4109 3.9439 -3.9196
# 2 52.4264 139.9422 53.7626 -13.3224 -7.1779 -3.8099
# 3 55.6583 53.7626 146.1893 -18.9149 5.1187 27.0217
# 4 -7.4109 -13.3224 -18.9149 33.9438 7.3711 -7.1511
# 5 3.9439 -7.1779 5.1187 7.3711 42.3161 -8.0056
# 6 -3.9196 -3.8099 27.0217 -7.1511 -8.0056 41.3941
#
#
#
# Elastic Compliance Matrix: (Units=1/GPa)
#
#
# Indices 1 2 3 4 5 6 
#
# 1 0.009323 -0.002191 -0.003234 0.000022 -0.000337 0.002731
# 2 -0.002191 0.009599 -0.003232 0.001676 0.002609 0.003580
# 3 -0.003234 -0.003232 0.011343 0.003447 -0.003759 -0.008140
# 4 0.000022 0.001676 0.003447 0.033806 -0.005517 0.002679
# 5 -0.000337 0.002609 -0.003759 -0.005517 0.026826 0.006897
# 6 0.002731 0.003580 -0.008140 0.002679 0.006897 0.031856
#
#
# Mechanical properties :
#
#
# Convention : Reuss Voigt Hill
#
# Bulk Modulus (GPa) = 77.21818 83.33552 80.27685
# Shear Modulus (GPa) = 34.62946 41.16265 37.89606
#
# Velocity S-wave (km/s) = 3.83580 4.18200 4.01264
# Velocity P-wave (km/s) = 7.24059 7.66332 7.45495
#
# Compressibility (1/GPa) = 0.01295032
#
# Stress axis : x y z
#
# Youngs Moduli (GPa) = 107.25797 104.17477 88.16306
#
# Poissons Ratio (x) = 0.22827 0.28512
# Poissons Ratio (y) = 0.23502 0.28497
# Poissons Ratio (z) = 0.34687 0.33672
#
# Static dielectric constant tensor:
#      x y z
#    x 4.515310 -0.270980 -0.004670 
#    y -0.270980 4.644820 -0.117790 
#    z -0.004670 -0.117790 4.793860 
# 
# 
# High freq. dielectric constant tensor:
#      x y z
#    x 1.948790 -0.012720 0.001250 
#    y -0.012720 1.944050 -0.016190 
#    z 0.001250 -0.016190 1.932660 
# 
# From -- ./inp_files/81240.got.cif
#   From: 2010.06.25/outbox.cif.g09.slc.cpg/sg2_41_cif.got.tgz:81240.got - 2010.06.27 13:26:56.
