data_PCOD8027408
_publ_section_title
;
Structure prediction by ZEFSAII (Michael W. Deem and Ramdas Pophale) SiO2 
 PCOD8027408
Probable space group: P -1
;
_chemical_formula_sum "Si O2"
_cell_formula_units_Z 14
_cell_length_a 7.025216
_cell_length_b 20.168686
_cell_length_c 9.157696
_cell_angle_alpha 53.992634
_cell_angle_beta 109.635376
_cell_angle_gamma 139.931948
_cell_volume 659.298184
_symmetry_space_group_name_H-M "P -1"
_symmetry_group_IT_number 2
_symmetry_cell_setting 'triclinic'
loop_
_space_group_symop_operation_xyz
x,y,z
-x,-y,-z
loop_
_atom_site_type_symbol
_atom_site_label
_atom_site_fract_x
_atom_site_fract_y
_atom_site_fract_z
Si Si1 0.761350 0.260073 0.150025
Si Si2 0.129330 0.327876 0.892790
Si Si3 0.096703 0.612071 0.456487
Si Si4 0.756150 0.810309 0.030994
Si Si5 0.208002 0.408640 0.320256
Si Si6 0.134283 0.014597 0.361330
Si Si7 0.761683 0.776083 0.410828
O O1 0.501872 0.121028 0.328527
O O2 0.957248 0.359032 0.201773
O O3 0.597390 0.284025 0.985935
O O4 0.989275 0.278138 0.082561
O O5 0.124779 0.237924 0.938962
O O6 0.461313 0.467327 0.810412
O O7 0.908353 0.316678 0.753651
O O8 0.435339 0.702713 0.487504
O O9 0.000000 0.500000 0.500000
O O10 0.860292 0.562113 0.587908
O O11 0.795751 0.823949 0.196641
O O12 0.955707 0.943578 0.837376
O O13 0.192512 0.307087 0.476300
O O14 0.000000 0.000000 0.500000
O O15 0.007942 0.889089 0.437568
#
# Coordination Sequence:
#
# PCOD8027408 Si02
#       7
#     2   2   2   2   2   2   2
#     4  10  26  45  64 100 137 177 222 278 342 386
#     4  12  23  44  68 101 140 175 227 271 340 406
#     4  12  23  42  68 103 137 176 221 277 332 404
#     4  10  24  45  67  98 140 174 224 280 329 402
#     4  12  26  40  71 106 130 185 220 275 343 403
#     4  10  24  48  71  96 137 178 227 287 332 393
#     4  12  23  45  73  98 139 175 231 273 337 402
#
# _framework density 21.234698999999999
#
# number of rings (size 3 to 8) (size 9 to 14) (size 15 to 20)
#    0.857    0.000    4.286    3.000    2.000    1.143 
#    2.571    1.429    0.000    0.000    0.000    0.000 
#    0.000    0.000    0.000    0.000    0.000    0.000 
#
# Total GULP energy -173602.251204 kJ/mol
# GULP energy per Si atom -12400.160800 kJ/mol
# Density = 2.118637 g / cm^3
# Si number density = 21.234699 Si / 1000 Ang^3
#
#
#
# Elastic Constant Matrix: (Units=GPa)
#
#
# Indices 1 2 3 4 5 6 
#
# 1 128.9752 51.5996 42.9615 -5.9081 -19.5289 -13.4234
# 2 51.5996 102.6820 23.5741 0.3626 -16.4582 -10.1493
# 3 42.9615 23.5741 80.4529 -0.3046 -30.8325 -2.9043
# 4 -5.9081 0.3626 -0.3046 33.3306 1.1231 2.4912
# 5 -19.5289 -16.4582 -30.8325 1.1231 43.7847 -3.0726
# 6 -13.4234 -10.1493 -2.9043 2.4912 -3.0726 30.7259
#
#
#
# Elastic Compliance Matrix: (Units=1/GPa)
#
#
# Indices 1 2 3 4 5 6 
#
# 1 0.011485 -0.004358 -0.004574 0.001799 0.000431 0.003043
# 2 -0.004358 0.012707 -0.000186 -0.001210 0.002920 0.002666
# 3 -0.004574 -0.000186 0.019435 -0.001102 0.011676 0.001034
# 4 0.001799 -0.001210 -0.001102 0.030545 -0.001375 -0.002332
# 5 0.000431 0.002920 0.011676 -0.001375 0.032783 0.005646
# 6 0.003043 0.002666 0.001034 -0.002332 0.005646 0.035607
#
#
# Mechanical properties :
#
#
# Convention : Reuss Voigt Hill
#
# Bulk Modulus (GPa) = 39.38323 60.93117 50.15720
# Shear Modulus (GPa) = 29.54021 34.49990 32.02006
#
# Velocity S-wave (km/s) = 3.73383 4.03512 3.88740
# Velocity P-wave (km/s) = 6.09718 7.10395 6.61973
#
# Compressibility (1/GPa) = 0.02539152
#
# Stress axis : x y z
#
# Youngs Moduli (GPa) = 87.07107 78.69598 51.45451
#
# Poissons Ratio (x) = 0.34294 0.23537
# Poissons Ratio (y) = 0.37943 0.00955
# Poissons Ratio (z) = 0.39829 0.01460
#
# Static dielectric constant tensor:
#      x y z
#    x 3.987550 0.085270 -0.086600 
#    y 0.085270 3.704880 0.029660 
#    z -0.086600 0.029660 3.895740 
# 
# 
# High freq. dielectric constant tensor:
#      x y z
#    x 1.841010 -0.002600 -0.007590 
#    y -0.002600 1.826880 0.003780 
#    z -0.007590 0.003780 1.834770 
# 
# From -- ./inp_files/138414.got.cif
#   From: 2010.06.25/outbox.cif.g09.slc.cpg/sg2_70_cif.got.tgz:138414.got - 2010.06.27 13:26:56.
