data_PCOD8027403
_publ_section_title
;
Structure prediction by ZEFSAII (Michael W. Deem and Ramdas Pophale) SiO2 
 PCOD8027403
Probable space group: P -1
;
_chemical_formula_sum "Si O2"
_cell_formula_units_Z 12
_cell_length_a 8.689471
_cell_length_b 12.492275
_cell_length_c 9.874602
_cell_angle_alpha 140.764267
_cell_angle_beta 123.222579
_cell_angle_gamma 58.518176
_cell_volume 557.387909
_symmetry_space_group_name_H-M "P -1"
_symmetry_group_IT_number 2
_symmetry_cell_setting 'triclinic'
loop_
_space_group_symop_operation_xyz
x,y,z
-x,-y,-z
loop_
_atom_site_type_symbol
_atom_site_label
_atom_site_fract_x
_atom_site_fract_y
_atom_site_fract_z
Si Si1 0.641364 0.823406 0.915241
Si Si2 0.591238 0.298421 0.825142
Si Si3 0.005816 0.859190 0.750413
Si Si4 0.614273 0.304870 0.137746
Si Si5 0.311283 0.320609 0.497789
Si Si6 0.030392 0.909299 0.280758
O O1 0.575608 0.697960 0.873905
O O2 0.641879 0.736627 0.686627
O O3 0.845691 0.844838 0.080245
O O4 0.500000 0.000000 0.000000
O O5 0.455496 0.218327 0.578488
O O6 0.797054 0.254375 0.808523
O O7 0.500000 0.500000 0.000000
O O8 0.604570 0.208376 0.892808
O O9 0.895384 0.708202 0.591144
O O10 0.224878 0.782414 0.767603
O O11 0.926877 0.941132 0.651524
O O12 0.000000 0.000000 0.000000
O O13 0.664114 0.484369 0.293426
O O14 0.000000 0.000000 0.500000
#
# Coordination Sequence:
#
# PCOD8027403 Si02
#       6
#     2   2   2   2   2   2
#     4  12  23  43  68 101 136 173 226 283 334 399
#     4  10  24  45  67  97 137 179 221 271 339 402
#     4  12  22  43  69  96 130 178 228 277 332 400
#     4  11  23  43  67  98 135 177 222 277 337 400
#     4  11  24  42  66  95 134 180 223 272 335 403
#     4  12  26  43  69 102 137 173 227 282 336 395
#
# _framework density 21.528991999999999
#
# number of rings (size 3 to 8) (size 9 to 14) (size 15 to 20)
#    0.000    0.667    5.000    2.000    2.333    2.000 
#    0.000    3.333    0.000    0.000    0.000    0.000 
#    0.000    0.000    0.000    0.000    0.000    0.000 
#
# Total GULP energy -148685.231214 kJ/mol
# GULP energy per Si atom -12390.435934 kJ/mol
# Density = 2.147999 g / cm^3
# Si number density = 21.528992 Si / 1000 Ang^3
#
#
#
# Elastic Constant Matrix: (Units=GPa)
#
#
# Indices 1 2 3 4 5 6 
#
# 1 143.9863 46.6798 56.5539 -8.9871 -3.5098 4.2153
# 2 46.6798 87.5218 43.1218 -14.7521 -5.2283 -1.9380
# 3 56.5539 43.1218 119.3378 -32.3383 -11.4897 5.9372
# 4 -8.9871 -14.7521 -32.3383 41.4799 7.0231 1.1863
# 5 -3.5098 -5.2283 -11.4897 7.0231 45.0884 -0.2923
# 6 4.2153 -1.9380 5.9372 1.1863 -0.2923 51.9479
#
#
#
# Elastic Compliance Matrix: (Units=1/GPa)
#
#
# Indices 1 2 3 4 5 6 
#
# 1 0.009456 -0.003568 -0.003768 -0.002092 -0.000315 -0.000424
# 2 -0.003568 0.015360 -0.003347 0.001987 0.000349 0.001202
# 3 -0.003768 -0.003347 0.013946 0.008655 0.001514 -0.001602
# 4 -0.002092 0.001987 0.008655 0.031601 -0.002659 -0.001482
# 5 -0.000315 0.000349 0.001514 -0.002659 0.022995 0.000056
# 6 -0.000424 0.001202 -0.001602 -0.001482 0.000056 0.019547
#
#
# Mechanical properties :
#
#
# Convention : Reuss Voigt Hill
#
# Bulk Modulus (GPa) = 57.48749 71.50633 64.49691
# Shear Modulus (GPa) = 35.69663 41.33591 38.51627
#
# Velocity S-wave (km/s) = 4.07636 4.38655 4.23430
# Velocity P-wave (km/s) = 6.99399 7.67736 7.34363
#
# Compressibility (1/GPa) = 0.01739509
#
# Stress axis : x y z
#
# Youngs Moduli (GPa) = 105.75420 65.10388 71.70684
#
# Poissons Ratio (x) = 0.23226 0.27021
# Poissons Ratio (y) = 0.37728 0.24004
# Poissons Ratio (z) = 0.39851 0.21793
#
# Static dielectric constant tensor:
#      x y z
#    x 4.002170 0.208850 0.283180 
#    y 0.208850 5.497670 -1.084790 
#    z 0.283180 -1.084790 3.875390 
# 
# 
# High freq. dielectric constant tensor:
#      x y z
#    x 1.852270 -0.001720 -0.001710 
#    y -0.001720 1.848890 -0.024230 
#    z -0.001710 -0.024230 1.851310 
# 
# From -- ./inp_files/145051.got.cif
#   From: 2010.06.25/outbox.cif.g09.slc.cpg/sg2_73_cif.got.tgz:145051.got - 2010.06.27 13:26:56.
