data_PCOD8027287
_publ_section_title
;
Structure prediction by ZEFSAII (Michael W. Deem and Ramdas Pophale) SiO2 
 PCOD8027287
Probable space group: P -1
;
_chemical_formula_sum "Si O2"
_cell_formula_units_Z 16
_cell_length_a 20.791202
_cell_length_b 9.784825
_cell_length_c 8.558536
_cell_angle_alpha 117.195232
_cell_angle_beta 151.112619
_cell_angle_gamma 62.266416
_cell_volume 739.476968
_symmetry_space_group_name_H-M "P -1"
_symmetry_group_IT_number 2
_symmetry_cell_setting 'triclinic'
loop_
_space_group_symop_operation_xyz
x,y,z
-x,-y,-z
loop_
_atom_site_type_symbol
_atom_site_label
_atom_site_fract_x
_atom_site_fract_y
_atom_site_fract_z
Si Si1 0.553218 0.033833 0.803124
Si Si2 0.627890 0.403290 0.638282
Si Si3 0.294373 0.931734 0.266479
Si Si4 0.029507 0.035585 0.905921
Si Si5 0.388260 0.638095 0.786062
Si Si6 0.911244 0.383062 0.828676
Si Si7 0.126175 0.461138 0.854990
Si Si8 0.819888 0.892710 0.193329
O O1 0.500000 0.000000 0.500000
O O2 0.435022 0.991394 0.641574
O O3 0.573399 0.209362 0.970209
O O4 0.697448 0.923818 0.075878
O O5 0.500000 0.500000 0.500000
O O6 0.677211 0.254608 0.773837
O O7 0.609034 0.349366 0.390524
O O8 0.740533 0.515265 0.942630
O O9 0.226163 0.996855 0.993353
O O10 0.189873 0.991600 0.211147
O O11 0.984596 0.212704 0.855110
O O12 0.956625 0.931547 0.579053
O O13 0.000000 0.000000 0.000000
O O14 0.247493 0.602827 0.545062
O O15 0.500000 0.500000 0.000000
O O16 0.909190 0.409920 0.021707
O O17 0.000000 0.500000 0.000000
O O18 0.150313 0.287447 0.886870
O O19 0.000000 0.500000 0.500000
#
# Coordination Sequence:
#
# PCOD8027287 Si02
#       8
#     2   2   2   2   2   2   2   2
#     4  10  24  44  72 102 135 182 235 285 347 415
#     4  11  26  45  68 105 143 179 232 293 347 412
#     4  11  25  42  71 101 133 178 239 274 348 416
#     4  12  24  44  67  99 140 177 226 288 342 409
#     4  11  26  45  72 102 144 182 231 288 353 415
#     4  11  25  43  68 102 135 176 229 279 341 410
#     4  11  24  45  67  99 138 179 225 282 345 412
#     4  11  23  44  73  94 136 185 228 283 350 411
#
# _framework density 21.636914999999998
#
# number of rings (size 3 to 8) (size 9 to 14) (size 15 to 20)
#    0.000    1.000    1.250    4.875   12.250    2.500 
#    2.250    0.000    0.000    0.000    0.000    0.000 
#    0.000    0.000    0.000    0.000    0.000    0.000 
#
# Total GULP energy -198336.223834 kJ/mol
# GULP energy per Si atom -12396.013990 kJ/mol
# Density = 2.158767 g / cm^3
# Si number density = 21.636915 Si / 1000 Ang^3
#
#
#
# Elastic Constant Matrix: (Units=GPa)
#
#
# Indices 1 2 3 4 5 6 
#
# 1 113.2624 36.0939 58.7639 -0.1270 35.1517 -2.5082
# 2 36.0939 142.0284 56.3978 -2.4338 10.6917 -1.3936
# 3 58.7639 56.3978 109.9446 12.6377 18.1538 -0.7861
# 4 -0.1270 -2.4338 12.6377 44.3613 -2.1629 2.5198
# 5 35.1517 10.6917 18.1538 -2.1629 46.6698 -5.7793
# 6 -2.5082 -1.3936 -0.7861 2.5198 -5.7793 43.5894
#
#
#
# Elastic Compliance Matrix: (Units=1/GPa)
#
#
# Indices 1 2 3 4 5 6 
#
# 1 0.015070 -0.000576 -0.006497 0.001468 -0.008686 -0.000505
# 2 -0.000576 0.009012 -0.004560 0.001798 0.000239 0.000100
# 3 -0.006497 -0.004560 0.015499 -0.004699 -0.000309 -0.000010
# 4 0.001468 0.001798 -0.004699 0.024112 0.001283 -0.001167
# 5 -0.008686 0.000239 -0.000309 0.001283 0.028491 0.003206
# 6 -0.000505 0.000100 -0.000010 -0.001167 0.003206 0.023408
#
#
# Mechanical properties :
#
#
# Convention : Reuss Voigt Hill
#
# Bulk Modulus (GPa) = 61.30002 74.19409 67.74706
# Shear Modulus (GPa) = 34.65089 41.18941 37.92015
#
# Velocity S-wave (km/s) = 4.00618 4.36783 4.19091
# Velocity P-wave (km/s) = 7.05635 7.73319 7.40251
#
# Compressibility (1/GPa) = 0.01631321
#
# Stress axis : x y z
#
# Youngs Moduli (GPa) = 66.35840 110.96486 64.52147
#
# Poissons Ratio (x) = 0.06387 0.41923
# Poissons Ratio (y) = 0.03819 0.29425
# Poissons Ratio (z) = 0.43116 0.50605
#
# Static dielectric constant tensor:
#      x y z
#    x 4.160210 -0.191090 0.406010 
#    y -0.191090 4.362520 0.202360 
#    z 0.406010 0.202360 4.313590 
# 
# 
# High freq. dielectric constant tensor:
#      x y z
#    x 1.853000 -0.010330 0.022180 
#    y -0.010330 1.860630 0.000910 
#    z 0.022180 0.000910 1.861810 
# 
# From -- ./inp_files/343817.got.cif
#   From: 2010.06.25/outbox.cif.g09.slc.cpg/sg2_172_cif.got.tgz:343817.got - 2010.06.27 13:26:56.
