data_PCOD8027681
_publ_section_title
;
Structure prediction by ZEFSAII (Michael W. Deem and Ramdas Pophale) SiO2 
 PCOD8027681
Probable space group: P -1
;
_chemical_formula_sum "Si O2"
_cell_formula_units_Z 14
_cell_length_a 8.424546
_cell_length_b 18.575039
_cell_length_c 6.732180
_cell_angle_alpha 105.440203
_cell_angle_beta 97.817928
_cell_angle_gamma 135.252850
_cell_volume 627.482500
_symmetry_space_group_name_H-M "P -1"
_symmetry_group_IT_number 2
_symmetry_cell_setting 'triclinic'
loop_
_space_group_symop_operation_xyz
x,y,z
-x,-y,-z
loop_
_atom_site_type_symbol
_atom_site_label
_atom_site_fract_x
_atom_site_fract_y
_atom_site_fract_z
Si Si1 0.083743 0.222544 0.367391
Si Si2 0.979845 0.404680 0.929381
Si Si3 0.379809 0.527798 0.395032
Si Si4 0.514582 0.194909 0.963390
Si Si5 0.058613 0.660615 0.564728
Si Si6 0.979823 0.919714 0.074322
Si Si7 0.287959 0.979431 0.532063
O O1 0.397108 0.330128 0.507724
O O2 0.015579 0.282275 0.351147
O O3 0.952484 0.150681 0.500472
O O4 0.986791 0.139861 0.102609
O O5 0.714101 0.290334 0.902790
O O6 0.955555 0.358207 0.680811
O O7 0.000000 0.500000 0.000000
O O8 0.230020 0.457238 0.110920
O O9 0.500000 0.500000 0.500000
O O10 0.147817 0.470925 0.459768
O O11 0.293120 0.176424 0.930198
O O12 0.401754 0.073407 0.792608
O O13 0.652007 0.243515 0.237398
O O14 0.193063 0.993778 0.338345
O O15 0.000000 0.000000 0.000000
O O16 0.500000 0.000000 0.500000
#
# Coordination Sequence:
#
# PCOD8027681 Si02
#       7
#     2   2   2   2   2   2   2
#     4  11  25  43  72  98 138 181 227 276 342 397
#     4  11  26  41  73 102 136 179 226 282 340 400
#     4   9  23  44  67 101 138 176 228 272 342 398
#     4  11  26  44  69 100 142 174 229 278 346 399
#     4  10  24  46  70  99 140 182 224 280 336 411
#     4  12  28  44  70 102 140 177 226 285 339 402
#     4  12  27  45  72 102 135 181 231 276 342 408
#
# _framework density 22.311378000000001
#
# number of rings (size 3 to 8) (size 9 to 14) (size 15 to 20)
#    0.000    1.143    1.429    2.143   10.000    6.857 
#    0.000    0.000    0.000    0.000    0.000    0.000 
#    0.000    0.000    0.000    0.000    0.000    0.000 
#
# Total GULP energy -173532.757710 kJ/mol
# GULP energy per Si atom -12395.196979 kJ/mol
# Density = 2.226060 g / cm^3
# Si number density = 22.311378 Si / 1000 Ang^3
#
#
#
# Elastic Constant Matrix: (Units=GPa)
#
#
# Indices 1 2 3 4 5 6 
#
# 1 107.2557 27.0350 57.5280 2.0688 6.2558 9.8166
# 2 27.0350 138.8078 45.1158 3.6988 10.7194 13.2478
# 3 57.5280 45.1158 168.7184 -10.2701 15.3387 11.1134
# 4 2.0688 3.6988 -10.2701 28.5015 0.2180 0.0738
# 5 6.2558 10.7194 15.3387 0.2180 46.9305 2.2208
# 6 9.8166 13.2478 11.1134 0.0738 2.2208 28.5851
#
#
#
# Elastic Compliance Matrix: (Units=1/GPa)
#
#
# Indices 1 2 3 4 5 6 
#
# 1 0.011802 -0.000797 -0.003791 -0.002113 -0.000038 -0.002201
# 2 -0.000797 0.008331 -0.001773 -0.001647 -0.001076 -0.002810
# 3 -0.003791 -0.001773 0.008120 0.003447 -0.001716 -0.000909
# 4 -0.002113 -0.001647 0.003447 0.036699 -0.000644 0.000104
# 5 -0.000038 -0.001076 -0.001716 -0.000644 0.022149 -0.000540
# 6 -0.002201 -0.002810 -0.000909 0.000104 -0.000540 0.037436
#
#
# Mechanical properties :
#
#
# Convention : Reuss Voigt Hill
#
# Bulk Modulus (GPa) = 64.39259 74.90440 69.64849
# Shear Modulus (GPa) = 35.10315 39.81030 37.45673
#
# Velocity S-wave (km/s) = 3.97083 4.22869 4.10178
# Velocity P-wave (km/s) = 7.06730 7.58205 7.32920
#
# Compressibility (1/GPa) = 0.01552974
#
# Stress axis : x y z
#
# Youngs Moduli (GPa) = 84.72849 120.03373 123.15857
#
# Poissons Ratio (x) = 0.09568 0.46693
# Poissons Ratio (y) = 0.06754 0.21839
# Poissons Ratio (z) = 0.32123 0.21285
#
# Static dielectric constant tensor:
#      x y z
#    x 4.097840 0.199470 0.071270 
#    y 0.199470 4.637630 0.222100 
#    z 0.071270 0.222100 4.241390 
# 
# 
# High freq. dielectric constant tensor:
#      x y z
#    x 1.874370 0.016880 0.007190 
#    y 0.016880 1.897050 -0.000940 
#    z 0.007190 -0.000940 1.886470 
# 
# From -- ./inp_files/27690.got.cif
#   From: 2010.06.25/outbox.cif.g09.slc.cpg/sg2_14_cif.got.tgz:27690.got - 2010.06.27 13:26:56.
