data_PCOD8027065
_publ_section_title
;
Structure prediction by ZEFSAII (Michael W. Deem and Ramdas Pophale) SiO2 
 PCOD8027065
Probable space group: P -1
;
_chemical_formula_sum "Si O2"
_cell_formula_units_Z 14
_cell_length_a 18.401972
_cell_length_b 6.937765
_cell_length_c 8.681220
_cell_angle_alpha 126.702956
_cell_angle_beta 132.921844
_cell_angle_gamma 66.922289
_cell_volume 650.485503
_symmetry_space_group_name_H-M "P -1"
_symmetry_group_IT_number 2
_symmetry_cell_setting 'triclinic'
loop_
_space_group_symop_operation_xyz
x,y,z
-x,-y,-z
loop_
_atom_site_type_symbol
_atom_site_label
_atom_site_fract_x
_atom_site_fract_y
_atom_site_fract_z
Si Si1 0.427354 0.056927 0.286923
Si Si2 0.508413 0.263145 0.204575
Si Si3 0.311906 0.418289 0.466491
Si Si4 0.895484 0.757828 0.948310
Si Si5 0.997453 0.543000 0.271253
Si Si6 0.856052 0.301053 0.190777
Si Si7 0.648550 0.448021 0.079235
O O1 0.478105 0.245437 0.331658
O O2 0.334461 0.176171 0.291267
O O3 0.500000 0.000000 0.500000
O O4 0.392203 0.808870 0.035888
O O5 0.621773 0.361454 0.401613
O O6 0.434549 0.437392 0.092576
O O7 0.500000 0.000000 0.000000
O O8 0.194547 0.444385 0.280893
O O9 0.331264 0.387129 0.663128
O O10 0.965226 0.696725 0.874787
O O11 0.957411 0.734677 0.183176
O O12 0.855412 0.025816 0.001177
O O13 0.087388 0.676128 0.554280
O O14 0.908806 0.470635 0.222668
O O15 0.746144 0.403739 0.098168
#
# Coordination Sequence:
#
# PCOD8027065 Si02
#       7
#     2   2   2   2   2   2   2
#     4  12  25  44  70  93 135 177 217 276 327 392
#     4  12  26  45  68  99 138 177 220 269 329 395
#     4  12  24  44  66  98 136 172 223 267 330 391
#     4  11  23  43  69  96 131 172 219 271 330 386
#     4  10  24  44  66  97 131 169 218 275 327 395
#     4  11  23  43  69  96 131 171 219 270 332 386
#     4  12  25  44  67  99 137 175 218 274 330 391
#
# _framework density 21.522386999999998
#
# number of rings (size 3 to 8) (size 9 to 14) (size 15 to 20)
#    0.000    0.571    5.714    2.571    2.000    0.000 
#    2.571    1.429    0.000    0.000    0.000    0.000 
#    0.000    0.000    0.000    0.000    0.000    0.000 
#
# Total GULP energy -173619.621004 kJ/mol
# GULP energy per Si atom -12401.401500 kJ/mol
# Density = 2.147340 g / cm^3
# Si number density = 21.522387 Si / 1000 Ang^3
#
#
#
# Elastic Constant Matrix: (Units=GPa)
#
#
# Indices 1 2 3 4 5 6 
#
# 1 87.5783 20.2973 7.7286 -4.0606 -1.0534 -0.0309
# 2 20.2973 69.4269 12.0934 12.0693 -2.9637 -2.2082
# 3 7.7286 12.0934 73.4501 -0.6933 1.6153 5.0950
# 4 -4.0606 12.0693 -0.6933 29.9009 2.5159 -6.6081
# 5 -1.0534 -2.9637 1.6153 2.5159 42.7730 -0.3692
# 6 -0.0309 -2.2082 5.0950 -6.6081 -0.3692 25.8982
#
#
#
# Elastic Compliance Matrix: (Units=1/GPa)
#
#
# Indices 1 2 3 4 5 6 
#
# 1 0.012606 -0.004173 -0.000650 0.003547 -0.000157 0.000690
# 2 -0.004173 0.017501 -0.002554 -0.007827 0.001667 0.000016
# 3 -0.000650 -0.002554 0.014327 0.000708 -0.000800 -0.002868
# 4 0.003547 -0.007827 0.000708 0.039364 -0.002718 0.009203
# 5 -0.000157 0.001667 -0.000800 -0.002718 0.023680 -0.000056
# 6 0.000690 0.000016 -0.002868 0.009203 -0.000056 0.041526
#
#
# Mechanical properties :
#
#
# Convention : Reuss Voigt Hill
#
# Bulk Modulus (GPa) = 33.69477 34.52153 34.10815
# Shear Modulus (GPa) = 28.79320 32.40350 30.59835
#
# Velocity S-wave (km/s) = 3.66160 3.88438 3.77463
# Velocity P-wave (km/s) = 5.79362 6.01602 5.90587
#
# Compressibility (1/GPa) = 0.02967820
#
# Stress axis : x y z
#
# Youngs Moduli (GPa) = 79.32857 57.13974 69.79909
#
# Poissons Ratio (x) = 0.23847 0.04538
# Poissons Ratio (y) = 0.33108 0.17827
# Poissons Ratio (z) = 0.05158 0.14594
#
# Static dielectric constant tensor:
#      x y z
#    x 3.708480 0.705300 0.207360 
#    y 0.705300 2.456200 -0.337050 
#    z 0.207360 -0.337050 3.859630 
# 
# 
# High freq. dielectric constant tensor:
#      x y z
#    x 1.865950 -0.006220 -0.006630 
#    y -0.006220 1.826920 0.005780 
#    z -0.006630 0.005780 1.856070 
# 
# From -- ./inp_files/37723.got.cif
#   From: 2010.06.25/outbox.cif.g09.slc.cpg/sg2_19_cif.got.tgz:37723.got - 2010.06.27 13:26:56.
