data_PCOD8027853
_publ_section_title
;
Structure prediction by ZEFSAII (Michael W. Deem and Ramdas Pophale) SiO2 
 PCOD8027853
Probable space group: P -1
;
_chemical_formula_sum "Si O2"
_cell_formula_units_Z 14
_cell_length_a 5.288638
_cell_length_b 10.976665
_cell_length_c 11.644594
_cell_angle_alpha 112.669424
_cell_angle_beta 100.337166
_cell_angle_gamma 62.035993
_cell_volume 550.933425
_symmetry_space_group_name_H-M "P -1"
_symmetry_group_IT_number 2
_symmetry_cell_setting 'triclinic'
loop_
_space_group_symop_operation_xyz
x,y,z
-x,-y,-z
loop_
_atom_site_type_symbol
_atom_site_label
_atom_site_fract_x
_atom_site_fract_y
_atom_site_fract_z
Si Si1 0.339490 0.414844 0.509651
Si Si2 0.861814 0.704102 0.899797
Si Si3 0.401074 0.732274 0.058498
Si Si4 0.885674 0.949408 0.861465
Si Si5 0.214266 0.115481 0.579387
Si Si6 0.209977 0.867576 0.632309
Si Si7 0.266805 0.397481 0.747927
O O1 0.500000 0.500000 0.500000
O O2 0.459569 0.252676 0.402275
O O3 0.429869 0.395788 0.643770
O O4 0.000000 0.500000 0.500000
O O5 0.741901 0.842982 0.851192
O O6 0.979705 0.550315 0.785632
O O7 0.612997 0.702189 0.957553
O O8 0.117353 0.717381 0.994939
O O9 0.539620 0.615442 0.129507
O O10 0.338453 0.897211 0.158127
O O11 0.133307 0.863204 0.757914
O O12 0.000000 0.000000 0.000000
O O13 0.207932 0.255831 0.693001
O O14 0.978359 0.182294 0.484622
O O15 0.500000 0.000000 0.500000
O O16 0.144270 0.031450 0.646995
#
# Coordination Sequence:
#
# PCOD8027853 Si02
#       7
#     2   2   2   2   2   2   2
#     4  12  28  48  72 110 153 197 246 316 388 453
#     4  11  26  48  71 113 152 199 246 316 379 447
#     4  11  26  48  75 110 153 195 260 308 375 458
#     4  10  24  47  76 109 151 203 250 313 381 455
#     4  11  24  46  75 113 148 200 255 323 377 454
#     4  11  25  47  74 109 153 197 263 310 383 461
#     4  12  26  47  78 108 147 201 253 316 381 452
#
# _framework density 25.411418000000001
#
# number of rings (size 3 to 8) (size 9 to 14) (size 15 to 20)
#    0.000    0.857    1.429    3.857    6.000    5.714 
#    7.714    0.000    0.000    0.000    0.000    0.000 
#    0.000    0.000    0.000    0.000    0.000    0.000 
#
# Total GULP energy -173575.112346 kJ/mol
# GULP energy per Si atom -12398.222310 kJ/mol
# Density = 2.535358 g / cm^3
# Si number density = 25.411418 Si / 1000 Ang^3
#
#
#
# Elastic Constant Matrix: (Units=GPa)
#
#
# Indices 1 2 3 4 5 6 
#
# 1 80.5496 6.6076 19.0894 -9.2424 -11.8698 -6.4290
# 2 6.6076 118.8906 29.5095 9.9697 -11.7220 -2.3767
# 3 19.0894 29.5095 103.3776 -1.0007 -31.8696 5.1506
# 4 -9.2424 9.9697 -1.0007 53.9958 7.6164 -15.6029
# 5 -11.8698 -11.7220 -31.8696 7.6164 45.4286 4.0679
# 6 -6.4290 -2.3767 5.1506 -15.6029 4.0679 34.8030
#
#
#
# Elastic Compliance Matrix: (Units=1/GPa)
#
#
# Indices 1 2 3 4 5 6 
#
# 1 0.013891 -0.000299 -0.002388 0.003527 0.000894 0.004376
# 2 -0.000299 0.009261 -0.002278 -0.001980 0.001054 -0.000097
# 3 -0.002388 -0.002278 0.013868 -0.002451 0.009362 -0.004842
# 4 0.003527 -0.001980 -0.002451 0.023920 -0.006425 0.012354
# 5 0.000894 0.001054 0.009362 -0.006425 0.030846 -0.007634
# 6 0.004376 -0.000097 -0.004842 0.012354 -0.007634 0.036682
#
#
# Mechanical properties :
#
#
# Convention : Reuss Voigt Hill
#
# Bulk Modulus (GPa) = 36.91423 45.91456 41.41440
# Shear Modulus (GPa) = 33.91470 43.35288 38.63379
#
# Velocity S-wave (km/s) = 3.65721 4.13490 3.90337
# Velocity P-wave (km/s) = 5.69138 6.39565 6.05376
#
# Compressibility (1/GPa) = 0.02708982
#
# Stress axis : x y z
#
# Youngs Moduli (GPa) = 71.98984 107.97831 72.10881
#
# Poissons Ratio (x) = 0.03234 0.17219
# Poissons Ratio (y) = 0.02156 0.16424
# Poissons Ratio (z) = 0.17190 0.24594
#
# Static dielectric constant tensor:
#      x y z
#    x 4.160920 0.109590 -0.159670 
#    y 0.109590 5.687110 -0.014440 
#    z -0.159670 -0.014440 4.551930 
# 
# 
# High freq. dielectric constant tensor:
#      x y z
#    x 1.999040 0.003950 -0.011500 
#    y 0.003950 2.043250 0.000480 
#    z -0.011500 0.000480 2.021780 
# 
# From -- ./inp_files/127087.got.cif
#   From: 2010.06.25/outbox.cif.g09.slc.cpg/sg2_64_cif.got.tgz:127087.got - 2010.06.27 13:26:56.
