data_PCOD8027010
_publ_section_title
;
Structure prediction by ZEFSAII (Michael W. Deem and Ramdas Pophale) SiO2 
 PCOD8027010
Probable space group: P -1
;
_chemical_formula_sum "Si O2"
_cell_formula_units_Z 16
_cell_length_a 18.691592
_cell_length_b 12.566108
_cell_length_c 8.461446
_cell_angle_alpha 78.526852
_cell_angle_beta 130.522341
_cell_angle_gamma 141.286489
_cell_volume 719.639288
_symmetry_space_group_name_H-M "P -1"
_symmetry_group_IT_number 2
_symmetry_cell_setting 'triclinic'
loop_
_space_group_symop_operation_xyz
x,y,z
-x,-y,-z
loop_
_atom_site_type_symbol
_atom_site_label
_atom_site_fract_x
_atom_site_fract_y
_atom_site_fract_z
Si Si1 0.701431 0.670850 0.670907
Si Si2 0.886459 0.375510 0.713025
Si Si3 0.153450 0.502868 0.881818
Si Si4 0.791006 0.503964 0.399540
Si Si5 0.958087 0.097867 0.755322
Si Si6 0.537818 0.923287 0.496140
Si Si7 0.502570 0.691483 0.745263
Si Si8 0.102336 0.987101 0.659053
O O1 0.500000 0.500000 0.500000
O O2 0.663612 0.546288 0.512788
O O3 0.840971 0.767310 0.981135
O O4 0.793433 0.877298 0.688168
O O5 0.799997 0.405828 0.545982
O O6 0.031724 0.490605 0.742219
O O7 0.715488 0.115671 0.571678
O O8 0.000000 0.500000 0.000000
O O9 0.201984 0.523163 0.765261
O O10 0.014454 0.275506 0.836884
O O11 0.355783 0.705092 0.198263
O O12 0.591307 0.361135 0.208896
O O13 0.965919 0.761875 0.616869
O O14 0.871634 0.021727 0.480317
O O15 0.577675 0.869236 0.697409
O O16 0.500000 0.000000 0.500000
O O17 0.687851 0.801947 0.017671
O O18 0.000000 0.000000 0.500000
#
# Coordination Sequence:
#
# PCOD8027010 Si02
#       8
#     2   2   2   2   2   2   2   2
#     4  11  24  42  70  99 137 183 239 287 352 415
#     4  12  24  43  71 100 141 184 233 293 350 420
#     4  11  25  44  70 101 144 182 236 291 359 418
#     4  11  26  45  70 102 144 188 239 287 360 425
#     4  10  24  44  63  99 139 179 230 288 349 414
#     4  12  24  45  71 104 139 183 239 293 356 424
#     4  12  25  45  74 105 141 189 239 291 354 425
#     4  11  25  45  70 102 142 187 234 293 354 419
#
# _framework density 22.233360999999999
#
# number of rings (size 3 to 8) (size 9 to 14) (size 15 to 20)
#    0.000    0.750    3.750    2.625    1.750    7.500 
#    0.000    0.000    0.000    0.000    0.000    0.000 
#    0.000    0.000    0.000    0.000    0.000    0.000 
#
# Total GULP energy -198328.905161 kJ/mol
# GULP energy per Si atom -12395.556573 kJ/mol
# Density = 2.218276 g / cm^3
# Si number density = 22.233361 Si / 1000 Ang^3
#
#
#
# Elastic Constant Matrix: (Units=GPa)
#
#
# Indices 1 2 3 4 5 6 
#
# 1 113.3844 30.8116 34.5022 4.2291 10.7144 10.8505
# 2 30.8116 105.7180 48.0676 -0.2230 -2.4571 -8.5893
# 3 34.5022 48.0676 126.2244 5.6749 6.6426 0.5586
# 4 4.2291 -0.2230 5.6749 27.2391 -4.0827 -0.2433
# 5 10.7144 -2.4571 6.6426 -4.0827 38.0691 6.0666
# 6 10.8505 -8.5893 0.5586 -0.2433 6.0666 32.7847
#
#
#
# Elastic Compliance Matrix: (Units=1/GPa)
#
#
# Indices 1 2 3 4 5 6 
#
# 1 0.010735 -0.002742 -0.001663 -0.001750 -0.002491 -0.003795
# 2 -0.002742 0.012544 -0.004221 0.001724 0.001876 0.003932
# 3 -0.001663 -0.004221 0.010175 -0.002161 -0.001744 -0.000422
# 4 -0.001750 0.001724 -0.002161 0.038203 0.005010 0.000424
# 5 -0.002491 0.001876 -0.001744 0.005010 0.028554 -0.003901
# 6 -0.003795 0.003932 -0.000422 0.000424 -0.003901 0.033520
#
#
# Mechanical properties :
#
#
# Convention : Reuss Voigt Hill
#
# Bulk Modulus (GPa) = 61.72512 63.56551 62.64532
# Shear Modulus (GPa) = 31.97246 35.08160 33.52703
#
# Velocity S-wave (km/s) = 3.79626 3.97656 3.88746
# Velocity P-wave (km/s) = 6.85844 7.05240 6.95609
#
# Compressibility (1/GPa) = 0.01620086
#
# Stress axis : x y z
#
# Youngs Moduli (GPa) = 93.15569 79.71774 98.27679
#
# Poissons Ratio (x) = 0.21861 0.16347
# Poissons Ratio (y) = 0.25546 0.41483
# Poissons Ratio (z) = 0.15496 0.33649
#
# Static dielectric constant tensor:
#      x y z
#    x 4.226440 -0.093620 0.026180 
#    y -0.093620 6.655040 3.329990 
#    z 0.026180 3.329990 8.102010 
# 
# 
# High freq. dielectric constant tensor:
#      x y z
#    x 1.877240 -0.005670 0.002540 
#    y -0.005670 1.890150 0.007350 
#    z 0.002540 0.007350 1.877750 
# 
# From -- ./inp_files/283306.got.cif
#   From: 2010.06.25/outbox.cif.g09.slc.cpg/sg2_142_cif.got.tgz:283306.got - 2010.06.27 13:26:56.
