data_PCOD8027177
_publ_section_title
;
Structure prediction by ZEFSAII (Michael W. Deem and Ramdas Pophale) SiO2 
 PCOD8027177
Probable space group: P -1
;
_chemical_formula_sum "Si O2"
_cell_formula_units_Z 14
_cell_length_a 5.236623
_cell_length_b 13.549257
_cell_length_c 10.364113
_cell_angle_alpha 110.575065
_cell_angle_beta 64.987880
_cell_angle_gamma 123.787354
_cell_volume 547.202473
_symmetry_space_group_name_H-M "P -1"
_symmetry_group_IT_number 2
_symmetry_cell_setting 'triclinic'
loop_
_space_group_symop_operation_xyz
x,y,z
-x,-y,-z
loop_
_atom_site_type_symbol
_atom_site_label
_atom_site_fract_x
_atom_site_fract_y
_atom_site_fract_z
Si Si1 0.097470 0.228966 0.694098
Si Si2 0.286134 0.629695 0.219889
Si Si3 0.408034 0.891553 0.065031
Si Si4 0.150927 0.908386 0.783145
Si Si5 0.627670 0.429432 0.347614
Si Si6 0.599494 0.700133 0.916528
Si Si7 0.332594 0.167326 0.379848
O O1 0.455956 0.328300 0.701300
O O2 0.104147 0.144453 0.540802
O O3 0.877262 0.286114 0.721433
O O4 0.933624 0.144631 0.813532
O O5 0.006772 0.500358 0.265598
O O6 0.464263 0.628400 0.046990
O O7 0.702278 0.954421 0.135504
O O8 0.404359 0.772801 0.954265
O O9 0.500000 0.000000 0.000000
O O10 0.450384 0.894007 0.662566
O O11 0.974742 0.805253 0.886358
O O12 0.890713 0.889774 0.722563
O O13 0.500000 0.500000 0.500000
O O14 0.449667 0.395232 0.229935
O O15 0.559557 0.310148 0.383129
#
# Coordination Sequence:
#
# PCOD8027177 Si02
#       7
#     2   2   2   2   2   2   2
#     4  11  25  43  70 101 141 179 230 285 338 415
#     4  11  24  44  69 102 140 182 228 285 340 404
#     4  11  23  45  72 100 137 185 232 285 346 405
#     4  11  24  43  71  99 139 183 230 284 343 407
#     4  11  23  44  74 101 140 185 227 280 350 410
#     4  10  24  44  69 106 139 179 234 285 339 414
#     4  11  25  44  67 106 140 178 233 282 345 413
#
# _framework density 25.584678
#
# number of rings (size 3 to 8) (size 9 to 14) (size 15 to 20)
#    0.000    1.143    1.429    4.286    2.000    9.714 
#    0.000    4.286    0.000    0.000    0.000    0.000 
#    0.000    0.000    0.000    0.000    0.000    0.000 
#
# Total GULP energy -173534.634463 kJ/mol
# GULP energy per Si atom -12395.331033 kJ/mol
# Density = 2.552645 g / cm^3
# Si number density = 25.584678 Si / 1000 Ang^3
#
#
#
# Elastic Constant Matrix: (Units=GPa)
#
#
# Indices 1 2 3 4 5 6 
#
# 1 57.9807 12.5510 9.0854 -6.0648 -13.1834 12.3350
# 2 12.5510 77.2248 14.3798 7.9555 -0.3994 19.9791
# 3 9.0854 14.3798 135.2932 -2.1400 -7.8626 3.5555
# 4 -6.0648 7.9555 -2.1400 33.3993 5.2153 0.7900
# 5 -13.1834 -0.3994 -7.8626 5.2153 29.5775 -2.7117
# 6 12.3350 19.9791 3.5555 0.7900 -2.7117 38.2061
#
#
#
# Elastic Compliance Matrix: (Units=1/GPa)
#
#
# Indices 1 2 3 4 5 6 
#
# 1 0.021101 -0.002317 -0.000511 0.003187 0.008215 -0.005036
# 2 -0.002317 0.015927 -0.001473 -0.003946 -0.001196 -0.007447
# 3 -0.000511 -0.001473 0.007682 0.000470 0.001742 0.000334
# 4 0.003187 -0.003946 0.000470 0.032140 -0.004172 0.000030
# 5 0.008215 -0.001196 0.001742 -0.004172 0.038713 0.000645
# 6 -0.005036 -0.007447 0.000334 0.000030 0.000645 0.031708
#
#
# Mechanical properties :
#
#
# Convention : Reuss Voigt Hill
#
# Bulk Modulus (GPa) = 27.69483 38.05901 32.87692
# Shear Modulus (GPa) = 29.77777 35.86874 32.82326
#
# Velocity S-wave (km/s) = 3.41529 3.74834 3.58568
# Velocity P-wave (km/s) = 5.13814 5.80012 5.47914
#
# Compressibility (1/GPa) = 0.03610782
#
# Stress axis : x y z
#
# Youngs Moduli (GPa) = 47.39032 62.78604 130.17164
#
# Poissons Ratio (x) = 0.14550 0.06646
# Poissons Ratio (y) = 0.10982 0.19180
# Poissons Ratio (z) = 0.02420 0.09251
#
# Static dielectric constant tensor:
#      x y z
#    x 4.388120 0.587160 0.035470 
#    y 0.587160 5.291390 -0.069930 
#    z 0.035470 -0.069930 5.174740 
# 
# 
# High freq. dielectric constant tensor:
#      x y z
#    x 2.007160 0.016330 -0.006800 
#    y 0.016330 2.028040 -0.008380 
#    z -0.006800 -0.008380 2.040720 
# 
# From -- ./inp_files/367049.got.cif
#   From: 2010.06.25/outbox.cif.g09.slc.cpg/sg2_184_cif.got.tgz:367049.got - 2010.06.27 13:26:56.
