data_PCOD8027183
_publ_section_title
;
Structure prediction by ZEFSAII (Michael W. Deem and Ramdas Pophale) SiO2 
 PCOD8027183
Probable space group: P -1
;
_chemical_formula_sum "Si O2"
_cell_formula_units_Z 12
_cell_length_a 14.684256
_cell_length_b 9.111657
_cell_length_c 8.383195
_cell_angle_alpha 57.312949
_cell_angle_beta 40.314242
_cell_angle_gamma 48.326164
_cell_volume 540.775515
_symmetry_space_group_name_H-M "P -1"
_symmetry_group_IT_number 2
_symmetry_cell_setting 'triclinic'
loop_
_space_group_symop_operation_xyz
x,y,z
-x,-y,-z
loop_
_atom_site_type_symbol
_atom_site_label
_atom_site_fract_x
_atom_site_fract_y
_atom_site_fract_z
Si Si1 0.928078 0.357859 0.716574
Si Si2 0.336698 0.182303 0.661884
Si Si3 0.590974 0.029014 0.004043
Si Si4 0.992342 0.326068 0.006960
Si Si5 0.626549 0.576823 0.778579
Si Si6 0.106762 0.957576 0.534576
O O1 0.769355 0.426556 0.784996
O O2 0.000000 0.500000 0.500000
O O3 0.900081 0.385306 0.927174
O O4 0.045107 0.133744 0.642064
O O5 0.178719 0.169161 0.818666
O O6 0.324103 0.389798 0.488311
O O7 0.500000 0.000000 0.500000
O O8 0.331057 0.167623 0.872157
O O9 0.718983 0.092217 0.730023
O O10 0.450914 0.204022 0.181762
O O11 0.500000 0.000000 0.000000
O O12 0.000000 0.500000 0.000000
O O13 0.892030 0.235397 0.281282
O O14 0.500000 0.500000 0.000000
O O15 0.000000 0.000000 0.500000
#
# Coordination Sequence:
#
# PCOD8027183 Si02
#       6
#     2   2   2   2   2   2
#     4  12  25  45  71 104 140 184 234 285 353 419
#     4  10  24  44  69  95 142 178 227 281 356 398
#     4  11  25  44  70 100 139 180 230 286 349 416
#     4  12  27  46  73 103 140 187 238 297 347 417
#     4  11  25  44  70 100 139 180 230 286 349 416
#     4  12  25  45  71 104 140 184 234 285 353 419
#
# _framework density 22.190353000000002
#
# number of rings (size 3 to 8) (size 9 to 14) (size 15 to 20)
#    0.000    0.667    3.333    3.500    9.333    1.333 
#    0.000    1.667    0.000    0.000    0.000    0.000 
#    0.000    0.000    0.000    0.000    0.000    0.000 
#
# Total GULP energy -148663.733251 kJ/mol
# GULP energy per Si atom -12388.644438 kJ/mol
# Density = 2.213985 g / cm^3
# Si number density = 22.190353 Si / 1000 Ang^3
#
#
#
# Elastic Constant Matrix: (Units=GPa)
#
#
# Indices 1 2 3 4 5 6 
#
# 1 124.4797 15.5393 55.0758 -18.8533 11.5765 -14.2729
# 2 15.5393 82.2170 18.6978 -2.4690 9.9768 7.7731
# 3 55.0758 18.6978 169.5527 -32.9719 6.2093 -14.6426
# 4 -18.8533 -2.4690 -32.9719 41.1867 -12.0680 -4.0803
# 5 11.5765 9.9768 6.2093 -12.0680 50.8306 0.7899
# 6 -14.2729 7.7731 -14.6426 -4.0803 0.7899 44.8763
#
#
#
# Elastic Compliance Matrix: (Units=1/GPa)
#
#
# Indices 1 2 3 4 5 6 
#
# 1 0.010079 -0.001443 -0.002304 0.002640 -0.001150 0.002964
# 2 -0.001443 0.013387 -0.001659 -0.002288 -0.002586 -0.003481
# 3 -0.002304 -0.001659 0.008197 0.006045 0.001241 0.002757
# 4 0.002640 -0.002288 0.006045 0.032784 0.006798 0.006070
# 5 -0.001150 -0.002586 0.001241 0.006798 0.021894 0.000720
# 6 0.002964 -0.003481 0.002757 0.006070 0.000720 0.025268
#
#
# Mechanical properties :
#
#
# Convention : Reuss Voigt Hill
#
# Bulk Modulus (GPa) = 47.95180 61.65278 54.80229
# Shear Modulus (GPa) = 38.64881 46.50782 42.57831
#
# Velocity S-wave (km/s) = 4.17789 4.58302 4.38514
# Velocity P-wave (km/s) = 6.70293 7.47324 7.09854
#
# Compressibility (1/GPa) = 0.02085428
#
# Stress axis : x y z
#
# Youngs Moduli (GPa) = 99.21217 74.69963 121.99200
#
# Poissons Ratio (x) = 0.10776 0.28101
# Poissons Ratio (y) = 0.14312 0.20233
# Poissons Ratio (z) = 0.22854 0.12390
#
# Static dielectric constant tensor:
#      x y z
#    x 3.999310 -0.151560 0.096560 
#    y -0.151560 4.091960 -0.094210 
#    z 0.096560 -0.094210 4.276540 
# 
# 
# High freq. dielectric constant tensor:
#      x y z
#    x 1.879370 -0.014750 0.006930 
#    y -0.014750 1.867250 -0.000110 
#    z 0.006930 -0.000110 1.899660 
# 
# From -- ./inp_files/152341.got.cif
#   From: 2010.06.25/outbox.cif.g09.slc.cpg/sg2_77_cif.got.tgz:152341.got - 2010.06.27 13:26:56.
