data_PCOD8027050
_publ_section_title
;
Structure prediction by ZEFSAII (Michael W. Deem and Ramdas Pophale) SiO2 
 PCOD8027050
Probable space group: P -1
;
_chemical_formula_sum "Si O2"
_cell_formula_units_Z 12
_cell_length_a 8.735893
_cell_length_b 9.444313
_cell_length_c 10.787890
_cell_angle_alpha 139.283322
_cell_angle_beta 71.546638
_cell_angle_gamma 85.252600
_cell_volume 469.930583
_symmetry_space_group_name_H-M "P -1"
_symmetry_group_IT_number 2
_symmetry_cell_setting 'triclinic'
loop_
_space_group_symop_operation_xyz
x,y,z
-x,-y,-z
loop_
_atom_site_type_symbol
_atom_site_label
_atom_site_fract_x
_atom_site_fract_y
_atom_site_fract_z
Si Si1 0.279373 0.224617 0.473008
Si Si2 0.682388 0.429993 0.134980
Si Si3 0.152762 0.488909 0.209570
Si Si4 0.663619 0.223952 0.704099
Si Si5 0.572863 0.714495 0.770492
Si Si6 0.087086 0.219236 0.846876
O O1 0.316552 0.321123 0.656143
O O2 0.359393 0.328157 0.416407
O O3 0.060870 0.347832 0.584855
O O4 0.363021 0.918459 0.263535
O O5 0.544502 0.532755 0.117022
O O6 0.595577 0.338499 0.203355
O O7 0.900618 0.199005 0.905146
O O8 0.198855 0.667652 0.229484
O O9 0.263228 0.446215 0.280228
O O10 0.191053 0.233527 0.956602
O O11 0.759413 0.015960 0.430120
O O12 0.500000 0.000000 0.000000
O O13 0.000000 0.500000 0.000000
#
# Coordination Sequence:
#
# PCOD8027050 Si02
#       6
#     2   2   2   2   2   2
#     4  11  22  43  68  93 134 175 219 269 338 394
#     4  10  24  44  66 101 131 174 226 275 328 404
#     4  10  24  44  66 101 131 174 226 275 328 404
#     4  11  23  43  74  98 137 174 213 292 333 382
#     4  11  26  42  64  96 136 179 220 273 335 397
#     4  11  23  41  72 102 131 171 230 270 341 392
#
# _framework density 25.535685000000001
#
# number of rings (size 3 to 8) (size 9 to 14) (size 15 to 20)
#    0.000    1.333    3.333    2.000    4.667    0.000 
#    0.000    5.000    0.000    0.000    0.000    0.000 
#    0.000    0.000    0.000    0.000    0.000    0.000 
#
# Total GULP energy -148719.221143 kJ/mol
# GULP energy per Si atom -12393.268429 kJ/mol
# Density = 2.547757 g / cm^3
# Si number density = 25.535685 Si / 1000 Ang^3
#
#
#
# Elastic Constant Matrix: (Units=GPa)
#
#
# Indices 1 2 3 4 5 6 
#
# 1 90.2379 33.5285 11.4070 -8.7720 0.2522 27.1641
# 2 33.5285 138.1730 13.0470 -12.2757 -12.0466 30.2152
# 3 11.4070 13.0470 79.7049 1.2251 -3.6653 12.7813
# 4 -8.7720 -12.2757 1.2251 40.4809 2.1421 1.3585
# 5 0.2522 -12.0466 -3.6653 2.1421 27.8985 -10.8487
# 6 27.1641 30.2152 12.7813 1.3585 -10.8487 41.4767
#
#
#
# Elastic Compliance Matrix: (Units=1/GPa)
#
#
# Indices 1 2 3 4 5 6 
#
# 1 0.015090 -0.001555 -0.000586 0.003418 -0.005035 -0.009998
# 2 -0.001555 0.009156 -0.000409 0.002535 0.001713 -0.005161
# 3 -0.000586 -0.000409 0.013249 -0.000559 0.000330 -0.003297
# 4 0.003418 0.002535 -0.000559 0.026590 -0.003241 -0.005631
# 5 -0.005035 0.001713 0.000330 -0.003241 0.041991 0.013038
# 6 -0.009998 -0.005161 -0.003297 -0.005631 0.013038 0.039028
#
#
# Mechanical properties :
#
#
# Convention : Reuss Voigt Hill
#
# Bulk Modulus (GPa) = 30.86833 47.12008 38.99420
# Shear Modulus (GPa) = 31.05529 38.64677 34.85103
#
# Velocity S-wave (km/s) = 3.49112 3.89452 3.69832
# Velocity P-wave (km/s) = 5.32589 6.22220 5.79141
#
# Compressibility (1/GPa) = 0.03239567
#
# Stress axis : x y z
#
# Youngs Moduli (GPa) = 66.26999 109.21390 75.47470
#
# Poissons Ratio (x) = 0.16986 0.04421
# Poissons Ratio (y) = 0.10307 0.03086
# Poissons Ratio (z) = 0.03882 0.04465
#
# Static dielectric constant tensor:
#      x y z
#    x 4.974930 0.402850 0.087840 
#    y 0.402850 3.791500 0.162000 
#    z 0.087840 0.162000 4.607430 
# 
# 
# High freq. dielectric constant tensor:
#      x y z
#    x 2.040600 0.023300 0.007060 
#    y 0.023300 2.007380 -0.013510 
#    z 0.007060 -0.013510 2.031440 
# 
# From -- ./inp_files/156731.got.cif
#   From: 2010.06.25/outbox.cif.g09.slc.cpg/sg2_79_cif.got.tgz:156731.got - 2010.06.27 13:26:56.
