data_PCOD8027956
_publ_section_title
;
Structure prediction by ZEFSAII (Michael W. Deem and Ramdas Pophale) SiO2 
 PCOD8027956
Probable space group: P -1
;
_chemical_formula_sum "Si O2"
_cell_formula_units_Z 10
_cell_length_a 7.342302
_cell_length_b 9.948757
_cell_length_c 9.419589
_cell_angle_alpha 97.931683
_cell_angle_beta 100.183427
_cell_angle_gamma 32.086295
_cell_volume 359.650861
_symmetry_space_group_name_H-M "P -1"
_symmetry_group_IT_number 2
_symmetry_cell_setting 'triclinic'
loop_
_space_group_symop_operation_xyz
x,y,z
-x,-y,-z
loop_
_atom_site_type_symbol
_atom_site_label
_atom_site_fract_x
_atom_site_fract_y
_atom_site_fract_z
Si Si1 0.074489 0.832758 0.378864
Si Si2 0.457082 0.548439 0.835088
Si Si3 0.706033 0.970356 0.840764
Si Si4 0.817341 0.734601 0.425516
Si Si5 0.522449 0.801718 0.861684
O O1 0.379693 0.666971 0.279197
O O2 0.124029 0.658500 0.443490
O O3 0.000000 0.000000 0.500000
O O4 0.729993 0.014759 0.274530
O O5 0.662932 0.561411 0.827503
O O6 0.047106 0.813016 0.782193
O O7 0.500000 0.500000 0.000000
O O8 0.789355 0.761045 0.870561
O O9 0.355823 0.211266 0.737541
O O10 0.665015 0.080325 0.995093
O O11 0.000000 0.500000 0.500000
O O12 0.500000 0.000000 0.500000
#
# Coordination Sequence:
#
# PCOD8027956 Si02
#       5
#     2   2   2   2   2
#     4  11  28  52  76 117 172 215 278 349 415 503
#     4  12  26  47  83 123 160 215 277 343 420 495
#     4  10  24  50  82 114 166 209 277 343 414 497
#     4  11  29  54  81 121 166 227 278 341 428 499
#     4  10  24  50  73 120 159 211 277 336 420 495
#
# _framework density 27.804743999999999
#
# number of rings (size 3 to 8) (size 9 to 14) (size 15 to 20)
#    0.000    1.200    2.000    0.600    8.400    4.800 
#    0.000    2.000    0.000    0.000    0.000    0.000 
#    0.000    0.000    0.000    0.000    0.000    0.000 
#
# Total GULP energy -123893.556074 kJ/mol
# GULP energy per Si atom -12389.355607 kJ/mol
# Density = 2.774146 g / cm^3
# Si number density = 27.804744 Si / 1000 Ang^3
#
#
#
# Elastic Constant Matrix: (Units=GPa)
#
#
# Indices 1 2 3 4 5 6 
#
# 1 120.1596 41.0542 43.1929 3.5560 2.3584 20.5329
# 2 41.0542 124.1536 68.9047 22.0439 2.1749 22.6565
# 3 43.1929 68.9047 175.9163 28.6483 9.9395 14.2813
# 4 3.5560 22.0439 28.6483 60.3527 4.4432 -7.8293
# 5 2.3584 2.1749 9.9395 4.4432 34.3870 -3.5346
# 6 20.5329 22.6565 14.2813 -7.8293 -3.5346 42.5802
#
#
#
# Elastic Compliance Matrix: (Units=1/GPa)
#
#
# Indices 1 2 3 4 5 6 
#
# 1 0.010089 -0.001991 -0.001474 0.000447 -0.000534 -0.003274
# 2 -0.001991 0.012035 -0.003288 -0.003377 0.000254 -0.004940
# 3 -0.001474 -0.003288 0.007892 -0.002431 -0.001738 -0.000777
# 4 0.000447 -0.003377 -0.002431 0.019780 -0.001059 0.005946
# 5 -0.000534 0.000254 -0.001738 -0.001059 0.030049 0.003005
# 6 -0.003274 -0.004940 -0.000777 0.005946 0.003005 0.029296
#
#
# Mechanical properties :
#
#
# Convention : Reuss Voigt Hill
#
# Bulk Modulus (GPa) = 60.57426 80.72590 70.65008
# Shear Modulus (GPa) = 39.01694 45.26916 42.14305
#
# Velocity S-wave (km/s) = 3.75006 4.03936 3.89739
# Velocity P-wave (km/s) = 6.37052 7.13102 6.76147
#
# Compressibility (1/GPa) = 0.01650866
#
# Stress axis : x y z
#
# Youngs Moduli (GPa) = 99.11812 83.09430 126.71452
#
# Poissons Ratio (x) = 0.16540 0.18682
# Poissons Ratio (y) = 0.19730 0.41669
# Poissons Ratio (z) = 0.14614 0.27325
#
# Static dielectric constant tensor:
#      x y z
#    x 5.329180 0.277140 -0.327330 
#    y 0.277140 6.398640 -1.186190 
#    z -0.327330 -1.186190 6.073290 
# 
# 
# High freq. dielectric constant tensor:
#      x y z
#    x 2.133270 0.013190 -0.000490 
#    y 0.013190 2.103580 0.002630 
#    z -0.000490 0.002630 2.146680 
# 
# From -- ./inp_files/164096.got.cif
#   From: 2010.06.25/outbox.cif.g09.slc.cpg/sg2_83_cif.got.tgz:164096.got - 2010.06.27 13:26:56.
