data_PCOD8027617
_publ_section_title
;
Structure prediction by ZEFSAII (Michael W. Deem and Ramdas Pophale) SiO2 
 PCOD8027617
Probable space group: P -1
;
_chemical_formula_sum "Si O2"
_cell_formula_units_Z 16
_cell_length_a 9.686959
_cell_length_b 16.554515
_cell_length_c 6.767700
_cell_angle_alpha 59.758688
_cell_angle_beta 49.963953
_cell_angle_gamma 70.175111
_cell_volume 717.670007
_symmetry_space_group_name_H-M "P -1"
_symmetry_group_IT_number 2
_symmetry_cell_setting 'triclinic'
loop_
_space_group_symop_operation_xyz
x,y,z
-x,-y,-z
loop_
_atom_site_type_symbol
_atom_site_label
_atom_site_fract_x
_atom_site_fract_y
_atom_site_fract_z
Si Si1 0.137284 0.939749 0.319607
Si Si2 0.093215 0.199397 0.506854
Si Si3 0.414729 0.830899 0.427320
Si Si4 0.115070 0.573959 0.009354
Si Si5 0.794691 0.287124 0.922178
Si Si6 0.336243 0.057213 0.682972
Si Si7 0.599421 0.334170 0.644225
Si Si8 0.214066 0.386744 0.985323
O O1 0.310150 0.919794 0.320900
O O2 0.049728 0.840548 0.468979
O O3 0.000000 0.000000 0.500000
O O4 0.196515 0.988920 0.001195
O O5 0.229980 0.115395 0.541913
O O6 0.202224 0.282081 0.206488
O O7 0.984872 0.240700 0.742443
O O8 0.596532 0.869657 0.305708
O O9 0.463131 0.757221 0.303145
O O10 0.295522 0.786071 0.761554
O O11 0.234889 0.615757 0.671771
O O12 0.906792 0.598880 0.118147
O O13 0.167650 0.615307 0.121440
O O14 0.147381 0.461897 0.120195
O O15 0.659764 0.307363 0.841884
O O16 0.500000 0.000000 0.500000
O O17 0.423980 0.403141 0.724018
#
# Coordination Sequence:
#
# PCOD8027617 Si02
#       8
#     2   2   2   2   2   2   2   2
#     4  12  25  44  67  95 138 179 226 295 350 406
#     4  12  24  43  69  99 134 183 226 278 351 407
#     4  11  24  42  68  97 132 178 228 281 344 407
#     4  10  24  46  66 107 138 181 227 280 341 402
#     4  11  22  45  70  98 142 179 225 285 337 417
#     4  12  27  43  67 102 136 178 238 291 345 420
#     4  11  23  44  69 100 140 180 226 281 339 411
#     4  11  24  43  72 100 142 179 229 281 338 419
#
# _framework density 22.294367999999999
#
# number of rings (size 3 to 8) (size 9 to 14) (size 15 to 20)
#    0.000    0.750    2.500    4.875    5.250    1.000 
#    0.000    0.000    0.000    0.000    0.000    0.000 
#    0.000    0.000    0.000    0.000    0.000    0.000 
#
# Total GULP energy -198499.794432 kJ/mol
# GULP energy per Si atom -12406.237152 kJ/mol
# Density = 2.224363 g / cm^3
# Si number density = 22.294368 Si / 1000 Ang^3
#
#
#
# Elastic Constant Matrix: (Units=GPa)
#
#
# Indices 1 2 3 4 5 6 
#
# 1 97.9908 29.9055 11.2382 8.5619 4.2516 -5.2617
# 2 29.9055 95.7970 32.4252 8.2202 -1.3844 0.4959
# 3 11.2382 32.4252 70.0006 8.3313 4.4189 -3.5372
# 4 8.5619 8.2202 8.3313 36.4493 1.2664 -4.5316
# 5 4.2516 -1.3844 4.4189 1.2664 29.7519 4.1630
# 6 -5.2617 0.4959 -3.5372 -4.5316 4.1630 54.3364
#
#
#
# Elastic Compliance Matrix: (Units=1/GPa)
#
#
# Indices 1 2 3 4 5 6 
#
# 1 0.011569 -0.003556 0.000179 -0.001744 -0.001934 0.001167
# 2 -0.003556 0.013651 -0.005814 -0.001129 0.002210 -0.001111
# 3 0.000179 -0.005814 0.017493 -0.002474 -0.002961 0.001230
# 4 -0.001744 -0.001129 -0.002474 0.028969 -0.000973 0.002171
# 5 -0.001934 0.002210 -0.002961 -0.000973 0.034913 -0.003156
# 6 0.001167 -0.001111 0.001230 0.002171 -0.003156 0.019030
#
#
# Mechanical properties :
#
#
# Convention : Reuss Voigt Hill
#
# Bulk Modulus (GPa) = 41.10033 45.65846 43.37939
# Shear Modulus (GPa) = 32.86897 36.78881 34.82889
#
# Velocity S-wave (km/s) = 3.84385 4.06660 3.95679
# Velocity P-wave (km/s) = 6.17864 6.52487 6.35411
#
# Compressibility (1/GPa) = 0.02433071
#
# Stress axis : x y z
#
# Youngs Moduli (GPa) = 86.43878 73.25248 57.16440
#
# Poissons Ratio (x) = 0.26051 -0.01021
# Poissons Ratio (y) = 0.30741 0.33234
# Poissons Ratio (z) = -0.01545 0.42588
#
# Static dielectric constant tensor:
#      x y z
#    x 4.105010 0.116530 -0.069030 
#    y 0.116530 4.179370 -0.017420 
#    z -0.069030 -0.017420 3.865990 
# 
# 
# High freq. dielectric constant tensor:
#      x y z
#    x 1.888390 0.003620 -0.006620 
#    y 0.003620 1.891320 -0.000900 
#    z -0.006620 -0.000900 1.871940 
# 
# From -- ./inp_files/46519.got.cif
#   From: 2010.06.25/outbox.cif.g09.slc.cpg/sg2_24_cif.got.tgz:46519.got - 2010.06.27 13:26:56.
