data_PCOD8027093
_publ_section_title
;
Structure prediction by ZEFSAII (Michael W. Deem and Ramdas Pophale) SiO2 
 PCOD8027093
Probable space group: P -1
;
_chemical_formula_sum "Si O2"
_cell_formula_units_Z 14
_cell_length_a 12.720235
_cell_length_b 8.374733
_cell_length_c 8.107680
_cell_angle_alpha 48.202082
_cell_angle_beta 107.385705
_cell_angle_gamma 95.697182
_cell_volume 608.386145
_symmetry_space_group_name_H-M "P -1"
_symmetry_group_IT_number 2
_symmetry_cell_setting 'triclinic'
loop_
_space_group_symop_operation_xyz
x,y,z
-x,-y,-z
loop_
_atom_site_type_symbol
_atom_site_label
_atom_site_fract_x
_atom_site_fract_y
_atom_site_fract_z
Si Si1 0.347503 0.140609 0.677213
Si Si2 0.414793 0.022313 0.155333
Si Si3 0.006937 0.086257 0.191985
Si Si4 0.295739 0.440503 0.853307
Si Si5 0.173348 0.850182 0.675210
Si Si6 0.380573 0.566603 0.478818
Si Si7 0.929153 0.698070 0.240551
O O1 0.456510 0.050949 0.679857
O O2 0.307736 0.402256 0.461857
O O3 0.245335 0.015413 0.679959
O O4 0.398675 0.122288 0.897204
O O5 0.342459 0.821968 0.258178
O O6 0.365065 0.221538 0.117490
O O7 0.928518 0.196805 0.224695
O O8 0.121956 0.955836 0.408087
O O9 0.937562 0.921426 0.181750
O O10 0.034495 0.274693 0.952024
O O11 0.250694 0.621425 0.841385
O O12 0.374806 0.542190 0.690968
O O13 0.195349 0.352944 0.769578
O O14 0.500000 0.500000 0.500000
O O15 0.000000 0.500000 0.500000
#
# Coordination Sequence:
#
# PCOD8027093 Si02
#       7
#     2   2   2   2   2   2   2
#     4   9  19  39  63  92 130 165 222 265 322 392
#     4   9  19  38  64  91 123 177 217 263 315 398
#     4  10  24  44  67  91 136 171 227 274 327 394
#     4  11  23  37  64  96 133 166 221 269 329 396
#     4  11  23  43  61 104 138 171 212 284 342 381
#     4   9  19  39  64  90 121 173 224 263 309 398
#     4  11  23  45  68  93 121 183 226 268 318 407
#
# _framework density 23.011700000000001
#
# number of rings (size 3 to 8) (size 9 to 14) (size 15 to 20)
#    0.000    2.000    1.429    2.571    2.000    2.286 
#    2.571    2.857    0.000    0.000    0.000    0.000 
#    0.000    0.000    0.000    0.000    0.000    0.000 
#
# Total GULP energy -173441.529182 kJ/mol
# GULP energy per Si atom -12388.680656 kJ/mol
# Density = 2.295932 g / cm^3
# Si number density = 23.011700 Si / 1000 Ang^3
#
#
#
# Elastic Constant Matrix: (Units=GPa)
#
#
# Indices 1 2 3 4 5 6 
#
# 1 93.2883 31.9092 37.0330 -14.6524 -10.3006 -10.3674
# 2 31.9092 88.8576 21.7792 -28.9099 -1.8421 -12.8192
# 3 37.0330 21.7792 95.9278 -23.5338 -13.8303 -15.3851
# 4 -14.6524 -28.9099 -23.5338 44.5993 -0.6998 11.1655
# 5 -10.3006 -1.8421 -13.8303 -0.6998 26.0004 -0.9465
# 6 -10.3674 -12.8192 -15.3851 11.1655 -0.9465 42.2628
#
#
#
# Elastic Compliance Matrix: (Units=1/GPa)
#
#
# Indices 1 2 3 4 5 6 
#
# 1 0.014073 -0.003948 -0.003977 -0.000219 0.003208 0.000936
# 2 -0.003948 0.015621 0.000353 0.008609 0.000021 0.001624
# 3 -0.003977 0.000353 0.014814 0.006075 0.006605 0.003067
# 4 -0.000219 0.008609 0.006075 0.032111 0.004487 -0.003614
# 5 0.003208 0.000021 0.006605 0.004487 0.043476 0.002986
# 6 0.000936 0.001624 0.003067 -0.003614 0.002986 0.026522
#
#
# Mechanical properties :
#
#
# Convention : Reuss Voigt Hill
#
# Bulk Modulus (GPa) = 34.05652 51.05737 42.55694
# Shear Modulus (GPa) = 29.14607 35.06267 32.10437
#
# Velocity S-wave (km/s) = 3.56276 3.90768 3.73920
# Velocity P-wave (km/s) = 5.63526 6.52654 6.09720
#
# Compressibility (1/GPa) = 0.02936296
#
# Stress axis : x y z
#
# Youngs Moduli (GPa) = 71.05890 64.01708 67.50218
#
# Poissons Ratio (x) = 0.25276 0.26848
# Poissons Ratio (y) = 0.28057 -0.02385
# Poissons Ratio (z) = 0.28263 -0.02261
#
# Static dielectric constant tensor:
#      x y z
#    x 4.523780 -0.143240 -0.011360 
#    y -0.143240 4.276990 -0.529130 
#    z -0.011360 -0.529130 4.194300 
# 
# 
# High freq. dielectric constant tensor:
#      x y z
#    x 1.917080 -0.005780 -0.010110 
#    y -0.005780 1.908370 -0.031810 
#    z -0.010110 -0.031810 1.884670 
# 
# From -- ./inp_files/236872.got.cif
#   From: 2010.06.25/outbox.cif.g09.slc.cpg/sg2_119_cif.got.tgz:236872.got - 2010.06.27 13:26:56.
