data_PCOD8027451
_publ_section_title
;
Structure prediction by ZEFSAII (Michael W. Deem and Ramdas Pophale) SiO2 
 PCOD8027451
Probable space group: P -1
;
_chemical_formula_sum "Si O2"
_cell_formula_units_Z 16
_cell_length_a 9.261796
_cell_length_b 14.441092
_cell_length_c 11.743106
_cell_angle_alpha 148.591613
_cell_angle_beta 97.435093
_cell_angle_gamma 67.796609
_cell_volume 694.470947
_symmetry_space_group_name_H-M "P -1"
_symmetry_group_IT_number 2
_symmetry_cell_setting 'triclinic'
loop_
_space_group_symop_operation_xyz
x,y,z
-x,-y,-z
loop_
_atom_site_type_symbol
_atom_site_label
_atom_site_fract_x
_atom_site_fract_y
_atom_site_fract_z
Si Si1 0.333340 0.340115 0.368998
Si Si2 0.285341 0.251002 0.907432
Si Si3 0.790623 0.439263 0.203101
Si Si4 0.932367 0.433695 0.606594
Si Si5 0.026153 0.184828 0.672650
Si Si6 0.559049 0.068721 0.920304
Si Si7 0.348583 0.453458 0.936057
Si Si8 0.134735 0.004664 0.259107
O O1 0.333497 0.493812 0.627807
O O2 0.158430 0.471085 0.421333
O O3 0.336576 0.150712 0.237133
O O4 0.489083 0.248064 0.199065
O O5 0.409718 0.082552 0.837775
O O6 0.396674 0.258885 0.820069
O O7 0.146006 0.198877 0.794225
O O8 0.189881 0.469436 0.194540
O O9 0.674990 0.576404 0.229822
O O10 0.920437 0.514451 0.317681
O O11 0.892799 0.189710 0.927114
O O12 0.000725 0.185467 0.350348
O O13 0.120790 0.134126 0.507434
O O14 0.837579 0.383658 0.861207
O O15 0.000000 0.000000 0.500000
O O16 0.677160 0.107430 0.890233
O O17 0.500000 0.500000 0.000000
#
# Coordination Sequence:
#
# PCOD8027451 Si02
#       8
#     2   2   2   2   2   2   2   2
#     4  10  24  46  69  96 142 180 237 298 346 407
#     4  11  23  43  74  97 142 193 228 284 367 412
#     4  12  24  43  69 103 138 186 227 291 350 418
#     4  11  22  45  72  99 135 186 237 288 349 418
#     4  12  24  44  66 107 144 183 234 286 346 439
#     4  10  24  45  69 103 133 186 241 292 344 423
#     4  12  25  43  68 106 146 178 229 290 350 423
#     4  12  24  41  71 103 141 179 242 281 351 424
#
# _framework density 23.039121000000002
#
# number of rings (size 3 to 8) (size 9 to 14) (size 15 to 20)
#    0.000    0.750    5.000    2.250    0.000    2.500 
#    0.000    1.250    0.000    0.000    0.000    0.000 
#    0.000    0.000    0.000    0.000    0.000    0.000 
#
# Total GULP energy -198229.089739 kJ/mol
# GULP energy per Si atom -12389.318109 kJ/mol
# Density = 2.298668 g / cm^3
# Si number density = 23.039121 Si / 1000 Ang^3
#
#
#
# Elastic Constant Matrix: (Units=GPa)
#
#
# Indices 1 2 3 4 5 6 
#
# 1 72.2339 34.9578 12.1075 -22.1053 -11.5486 11.6563
# 2 34.9578 157.3769 54.7377 -18.6647 -6.4810 -6.0332
# 3 12.1075 54.7377 104.0672 -25.5705 -11.1916 -3.1220
# 4 -22.1053 -18.6647 -25.5705 43.5126 12.3747 -1.7064
# 5 -11.5486 -6.4810 -11.1916 12.3747 24.8106 3.2139
# 6 11.6563 -6.0332 -3.1220 -1.7064 3.2139 25.6212
#
#
#
# Elastic Compliance Matrix: (Units=1/GPa)
#
#
# Indices 1 2 3 4 5 6 
#
# 1 0.020896 -0.004675 0.002325 0.007509 0.007199 -0.010727
# 2 -0.004675 0.008928 -0.004347 -0.000334 -0.002149 0.003947
# 3 0.002325 -0.004347 0.013500 0.006415 0.002885 -0.000371
# 4 0.007509 -0.000334 0.006415 0.033437 -0.010483 0.000829
# 5 0.007199 -0.002149 0.002885 -0.010483 0.050988 -0.010524
# 6 -0.010727 0.003947 -0.000371 0.000829 -0.010524 0.046170
#
#
# Mechanical properties :
#
#
# Convention : Reuss Voigt Hill
#
# Bulk Modulus (GPa) = 33.40917 59.69822 46.55370
# Shear Modulus (GPa) = 25.34356 34.24722 29.79539
#
# Velocity S-wave (km/s) = 3.32026 3.85967 3.60008
# Velocity P-wave (km/s) = 5.40660 6.76984 6.12626
#
# Compressibility (1/GPa) = 0.02993190
#
# Stress axis : x y z
#
# Youngs Moduli (GPa) = 47.85526 112.01271 74.07212
#
# Poissons Ratio (x) = 0.52361 -0.17222
# Poissons Ratio (y) = 0.22370 0.32196
# Poissons Ratio (z) = -0.11126 0.48688
#
# Static dielectric constant tensor:
#      x y z
#    x 4.038020 0.666640 -0.785850 
#    y 0.666640 8.392770 -2.933930 
#    z -0.785850 -2.933930 6.157020 
# 
# 
# High freq. dielectric constant tensor:
#      x y z
#    x 1.891820 0.010900 -0.027160 
#    y 0.010900 1.935520 -0.009850 
#    z -0.027160 -0.009850 1.906630 
# 
# From -- ./inp_files/400080.got.cif
#   From: 2010.06.25/outbox.cif.g09.slc.cpg/sg2_201_cif.got.tgz:400080.got - 2010.06.27 13:26:56.
