data_PCOD8027526
_publ_section_title
;
Structure prediction by ZEFSAII (Michael W. Deem and Ramdas Pophale) SiO2 
 PCOD8027526
Probable space group: P -1
;
_chemical_formula_sum "Si O2"
_cell_formula_units_Z 16
_cell_length_a 23.451816
_cell_length_b 12.814685
_cell_length_c 8.719894
_cell_angle_alpha 35.775090
_cell_angle_beta 135.517593
_cell_angle_gamma 153.761083
_cell_volume 676.288889
_symmetry_space_group_name_H-M "P -1"
_symmetry_group_IT_number 2
_symmetry_cell_setting 'triclinic'
loop_
_space_group_symop_operation_xyz
x,y,z
-x,-y,-z
loop_
_atom_site_type_symbol
_atom_site_label
_atom_site_fract_x
_atom_site_fract_y
_atom_site_fract_z
Si Si1 0.902083 0.177278 0.419092
Si Si2 0.484936 0.271998 0.803564
Si Si3 0.333746 0.392276 0.807286
Si Si4 0.134476 0.196898 0.438073
Si Si5 0.244249 0.314316 0.059354
Si Si6 0.177237 0.585035 0.563192
Si Si7 0.610542 0.893417 0.838320
Si Si8 0.767843 0.283749 0.145780
O O1 0.833581 0.254287 0.188475
O O2 0.054392 0.465802 0.389152
O O3 0.872019 0.004549 0.419804
O O4 0.849397 0.992925 0.688247
O O5 0.500000 0.500000 0.500000
O O6 0.629263 0.433179 0.890693
O O7 0.388251 0.994827 0.839761
O O8 0.421381 0.146022 0.998463
O O9 0.248361 0.386486 0.555502
O O10 0.483812 0.701212 0.718334
O O11 0.290831 0.308894 0.998435
O O12 0.315355 0.165228 0.974492
O O13 0.171660 0.418544 0.128009
O O14 0.000000 0.000000 0.500000
O O15 0.157599 0.341355 0.840441
O O16 0.203289 0.719078 0.618916
O O17 0.294434 0.793804 0.417106
#
# Coordination Sequence:
#
# PCOD8027526 Si02
#       8
#     2   2   2   2   2   2   2   2
#     4  12  26  50  72 101 149 186 241 296 356 421
#     4  11  25  46  74 106 145 183 241 296 358 421
#     4  10  24  45  70  98 145 178 243 289 356 418
#     4  12  29  46  73 108 146 190 238 299 353 427
#     4  11  24  45  72 100 144 190 228 302 352 417
#     4  12  27  44  73 103 142 188 246 287 354 434
#     4  10  25  44  72 103 136 194 233 291 359 423
#     4  12  28  46  75 107 139 196 240 289 365 423
#
# _framework density 23.658529999999999
#
# number of rings (size 3 to 8) (size 9 to 14) (size 15 to 20)
#    0.000    0.750    2.500    3.000   12.250    2.000 
#    0.000    0.000    0.000    0.000    0.000    0.000 
#    0.000    0.000    0.000    0.000    0.000    0.000 
#
# Total GULP energy -198428.602581 kJ/mol
# GULP energy per Si atom -12401.787661 kJ/mol
# Density = 2.360468 g / cm^3
# Si number density = 23.658530 Si / 1000 Ang^3
#
#
#
# Elastic Constant Matrix: (Units=GPa)
#
#
# Indices 1 2 3 4 5 6 
#
# 1 68.1059 6.5627 8.1349 -8.1988 -5.7011 4.2685
# 2 6.5627 109.0906 32.8489 2.0184 -12.6481 5.7514
# 3 8.1349 32.8489 75.5238 -0.0099 -17.2627 8.3087
# 4 -8.1988 2.0184 -0.0099 33.6435 7.2778 4.7731
# 5 -5.7011 -12.6481 -17.2627 7.2778 35.3076 -0.8829
# 6 4.2685 5.7514 8.3087 4.7731 -0.8829 36.9708
#
#
#
# Elastic Compliance Matrix: (Units=1/GPa)
#
#
# Indices 1 2 3 4 5 6 
#
# 1 0.015524 -0.000480 -0.001021 0.003877 0.000987 -0.001965
# 2 -0.000480 0.010705 -0.004100 -0.001116 0.001971 -0.000497
# 3 -0.001021 -0.004100 0.016999 -0.001084 0.006832 -0.002762
# 4 0.003877 -0.001116 -0.001084 0.032925 -0.007202 -0.004453
# 5 0.000987 0.001971 0.006832 -0.007202 0.034007 -0.000214
# 6 -0.001965 -0.000497 -0.002762 -0.004453 -0.000214 0.028543
#
#
# Mechanical properties :
#
#
# Convention : Reuss Voigt Hill
#
# Bulk Modulus (GPa) = 31.22349 38.64595 34.93472
# Shear Modulus (GPa) = 31.13705 34.86263 32.99984
#
# Velocity S-wave (km/s) = 3.63175 3.84288 3.73881
# Velocity P-wave (km/s) = 5.55089 6.00505 5.78243
#
# Compressibility (1/GPa) = 0.03202717
#
# Stress axis : x y z
#
# Youngs Moduli (GPa) = 64.41744 93.41103 58.82604
#
# Poissons Ratio (x) = 0.04485 0.06006
# Poissons Ratio (y) = 0.03093 0.24116
# Poissons Ratio (z) = 0.06577 0.38294
#
# Static dielectric constant tensor:
#      x y z
#    x 4.291470 0.125340 -0.072850 
#    y 0.125340 4.418820 0.117750 
#    z -0.072850 0.117750 4.265200 
# 
# 
# High freq. dielectric constant tensor:
#      x y z
#    x 1.942520 0.005910 -0.004850 
#    y 0.005910 1.946690 0.003030 
#    z -0.004850 0.003030 1.933000 
# 
# From -- ./inp_files/345889.got.cif
#   From: 2010.06.25/outbox.cif.g09.slc.cpg/sg2_173_cif.got.tgz:345889.got - 2010.06.27 13:26:56.
