data_PCOD8027072
_publ_section_title
;
Structure prediction by ZEFSAII (Michael W. Deem and Ramdas Pophale) SiO2 
 PCOD8027072
Probable space group: P -1
;
_chemical_formula_sum "Si O2"
_cell_formula_units_Z 14
_cell_length_a 17.943437
_cell_length_b 9.009769
_cell_length_c 12.121624
_cell_angle_alpha 37.181556
_cell_angle_beta 31.496047
_cell_angle_gamma 51.778339
_cell_volume 607.207826
_symmetry_space_group_name_H-M "P -1"
_symmetry_group_IT_number 2
_symmetry_cell_setting 'triclinic'
loop_
_space_group_symop_operation_xyz
x,y,z
-x,-y,-z
loop_
_atom_site_type_symbol
_atom_site_label
_atom_site_fract_x
_atom_site_fract_y
_atom_site_fract_z
Si Si1 0.080565 0.175240 0.889397
Si Si2 0.465681 0.718027 0.488941
Si Si3 0.655211 0.996315 0.254062
Si Si4 0.493680 0.867962 0.968949
Si Si5 0.959131 0.968319 0.395409
Si Si6 0.842319 0.251097 0.567877
Si Si7 0.295505 0.488722 0.042628
O O1 0.078471 0.460908 0.692880
O O2 0.246539 0.137836 0.710924
O O3 0.000000 0.000000 0.000000
O O4 0.003053 0.110176 0.142742
O O5 0.500000 0.500000 0.500000
O O6 0.620243 0.837720 0.280398
O O7 0.333799 0.613021 0.800099
O O8 0.417827 0.932124 0.346985
O O9 0.500000 0.000000 0.500000
O O10 0.729414 0.291583 0.970904
O O11 0.329857 0.776683 0.188986
O O12 0.568899 0.628552 0.018662
O O13 0.500000 0.000000 0.000000
O O14 0.851177 0.709816 0.660431
O O15 0.102336 0.907143 0.310011
O O16 0.880348 0.144254 0.465393
#
# Coordination Sequence:
#
# PCOD8027072 Si02
#       7
#     2   2   2   2   2   2   2
#     4  12  27  46  70 100 140 188 229 279 347 413
#     4  11  22  40  69  98 135 174 222 285 339 396
#     4  10  24  44  66  99 135 178 226 280 343 400
#     4  12  23  41  71 105 128 176 227 281 342 401
#     4  11  25  45  69 100 138 181 231 281 347 408
#     4  11  24  45  69 100 138 178 230 288 341 406
#     4  11  24  44  66 100 139 172 230 282 336 410
#
# _framework density 23.056356000000001
#
# number of rings (size 3 to 8) (size 9 to 14) (size 15 to 20)
#    0.000    0.857    2.857    3.857    0.000    8.571 
#    0.000    0.000    0.000    0.000    0.000    0.000 
#    0.000    0.000    0.000    0.000    0.000    0.000 
#
# Total GULP energy -173628.264819 kJ/mol
# GULP energy per Si atom -12402.018916 kJ/mol
# Density = 2.300388 g / cm^3
# Si number density = 23.056356 Si / 1000 Ang^3
#
#
#
# Elastic Constant Matrix: (Units=GPa)
#
#
# Indices 1 2 3 4 5 6 
#
# 1 101.5001 20.3970 18.3355 -2.1875 -2.1849 4.0858
# 2 20.3970 101.0763 5.2554 -21.8557 -6.0843 11.5747
# 3 18.3355 5.2554 97.9140 -11.9540 4.6974 -4.0540
# 4 -2.1875 -21.8557 -11.9540 39.6543 -4.4357 -11.4757
# 5 -2.1849 -6.0843 4.6974 -4.4357 49.4098 -11.8185
# 6 4.0858 11.5747 -4.0540 -11.4757 -11.8185 46.8385
#
#
#
# Elastic Compliance Matrix: (Units=1/GPa)
#
#
# Indices 1 2 3 4 5 6 
#
# 1 0.010696 -0.002280 -0.002112 -0.001569 0.000030 -0.000929
# 2 -0.002280 0.011938 0.000482 0.006609 0.001762 -0.000645
# 3 -0.002112 0.000482 0.011171 0.004054 -0.000264 0.001959
# 4 -0.001569 0.006609 0.004054 0.032983 0.005299 0.008272
# 5 0.000030 0.001762 -0.000264 0.005299 0.022517 0.006519
# 6 -0.000929 -0.000645 0.001959 0.008272 0.006519 0.025432
#
#
# Mechanical properties :
#
#
# Convention : Reuss Voigt Hill
#
# Bulk Modulus (GPa) = 38.48314 43.16289 40.82301
# Shear Modulus (GPa) = 38.10432 44.28068 41.19250
#
# Velocity S-wave (km/s) = 4.06970 4.38715 4.23141
# Velocity P-wave (km/s) = 6.22980 6.66514 6.45114
#
# Compressibility (1/GPa) = 0.02598541
#
# Stress axis : x y z
#
# Youngs Moduli (GPa) = 93.49227 83.76881 89.51442
#
# Poissons Ratio (x) = 0.19096 0.18906
# Poissons Ratio (y) = 0.21312 -0.04313
# Poissons Ratio (z) = 0.19746 -0.04036
#
# Static dielectric constant tensor:
#      x y z
#    x 4.986660 0.403200 -0.274050 
#    y 0.403200 4.612330 -0.326590 
#    z -0.274050 -0.326590 4.363450 
# 
# 
# High freq. dielectric constant tensor:
#      x y z
#    x 1.919530 0.005270 -0.005610 
#    y 0.005270 1.922470 -0.013200 
#    z -0.005610 -0.013200 1.914110 
# 
# From -- ./inp_files/461771.got.cif
#   From: 2010.06.25/outbox.cif.g09.slc.cpg/sg2_231_cif.got.tgz:461771.got - 2010.06.27 13:26:56.
