data_PCOD8027337
_publ_section_title
;
Structure prediction by ZEFSAII (Michael W. Deem and Ramdas Pophale) SiO2 
 PCOD8027337
Probable space group: P -1
;
_chemical_formula_sum "Si O2"
_cell_formula_units_Z 16
_cell_length_a 18.050591
_cell_length_b 11.842196
_cell_length_c 9.401336
_cell_angle_alpha 128.840498
_cell_angle_beta 129.155211
_cell_angle_gamma 26.872230
_cell_volume 692.560718
_symmetry_space_group_name_H-M "P -1"
_symmetry_group_IT_number 2
_symmetry_cell_setting 'triclinic'
loop_
_space_group_symop_operation_xyz
x,y,z
-x,-y,-z
loop_
_atom_site_type_symbol
_atom_site_label
_atom_site_fract_x
_atom_site_fract_y
_atom_site_fract_z
Si Si1 0.599547 0.756694 0.017982
Si Si2 0.087564 0.739692 0.367060
Si Si3 0.087060 0.249974 0.653597
Si Si4 0.041995 0.620297 0.942572
Si Si5 0.574878 0.604635 0.404319
Si Si6 0.799956 0.826839 0.581265
Si Si7 0.364048 0.248389 0.624183
Si Si8 0.430354 0.673585 0.685521
O O1 0.552904 0.652737 0.841570
O O2 0.798302 0.516613 0.053531
O O3 0.555465 0.837921 0.191934
O O4 0.500000 0.000000 0.000000
O O5 0.286831 0.514772 0.404622
O O6 0.068786 0.658151 0.418360
O O7 0.003914 0.765349 0.149278
O O8 0.000000 0.000000 0.500000
O O9 0.080520 0.405429 0.861690
O O10 0.094735 0.286444 0.525587
O O11 0.245332 0.959081 0.660134
O O12 0.881923 0.822349 0.801388
O O13 0.649979 0.572544 0.320403
O O14 0.571446 0.433497 0.265225
O O15 0.392558 0.889006 0.453887
O O16 0.800135 0.654701 0.492338
O O17 0.500000 0.000000 0.500000
O O18 0.500000 0.500000 0.500000
#
# Coordination Sequence:
#
# PCOD8027337 Si02
#       8
#     2   2   2   2   2   2   2   2
#     4  12  26  46  77 114 147 198 257 305 373 447
#     4  12  28  48  72 110 152 195 248 313 377 440
#     4  12  24  45  78 108 150 192 253 308 374 442
#     4  12  27  45  76 109 150 193 258 309 371 446
#     4  11  25  48  76 102 157 195 242 302 387 443
#     4  11  24  48  76 110 148 196 246 312 378 450
#     4  10  24  44  75 110 148 191 248 310 371 442
#     4  12  24  45  76 112 150 203 248 305 374 454
#
# _framework density 23.102665999999999
#
# number of rings (size 3 to 8) (size 9 to 14) (size 15 to 20)
#    0.000    0.500    5.000    2.250    7.000    2.500 
#    2.250    1.250    0.000    0.000    0.000    0.000 
#    0.000    0.000    0.000    0.000    0.000    0.000 
#
# Total GULP energy -198333.201247 kJ/mol
# GULP energy per Si atom -12395.825078 kJ/mol
# Density = 2.305008 g / cm^3
# Si number density = 23.102666 Si / 1000 Ang^3
#
#
#
# Elastic Constant Matrix: (Units=GPa)
#
#
# Indices 1 2 3 4 5 6 
#
# 1 194.2849 55.8980 77.4034 0.7153 20.6456 19.0922
# 2 55.8980 99.4993 51.7314 4.7286 11.9848 -0.2710
# 3 77.4034 51.7314 174.5981 4.4156 9.6564 7.4489
# 4 0.7153 4.7286 4.4156 35.1062 -2.3592 5.9084
# 5 20.6456 11.9848 9.6564 -2.3592 46.9423 -1.8455
# 6 19.0922 -0.2710 7.4489 5.9084 -1.8455 51.4723
#
#
#
# Elastic Compliance Matrix: (Units=1/GPa)
#
#
# Indices 1 2 3 4 5 6 
#
# 1 0.007290 -0.002733 -0.002216 0.000788 -0.002114 -0.002564
# 2 -0.002733 0.013251 -0.002646 -0.001779 -0.001663 0.001611
# 3 -0.002216 -0.002646 0.007512 -0.000502 0.000071 -0.000219
# 4 0.000788 -0.001779 -0.000502 0.029475 0.001552 -0.003557
# 5 -0.002114 -0.001663 0.000071 0.001552 0.022775 0.001403
# 6 -0.002564 0.001611 -0.000219 -0.003557 0.001403 0.020878
#
#
# Mechanical properties :
#
#
# Convention : Reuss Voigt Hill
#
# Bulk Modulus (GPa) = 77.74523 93.16087 85.45305
# Shear Modulus (GPa) = 41.43954 45.59412 43.51683
#
# Velocity S-wave (km/s) = 4.23982 4.44728 4.34479
# Velocity P-wave (km/s) = 7.59560 8.17211 7.88912
#
# Compressibility (1/GPa) = 0.01286253
#
# Stress axis : x y z
#
# Youngs Moduli (GPa) = 137.17747 75.46685 133.12442
#
# Poissons Ratio (x) = 0.20627 0.29494
# Poissons Ratio (y) = 0.37495 0.35226
# Poissons Ratio (z) = 0.30392 0.19970
#
# Static dielectric constant tensor:
#      x y z
#    x 4.884690 -0.313250 0.980860 
#    y -0.313250 3.560650 0.842530 
#    z 0.980860 0.842530 2.731210 
# 
# 
# High freq. dielectric constant tensor:
#      x y z
#    x 1.946290 -0.005360 0.012170 
#    y -0.005360 1.920420 -0.009700 
#    z 0.012170 -0.009700 1.894020 
# 
# From -- ./inp_files/333828.got.cif
#   From: 2010.06.25/outbox.cif.g09.slc.cpg/sg2_167_cif.got.tgz:333828.got - 2010.06.27 13:26:56.
