data_PCOD8027431
_publ_section_title
;
Structure prediction by ZEFSAII (Michael W. Deem and Ramdas Pophale) SiO2 
 PCOD8027431
Probable space group: P -1
;
_chemical_formula_sum "Si O2"
_cell_formula_units_Z 12
_cell_length_a 9.130849
_cell_length_b 10.621760
_cell_length_c 11.692193
_cell_angle_alpha 69.328698
_cell_angle_beta 45.824579
_cell_angle_gamma 103.081176
_cell_volume 540.512173
_symmetry_space_group_name_H-M "P -1"
_symmetry_group_IT_number 2
_symmetry_cell_setting 'triclinic'
loop_
_space_group_symop_operation_xyz
x,y,z
-x,-y,-z
loop_
_atom_site_type_symbol
_atom_site_label
_atom_site_fract_x
_atom_site_fract_y
_atom_site_fract_z
Si Si1 0.996369 0.417278 0.146938
Si Si2 0.700908 0.485511 0.457454
Si Si3 0.690080 0.135179 0.956228
Si Si4 0.588970 0.761452 0.787822
Si Si5 0.774493 0.897445 0.055197
Si Si6 0.030046 0.896056 0.688789
O O1 0.872967 0.206597 0.282997
O O2 0.811982 0.423260 0.330303
O O3 0.328701 0.545998 0.959305
O O4 0.000000 0.500000 0.000000
O O5 0.500000 0.500000 0.500000
O O6 0.499403 0.325946 0.713322
O O7 0.971155 0.678771 0.313740
O O8 0.542358 0.194877 0.067526
O O9 0.500000 0.000000 0.000000
O O10 0.670042 0.001247 0.095166
O O11 0.822026 0.784688 0.726013
O O12 0.703684 0.892750 0.570882
O O13 0.906596 0.926518 0.850286
O O14 0.000000 0.000000 0.000000
#
# Coordination Sequence:
#
# PCOD8027431 Si02
#       6
#     2   2   2   2   2   2
#     4  11  25  42  68 100 134 172 227 278 337 402
#     4  11  24  44  67  98 135 177 223 275 338 400
#     4  11  23  46  68 100 133 174 232 276 335 400
#     4  10  24  45  68  95 135 180 222 275 335 406
#     4  12  25  41  71 100 135 178 224 278 340 403
#     4  11  24  45  67  98 135 178 222 276 341 400
#
# _framework density 22.201165
#
# number of rings (size 3 to 8) (size 9 to 14) (size 15 to 20)
#    0.000    1.000    3.333    2.500    4.667    2.667 
#    3.000    0.000    0.000    0.000    0.000    0.000 
#    0.000    0.000    0.000    0.000    0.000    0.000 
#
# Total GULP energy -148686.717955 kJ/mol
# GULP energy per Si atom -12390.559830 kJ/mol
# Density = 2.215063 g / cm^3
# Si number density = 22.201165 Si / 1000 Ang^3
#
#
#
# Elastic Constant Matrix: (Units=GPa)
#
#
# Indices 1 2 3 4 5 6 
#
# 1 97.8893 21.4260 28.9768 -7.7721 7.3078 -5.1834
# 2 21.4260 61.1759 26.6829 -13.7706 0.6309 0.0462
# 3 28.9768 26.6829 138.2908 -15.0101 0.1682 11.1713
# 4 -7.7721 -13.7706 -15.0101 28.8100 -2.9429 5.2402
# 5 7.3078 0.6309 0.1682 -2.9429 39.8062 -4.6508
# 6 -5.1834 0.0462 11.1713 5.2402 -4.6508 44.9203
#
#
#
# Elastic Compliance Matrix: (Units=1/GPa)
#
#
# Indices 1 2 3 4 5 6 
#
# 1 0.011735 -0.003211 -0.001956 0.000121 -0.001895 0.001633
# 2 -0.003211 0.020234 -0.002336 0.007784 0.000780 -0.000638
# 3 -0.001956 -0.002336 0.008684 0.003410 0.000290 -0.002751
# 4 0.000121 0.007784 0.003410 0.041462 0.002269 -0.005444
# 5 -0.001895 0.000780 0.000290 0.002269 0.025872 0.002122
# 6 0.001633 -0.000638 -0.002751 -0.005444 0.002122 0.023990
#
#
# Mechanical properties :
#
#
# Convention : Reuss Voigt Hill
#
# Bulk Modulus (GPa) = 38.99074 50.16969 44.58022
# Shear Modulus (GPa) = 32.14777 37.39200 34.76988
#
# Velocity S-wave (km/s) = 3.80942 4.10840 3.96173
# Velocity P-wave (km/s) = 6.07861 6.71953 6.40709
#
# Compressibility (1/GPa) = 0.02564711
#
# Stress axis : x y z
#
# Youngs Moduli (GPa) = 85.21456 49.42055 115.15956
#
# Poissons Ratio (x) = 0.15871 0.22523
# Poissons Ratio (y) = 0.27366 0.26899
# Poissons Ratio (z) = 0.16666 0.11544
#
# Static dielectric constant tensor:
#      x y z
#    x 4.160890 -0.277790 -0.316070 
#    y -0.277790 3.534800 -0.121470 
#    z -0.316070 -0.121470 4.544360 
# 
# 
# High freq. dielectric constant tensor:
#      x y z
#    x 1.886760 -0.008720 -0.003570 
#    y -0.008720 1.874290 -0.008930 
#    z -0.003570 -0.008930 1.883170 
# 
# From -- ./inp_files/164180.got.cif
#   From: 2010.06.25/outbox.cif.g09.slc.cpg/sg2_83_cif.got.tgz:164180.got - 2010.06.27 13:26:56.
