data_PCOD8027438
_publ_section_title
;
Structure prediction by ZEFSAII (Michael W. Deem and Ramdas Pophale) SiO2 
 PCOD8027438
Probable space group: P -1
;
_chemical_formula_sum "Si O2"
_cell_formula_units_Z 16
_cell_length_a 20.502892
_cell_length_b 14.869289
_cell_length_c 11.847492
_cell_angle_alpha 29.582818
_cell_angle_beta 150.318462
_cell_angle_gamma 151.070451
_cell_volume 769.914906
_symmetry_space_group_name_H-M "P -1"
_symmetry_group_IT_number 2
_symmetry_cell_setting 'triclinic'
loop_
_space_group_symop_operation_xyz
x,y,z
-x,-y,-z
loop_
_atom_site_type_symbol
_atom_site_label
_atom_site_fract_x
_atom_site_fract_y
_atom_site_fract_z
Si Si1 0.566325 0.031293 0.441553
Si Si2 0.347415 0.792584 0.014081
Si Si3 0.326597 0.415119 0.514874
Si Si4 0.190922 0.496654 0.733091
Si Si5 0.700954 0.008436 0.071032
Si Si6 0.915416 0.462357 0.240224
Si Si7 0.990437 0.664147 0.889010
Si Si8 0.439082 0.385079 0.151866
O O1 0.715180 0.253267 0.410132
O O2 0.500000 0.000000 0.500000
O O3 0.613727 0.857895 0.674102
O O4 0.436947 0.007453 0.189275
O O5 0.376554 0.598452 0.296780
O O6 0.242441 0.748495 0.794359
O O7 0.500000 0.000000 0.000000
O O8 0.261723 0.829261 0.948532
O O9 0.347057 0.225127 0.703630
O O10 0.150646 0.315512 0.391551
O O11 0.423999 0.502826 0.678018
O O12 0.122781 0.429182 0.830682
O O13 0.048269 0.411266 0.527039
O O14 0.292892 0.394517 0.965221
O O15 0.857078 0.112219 0.122774
O O16 0.960772 0.599248 0.046231
O O17 0.000000 0.500000 0.000000
O O18 0.500000 0.500000 0.000000
#
# Coordination Sequence:
#
# PCOD8027438 Si02
#       8
#     2   2   2   2   2   2   2   2
#     4  12  22  41  68 101 135 180 228 278 345 403
#     4  11  24  44  69  97 136 177 223 279 344 403
#     4  11  24  41  65 105 131 171 232 277 342 406
#     4  11  24  45  68  95 145 173 232 278 343 414
#     4  12  22  41  68  98 134 178 224 285 339 400
#     4  10  24  45  68  98 135 190 218 287 346 401
#     4  11  21  42  67  94 138 177 229 283 342 401
#     4  12  24  40  69 102 132 178 228 282 336 408
#
# _framework density 20.781517999999998
#
# number of rings (size 3 to 8) (size 9 to 14) (size 15 to 20)
#    0.000    0.750    6.250    1.875    1.750    0.500 
#    2.250    5.000    0.000    0.000    0.000    0.000 
#    0.000    0.000    0.000    0.000    0.000    0.000 
#
# Total GULP energy -198364.822925 kJ/mol
# GULP energy per Si atom -12397.801433 kJ/mol
# Density = 2.073422 g / cm^3
# Si number density = 20.781518 Si / 1000 Ang^3
#
#
#
# Elastic Constant Matrix: (Units=GPa)
#
#
# Indices 1 2 3 4 5 6 
#
# 1 110.2070 29.6242 62.1867 5.9896 3.7572 1.7243
# 2 29.6242 126.2439 76.2466 10.0165 0.6883 10.2123
# 3 62.1867 76.2466 155.8187 9.0628 16.6044 -10.0713
# 4 5.9896 10.0165 9.0628 57.3529 -5.9076 -0.9310
# 5 3.7572 0.6883 16.6044 -5.9076 33.4401 0.7493
# 6 1.7243 10.2123 -10.0713 -0.9310 0.7493 37.9337
#
#
#
# Elastic Compliance Matrix: (Units=1/GPa)
#
#
# Indices 1 2 3 4 5 6 
#
# 1 0.011915 0.000604 -0.005299 -0.000418 0.001254 -0.002146
# 2 0.000604 0.012470 -0.006964 -0.000909 0.003092 -0.005317
# 3 -0.005299 -0.006964 0.012990 -0.000807 -0.005981 0.005663
# 4 -0.000418 -0.000909 -0.000807 0.018150 0.003664 0.000422
# 5 0.001254 0.003092 -0.005981 0.003664 0.033385 -0.003047
# 6 -0.002146 -0.005317 0.005663 0.000422 -0.003047 0.029465
#
#
# Mechanical properties :
#
#
# Convention : Reuss Voigt Hill
#
# Bulk Modulus (GPa) = 71.12738 80.93164 76.02951
# Shear Modulus (GPa) = 34.15797 40.69281 37.42539
#
# Velocity S-wave (km/s) = 4.05862 4.42987 4.24830
# Velocity P-wave (km/s) = 7.50092 8.07426 7.79286
#
# Compressibility (1/GPa) = 0.01405928
#
# Stress axis : x y z
#
# Youngs Moduli (GPa) = 83.92759 80.18950 76.97981
#
# Poissons Ratio (x) = -0.04847 0.40792
# Poissons Ratio (y) = -0.05073 0.53606
# Poissons Ratio (z) = 0.44474 0.55841
#
# Static dielectric constant tensor:
#      x y z
#    x 3.708010 0.006410 0.098940 
#    y 0.006410 4.042690 0.170850 
#    z 0.098940 0.170850 3.933720 
# 
# 
# High freq. dielectric constant tensor:
#      x y z
#    x 1.817250 0.002540 0.000750 
#    y 0.002540 1.826080 0.015390 
#    z 0.000750 0.015390 1.814900 
# 
# From -- ./inp_files/471694.got.cif
#   From: 2010.06.25/outbox.cif.g09.slc.cpg/sg2_236_cif.got.tgz:471694.got - 2010.06.27 13:26:56.
