data_PCOD8027273
_publ_section_title
;
Structure prediction by ZEFSAII (Michael W. Deem and Ramdas Pophale) SiO2 
 PCOD8027273
Probable space group: P -1
;
_chemical_formula_sum "Si O2"
_cell_formula_units_Z 16
_cell_length_a 19.674877
_cell_length_b 12.084920
_cell_length_c 11.525421
_cell_angle_alpha 40.370409
_cell_angle_beta 150.542816
_cell_angle_gamma 149.325087
_cell_volume 686.604577
_symmetry_space_group_name_H-M "P -1"
_symmetry_group_IT_number 2
_symmetry_cell_setting 'triclinic'
loop_
_space_group_symop_operation_xyz
x,y,z
-x,-y,-z
loop_
_atom_site_type_symbol
_atom_site_label
_atom_site_fract_x
_atom_site_fract_y
_atom_site_fract_z
Si Si1 0.899575 0.640910 0.823128
Si Si2 0.729193 0.866660 0.390108
Si Si3 0.713692 0.805081 0.922732
Si Si4 0.760999 0.014097 0.057799
Si Si5 0.450456 0.825289 0.380629
Si Si6 0.261077 0.866701 0.608561
Si Si7 0.998321 0.229875 0.891625
Si Si8 0.658886 0.464248 0.962737
O O1 0.855571 0.805783 0.651823
O O2 0.728740 0.411852 0.714720
O O3 0.051014 0.744605 0.867359
O O4 0.982385 0.635174 0.072412
O O5 0.527687 0.658762 0.279482
O O6 0.747319 0.932218 0.230914
O O7 0.785657 0.066903 0.396618
O O8 0.559952 0.822118 0.648502
O O9 0.655345 0.566410 0.998118
O O10 0.886942 0.977906 0.964397
O O11 0.750934 0.853110 0.076863
O O12 0.600148 0.019356 0.787568
O O13 0.566081 0.914112 0.364455
O O14 0.098318 0.742032 0.377179
O O15 0.297413 0.699184 0.825281
O O16 0.196134 0.332988 0.064580
#
# Coordination Sequence:
#
# PCOD8027273 Si02
#       8
#     2   2   2   2   2   2   2   2
#     4  11  25  45  70  99 134 181 228 273 335 397
#     4  12  26  44  69 101 141 175 222 277 338 406
#     4  10  24  44  71  98 135 178 227 275 330 403
#     4  11  25  46  65  98 140 180 221 278 330 401
#     4  11  22  46  70 101 132 177 229 278 332 397
#     4  11  26  44  70 103 138 173 220 283 342 395
#     4  10  25  43  68 101 132 176 222 281 330 393
#     4  12  23  45  68 104 134 177 220 279 343 395
#
# _framework density 23.303077999999999
#
# number of rings (size 3 to 8) (size 9 to 14) (size 15 to 20)
#    0.000    1.000    2.500    3.000    8.750    1.500 
#    0.000    0.000    0.000    0.000    0.000    0.000 
#    0.000    0.000    0.000    0.000    0.000    0.000 
#
# Total GULP energy -198383.823181 kJ/mol
# GULP energy per Si atom -12398.988949 kJ/mol
# Density = 2.325004 g / cm^3
# Si number density = 23.303078 Si / 1000 Ang^3
#
#
#
# Elastic Constant Matrix: (Units=GPa)
#
#
# Indices 1 2 3 4 5 6 
#
# 1 114.9975 34.5948 42.8810 3.9569 -5.4266 -1.4292
# 2 34.5948 69.2206 19.8907 19.4242 -8.5358 0.6761
# 3 42.8810 19.8907 76.2397 14.5805 -7.5916 5.1392
# 4 3.9569 19.4242 14.5805 38.6059 -3.7986 14.6829
# 5 -5.4266 -8.5358 -7.5916 -3.7986 27.4553 11.6184
# 6 -1.4292 0.6761 5.1392 14.6829 11.6184 32.0412
#
#
#
# Elastic Compliance Matrix: (Units=1/GPa)
#
#
# Indices 1 2 3 4 5 6 
#
# 1 0.012629 -0.005611 -0.006441 0.003847 -0.000563 0.000156
# 2 -0.005611 0.020577 -0.000151 -0.010815 0.002283 0.003468
# 3 -0.006441 -0.000151 0.018279 -0.004805 0.004133 -0.002512
# 4 0.003847 -0.010815 -0.004805 0.042409 0.011417 -0.022403
# 5 -0.000563 0.002283 0.004133 0.011417 0.049931 -0.024073
# 6 0.000156 0.003468 -0.002512 -0.022403 -0.024073 0.050542
#
#
# Mechanical properties :
#
#
# Convention : Reuss Voigt Hill
#
# Bulk Modulus (GPa) = 36.93033 50.57675 43.75354
# Shear Modulus (GPa) = 21.94927 30.49325 26.22126
#
# Velocity S-wave (km/s) = 3.07238 3.62131 3.35808
# Velocity P-wave (km/s) = 5.33556 6.26388 5.81827
#
# Compressibility (1/GPa) = 0.02707802
#
# Stress axis : x y z
#
# Youngs Moduli (GPa) = 79.18465 48.59882 54.70873
#
# Poissons Ratio (x) = 0.27269 0.35240
# Poissons Ratio (y) = 0.44430 0.00824
# Poissons Ratio (z) = 0.51006 0.00732
#
# Static dielectric constant tensor:
#      x y z
#    x 4.329130 0.134850 0.209580 
#    y 0.134850 4.167800 0.256790 
#    z 0.209580 0.256790 4.276100 
# 
# 
# High freq. dielectric constant tensor:
#      x y z
#    x 1.927190 0.002030 0.008050 
#    y 0.002030 1.921730 0.019780 
#    z 0.008050 0.019780 1.920290 
# 
# From -- ./inp_files/471148.got.cif
#   From: 2010.06.25/outbox.cif.g09.slc.cpg/sg2_236_cif.got.tgz:471148.got - 2010.06.27 13:26:56.
