data_PCOD8027672
_publ_section_title
;
Structure prediction by ZEFSAII (Michael W. Deem and Ramdas Pophale) SiO2 
 PCOD8027672
Probable space group: P -1
;
_chemical_formula_sum "Si O2"
_cell_formula_units_Z 10
_cell_length_a 5.326654
_cell_length_b 9.621110
_cell_length_c 10.105246
_cell_angle_alpha 87.684167
_cell_angle_beta 48.122958
_cell_angle_gamma 96.291033
_cell_volume 378.739871
_symmetry_space_group_name_H-M "P -1"
_symmetry_group_IT_number 2
_symmetry_cell_setting 'triclinic'
loop_
_space_group_symop_operation_xyz
x,y,z
-x,-y,-z
loop_
_atom_site_type_symbol
_atom_site_label
_atom_site_fract_x
_atom_site_fract_y
_atom_site_fract_z
Si Si1 0.895792 0.542081 0.201406
Si Si2 0.292377 0.855919 0.251102
Si Si3 0.179960 0.304036 0.035439
Si Si4 0.801421 0.618207 0.519429
Si Si5 0.779606 0.016312 0.285959
O O1 0.782858 0.618993 0.365780
O O2 0.571179 0.414085 0.282857
O O3 0.197990 0.448156 0.112497
O O4 0.963131 0.659052 0.058927
O O5 0.613767 0.946072 0.211322
O O6 0.022017 0.776314 0.460670
O O7 0.108704 0.950237 0.215132
O O8 0.441751 0.737490 0.113614
O O9 0.915201 0.179720 0.202439
O O10 0.000000 0.500000 0.500000
O O11 0.500000 0.000000 0.500000
#
# Coordination Sequence:
#
# PCOD8027672 Si02
#       5
#     2   2   2   2   2
#     4  10  24  46  70 106 144 187 238 293 358 421
#     4  12  26  48  73 106 142 190 239 294 359 423
#     4  11  24  46  72 105 144 187 236 298 356 423
#     4  11  23  44  73 101 141 187 238 292 351 425
#     4  12  28  49  74 103 144 193 240 294 354 432
#
# _framework density 26.403348000000001
#
# number of rings (size 3 to 8) (size 9 to 14) (size 15 to 20)
#    0.000    0.800    2.000    4.200    5.600    2.400 
#    3.600    0.000    0.000    0.000    0.000    0.000 
#    0.000    0.000    0.000    0.000    0.000    0.000 
#
# Total GULP energy -123946.275120 kJ/mol
# GULP energy per Si atom -12394.627512 kJ/mol
# Density = 2.634325 g / cm^3
# Si number density = 26.403348 Si / 1000 Ang^3
#
#
#
# Elastic Constant Matrix: (Units=GPa)
#
#
# Indices 1 2 3 4 5 6 
#
# 1 113.8535 39.4556 20.0561 -1.0703 -11.2968 -34.0232
# 2 39.4556 110.4368 28.5368 -2.9739 4.4524 -53.6897
# 3 20.0561 28.5368 130.9292 -18.9677 -1.9902 -21.5132
# 4 -1.0703 -2.9739 -18.9677 66.5891 -3.4453 4.0364
# 5 -11.2968 4.4524 -1.9902 -3.4453 39.6797 -0.4481
# 6 -34.0232 -53.6897 -21.5132 4.0364 -0.4481 35.3720
#
#
#
# Elastic Compliance Matrix: (Units=1/GPa)
#
#
# Indices 1 2 3 4 5 6 
#
# 1 0.013664 0.005399 0.000246 -0.000598 0.003489 0.021600
# 2 0.005399 0.037443 0.001037 -0.001862 -0.002064 0.062843
# 3 0.000246 0.001037 0.008842 0.002182 0.000665 0.006947
# 4 -0.000598 -0.001862 0.002182 0.015857 0.001481 -0.003865
# 5 0.003489 -0.002064 0.000665 0.001481 0.026598 0.000795
# 6 0.021600 0.062843 0.006947 -0.003865 0.000795 0.149111
#
#
# Mechanical properties :
#
#
# Convention : Reuss Voigt Hill
#
# Bulk Modulus (GPa) = 13.64037 59.03516 36.33776
# Shear Modulus (GPa) = 19.04118 46.13956 32.59037
#
# Velocity S-wave (km/s) = 2.68837 4.18483 3.51711
# Velocity P-wave (km/s) = 3.84887 6.76446 5.50326
#
# Compressibility (1/GPa) = 0.07331180
#
# Stress axis : x y z
#
# Youngs Moduli (GPa) = 73.18362 26.70731 113.09884
#
# Poissons Ratio (x) = -0.14419 -0.02778
# Poissons Ratio (y) = -0.39511 -0.11727
# Poissons Ratio (z) = -0.01798 -0.02769
#
# Static dielectric constant tensor:
#      x y z
#    x 4.825450 0.132290 -0.211040 
#    y 0.132290 5.037560 0.013610 
#    z -0.211040 0.013610 5.487540 
# 
# 
# High freq. dielectric constant tensor:
#      x y z
#    x 2.049930 -0.014180 -0.014750 
#    y -0.014180 2.064990 -0.015090 
#    z -0.014750 -0.015090 2.081110 
# 
# From -- ./inp_files/15472.got.cif
#   From: 2010.06.25/outbox.cif.g09.slc.cpg/sg2_8_cif.got.tgz:15472.got - 2010.06.27 13:26:56.
