data_PCOD8027022
_publ_section_title
;
Structure prediction by ZEFSAII (Michael W. Deem and Ramdas Pophale) SiO2 
 PCOD8027022
Probable space group: P -1
;
_chemical_formula_sum "Si O2"
_cell_formula_units_Z 16
_cell_length_a 12.814413
_cell_length_b 7.105929
_cell_length_c 11.185063
_cell_angle_alpha 129.383017
_cell_angle_beta 96.360557
_cell_angle_gamma 74.086480
_cell_volume 754.306200
_symmetry_space_group_name_H-M "P -1"
_symmetry_group_IT_number 2
_symmetry_cell_setting 'triclinic'
loop_
_space_group_symop_operation_xyz
x,y,z
-x,-y,-z
loop_
_atom_site_type_symbol
_atom_site_label
_atom_site_fract_x
_atom_site_fract_y
_atom_site_fract_z
Si Si1 0.765546 0.096951 0.706555
Si Si2 0.529617 0.597621 0.672925
Si Si3 0.095136 0.425621 0.389474
Si Si4 0.833557 0.555494 0.000540
Si Si5 0.252047 0.738794 0.481169
Si Si6 0.630880 0.937079 0.223266
Si Si7 0.482075 0.656457 0.185331
Si Si8 0.007537 0.278895 0.080347
O O1 0.778418 0.062209 0.551332
O O2 0.640699 0.168757 0.761764
O O3 0.821136 0.838568 0.675251
O O4 0.828185 0.309385 0.827411
O O5 0.500000 0.500000 0.500000
O O6 0.661136 0.517287 0.659397
O O7 0.490372 0.490452 0.745655
O O8 0.471504 0.895214 0.798513
O O9 0.151438 0.654957 0.488941
O O10 0.041834 0.415457 0.251585
O O11 0.000000 0.500000 0.500000
O O12 0.709779 0.722212 0.067137
O O13 0.890525 0.453873 0.093041
O O14 0.902590 0.725346 0.012719
O O15 0.299364 0.881077 0.646767
O O16 0.571850 0.815628 0.268591
O O17 0.500000 0.500000 0.000000
O O18 0.000000 0.000000 0.000000
#
# Coordination Sequence:
#
# PCOD8027022 Si02
#       8
#     2   2   2   2   2   2   2   2
#     4  11  23  45  66  96 137 172 212 274 331 388
#     4   9  22  43  65  95 139 176 214 262 336 400
#     4  12  27  42  67  96 127 173 228 271 324 388
#     4  11  24  43  68  97 131 172 215 274 339 382
#     4  10  24  44  64  95 135 176 214 269 330 390
#     4  11  24  41  70 100 133 174 220 272 326 405
#     4  11  23  41  69 105 134 172 223 269 334 400
#     4  11  25  45  66  92 132 173 220 273 330 391
#
# _framework density 21.211546999999999
#
# number of rings (size 3 to 8) (size 9 to 14) (size 15 to 20)
#    0.000    1.250    3.750    0.750    3.500    9.500 
#    0.000    0.000    0.000    0.000    0.000    0.000 
#    0.000    0.000    0.000    0.000    0.000    0.000 
#
# Total GULP energy -198310.791752 kJ/mol
# GULP energy per Si atom -12394.424485 kJ/mol
# Density = 2.116327 g / cm^3
# Si number density = 21.211547 Si / 1000 Ang^3
#
#
#
# Elastic Constant Matrix: (Units=GPa)
#
#
# Indices 1 2 3 4 5 6 
#
# 1 103.2145 33.9448 26.0083 -1.4242 -7.2637 25.3608
# 2 33.9448 100.1551 42.3970 -16.5813 -13.7479 8.7398
# 3 26.0083 42.3970 70.0857 -7.5174 -0.7136 6.5313
# 4 -1.4242 -16.5813 -7.5174 31.7856 1.6588 4.2967
# 5 -7.2637 -13.7479 -0.7136 1.6588 38.4219 5.5989
# 6 25.3608 8.7398 6.5313 4.2967 5.5989 45.0128
#
#
#
# Elastic Compliance Matrix: (Units=1/GPa)
#
#
# Indices 1 2 3 4 5 6 
#
# 1 0.012998 -0.002375 -0.002792 -0.000542 0.002559 -0.006723
# 2 -0.002375 0.016076 -0.007930 0.006390 0.005155 -0.001884
# 3 -0.002792 -0.007930 0.020083 0.000578 -0.003094 0.000529
# 4 -0.000542 0.006390 0.000578 0.035455 0.001330 -0.004569
# 5 0.002559 0.005155 -0.003094 0.001330 0.029076 -0.005737
# 6 -0.006723 -0.001884 0.000529 -0.004569 -0.005737 0.027443
#
#
# Mechanical properties :
#
#
# Convention : Reuss Voigt Hill
#
# Bulk Modulus (GPa) = 43.55002 53.12839 48.33920
# Shear Modulus (GPa) = 28.57476 34.45107 31.51292
#
# Velocity S-wave (km/s) = 3.67431 4.03447 3.85859
# Velocity P-wave (km/s) = 6.21101 6.84133 6.53378
#
# Compressibility (1/GPa) = 0.02296210
#
# Stress axis : x y z
#
# Youngs Moduli (GPa) = 76.93590 62.20338 49.79377
#
# Poissons Ratio (x) = 0.14774 0.13903
# Poissons Ratio (y) = 0.18273 0.39488
# Poissons Ratio (z) = 0.21482 0.49329
#
# Static dielectric constant tensor:
#      x y z
#    x 4.064420 -0.170650 -0.020220 
#    y -0.170650 4.053740 0.003030 
#    z -0.020220 0.003030 3.687940 
# 
# 
# High freq. dielectric constant tensor:
#      x y z
#    x 1.844410 -0.000990 0.002280 
#    y -0.000990 1.845510 -0.006180 
#    z 0.002280 -0.006180 1.818580 
# 
# From -- ./inp_files/336724.got.cif
#   From: 2010.06.25/outbox.cif.g09.slc.cpg/sg2_169_cif.got.tgz:336724.got - 2010.06.27 13:26:56.
