data_PCOD8027868
_publ_section_title
;
Structure prediction by ZEFSAII (Michael W. Deem and Ramdas Pophale) SiO2 
 PCOD8027868
Probable space group: P -1
;
_chemical_formula_sum "Si O2"
_cell_formula_units_Z 16
_cell_length_a 8.544224
_cell_length_b 12.832821
_cell_length_c 15.826438
_cell_angle_alpha 47.880652
_cell_angle_beta 110.569459
_cell_angle_gamma 72.097245
_cell_volume 751.178847
_symmetry_space_group_name_H-M "P -1"
_symmetry_group_IT_number 2
_symmetry_cell_setting 'triclinic'
loop_
_space_group_symop_operation_xyz
x,y,z
-x,-y,-z
loop_
_atom_site_type_symbol
_atom_site_label
_atom_site_fract_x
_atom_site_fract_y
_atom_site_fract_z
Si Si1 0.754994 0.213694 0.892512
Si Si2 0.477276 0.349362 0.068962
Si Si3 0.473195 0.613591 0.513637
Si Si4 0.077956 0.913629 0.821065
Si Si5 0.904008 0.773999 0.746793
Si Si6 0.607485 0.029637 0.384163
Si Si7 0.758180 0.699139 0.459580
Si Si8 0.642695 0.782011 0.198703
O O1 0.648249 0.433114 0.719836
O O2 0.520812 0.253107 0.826168
O O3 0.862107 0.178420 0.024079
O O4 0.000000 0.000000 0.000000
O O5 0.655321 0.185835 0.110893
O O6 0.597072 0.194977 0.258110
O O7 0.500000 0.500000 0.000000
O O8 0.164942 0.511069 0.911573
O O9 0.500000 0.500000 0.500000
O O10 0.562420 0.711971 0.455699
O O11 0.162418 0.815944 0.372217
O O12 0.995491 0.835946 0.792186
O O13 0.693178 0.816646 0.732104
O O14 0.786771 0.918148 0.561593
O O15 0.737264 0.846490 0.436406
O O16 0.659008 0.807408 0.287941
O O17 0.057611 0.439516 0.658303
O O18 0.500000 0.000000 0.000000
#
# Coordination Sequence:
#
# PCOD8027868 Si02
#       8
#     2   2   2   2   2   2   2   2
#     4  12  25  42  69  97 133 184 224 273 334 400
#     4  10  25  44  69  99 134 171 229 278 337 404
#     4  12  23  44  68  93 139 180 229 272 329 407
#     4  11  25  42  67 103 133 178 224 276 341 397
#     4  10  24  48  68 100 130 177 229 277 343 403
#     4  11  24  44  74  96 138 176 223 283 345 403
#     4  11  25  44  67 103 135 182 224 281 341 401
#     4  11  26  42  67  99 143 177 228 275 339 405
#
# _framework density 21.299852999999999
#
# number of rings (size 3 to 8) (size 9 to 14) (size 15 to 20)
#    0.000    1.000    3.750    1.125    5.250    4.000 
#    2.250    0.000    0.000    0.000    0.000    0.000 
#    0.000    0.000    0.000    0.000    0.000    0.000 
#
# Total GULP energy -198411.437889 kJ/mol
# GULP energy per Si atom -12400.714868 kJ/mol
# Density = 2.125137 g / cm^3
# Si number density = 21.299853 Si / 1000 Ang^3
#
#
#
# Elastic Constant Matrix: (Units=GPa)
#
#
# Indices 1 2 3 4 5 6 
#
# 1 78.1869 52.5975 58.6701 -1.8371 -7.0838 -19.1253
# 2 52.5975 125.3154 70.3453 11.6863 6.0840 -18.7846
# 3 58.6701 70.3453 172.7112 1.7406 -8.8217 -28.6734
# 4 -1.8371 11.6863 1.7406 41.3874 -7.6856 7.5067
# 5 -7.0838 6.0840 -8.8217 -7.6856 48.8508 -5.1983
# 6 -19.1253 -18.7846 -28.6734 7.5067 -5.1983 41.3684
#
#
#
# Elastic Compliance Matrix: (Units=1/GPa)
#
#
# Indices 1 2 3 4 5 6 
#
# 1 0.021695 -0.006901 -0.003649 0.003073 0.004293 0.004349
# 2 -0.006901 0.013425 -0.003077 -0.004900 -0.003874 0.001175
# 3 -0.003649 -0.003077 0.008927 0.000069 0.001830 0.003321
# 4 0.003073 -0.004900 0.000069 0.027512 0.004850 -0.005139
# 5 0.004293 -0.003874 0.001830 0.004850 0.023043 0.003510
# 6 0.004349 0.001175 0.003321 -0.005139 0.003510 0.030393
#
#
# Mechanical properties :
#
#
# Convention : Reuss Voigt Hill
#
# Bulk Modulus (GPa) = 59.54698 82.15994 70.85346
# Shear Modulus (GPa) = 31.67663 39.29468 35.48565
#
# Velocity S-wave (km/s) = 3.86058 4.29981 4.08610
# Velocity P-wave (km/s) = 6.92021 7.95663 7.45645
#
# Compressibility (1/GPa) = 0.01679346
#
# Stress axis : x y z
#
# Youngs Moduli (GPa) = 46.09338 74.48910 112.02023
#
# Poissons Ratio (x) = 0.51403 0.40874
# Poissons Ratio (y) = 0.31808 0.34470
# Poissons Ratio (z) = 0.16819 0.22921
#
# Static dielectric constant tensor:
#      x y z
#    x 4.126120 -0.475470 0.365270 
#    y -0.475470 4.066700 -0.176650 
#    z 0.365270 -0.176650 4.171380 
# 
# 
# High freq. dielectric constant tensor:
#      x y z
#    x 1.843370 -0.020840 0.006940 
#    y -0.020840 1.835260 -0.003050 
#    z 0.006940 -0.003050 1.853430 
# 
# From -- ./inp_files/90350.got.cif
#   From: 2010.06.25/outbox.cif.g09.slc.cpg/sg2_46_cif.got.tgz:90350.got - 2010.06.27 13:26:56.
