data_PCOD8027138
_publ_section_title
;
Structure prediction by ZEFSAII (Michael W. Deem and Ramdas Pophale) SiO2 
 PCOD8027138
Probable space group: P -1
;
_chemical_formula_sum "Si O2"
_cell_formula_units_Z 16
_cell_length_a 8.848215
_cell_length_b 12.017834
_cell_length_c 10.126755
_cell_angle_alpha 65.872098
_cell_angle_beta 65.650439
_cell_angle_gamma 107.350176
_cell_volume 740.958075
_symmetry_space_group_name_H-M "P -1"
_symmetry_group_IT_number 2
_symmetry_cell_setting 'triclinic'
loop_
_space_group_symop_operation_xyz
x,y,z
-x,-y,-z
loop_
_atom_site_type_symbol
_atom_site_label
_atom_site_fract_x
_atom_site_fract_y
_atom_site_fract_z
Si Si1 0.685985 0.671480 0.984613
Si Si2 0.892510 0.315424 0.837468
Si Si3 0.641948 0.226336 0.443764
Si Si4 0.765327 0.521665 0.821181
Si Si5 0.660343 0.516853 0.333743
Si Si6 0.410328 0.901919 0.749153
Si Si7 0.081495 0.735328 0.435224
Si Si8 0.179175 0.034952 0.322202
O O1 0.468871 0.598466 0.035414
O O2 0.663079 0.610424 0.166681
O O3 0.819997 0.635820 0.864938
O O4 0.787388 0.846035 0.856298
O O5 0.869914 0.436767 0.854791
O O6 0.836344 0.296170 0.710926
O O7 0.123284 0.375331 0.731779
O O8 0.742749 0.162465 0.041354
O O9 0.599676 0.353808 0.393601
O O10 0.700064 0.205043 0.285580
O O11 0.814174 0.274566 0.465977
O O12 0.451567 0.063256 0.632350
O O13 0.846359 0.610348 0.609401
O O14 0.500000 0.500000 0.500000
O O15 0.617552 0.913622 0.695615
O O16 0.113248 0.891752 0.329806
O O17 0.000000 0.000000 0.500000
#
# Coordination Sequence:
#
# PCOD8027138 Si02
#       8
#     2   2   2   2   2   2   2   2
#     4  11  25  41  68 102 135 174 224 282 334 397
#     4  12  25  43  69  98 137 177 228 274 335 404
#     4  10  24  44  68  95 133 172 224 278 327 401
#     4  11  22  42  68  97 132 175 225 272 330 404
#     4  12  28  42  65 101 141 176 221 281 342 390
#     4  10  24  44  69  99 127 176 230 274 330 403
#     4  11  24  41  70  97 128 182 225 274 332 399
#     4  11  23  43  69  97 135 175 225 278 333 398
#
# _framework density 21.593664
#
# number of rings (size 3 to 8) (size 9 to 14) (size 15 to 20)
#    0.000    1.000    3.750    1.875    5.250    6.000 
#    0.000    1.250    0.000    0.000    0.000    0.000 
#    0.000    0.000    0.000    0.000    0.000    0.000 
#
# Total GULP energy -198348.892340 kJ/mol
# GULP energy per Si atom -12396.805771 kJ/mol
# Density = 2.154452 g / cm^3
# Si number density = 21.593664 Si / 1000 Ang^3
#
#
#
# Elastic Constant Matrix: (Units=GPa)
#
#
# Indices 1 2 3 4 5 6 
#
# 1 78.2452 15.6229 38.9096 -3.0896 -7.1459 -7.3304
# 2 15.6229 70.5942 43.9572 -20.7755 1.1207 -17.0708
# 3 38.9096 43.9572 172.3171 -7.4639 2.4739 -10.0970
# 4 -3.0896 -20.7755 -7.4639 42.5432 -6.6889 9.3183
# 5 -7.1459 1.1207 2.4739 -6.6889 38.5386 -6.7283
# 6 -7.3304 -17.0708 -10.0970 9.3183 -6.7283 30.6346
#
#
#
# Elastic Compliance Matrix: (Units=1/GPa)
#
#
# Indices 1 2 3 4 5 6 
#
# 1 0.015064 -0.000724 -0.003091 0.000114 0.003543 0.002926
# 2 -0.000724 0.021547 -0.004521 0.008223 0.002418 0.008374
# 3 -0.003091 -0.004521 0.007583 -0.001148 -0.001247 -0.000684
# 4 0.000114 0.008223 -0.001148 0.028779 0.004223 -0.003595
# 5 0.003543 0.002418 -0.001247 0.004223 0.028529 0.006766
# 6 0.002926 0.008374 -0.000684 -0.003595 0.006766 0.040363
#
#
# Mechanical properties :
#
#
# Convention : Reuss Voigt Hill
#
# Bulk Modulus (GPa) = 36.33524 57.57066 46.95295
# Shear Modulus (GPa) = 29.81300 37.18775 33.50037
#
# Velocity S-wave (km/s) = 3.71972 4.15439 3.94305
# Velocity P-wave (km/s) = 5.94237 7.05200 6.52083
#
# Compressibility (1/GPa) = 0.02752149
#
# Stress axis : x y z
#
# Youngs Moduli (GPa) = 66.38172 46.40981 131.88022
#
# Poissons Ratio (x) = 0.03360 0.40769
# Poissons Ratio (y) = 0.04806 0.59623
# Poissons Ratio (z) = 0.20521 0.20982
#
# Static dielectric constant tensor:
#      x y z
#    x 3.535940 -0.307470 0.144970 
#    y -0.307470 3.841120 -0.047810 
#    z 0.144970 -0.047810 3.937910 
# 
# 
# High freq. dielectric constant tensor:
#      x y z
#    x 1.832660 -0.005310 -0.002370 
#    y -0.005310 1.850190 -0.016360 
#    z -0.002370 -0.016360 1.866560 
# 
# From -- ./inp_files/185795.got.cif
#   From: 2010.06.25/outbox.cif.g09.slc.cpg/sg2_93_cif.got.tgz:185795.got - 2010.06.27 13:26:56.
