data_PCOD8027388
_publ_section_title
;
Structure prediction by ZEFSAII (Michael W. Deem and Ramdas Pophale) SiO2 
 PCOD8027388
Probable space group: P -1
;
_chemical_formula_sum "Si O2"
_cell_formula_units_Z 16
_cell_length_a 13.989661
_cell_length_b 7.930431
_cell_length_c 9.940116
_cell_angle_alpha 73.976199
_cell_angle_beta 137.946999
_cell_angle_gamma 104.370587
_cell_volume 708.370893
_symmetry_space_group_name_H-M "P -1"
_symmetry_group_IT_number 2
_symmetry_cell_setting 'triclinic'
loop_
_space_group_symop_operation_xyz
x,y,z
-x,-y,-z
loop_
_atom_site_type_symbol
_atom_site_label
_atom_site_fract_x
_atom_site_fract_y
_atom_site_fract_z
Si Si1 0.017783 0.757926 0.469586
Si Si2 0.416497 0.501240 0.547267
Si Si3 0.436709 0.120610 0.770779
Si Si4 0.887205 0.868109 0.565459
Si Si5 0.512025 0.777834 0.793746
Si Si6 0.339187 0.693718 0.872600
Si Si7 0.787180 0.637883 0.055966
Si Si8 0.131357 0.383360 0.161184
O O1 0.183332 0.723570 0.646365
O O2 0.947959 0.731414 0.550985
O O3 0.928704 0.631592 0.298140
O O4 0.005282 0.958106 0.363751
O O5 0.500000 0.500000 0.500000
O O6 0.450899 0.324050 0.698532
O O7 0.457378 0.687497 0.619015
O O8 0.250348 0.501683 0.338622
O O9 0.272800 0.086049 0.656411
O O10 0.465178 0.978046 0.715790
O O11 0.570053 0.125849 0.018182
O O12 0.897220 0.795361 0.743631
O O13 0.438849 0.648003 0.860579
O O14 0.686146 0.787095 0.972525
O O15 0.316572 0.541130 0.994827
O O16 0.826486 0.666750 0.935297
O O17 0.000000 0.500000 0.000000
#
# Coordination Sequence:
#
# PCOD8027388 Si02
#       8
#     2   2   2   2   2   2   2   2
#     4  11  25  42  68 102 141 180 235 283 352 414
#     4  11  24  48  67 102 142 181 237 288 343 422
#     4  11  24  44  72 101 142 179 232 290 350 411
#     4  10  24  45  67 101 142 181 227 300 337 415
#     4  12  25  42  71 103 137 184 230 287 353 407
#     4  12  24  43  72 105 139 181 233 290 353 412
#     4  12  26  44  67 105 137 184 236 285 345 422
#     4  11  25  45  71  95 140 188 228 286 355 408
#
# _framework density 22.587036000000001
#
# number of rings (size 3 to 8) (size 9 to 14) (size 15 to 20)
#    0.000    0.750    3.750    2.625    8.750    1.000 
#    0.000    0.000    0.000    0.000    0.000    0.000 
#    0.000    0.000    0.000    0.000    0.000    0.000 
#
# Total GULP energy -198286.985320 kJ/mol
# GULP energy per Si atom -12392.936583 kJ/mol
# Density = 2.253563 g / cm^3
# Si number density = 22.587036 Si / 1000 Ang^3
#
#
#
# Elastic Constant Matrix: (Units=GPa)
#
#
# Indices 1 2 3 4 5 6 
#
# 1 159.4973 31.3723 52.5662 -0.7756 -6.8900 -2.8848
# 2 31.3723 73.9069 33.9774 22.4075 1.4721 -5.0469
# 3 52.5662 33.9774 99.6525 10.1906 5.5819 -3.1415
# 4 -0.7756 22.4075 10.1906 36.8262 -4.5383 1.6670
# 5 -6.8900 1.4721 5.5819 -4.5383 48.3645 -2.5858
# 6 -2.8848 -5.0469 -3.1415 1.6670 -2.5858 39.3977
#
#
#
# Elastic Compliance Matrix: (Units=1/GPa)
#
#
# Indices 1 2 3 4 5 6 
#
# 1 0.008156 -0.002696 -0.003814 0.003113 0.001973 -0.000054
# 2 -0.002696 0.020280 -0.004152 -0.011541 -0.001473 0.002461
# 3 -0.003814 -0.004152 0.013757 -0.001635 -0.002147 0.000214
# 4 0.003113 -0.011541 -0.001635 0.035325 0.004159 -0.002602
# 5 0.001973 -0.001473 -0.002147 0.004159 0.021696 0.001033
# 6 -0.000054 0.002461 0.000214 -0.002602 0.001033 0.025888
#
#
# Mechanical properties :
#
#
# Convention : Reuss Voigt Hill
#
# Bulk Modulus (GPa) = 47.91796 63.20983 55.56390
# Shear Modulus (GPa) = 32.59828 39.26040 35.92934
#
# Velocity S-wave (km/s) = 3.80311 4.17368 3.99269
# Velocity P-wave (km/s) = 6.36755 7.16044 6.77560
#
# Compressibility (1/GPa) = 0.02086900
#
# Stress axis : x y z
#
# Youngs Moduli (GPa) = 122.60487 49.30920 72.69221
#
# Poissons Ratio (x) = 0.13292 0.27724
# Poissons Ratio (y) = 0.33051 0.30185
# Poissons Ratio (z) = 0.46760 0.20475
#
# Static dielectric constant tensor:
#      x y z
#    x 4.179110 0.337810 0.167130 
#    y 0.337810 3.315130 0.017750 
#    z 0.167130 0.017750 4.270170 
# 
# 
# High freq. dielectric constant tensor:
#      x y z
#    x 1.902310 0.007030 0.017810 
#    y 0.007030 1.889980 0.002800 
#    z 0.017810 0.002800 1.897520 
# 
# From -- ./inp_files/244248.got.cif
#   From: 2010.06.25/outbox.cif.g09.slc.cpg/sg2_123_cif.got.tgz:244248.got - 2010.06.27 13:26:56.
