data_PCOD8027440
_publ_section_title
;
Structure prediction by ZEFSAII (Michael W. Deem and Ramdas Pophale) SiO2 
 PCOD8027440
Probable space group: P -1
;
_chemical_formula_sum "Si O2"
_cell_formula_units_Z 14
_cell_length_a 8.782842
_cell_length_b 24.686980
_cell_length_c 9.259232
_cell_angle_alpha 29.526502
_cell_angle_beta 45.738265
_cell_angle_gamma 37.571119
_cell_volume 603.053256
_symmetry_space_group_name_H-M "P -1"
_symmetry_group_IT_number 2
_symmetry_cell_setting 'triclinic'
loop_
_space_group_symop_operation_xyz
x,y,z
-x,-y,-z
loop_
_atom_site_type_symbol
_atom_site_label
_atom_site_fract_x
_atom_site_fract_y
_atom_site_fract_z
Si Si1 0.692654 0.934808 0.653862
Si Si2 0.293726 0.531812 0.391198
Si Si3 0.626925 0.848959 0.444243
Si Si4 0.712134 0.577804 0.054771
Si Si5 0.235555 0.243341 0.739035
Si Si6 0.535720 0.610655 0.655605
Si Si7 0.023626 0.866179 0.340810
O O1 0.956807 0.876580 0.533212
O O2 0.500000 0.000000 0.500000
O O3 0.638601 0.036578 0.582399
O O4 0.666888 0.826430 0.008067
O O5 0.541528 0.536690 0.176781
O O6 0.331475 0.439116 0.711565
O O7 0.259741 0.462013 0.437886
O O8 0.064217 0.675284 0.245496
O O9 0.670744 0.857659 0.222869
O O10 0.846945 0.844961 0.400472
O O11 0.607018 0.726227 0.762136
O O12 0.000000 0.500000 0.000000
O O13 0.337782 0.340555 0.425455
O O14 0.293050 0.736378 0.455695
O O15 0.500000 0.500000 0.000000
O O16 0.000000 0.000000 0.000000
#
# Coordination Sequence:
#
# PCOD8027440 Si02
#       7
#     2   2   2   2   2   2   2
#     4  10  24  45  68  98 137 190 237 294 359 427
#     4  11  26  41  72 105 147 190 235 293 367 426
#     4  11  24  43  76  97 145 184 241 300 359 424
#     4  11  23  45  70 108 144 186 239 295 361 434
#     4  12  25  46  70 110 144 182 248 296 365 432
#     4  12  26  43  70 104 150 194 241 302 364 434
#     4  11  26  46  71 103 139 193 249 295 366 435
#
# _framework density 23.215198000000001
#
# number of rings (size 3 to 8) (size 9 to 14) (size 15 to 20)
#    0.000    0.857    1.429    5.143   10.000    0.000 
#    0.000    2.143    0.000    0.000    0.000    0.000 
#    0.000    0.000    0.000    0.000    0.000    0.000 
#
# Total GULP energy -173463.280971 kJ/mol
# GULP energy per Si atom -12390.234355 kJ/mol
# Density = 2.316236 g / cm^3
# Si number density = 23.215198 Si / 1000 Ang^3
#
#
#
# Elastic Constant Matrix: (Units=GPa)
#
#
# Indices 1 2 3 4 5 6 
#
# 1 84.0233 40.5464 19.5971 17.9256 0.4022 13.4920
# 2 40.5464 149.3744 33.8963 12.8478 -5.2495 28.0909
# 3 19.5971 33.8963 140.0232 11.0546 5.1401 6.5020
# 4 17.9256 12.8478 11.0546 31.4604 -6.5814 0.1030
# 5 0.4022 -5.2495 5.1401 -6.5814 29.2286 1.9022
# 6 13.4920 28.0909 6.5020 0.1030 1.9022 39.7620
#
#
#
# Elastic Compliance Matrix: (Units=1/GPa)
#
#
# Indices 1 2 3 4 5 6 
#
# 1 0.015656 -0.002935 -0.000631 -0.007956 -0.002227 -0.003009
# 2 -0.002935 0.008969 -0.001514 -0.001018 0.002026 -0.005187
# 3 -0.000631 -0.001514 0.007846 -0.002230 -0.002152 0.000109
# 4 -0.007956 -0.001018 -0.002230 0.039386 0.008976 0.003252
# 5 -0.002227 0.002026 -0.002152 0.008976 0.037145 -0.002124
# 6 -0.003009 -0.005187 0.000109 0.003252 -0.002124 0.029911
#
#
# Mechanical properties :
#
#
# Convention : Reuss Voigt Hill
#
# Bulk Modulus (GPa) = 44.81753 62.38895 53.60324
# Shear Modulus (GPa) = 31.94703 38.71560 35.33132
#
# Velocity S-wave (km/s) = 3.71364 4.08816 3.90539
# Velocity P-wave (km/s) = 6.14291 7.01545 6.59363
#
# Compressibility (1/GPa) = 0.02231270
#
# Stress axis : x y z
#
# Youngs Moduli (GPa) = 63.87325 111.49674 127.44713
#
# Poissons Ratio (x) = 0.32720 0.08044
# Poissons Ratio (y) = 0.18744 0.19290
# Poissons Ratio (z) = 0.04031 0.16876
#
# Static dielectric constant tensor:
#      x y z
#    x 4.324200 0.285620 0.203980 
#    y 0.285620 4.783920 0.588480 
#    z 0.203980 0.588480 3.897370 
# 
# 
# High freq. dielectric constant tensor:
#      x y z
#    x 1.904310 0.013590 0.008480 
#    y 0.013590 1.937450 0.003810 
#    z 0.008480 0.003810 1.931870 
# 
# From -- ./inp_files/187121.got.cif
#   From: 2010.06.25/outbox.cif.g09.slc.cpg/sg2_94_cif.got.tgz:187121.got - 2010.06.27 13:26:56.
