data_PCOD8027625
_publ_section_title
;
Structure prediction by ZEFSAII (Michael W. Deem and Ramdas Pophale) SiO2 
 PCOD8027625
Probable space group: P -1
;
_chemical_formula_sum "Si O2"
_cell_formula_units_Z 14
_cell_length_a 22.540359
_cell_length_b 11.506760
_cell_length_c 14.276235
_cell_angle_alpha 30.766499
_cell_angle_beta 21.795864
_cell_angle_gamma 30.659714
_cell_volume 664.279039
_symmetry_space_group_name_H-M "P -1"
_symmetry_group_IT_number 2
_symmetry_cell_setting 'triclinic'
loop_
_space_group_symop_operation_xyz
x,y,z
-x,-y,-z
loop_
_atom_site_type_symbol
_atom_site_label
_atom_site_fract_x
_atom_site_fract_y
_atom_site_fract_z
Si Si1 0.028877 0.888631 0.290569
Si Si2 0.541784 0.113528 0.077807
Si Si3 0.857922 0.230909 0.590024
Si Si4 0.321432 0.152358 0.114875
Si Si5 0.883656 0.645224 0.148810
Si Si6 0.292503 0.526750 0.039095
Si Si7 0.521956 0.858806 0.469161
O O1 0.138694 0.783636 0.293726
O O2 0.105754 0.686959 0.237751
O O3 0.829278 0.943945 0.562101
O O4 0.062973 0.134007 0.042900
O O5 0.378536 0.295658 0.139369
O O6 0.474941 0.028530 0.329247
O O7 0.670915 0.255163 0.813587
O O8 0.648898 0.882368 0.016535
O O9 0.887231 0.478249 0.348250
O O10 0.000000 0.000000 0.500000
O O11 0.273811 0.427524 0.030581
O O12 0.500000 0.000000 0.000000
O O13 0.716505 0.708148 0.287575
O O14 0.000000 0.500000 0.000000
O O15 0.408394 0.690906 0.749145
O O16 0.500000 0.000000 0.500000
#
# Coordination Sequence:
#
# PCOD8027625 Si02
#       7
#     2   2   2   2   2   2   2
#     4  12  24  42  67  97 131 168 219 272 328 381
#     4  11  22  42  66  96 135 170 217 265 325 385
#     4  12  21  38  65 100 128 163 213 270 328 383
#     4  10  24  46  67  90 127 181 225 266 317 384
#     4  12  23  37  64  99 133 164 207 270 326 388
#     4  11  25  42  67  93 136 178 215 265 320 392
#     4  12  24  41  64 102 136 166 211 268 338 385
#
# _framework density 21.075481
#
# number of rings (size 3 to 8) (size 9 to 14) (size 15 to 20)
#    0.000    0.571    7.143    0.429    4.000    1.714 
#    0.000    2.857    0.000    6.000    0.000    0.000 
#    0.000    0.000    0.000    0.000    0.000    0.000 
#
# Total GULP energy -173538.571527 kJ/mol
# GULP energy per Si atom -12395.612252 kJ/mol
# Density = 2.102751 g / cm^3
# Si number density = 21.075481 Si / 1000 Ang^3
#
#
#
# Elastic Constant Matrix: (Units=GPa)
#
#
# Indices 1 2 3 4 5 6 
#
# 1 86.6646 41.8445 47.1610 -12.3874 11.0985 20.4064
# 2 41.8445 111.6429 42.5401 -4.3907 17.0968 18.5309
# 3 47.1610 42.5401 93.0926 -10.0939 8.8759 7.3099
# 4 -12.3874 -4.3907 -10.0939 49.7132 -4.7288 -0.6708
# 5 11.0985 17.0968 8.8759 -4.7288 38.1146 3.5569
# 6 20.4064 18.5309 7.3099 -0.6708 3.5569 43.5642
#
#
#
# Elastic Compliance Matrix: (Units=1/GPa)
#
#
# Indices 1 2 3 4 5 6 
#
# 1 0.019032 -0.002940 -0.007357 0.002754 -0.001584 -0.006258
# 2 -0.002940 0.012518 -0.003724 -0.000776 -0.003705 -0.003032
# 3 -0.007357 -0.003724 0.016112 0.001139 -0.000017 0.002346
# 4 0.002754 -0.000776 0.001139 0.021141 0.001996 -0.000988
# 5 -0.001584 -0.003705 -0.000017 0.001996 0.028610 0.000016
# 6 -0.006258 -0.003032 0.002346 -0.000988 0.000016 0.026766
#
#
# Mechanical properties :
#
#
# Convention : Reuss Voigt Hill
#
# Bulk Modulus (GPa) = 50.96893 61.61015 56.28954
# Shear Modulus (GPa) = 31.49400 36.93536 34.21468
#
# Velocity S-wave (km/s) = 3.86987 4.19086 4.03356
# Velocity P-wave (km/s) = 6.64863 7.26046 6.96127
#
# Compressibility (1/GPa) = 0.01961979
#
# Stress axis : x y z
#
# Youngs Moduli (GPa) = 52.54310 79.88365 62.06714
#
# Poissons Ratio (x) = 0.23489 0.45663
# Poissons Ratio (y) = 0.15450 0.23111
# Poissons Ratio (z) = 0.38656 0.29745
#
# Static dielectric constant tensor:
#      x y z
#    x 3.321180 0.379680 -0.174660 
#    y 0.379680 4.037060 0.124930 
#    z -0.174660 0.124930 3.816350 
# 
# 
# High freq. dielectric constant tensor:
#      x y z
#    x 1.816880 0.014720 -0.003770 
#    y 0.014720 1.832250 0.012630 
#    z -0.003770 0.012630 1.835680 
# 
# From -- ./inp_files/255737.got.cif
#   From: 2010.06.25/outbox.cif.g09.slc.cpg/sg2_128_cif.got.tgz:255737.got - 2010.06.27 13:26:56.
