data_PCOD8027092
_publ_section_title
;
Structure prediction by ZEFSAII (Michael W. Deem and Ramdas Pophale) SiO2 
 PCOD8027092
Probable space group: P -1
;
_chemical_formula_sum "Si O2"
_cell_formula_units_Z 14
_cell_length_a 20.355816
_cell_length_b 18.733037
_cell_length_c 8.432997
_cell_angle_alpha 32.848473
_cell_angle_beta 144.060650
_cell_angle_gamma 158.738252
_cell_volume 626.662441
_symmetry_space_group_name_H-M "P -1"
_symmetry_group_IT_number 2
_symmetry_cell_setting 'triclinic'
loop_
_space_group_symop_operation_xyz
x,y,z
-x,-y,-z
loop_
_atom_site_type_symbol
_atom_site_label
_atom_site_fract_x
_atom_site_fract_y
_atom_site_fract_z
Si Si1 0.528326 0.625153 0.679509
Si Si2 0.304059 0.447575 0.997967
Si Si3 0.913140 0.293303 0.020456
Si Si4 0.751691 0.520511 0.818020
Si Si5 0.483626 0.035096 0.224510
Si Si6 0.988711 0.322565 0.481016
Si Si7 0.400246 0.116719 0.402625
O O1 0.342655 0.467030 0.511864
O O2 0.585943 0.818315 0.509310
O O3 0.500000 0.500000 0.000000
O O4 0.684514 0.699936 0.736459
O O5 0.156396 0.377566 0.724302
O O6 0.504387 0.696363 0.886400
O O7 0.249173 0.416794 0.128247
O O8 0.707653 0.068798 0.983928
O O9 0.955920 0.484381 0.700195
O O10 0.040254 0.312093 0.135922
O O11 0.939948 0.292442 0.258981
O O12 0.646637 0.285675 0.043216
O O13 0.497837 0.928829 0.324942
O O14 0.500000 0.000000 0.500000
O O15 0.814256 0.103265 0.645920
#
# Coordination Sequence:
#
# PCOD8027092 Si02
#       7
#     2   2   2   2   2   2   2
#     4  10  24  44  67  91 128 177 223 259 313 382
#     4  11  24  44  65  93 132 173 217 263 317 382
#     4  11  24  37  63 100 132 167 212 263 329 391
#     4  12  24  41  70  96 133 169 212 270 327 380
#     4  12  24  40  66 102 138 162 209 270 335 385
#     4  11  23  39  65  95 133 168 215 265 323 384
#     4  11  22  42  66  93 129 171 210 266 320 378
#
# _framework density 22.340575999999999
#
# number of rings (size 3 to 8) (size 9 to 14) (size 15 to 20)
#    0.000    0.857    4.286    3.000    4.000    2.857 
#    0.000    2.857    0.000    6.857    0.000    0.000 
#    0.000    0.000    0.000    0.000    0.000    0.000 
#
# Total GULP energy -173615.586794 kJ/mol
# GULP energy per Si atom -12401.113342 kJ/mol
# Density = 2.228973 g / cm^3
# Si number density = 22.340576 Si / 1000 Ang^3
#
#
#
# Elastic Constant Matrix: (Units=GPa)
#
#
# Indices 1 2 3 4 5 6 
#
# 1 143.2711 21.9044 46.4283 16.5359 28.8864 3.0127
# 2 21.9044 79.4047 23.7151 13.2221 5.4610 14.7187
# 3 46.4283 23.7151 101.2039 29.8859 9.2310 2.5542
# 4 16.5359 13.2221 29.8859 30.7128 8.1605 -2.9324
# 5 28.8864 5.4610 9.2310 8.1605 38.9988 6.9291
# 6 3.0127 14.7187 2.5542 -2.9324 6.9291 33.5199
#
#
#
# Elastic Compliance Matrix: (Units=1/GPa)
#
#
# Indices 1 2 3 4 5 6 
#
# 1 0.009601 -0.001526 -0.003808 0.001064 -0.006491 0.001532
# 2 -0.001526 0.015631 -0.001177 -0.005961 0.001806 -0.007531
# 3 -0.003808 -0.001177 0.015753 -0.013624 0.002470 -0.002044
# 4 0.001064 -0.005961 -0.013624 0.051207 -0.009210 0.009944
# 5 -0.006491 0.001806 0.002470 -0.009210 0.032964 -0.008018
# 6 0.001532 -0.007531 -0.002044 0.009944 -0.008018 0.035685
#
#
# Mechanical properties :
#
#
# Convention : Reuss Voigt Hill
#
# Bulk Modulus (GPa) = 35.76134 56.44171 46.10152
# Shear Modulus (GPa) = 27.29515 36.10175 31.69845
#
# Velocity S-wave (km/s) = 3.49918 4.02428 3.77088
# Velocity P-wave (km/s) = 5.68927 6.84924 6.29603
#
# Compressibility (1/GPa) = 0.02796316
#
# Stress axis : x y z
#
# Youngs Moduli (GPa) = 104.15885 63.97676 63.47992
#
# Poissons Ratio (x) = 0.09763 0.24171
# Poissons Ratio (y) = 0.15895 0.07471
# Poissons Ratio (z) = 0.39660 0.07530
#
# Static dielectric constant tensor:
#      x y z
#    x 4.633260 0.004280 0.453000 
#    y 0.004280 4.044610 0.071360 
#    z 0.453000 0.071360 4.229690 
# 
# 
# High freq. dielectric constant tensor:
#      x y z
#    x 1.893060 0.007060 0.007460 
#    y 0.007060 1.869250 0.009350 
#    z 0.007460 0.009350 1.875150 
# 
# From -- ./inp_files/255989.got.cif
#   From: 2010.06.25/outbox.cif.g09.slc.cpg/sg2_128_cif.got.tgz:255989.got - 2010.06.27 13:26:56.
