data_PCOD8027576
_publ_section_title
;
Structure prediction by ZEFSAII (Michael W. Deem and Ramdas Pophale) SiO2 
 PCOD8027576
Probable space group: P -1
;
_chemical_formula_sum "Si O2"
_cell_formula_units_Z 14
_cell_length_a 16.834550
_cell_length_b 8.412406
_cell_length_c 8.790453
_cell_angle_alpha 115.898370
_cell_angle_beta 60.242765
_cell_angle_gamma 149.765960
_cell_volume 544.097836
_symmetry_space_group_name_H-M "P -1"
_symmetry_group_IT_number 2
_symmetry_cell_setting 'triclinic'
loop_
_space_group_symop_operation_xyz
x,y,z
-x,-y,-z
loop_
_atom_site_type_symbol
_atom_site_label
_atom_site_fract_x
_atom_site_fract_y
_atom_site_fract_z
Si Si1 0.877634 0.679096 0.846604
Si Si2 0.873711 0.136862 0.459259
Si Si3 0.366545 0.235410 0.181723
Si Si4 0.136794 0.606692 0.995849
Si Si5 0.312061 0.622085 0.661454
Si Si6 0.377478 0.645725 0.284506
Si Si7 0.699413 0.674589 0.203010
O O1 0.897935 0.531718 0.863320
O O2 0.711103 0.399004 0.790030
O O3 0.030838 0.902668 0.675476
O O4 0.854271 0.823430 0.029590
O O5 0.000000 0.500000 0.500000
O O6 0.762357 0.950577 0.635731
O O7 0.760293 0.959480 0.338267
O O8 0.391079 0.457874 0.161658
O O9 0.543908 0.450803 0.152249
O O10 0.297535 0.985945 0.020651
O O11 0.153292 0.466828 0.810055
O O12 0.000000 0.500000 0.000000
O O13 0.273023 0.499235 0.477210
O O14 0.362796 0.540292 0.685056
O O15 0.450469 0.992008 0.696365
#
# Coordination Sequence:
#
# PCOD8027576 Si02
#       7
#     2   2   2   2   2   2   2
#     4  11  26  47  74 104 150 191 241 297 374 424
#     4  12  26  45  74 114 144 190 241 309 362 428
#     4  12  26  47  76 111 145 194 247 302 360 432
#     4  11  26  48  72 106 148 193 240 303 363 436
#     4  10  24  45  73 106 147 190 243 300 362 428
#     4  11  25  43  73 109 145 189 246 301 359 433
#     4  11  25  50  78 103 148 197 247 293 362 441
#
# _framework density 25.730665999999999
#
# number of rings (size 3 to 8) (size 9 to 14) (size 15 to 20)
#    0.000    0.857    2.857    2.571    2.000   10.857 
#    0.000    0.000    0.000    0.000    0.000    0.000 
#    0.000    0.000    0.000    0.000    0.000    0.000 
#
# Total GULP energy -173484.191262 kJ/mol
# GULP energy per Si atom -12391.727947 kJ/mol
# Density = 2.567210 g / cm^3
# Si number density = 25.730666 Si / 1000 Ang^3
#
#
#
# Elastic Constant Matrix: (Units=GPa)
#
#
# Indices 1 2 3 4 5 6 
#
# 1 168.7835 34.6851 35.8435 3.2599 14.5015 7.9872
# 2 34.6851 86.6786 13.6266 16.0608 -3.1382 -1.1032
# 3 35.8435 13.6266 114.4668 9.5599 -6.0505 -6.9503
# 4 3.2599 16.0608 9.5599 53.9949 3.1771 -0.4637
# 5 14.5015 -3.1382 -6.0505 3.1771 37.8977 2.5076
# 6 7.9872 -1.1032 -6.9503 -0.4637 2.5076 27.3862
#
#
#
# Elastic Compliance Matrix: (Units=1/GPa)
#
#
# Indices 1 2 3 4 5 6 
#
# 1 0.007431 -0.002943 -0.002397 0.001028 -0.003386 -0.002567
# 2 -0.002943 0.013580 -0.000167 -0.003969 0.002486 0.001068
# 3 -0.002397 -0.000167 0.009957 -0.001686 0.002438 0.002968
# 4 0.001028 -0.003969 -0.001686 0.020091 -0.002655 -0.000304
# 5 -0.003386 0.002486 0.002438 -0.002655 0.028563 -0.000954
# 6 -0.002567 0.001068 0.002968 -0.000304 -0.000954 0.038142
#
#
# Mechanical properties :
#
#
# Convention : Reuss Voigt Hill
#
# Bulk Modulus (GPa) = 50.11829 59.80436 54.96133
# Shear Modulus (GPa) = 36.91966 42.90734 39.91350
#
# Velocity S-wave (km/s) = 3.79205 4.08800 3.94280
# Velocity P-wave (km/s) = 6.22039 6.75094 6.49109
#
# Compressibility (1/GPa) = 0.01995279
#
# Stress axis : x y z
#
# Youngs Moduli (GPa) = 134.56952 73.63940 100.43495
#
# Poissons Ratio (x) = 0.21669 0.24078
# Poissons Ratio (y) = 0.39597 0.01682
# Poissons Ratio (z) = 0.32261 0.01233
#
# Static dielectric constant tensor:
#      x y z
#    x 4.403870 -0.014350 -0.067340 
#    y -0.014350 4.823680 0.025920 
#    z -0.067340 0.025920 5.328900 
# 
# 
# High freq. dielectric constant tensor:
#      x y z
#    x 2.008520 0.005430 -0.004760 
#    y 0.005430 2.038030 0.004390 
#    z -0.004760 0.004390 2.064130 
# 
# From -- ./inp_files/329414.got.cif
#   From: 2010.06.25/outbox.cif.g09.slc.cpg/sg2_165_cif.got.tgz:329414.got - 2010.06.27 13:26:56.
