data_PCOD8027484
_publ_section_title
;
Structure prediction by ZEFSAII (Michael W. Deem and Ramdas Pophale) SiO2 
 PCOD8027484
Probable space group: P -1
;
_chemical_formula_sum "Si O2"
_cell_formula_units_Z 14
_cell_length_a 6.881437
_cell_length_b 13.958498
_cell_length_c 12.177655
_cell_angle_alpha 126.612562
_cell_angle_beta 53.115426
_cell_angle_gamma 88.453458
_cell_volume 601.023331
_symmetry_space_group_name_H-M "P -1"
_symmetry_group_IT_number 2
_symmetry_cell_setting 'triclinic'
loop_
_space_group_symop_operation_xyz
x,y,z
-x,-y,-z
loop_
_atom_site_type_symbol
_atom_site_label
_atom_site_fract_x
_atom_site_fract_y
_atom_site_fract_z
Si Si1 0.483522 0.871449 0.462085
Si Si2 0.275416 0.029044 0.860486
Si Si3 0.011684 0.599790 0.202851
Si Si4 0.431516 0.233164 0.000499
Si Si5 0.621835 0.303690 0.774415
Si Si6 0.769268 0.516272 0.413795
Si Si7 0.385017 0.817006 0.856271
O O1 0.292926 0.837360 0.424758
O O2 0.819746 0.717166 0.251100
O O3 0.500000 0.000000 0.500000
O O4 0.345011 0.915535 0.661357
O O5 0.394256 0.941109 0.875458
O O6 0.438046 0.107825 0.843938
O O7 0.915657 0.160438 0.071853
O O8 0.114494 0.674191 0.305466
O O9 0.814664 0.557398 0.304138
O O10 0.303809 0.455170 0.945864
O O11 0.634024 0.159679 0.990471
O O12 0.088072 0.367464 0.243638
O O13 0.583307 0.284172 0.903474
O O14 0.500000 0.500000 0.500000
O O15 0.678823 0.650963 0.616933
#
# Coordination Sequence:
#
# PCOD8027484 Si02
#       7
#     2   2   2   2   2   2   2
#     4  12  24  42  71  98 138 179 221 276 336 401
#     4  11  24  44  63  99 137 176 220 275 338 398
#     4  10  24  47  67 101 135 175 230 275 337 397
#     4  11  23  42  71  97 132 177 224 276 336 400
#     4  10  24  45  69  99 135 175 225 281 331 400
#     4  11  22  46  71  98 134 173 230 284 331 398
#     4  11  24  44  65  96 135 176 222 277 336 399
#
# _framework density 23.293604999999999
#
# number of rings (size 3 to 8) (size 9 to 14) (size 15 to 20)
#    0.000    1.143    4.286    1.286    2.000    1.714 
#   15.429    0.000    0.000    0.000    0.000    0.000 
#    0.000    0.000    0.000    0.000    0.000    0.000 
#
# Total GULP energy -173592.039501 kJ/mol
# GULP energy per Si atom -12399.431393 kJ/mol
# Density = 2.324059 g / cm^3
# Si number density = 23.293605 Si / 1000 Ang^3
#
#
#
# Elastic Constant Matrix: (Units=GPa)
#
#
# Indices 1 2 3 4 5 6 
#
# 1 75.8378 49.0735 31.9798 8.0645 8.1015 3.7511
# 2 49.0735 124.0863 20.6145 3.5493 -6.4769 -5.6284
# 3 31.9798 20.6145 60.7080 0.8736 17.5441 -5.1659
# 4 8.0645 3.5493 0.8736 31.7526 7.7680 -0.1713
# 5 8.1015 -6.4769 17.5441 7.7680 33.7048 -1.6574
# 6 3.7511 -5.6284 -5.1659 -0.1713 -1.6574 44.2862
#
#
#
# Elastic Compliance Matrix: (Units=1/GPa)
#
#
# Indices 1 2 3 4 5 6 
#
# 1 0.022872 -0.007610 -0.009383 -0.004414 -0.001259 -0.004063
# 2 -0.007610 0.011631 -0.001164 -0.000521 0.004897 0.002168
# 3 -0.009383 -0.001164 0.025543 0.004816 -0.012217 0.003188
# 4 -0.004414 -0.000521 0.004816 0.034881 -0.009554 0.000647
# 5 -0.001259 0.004897 -0.012217 -0.009554 0.039511 0.000746
# 6 -0.004063 0.002168 0.003188 0.000647 0.000746 0.023602
#
#
# Mechanical properties :
#
#
# Convention : Reuss Voigt Hill
#
# Bulk Modulus (GPa) = 42.13714 51.55196 46.84455
# Shear Modulus (GPa) = 24.72016 32.54631 28.63324
#
# Velocity S-wave (km/s) = 3.26121 3.74200 3.50984
# Velocity P-wave (km/s) = 5.68414 6.39136 6.04810
#
# Compressibility (1/GPa) = 0.02373203
#
# Stress axis : x y z
#
# Youngs Moduli (GPa) = 43.72149 85.97841 39.15009
#
# Poissons Ratio (x) = 0.65433 0.36734
# Poissons Ratio (y) = 0.33274 0.04555
# Poissons Ratio (z) = 0.41023 0.10004
#
# Static dielectric constant tensor:
#      x y z
#    x 3.948840 0.031290 -0.042070 
#    y 0.031290 4.206720 0.241170 
#    z -0.042070 0.241170 4.134540 
# 
# 
# High freq. dielectric constant tensor:
#      x y z
#    x 1.908200 0.001930 -0.000700 
#    y 0.001930 1.929030 0.016630 
#    z -0.000700 0.016630 1.917160 
# 
# From -- ./inp_files/53492.got.cif
#   From: 2010.06.25/outbox.cif.g09.slc.cpg/sg2_27_cif.got.tgz:53492.got - 2010.06.27 13:26:56.
