data_PCOD8027597
_publ_section_title
;
Structure prediction by ZEFSAII (Michael W. Deem and Ramdas Pophale) SiO2 
 PCOD8027597
Probable space group: P -1
;
_chemical_formula_sum "Si O2"
_cell_formula_units_Z 16
_cell_length_a 14.499065
_cell_length_b 8.978216
_cell_length_c 9.012362
_cell_angle_alpha 49.078865
_cell_angle_beta 64.012522
_cell_angle_gamma 94.816030
_cell_volume 667.493295
_symmetry_space_group_name_H-M "P -1"
_symmetry_group_IT_number 2
_symmetry_cell_setting 'triclinic'
loop_
_space_group_symop_operation_xyz
x,y,z
-x,-y,-z
loop_
_atom_site_type_symbol
_atom_site_label
_atom_site_fract_x
_atom_site_fract_y
_atom_site_fract_z
Si Si1 0.731834 0.043782 0.178882
Si Si2 0.292493 0.547760 0.160475
Si Si3 0.643047 0.651536 0.267256
Si Si4 0.897861 0.938128 0.497238
Si Si5 0.312352 0.045096 0.231306
Si Si6 0.982663 0.331606 0.981635
Si Si7 0.532910 0.839850 0.674899
Si Si8 0.241400 0.563656 0.511584
O O1 0.862424 0.243897 0.024240
O O2 0.731058 0.883922 0.152496
O O3 0.639608 0.850189 0.493963
O O4 0.683529 0.195923 0.044457
O O5 0.173295 0.338868 0.300400
O O6 0.275749 0.481628 0.390183
O O7 0.411921 0.579065 0.970300
O O8 0.500000 0.500000 0.500000
O O9 0.697648 0.489019 0.357800
O O10 0.650532 0.726722 0.042166
O O11 0.811577 0.028083 0.548642
O O12 0.968076 0.091459 0.203799
O O13 0.000000 0.000000 0.500000
O O14 0.412419 0.069107 0.260089
O O15 0.294657 0.837830 0.274593
O O16 0.000000 0.500000 0.000000
O O17 0.097404 0.446216 0.715673
O O18 0.500000 0.000000 0.500000
#
# Coordination Sequence:
#
# PCOD8027597 Si02
#       8
#     2   2   2   2   2   2   2   2
#     4  11  24  48  73 111 152 199 251 320 383 450
#     4  11  26  45  75 110 147 199 255 311 385 451
#     4  12  29  46  76 115 156 200 257 313 389 460
#     4  12  26  45  72 109 147 200 258 305 382 463
#     4  12  26  49  76 111 154 199 250 317 383 453
#     4  12  24  47  74 104 149 199 256 314 380 451
#     4  10  24  45  78 105 149 196 253 307 384 450
#     4  12  27  48  77 109 154 202 250 319 383 451
#
# _framework density 23.970278
#
# number of rings (size 3 to 8) (size 9 to 14) (size 15 to 20)
#    0.000    0.500    3.750    3.000    5.250    7.000 
#    0.000    0.000    0.000    0.000    0.000    0.000 
#    0.000    0.000    0.000    0.000    0.000    0.000 
#
# Total GULP energy -198260.499266 kJ/mol
# GULP energy per Si atom -12391.281204 kJ/mol
# Density = 2.391572 g / cm^3
# Si number density = 23.970278 Si / 1000 Ang^3
#
#
#
# Elastic Constant Matrix: (Units=GPa)
#
#
# Indices 1 2 3 4 5 6 
#
# 1 121.7648 21.2055 45.5171 9.2624 2.4450 25.3140
# 2 21.2055 77.9951 23.9564 1.7443 2.7719 14.4126
# 3 45.5171 23.9564 142.7732 14.7083 0.8686 10.8356
# 4 9.2624 1.7443 14.7083 36.2837 1.6580 1.0079
# 5 2.4450 2.7719 0.8686 1.6580 35.8877 -3.0151
# 6 25.3140 14.4126 10.8356 1.0079 -3.0151 36.4403
#
#
#
# Elastic Compliance Matrix: (Units=1/GPa)
#
#
# Indices 1 2 3 4 5 6 
#
# 1 0.010827 -0.000865 -0.002666 -0.001413 -0.001082 -0.006437
# 2 -0.000865 0.014538 -0.001844 0.000467 -0.001438 -0.004733
# 3 -0.002666 -0.001844 0.008423 -0.002662 0.000258 0.000171
# 4 -0.001413 0.000467 -0.002662 0.029012 -0.001158 0.000691
# 5 -0.001082 -0.001438 0.000258 -0.001158 0.028401 0.003626
# 6 -0.006437 -0.004733 0.000171 0.000691 0.003626 0.034015
#
#
# Mechanical properties :
#
#
# Convention : Reuss Voigt Hill
#
# Bulk Modulus (GPa) = 43.40567 58.21012 50.80789
# Shear Modulus (GPa) = 34.80780 38.51262 36.66021
#
# Velocity S-wave (km/s) = 3.81481 4.01269 3.91500
# Velocity P-wave (km/s) = 6.12790 6.76801 6.45589
#
# Compressibility (1/GPa) = 0.02303847
#
# Stress axis : x y z
#
# Youngs Moduli (GPa) = 92.36005 68.78475 118.72247
#
# Poissons Ratio (x) = 0.05953 0.31650
# Poissons Ratio (y) = 0.07993 0.21888
# Poissons Ratio (z) = 0.24622 0.12681
#
# Static dielectric constant tensor:
#      x y z
#    x 4.540730 -0.005670 -0.123730 
#    y -0.005670 4.097460 0.129340 
#    z -0.123730 0.129340 4.624210 
# 
# 
# High freq. dielectric constant tensor:
#      x y z
#    x 1.957960 0.009250 0.002270 
#    y 0.009250 1.935900 -0.001510 
#    z 0.002270 -0.001510 1.973920 
# 
# From -- ./inp_files/297399.got.cif
#   From: 2010.06.25/outbox.cif.g09.slc.cpg/sg2_149_cif.got.tgz:297399.got - 2010.06.27 13:26:56.
