data_PCOD8027697
_publ_section_title
;
Structure prediction by ZEFSAII (Michael W. Deem and Ramdas Pophale) SiO2 
 PCOD8027697
Probable space group: P -1
;
_chemical_formula_sum "Si O2"
_cell_formula_units_Z 14
_cell_length_a 14.829548
_cell_length_b 9.942043
_cell_length_c 12.444984
_cell_angle_alpha 157.394394
_cell_angle_beta 51.340385
_cell_angle_gamma 125.783515
_cell_volume 550.540176
_symmetry_space_group_name_H-M "P -1"
_symmetry_group_IT_number 2
_symmetry_cell_setting 'triclinic'
loop_
_space_group_symop_operation_xyz
x,y,z
-x,-y,-z
loop_
_atom_site_type_symbol
_atom_site_label
_atom_site_fract_x
_atom_site_fract_y
_atom_site_fract_z
Si Si1 0.897574 0.713721 0.178662
Si Si2 0.261657 0.434343 0.996235
Si Si3 0.810431 0.630288 0.398684
Si Si4 0.485215 0.614846 0.268773
Si Si5 0.556911 0.643711 0.668223
Si Si6 0.899490 0.884122 0.734656
Si Si7 0.242665 0.616602 0.379992
O O1 0.815481 0.477573 0.986854
O O2 0.823452 0.845166 0.433925
O O3 0.963211 0.012477 0.276542
O O4 0.000000 0.500000 0.000000
O O5 0.394539 0.579387 0.989329
O O6 0.254617 0.013331 0.704725
O O7 0.211614 0.609110 0.270553
O O8 0.690952 0.712347 0.602834
O O9 0.900463 0.754878 0.514622
O O10 0.820607 0.219026 0.060770
O O11 0.465427 0.631433 0.423028
O O12 0.368962 0.437205 0.170582
O O13 0.500000 0.000000 0.500000
O O14 0.500000 0.500000 0.500000
O O15 0.500000 0.000000 0.000000
O O16 0.858049 0.581775 0.624091
#
# Coordination Sequence:
#
# PCOD8027697 Si02
#       7
#     2   2   2   2   2   2   2
#     4  10  25  46  71 101 140 188 237 297 353 422
#     4  11  25  43  68 102 139 183 237 290 354 428
#     4  11  23  44  69  96 140 183 234 281 364 422
#     4  10  24  46  71 104 144 191 234 295 366 437
#     4  12  26  42  70 107 144 185 240 299 359 434
#     4  11  23  42  71  99 134 183 238 285 353 419
#     4  11  24  43  70 101 140 182 233 292 358 428
#
# _framework density 25.429569999999998
#
# number of rings (size 3 to 8) (size 9 to 14) (size 15 to 20)
#    0.000    1.143    1.429    3.429    2.000   10.286 
#    0.000    0.000    0.000    0.000    0.000    0.000 
#    0.000    0.000    0.000    0.000    0.000    0.000 
#
# Total GULP energy -173550.868477 kJ/mol
# GULP energy per Si atom -12396.490606 kJ/mol
# Density = 2.537169 g / cm^3
# Si number density = 25.429570 Si / 1000 Ang^3
#
#
#
# Elastic Constant Matrix: (Units=GPa)
#
#
# Indices 1 2 3 4 5 6 
#
# 1 74.7730 33.9579 -4.6843 -11.4778 12.3884 -20.0429
# 2 33.9579 189.5653 21.3699 -25.1298 2.7761 -3.4258
# 3 -4.6843 21.3699 72.7398 -16.3653 15.0956 -4.3404
# 4 -11.4778 -25.1298 -16.3653 33.8540 -6.0017 7.4357
# 5 12.3884 2.7761 15.0956 -6.0017 40.5694 -11.6090
# 6 -20.0429 -3.4258 -4.3404 7.4357 -11.6090 51.2751
#
#
#
# Elastic Compliance Matrix: (Units=1/GPa)
#
#
# Indices 1 2 3 4 5 6 
#
# 1 0.017829 -0.002992 0.004178 0.003807 -0.004652 0.005517
# 2 -0.002992 0.006411 -0.001637 0.003418 0.001279 -0.001086
# 3 0.004178 -0.001637 0.017537 0.007431 -0.006456 0.000469
# 4 0.003807 0.003418 0.007431 0.037716 0.000561 -0.002997
# 5 -0.004652 0.001279 -0.006456 0.000561 0.029717 0.004367
# 6 0.005517 -0.001086 0.000469 -0.002997 0.004367 0.023050
#
#
# Mechanical properties :
#
#
# Convention : Reuss Voigt Hill
#
# Bulk Modulus (GPa) = 24.46540 48.70720 36.58630
# Shear Modulus (GPa) = 34.06293 44.23534 39.14914
#
# Velocity S-wave (km/s) = 3.66389 4.17528 3.92792
# Velocity P-wave (km/s) = 5.24791 6.51455 5.91523
#
# Compressibility (1/GPa) = 0.04087405
#
# Stress axis : x y z
#
# Youngs Moduli (GPa) = 56.08968 155.99257 57.02081
#
# Poissons Ratio (x) = 0.46678 -0.23825
# Poissons Ratio (y) = 0.16784 0.09336
# Poissons Ratio (z) = -0.23436 0.25541
#
# Static dielectric constant tensor:
#      x y z
#    x 4.798930 0.317880 -0.342690 
#    y 0.317880 5.178300 -0.093180 
#    z -0.342690 -0.093180 4.055060 
# 
# 
# High freq. dielectric constant tensor:
#      x y z
#    x 2.028420 0.004550 -0.001960 
#    y 0.004550 2.034480 -0.008330 
#    z -0.001960 -0.008330 2.003810 
# 
# From -- ./inp_files/446513.got.cif
#   From: 2010.06.25/outbox.cif.g09.slc.cpg/sg2_224_cif.got.tgz:446513.got - 2010.06.27 13:26:56.
