data_PCOD8027682
_publ_section_title
;
Structure prediction by ZEFSAII (Michael W. Deem and Ramdas Pophale) SiO2 
 PCOD8027682
Probable space group: P -1
;
_chemical_formula_sum "Si O2"
_cell_formula_units_Z 12
_cell_length_a 11.487663
_cell_length_b 8.065909
_cell_length_c 13.367247
_cell_angle_alpha 135.674119
_cell_angle_beta 134.128902
_cell_angle_gamma 38.363344
_cell_volume 510.304970
_symmetry_space_group_name_H-M "P -1"
_symmetry_group_IT_number 2
_symmetry_cell_setting 'triclinic'
loop_
_space_group_symop_operation_xyz
x,y,z
-x,-y,-z
loop_
_atom_site_type_symbol
_atom_site_label
_atom_site_fract_x
_atom_site_fract_y
_atom_site_fract_z
Si Si1 0.983214 0.274457 0.653131
Si Si2 0.668443 0.898768 0.475078
Si Si3 0.371070 0.902201 0.835890
Si Si4 0.959563 0.343043 0.298199
Si Si5 0.407395 0.243522 0.284207
Si Si6 0.674297 0.216808 0.032725
O O1 0.776684 0.446234 0.661253
O O2 0.982871 0.479058 0.657926
O O3 0.000000 0.000000 0.500000
O O4 0.158540 0.179017 0.794662
O O5 0.782932 0.564077 0.364368
O O6 0.843826 0.910257 0.635086
O O7 0.500000 0.000000 0.500000
O O8 0.571879 0.099715 0.407123
O O9 0.487620 0.707463 0.724283
O O10 0.347338 0.736238 0.839508
O O11 0.500000 0.000000 0.000000
O O12 0.878788 0.186523 0.117308
O O13 0.325097 0.051152 0.122815
O O14 0.500000 0.500000 0.000000
#
# Coordination Sequence:
#
# PCOD8027682 Si02
#       6
#     2   2   2   2   2   2
#     4  12  27  46  68 100 144 187 235 286 345 421
#     4  11  22  42  71 104 144 181 231 284 345 422
#     4  10  24  46  70  99 142 180 231 290 348 421
#     4  11  24  44  71 105 141 177 236 291 343 411
#     4  11  24  48  71 102 142 189 229 283 361 410
#     4  11  23  45  77 102 137 180 233 300 348 415
#
# _framework density 23.515350999999999
#
# number of rings (size 3 to 8) (size 9 to 14) (size 15 to 20)
#    0.000    1.000    5.000    1.000    4.667    4.000 
#    3.000    3.333    0.000    0.000    0.000    0.000 
#    0.000    0.000    0.000    0.000    0.000    0.000 
#
# Total GULP energy -148721.030826 kJ/mol
# GULP energy per Si atom -12393.419236 kJ/mol
# Density = 2.346183 g / cm^3
# Si number density = 23.515351 Si / 1000 Ang^3
#
#
#
# Elastic Constant Matrix: (Units=GPa)
#
#
# Indices 1 2 3 4 5 6 
#
# 1 119.8245 64.5742 27.7424 -6.3283 -24.4757 -3.6651
# 2 64.5742 145.2669 69.0406 -35.6942 -12.2841 -25.2515
# 3 27.7424 69.0406 113.1364 -35.4110 9.5917 5.3428
# 4 -6.3283 -35.6942 -35.4110 53.7249 0.4109 -0.3687
# 5 -24.4757 -12.2841 9.5917 0.4109 40.2239 -2.0416
# 6 -3.6651 -25.2515 5.3428 -0.3687 -2.0416 48.5071
#
#
#
# Elastic Compliance Matrix: (Units=1/GPa)
#
#
# Indices 1 2 3 4 5 6 
#
# 1 0.012683 -0.005625 -0.001068 -0.003006 0.006203 -0.001614
# 2 -0.005625 0.016132 -0.007621 0.005065 0.003727 0.009007
# 3 -0.001068 -0.007621 0.016424 0.005650 -0.007262 -0.006120
# 4 -0.003006 0.005065 0.005650 0.025376 -0.001792 0.001905
# 5 0.006203 0.003727 -0.007262 -0.001792 0.031753 0.004531
# 6 -0.001614 0.009007 -0.006120 0.001905 0.004531 0.026062
#
#
# Mechanical properties :
#
#
# Convention : Reuss Voigt Hill
#
# Bulk Modulus (GPa) = 60.19728 77.88247 69.03987
# Shear Modulus (GPa) = 30.75133 42.94922 36.85028
#
# Velocity S-wave (km/s) = 3.62015 4.27832 3.96292
# Velocity P-wave (km/s) = 6.56725 7.58927 7.09668
#
# Compressibility (1/GPa) = 0.01661205
#
# Stress axis : x y z
#
# Youngs Moduli (GPa) = 78.84556 61.98968 60.88490
#
# Poissons Ratio (x) = 0.34868 0.06502
# Poissons Ratio (y) = 0.44349 0.46399
# Poissons Ratio (z) = 0.08420 0.47241
#
# Static dielectric constant tensor:
#      x y z
#    x 5.220060 -0.123210 -0.090670 
#    y -0.123210 4.173140 -0.365560 
#    z -0.090670 -0.365560 4.688550 
# 
# 
# High freq. dielectric constant tensor:
#      x y z
#    x 1.940070 -0.001630 0.004760 
#    y -0.001630 1.924030 -0.030120 
#    z 0.004760 -0.030120 1.942700 
# 
# From -- ./inp_files/512538.got.cif
#   From: 2010.06.25/outbox.cif.g09.slc.cpg/sg2_257_cif.got.tgz:512538.got - 2010.06.27 13:26:56.
