data_PCOD8027314
_publ_section_title
;
Structure prediction by ZEFSAII (Michael W. Deem and Ramdas Pophale) SiO2 
 PCOD8027314
Probable space group: P -1
;
_chemical_formula_sum "Si O2"
_cell_formula_units_Z 16
_cell_length_a 9.543420
_cell_length_b 11.383353
_cell_length_c 21.526056
_cell_angle_alpha 141.336229
_cell_angle_beta 153.170774
_cell_angle_gamma 48.369201
_cell_volume 655.008213
_symmetry_space_group_name_H-M "P -1"
_symmetry_group_IT_number 2
_symmetry_cell_setting 'triclinic'
loop_
_space_group_symop_operation_xyz
x,y,z
-x,-y,-z
loop_
_atom_site_type_symbol
_atom_site_label
_atom_site_fract_x
_atom_site_fract_y
_atom_site_fract_z
Si Si1 0.549720 0.980423 0.203737
Si Si2 0.274333 0.659762 0.158259
Si Si3 0.308602 0.048158 0.384980
Si Si4 0.734465 0.387997 0.007396
Si Si5 0.188887 0.496333 0.635886
Si Si6 0.372392 0.885908 0.844377
Si Si7 0.734845 0.366534 0.507651
Si Si8 0.101831 0.730774 0.340016
O O1 0.467213 0.033911 0.122579
O O2 0.569850 0.172737 0.331056
O O3 0.873715 0.883854 0.291356
O O4 0.270252 0.824592 0.053756
O O5 0.170671 0.866132 0.214439
O O6 0.585240 0.664519 0.326994
O O7 0.367729 0.632722 0.112776
O O8 0.000000 0.500000 0.000000
O O9 0.500000 0.000000 0.500000
O O10 0.535740 0.191372 0.492302
O O11 0.004430 0.140862 0.324161
O O12 0.056758 0.528592 0.200954
O O13 0.500000 0.500000 0.000000
O O14 0.448873 0.678611 0.808816
O O15 0.000000 0.500000 0.500000
O O16 0.941514 0.494911 0.593249
O O17 0.500000 0.000000 0.000000
O O18 0.500000 0.500000 0.500000
O O19 0.958768 0.305485 0.625833
#
# Coordination Sequence:
#
# PCOD8027314 Si02
#       8
#     2   2   2   2   2   2   2   2
#     4  11  23  48  72 105 144 195 247 301 366 442
#     4  12  26  44  76 108 146 191 250 306 367 438
#     4  12  23  45  72 109 143 188 250 308 358 440
#     4  10  24  44  73 106 144 188 242 304 363 430
#     4  12  25  47  70 105 149 193 239 299 375 433
#     4  12  27  44  73 105 150 194 238 302 376 441
#     4  12  26  46  72 110 149 192 243 307 372 443
#     4  11  23  44  78 103 144 190 254 301 364 432
#
# _framework density 24.427174999999998
#
# number of rings (size 3 to 8) (size 9 to 14) (size 15 to 20)
#    0.000    0.500    2.500    6.375    7.000    1.000 
#    2.250    0.625    0.000    0.000    0.000    0.000 
#    0.000    0.000    0.000    0.000    0.000    0.000 
#
# Total GULP energy -198291.449970 kJ/mol
# GULP energy per Si atom -12393.215623 kJ/mol
# Density = 2.437158 g / cm^3
# Si number density = 24.427175 Si / 1000 Ang^3
#
#
#
# Elastic Constant Matrix: (Units=GPa)
#
#
# Indices 1 2 3 4 5 6 
#
# 1 132.1539 45.0247 32.3255 6.2555 -11.1060 29.9840
# 2 45.0247 90.3335 31.8444 30.5580 -2.7159 11.6222
# 3 32.3255 31.8444 116.0922 31.2516 -8.5315 14.8453
# 4 6.2555 30.5580 31.2516 50.5918 3.5139 1.0208
# 5 -11.1060 -2.7159 -8.5315 3.5139 54.0328 0.0911
# 6 29.9840 11.6222 14.8453 1.0208 0.0911 46.5762
#
#
#
# Elastic Compliance Matrix: (Units=1/GPa)
#
#
# Indices 1 2 3 4 5 6 
#
# 1 0.010878 -0.005041 -0.001571 0.002668 0.001570 -0.005306
# 2 -0.005041 0.017039 -0.000679 -0.009259 0.000316 -0.000588
# 3 -0.001571 -0.000679 0.011434 -0.006542 0.001878 -0.002324
# 4 0.002668 -0.009259 -0.006542 0.029227 -0.002854 0.002043
# 5 0.001570 0.000316 0.001878 -0.002854 0.019331 -0.001663
# 6 -0.005306 -0.000588 -0.002324 0.002043 -0.001663 0.025732
#
#
# Mechanical properties :
#
#
# Convention : Reuss Voigt Hill
#
# Bulk Modulus (GPa) = 40.37223 61.88544 51.12883
# Shear Modulus (GPa) = 36.63572 45.53249 41.08411
#
# Velocity S-wave (km/s) = 3.87692 4.32210 4.10555
# Velocity P-wave (km/s) = 6.05013 7.09204 6.59171
#
# Compressibility (1/GPa) = 0.02476950
#
# Stress axis : x y z
#
# Youngs Moduli (GPa) = 91.92833 58.68741 87.46063
#
# Poissons Ratio (x) = 0.29584 0.13736
# Poissons Ratio (y) = 0.46340 0.05942
# Poissons Ratio (z) = 0.14438 0.03987
#
# Static dielectric constant tensor:
#      x y z
#    x 5.022120 0.015750 0.772240 
#    y 0.015750 4.568080 0.027270 
#    z 0.772240 0.027270 6.002390 
# 
# 
# High freq. dielectric constant tensor:
#      x y z
#    x 1.978610 0.015460 -0.004860 
#    y 0.015460 1.975890 0.016770 
#    z -0.004860 0.016770 1.980800 
# 
# From -- ./inp_files/589671.got.cif
#   From: 2010.06.25/outbox.cif.g09.slc.cpg/sg2_295_cif.got.tgz:589671.got - 2010.06.27 13:26:56.
