data_PCOD8027406
_publ_section_title
;
Structure prediction by ZEFSAII (Michael W. Deem and Ramdas Pophale) SiO2 
 PCOD8027406
Probable space group: P -1
;
_chemical_formula_sum "Si O2"
_cell_formula_units_Z 16
_cell_length_a 7.126704
_cell_length_b 16.247006
_cell_length_c 11.170976
_cell_angle_alpha 72.586600
_cell_angle_beta 87.211942
_cell_angle_gamma 39.492192
_cell_volume 748.648780
_symmetry_space_group_name_H-M "P -1"
_symmetry_group_IT_number 2
_symmetry_cell_setting 'triclinic'
loop_
_space_group_symop_operation_xyz
x,y,z
-x,-y,-z
loop_
_atom_site_type_symbol
_atom_site_label
_atom_site_fract_x
_atom_site_fract_y
_atom_site_fract_z
Si Si1 0.307840 0.088280 0.848668
Si Si2 0.766165 0.581960 0.361493
Si Si3 0.052811 0.619644 0.185080
Si Si4 0.249524 0.594267 0.684288
Si Si5 0.084950 0.897060 0.278858
Si Si6 0.150376 0.646847 0.924295
Si Si7 0.888378 0.918799 0.769157
Si Si8 0.145741 0.106559 0.482326
O O1 0.099905 0.248603 0.792072
O O2 0.083152 0.089520 0.831211
O O3 0.532960 0.019733 0.758123
O O4 0.500000 0.000000 0.000000
O O5 0.717274 0.502429 0.354247
O O6 0.443097 0.740099 0.344683
O O7 0.000000 0.500000 0.500000
O O8 0.908439 0.581925 0.245702
O O9 0.417868 0.487254 0.257904
O O10 0.966362 0.663650 0.027640
O O11 0.061221 0.647417 0.792736
O O12 0.055036 0.734291 0.552752
O O13 0.912364 0.939159 0.389861
O O14 0.049486 0.011518 0.202768
O O15 0.100823 0.767872 0.889143
O O16 0.500000 0.500000 0.000000
O O17 0.966386 0.896426 0.636182
O O18 0.500000 0.000000 0.500000
#
# Coordination Sequence:
#
# PCOD8027406 Si02
#       8
#     2   2   2   2   2   2   2   2
#     4  12  24  43  70  98 139 177 221 280 342 404
#     4  12  27  41  70 105 135 176 230 276 334 411
#     4  11  22  45  68  97 137 177 222 280 338 397
#     4  10  24  45  67  98 134 179 223 279 342 390
#     4  12  26  44  70 101 134 182 222 284 342 398
#     4   9  21  45  69  92 134 177 221 279 329 394
#     4  11  23  45  67 102 131 174 232 276 337 404
#     4  11  24  44  70  93 139 180 225 281 336 401
#
# _framework density 21.371835000000001
#
# number of rings (size 3 to 8) (size 9 to 14) (size 15 to 20)
#    0.000    1.000    5.000    1.125    3.500    2.000 
#   11.250    0.000    0.000    0.000    0.000    0.000 
#    0.000    0.000    0.000    0.000    0.000    0.000 
#
# Total GULP energy -198412.612454 kJ/mol
# GULP energy per Si atom -12400.788278 kJ/mol
# Density = 2.132319 g / cm^3
# Si number density = 21.371835 Si / 1000 Ang^3
#
#
#
# Elastic Constant Matrix: (Units=GPa)
#
#
# Indices 1 2 3 4 5 6 
#
# 1 89.8992 27.9899 22.0818 -5.3283 -3.3620 -6.3355
# 2 27.9899 118.3612 18.5723 -15.7454 -5.5000 -3.6096
# 3 22.0818 18.5723 83.6613 -2.4553 -7.3447 -11.1700
# 4 -5.3283 -15.7454 -2.4553 39.5433 -3.5906 -2.9566
# 5 -3.3620 -5.5000 -7.3447 -3.5906 32.4126 1.5554
# 6 -6.3355 -3.6096 -11.1700 -2.9566 1.5554 34.6190
#
#
#
# Elastic Compliance Matrix: (Units=1/GPa)
#
#
# Indices 1 2 3 4 5 6 
#
# 1 0.012661 -0.002442 -0.002580 0.000699 0.000331 0.001275
# 2 -0.002442 0.009790 -0.001232 0.003662 0.001514 0.000421
# 3 -0.002580 -0.001232 0.013640 0.000514 0.002492 0.003732
# 4 0.000699 0.003662 0.000514 0.027423 0.003711 0.002851
# 5 0.000331 0.001514 0.002492 0.003711 0.032124 -0.000104
# 6 0.001275 0.000421 0.003732 0.002851 -0.000104 0.030615
#
#
# Mechanical properties :
#
#
# Convention : Reuss Voigt Hill
#
# Bulk Modulus (GPa) = 42.40471 47.68996 45.04734
# Shear Modulus (GPa) = 34.10121 36.20014 35.15067
#
# Velocity S-wave (km/s) = 3.99885 4.12008 4.05991
# Velocity P-wave (km/s) = 6.41915 6.70792 6.56512
#
# Compressibility (1/GPa) = 0.02358229
#
# Stress axis : x y z
#
# Youngs Moduli (GPa) = 78.98121 102.14677 73.31594
#
# Poissons Ratio (x) = 0.24945 0.18915
# Poissons Ratio (y) = 0.19288 0.09033
# Poissons Ratio (z) = 0.20377 0.12586
#
# Static dielectric constant tensor:
#      x y z
#    x 3.673870 -0.166470 -0.327960 
#    y -0.166470 4.183060 0.112100 
#    z -0.327960 0.112100 3.964600 
# 
# 
# High freq. dielectric constant tensor:
#      x y z
#    x 1.817250 -0.004790 -0.010470 
#    y -0.004790 1.861620 0.000880 
#    z -0.010470 0.000880 1.845510 
# 
# From -- ./inp_files/367677.got.cif
#   From: 2010.06.25/outbox.cif.g09.slc.cpg/sg2_184_cif.got.tgz:367677.got - 2010.06.27 13:26:56.
