data_PCOD8027062
_publ_section_title
;
Structure prediction by ZEFSAII (Michael W. Deem and Ramdas Pophale) SiO2 
 PCOD8027062
Probable space group: P -1
;
_chemical_formula_sum "Si O2"
_cell_formula_units_Z 14
_cell_length_a 8.399681
_cell_length_b 15.469083
_cell_length_c 15.557154
_cell_angle_alpha 28.982070
_cell_angle_beta 73.646928
_cell_angle_gamma 53.357239
_cell_volume 617.426423
_symmetry_space_group_name_H-M "P -1"
_symmetry_group_IT_number 2
_symmetry_cell_setting 'triclinic'
loop_
_space_group_symop_operation_xyz
x,y,z
-x,-y,-z
loop_
_atom_site_type_symbol
_atom_site_label
_atom_site_fract_x
_atom_site_fract_y
_atom_site_fract_z
Si Si1 0.195045 0.777059 0.413242
Si Si2 0.176176 0.154195 0.985915
Si Si3 0.366247 0.370450 0.279567
Si Si4 0.474528 0.800014 0.093645
Si Si5 0.771421 0.577238 0.928121
Si Si6 0.640890 0.212181 0.068964
Si Si7 0.871192 0.008916 0.590438
O O1 0.250034 0.921900 0.233841
O O2 0.396610 0.457217 0.641678
O O3 0.219930 0.773493 0.515741
O O4 0.921628 0.925515 0.300215
O O5 0.237350 0.064895 0.954466
O O6 0.335022 0.192900 0.962272
O O7 0.880741 0.446152 0.782423
O O8 0.330818 0.287663 0.268397
O O9 0.626196 0.086109 0.531333
O O10 0.422277 0.534715 0.114061
O O11 0.377555 0.799934 0.019432
O O12 0.548432 0.758337 0.874049
O O13 0.000000 0.500000 0.000000
O O14 0.905026 0.280186 0.146461
O O15 0.000000 0.000000 0.500000
#
# Coordination Sequence:
#
# PCOD8027062 Si02
#       7
#     2   2   2   2   2   2   2
#     4  11  23  42  67  95 125 173 215 261 322 382
#     4  10  24  44  66  95 134 163 217 269 317 384
#     4  11  22  40  64  93 126 166 211 263 315 381
#     4  11  23  46  65  95 131 169 211 272 321 375
#     4  12  24  39  62  93 131 162 208 267 319 380
#     4  11  22  39  66  94 124 170 216 261 319 384
#     4  12  22  39  65  90 125 168 209 257 319 377
#
# _framework density 22.674764
#
# number of rings (size 3 to 8) (size 9 to 14) (size 15 to 20)
#    0.000    0.857    5.714    2.571    0.000    4.000 
#    2.571    1.429    0.000    0.000    0.000    0.000 
#    0.000    0.000    0.000    0.000    0.000    0.000 
#
# Total GULP energy -173560.651131 kJ/mol
# GULP energy per Si atom -12397.189366 kJ/mol
# Density = 2.262316 g / cm^3
# Si number density = 22.674764 Si / 1000 Ang^3
#
#
#
# Elastic Constant Matrix: (Units=GPa)
#
#
# Indices 1 2 3 4 5 6 
#
# 1 118.6979 41.7932 21.3509 16.5854 19.2370 3.0725
# 2 41.7932 109.5757 14.7767 8.1669 17.7493 0.5716
# 3 21.3509 14.7767 60.8073 6.4413 20.1160 -0.6317
# 4 16.5854 8.1669 6.4413 14.5762 -1.4754 -0.5841
# 5 19.2370 17.7493 20.1160 -1.4754 42.2858 5.4402
# 6 3.0725 0.5716 -0.6317 -0.5841 5.4402 43.2123
#
#
#
# Elastic Compliance Matrix: (Units=1/GPa)
#
#
# Indices 1 2 3 4 5 6 
#
# 1 0.011967 -0.002867 -0.000839 -0.012083 -0.004204 -0.000459
# 2 -0.002867 0.011030 -0.000214 -0.003149 -0.003390 0.000439
# 3 -0.000839 -0.000214 0.021124 -0.009221 -0.010094 0.001517
# 4 -0.012083 -0.003149 -0.009221 0.089648 0.014310 0.000176
# 5 -0.004204 -0.003390 -0.010094 0.014310 0.032766 -0.003735
# 6 -0.000459 0.000439 0.001517 0.000176 -0.003735 0.023663
#
#
# Mechanical properties :
#
#
# Convention : Reuss Voigt Hill
#
# Bulk Modulus (GPa) = 27.56357 49.43581 38.49969
# Shear Modulus (GPa) = 23.79456 34.09220 28.94338
#
# Velocity S-wave (km/s) = 3.24294 3.88174 3.57663
# Velocity P-wave (km/s) = 5.11905 6.47611 5.83715
#
# Compressibility (1/GPa) = 0.03627977
#
# Stress axis : x y z
#
# Youngs Moduli (GPa) = 83.56510 90.66150 47.33957
#
# Poissons Ratio (x) = 0.25994 0.03973
# Poissons Ratio (y) = 0.23959 0.01014
# Poissons Ratio (z) = 0.07013 0.01941
#
# Static dielectric constant tensor:
#      x y z
#    x 4.147860 -0.064730 0.299000 
#    y -0.064730 4.022390 -0.454110 
#    z 0.299000 -0.454110 7.948170 
# 
# 
# High freq. dielectric constant tensor:
#      x y z
#    x 1.900860 0.001990 0.009550 
#    y 0.001990 1.898960 -0.011230 
#    z 0.009550 -0.011230 1.890370 
# 
# From -- ./inp_files/177247.got.cif
#   From: 2010.06.25/outbox.cif.g09.slc.cpg/sg2_89_cif.got.tgz:177247.got - 2010.06.27 13:26:56.
