data_PCOD8027316
_publ_section_title
;
Structure prediction by ZEFSAII (Michael W. Deem and Ramdas Pophale) SiO2 
 PCOD8027316
Probable space group: P -1
;
_chemical_formula_sum "Si O2"
_cell_formula_units_Z 14
_cell_length_a 8.424296
_cell_length_b 17.548549
_cell_length_c 4.975969
_cell_angle_alpha 72.993377
_cell_angle_beta 64.117184
_cell_angle_gamma 53.690600
_cell_volume 532.734672
_symmetry_space_group_name_H-M "P -1"
_symmetry_group_IT_number 2
_symmetry_cell_setting 'triclinic'
loop_
_space_group_symop_operation_xyz
x,y,z
-x,-y,-z
loop_
_atom_site_type_symbol
_atom_site_label
_atom_site_fract_x
_atom_site_fract_y
_atom_site_fract_z
Si Si1 0.385957 0.565569 0.270062
Si Si2 0.172000 0.225689 0.904946
Si Si3 0.892963 0.849303 0.445181
Si Si4 0.281547 0.840052 0.425185
Si Si5 0.943041 0.604227 0.486040
Si Si6 0.491789 0.718245 0.919382
Si Si7 0.569218 0.040513 0.670844
O O1 0.500000 0.500000 0.500000
O O2 0.143634 0.601070 0.457713
O O3 0.500000 0.500000 0.000000
O O4 0.405147 0.655644 0.160890
O O5 0.018173 0.208823 0.841207
O O6 0.119908 0.331989 0.806007
O O7 0.382212 0.151238 0.648066
O O8 0.168164 0.204782 0.240196
O O9 0.064500 0.860112 0.452474
O O10 0.679309 0.957363 0.441743
O O11 0.364124 0.770215 0.691482
O O12 0.245123 0.943040 0.401886
O O13 0.454216 0.791739 0.107870
O O14 0.742276 0.653736 0.774870
O O15 0.000000 0.500000 0.500000
O O16 0.500000 0.000000 0.000000
#
# Coordination Sequence:
#
# PCOD8027316 Si02
#       7
#     2   2   2   2   2   2   2
#     4  12  27  49  72 107 143 185 250 308 355 430
#     4  11  25  46  71 107 145 186 245 301 356 434
#     4  11  24  46  75 105 145 193 238 296 370 424
#     4  12  25  47  72 107 148 188 241 298 356 442
#     4  12  27  50  78 106 147 199 244 299 374 429
#     4  12  28  48  76 108 149 193 248 300 366 431
#     4  10  24  44  73 107 147 188 239 297 361 438
#
# _framework density 26.279498
#
# number of rings (size 3 to 8) (size 9 to 14) (size 15 to 20)
#    0.000    0.571    2.857    4.286    4.000    5.143 
#    0.000    5.000    0.000    0.000    0.000    0.000 
#    0.000    0.000    0.000    0.000    0.000    0.000 
#
# Total GULP energy -173480.819676 kJ/mol
# GULP energy per Si atom -12391.487120 kJ/mol
# Density = 2.621969 g / cm^3
# Si number density = 26.279498 Si / 1000 Ang^3
#
#
#
# Elastic Constant Matrix: (Units=GPa)
#
#
# Indices 1 2 3 4 5 6 
#
# 1 53.9930 22.9141 33.5239 -24.6850 -18.8293 -9.3719
# 2 22.9141 142.1115 30.1176 -14.9517 -7.0831 -4.0733
# 3 33.5239 30.1176 104.7168 -6.3968 5.1400 -14.6501
# 4 -24.6850 -14.9517 -6.3968 47.0056 3.1474 2.3031
# 5 -18.8293 -7.0831 5.1400 3.1474 60.7658 0.3611
# 6 -9.3719 -4.0733 -14.6501 2.3031 0.3611 48.5161
#
#
#
# Elastic Compliance Matrix: (Units=1/GPa)
#
#
# Indices 1 2 3 4 5 6 
#
# 1 0.038538 -0.001374 -0.011029 0.017359 0.011797 0.003087
# 2 -0.001374 0.007813 -0.001774 0.001496 0.000559 -0.000220
# 3 -0.011029 -0.001774 0.013855 -0.004269 -0.004588 0.002141
# 4 0.017359 0.001496 -0.004269 0.029957 0.004358 0.000735
# 5 0.011797 0.000559 -0.004588 0.004358 0.020336 0.000582
# 6 0.003087 -0.000220 0.002141 0.000735 0.000582 0.021797
#
#
# Mechanical properties :
#
#
# Convention : Reuss Voigt Hill
#
# Bulk Modulus (GPa) = 31.39550 52.65918 42.02734
# Shear Modulus (GPa) = 29.19403 45.54187 37.36795
#
# Velocity S-wave (km/s) = 3.33664 4.16742 3.77496
# Velocity P-wave (km/s) = 5.17851 6.57558 5.91841
#
# Compressibility (1/GPa) = 0.03185170
#
# Stress axis : x y z
#
# Youngs Moduli (GPa) = 25.94829 127.98926 72.17756
#
# Poissons Ratio (x) = 0.17581 0.79607
# Poissons Ratio (y) = 0.03564 0.12806
# Poissons Ratio (z) = 0.28619 0.22709
#
# Static dielectric constant tensor:
#      x y z
#    x 5.316330 -0.065220 -0.253790 
#    y -0.065220 5.287460 -0.022430 
#    z -0.253790 -0.022430 4.442280 
# 
# 
# High freq. dielectric constant tensor:
#      x y z
#    x 2.087340 -0.000140 -0.010790 
#    y -0.000140 2.074430 -0.000440 
#    z -0.010790 -0.000440 2.042790 
# 
# From -- ./inp_files/46941.got.cif
#   From: 2010.06.25/outbox.cif.g09.slc.cpg/sg2_24_cif.got.tgz:46941.got - 2010.06.27 13:26:56.
