data_PCOD8027142
_publ_section_title
;
Structure prediction by ZEFSAII (Michael W. Deem and Ramdas Pophale) SiO2 
 PCOD8027142
Probable space group: P -1
;
_chemical_formula_sum "Si O2"
_cell_formula_units_Z 14
_cell_length_a 8.683862
_cell_length_b 20.707021
_cell_length_c 20.777456
_cell_angle_alpha 19.215682
_cell_angle_beta 150.156400
_cell_angle_gamma 148.389357
_cell_volume 599.699588
_symmetry_space_group_name_H-M "P -1"
_symmetry_group_IT_number 2
_symmetry_cell_setting 'triclinic'
loop_
_space_group_symop_operation_xyz
x,y,z
-x,-y,-z
loop_
_atom_site_type_symbol
_atom_site_label
_atom_site_fract_x
_atom_site_fract_y
_atom_site_fract_z
Si Si1 0.753165 0.277469 0.427909
Si Si2 0.716274 0.836469 0.521117
Si Si3 0.267910 0.563351 0.162225
Si Si4 0.674670 0.717006 0.841575
Si Si5 0.701166 0.410738 0.707081
Si Si6 0.998980 0.924849 0.882747
Si Si7 0.723452 0.908390 0.937310
O O1 0.521846 0.274668 0.406676
O O2 0.539913 0.180751 0.380954
O O3 0.930223 0.498720 0.262089
O O4 0.039618 0.162718 0.659982
O O5 0.849616 0.657961 0.702532
O O6 0.524274 0.943782 0.299094
O O7 0.000000 0.000000 0.500000
O O8 0.388342 0.531374 0.308452
O O9 0.555817 0.691090 0.106617
O O10 0.994005 0.691849 0.943813
O O11 0.737254 0.842770 0.810997
O O12 0.500000 0.500000 0.000000
O O13 0.500000 0.500000 0.500000
O O14 0.684995 0.168988 0.924366
O O15 0.866918 0.869812 0.957205
O O16 0.000000 0.000000 0.000000
#
# Coordination Sequence:
#
# PCOD8027142 Si02
#       7
#     2   2   2   2   2   2   2
#     4  11  23  43  70  97 139 176 229 284 346 407
#     4  11  27  45  73 106 137 185 234 287 354 412
#     4  11  26  44  72 100 143 179 229 294 340 415
#     4  11  22  43  67 101 137 176 225 279 352 402
#     4  11  26  43  67 101 135 184 233 277 347 406
#     4  10  24  44  68  97 135 180 225 284 341 405
#     4  11  27  47  71 103 140 184 239 282 350 418
#
# _framework density 23.345020999999999
#
# number of rings (size 3 to 8) (size 9 to 14) (size 15 to 20)
#    0.000    1.143    2.857    2.143   10.000    5.714 
#    0.000    0.000    0.000    0.000    0.000    0.000 
#    0.000    0.000    0.000    0.000    0.000    0.000 
#
# Total GULP energy -173507.584717 kJ/mol
# GULP energy per Si atom -12393.398908 kJ/mol
# Density = 2.329189 g / cm^3
# Si number density = 23.345021 Si / 1000 Ang^3
#
#
#
# Elastic Constant Matrix: (Units=GPa)
#
#
# Indices 1 2 3 4 5 6 
#
# 1 105.4734 27.8837 36.8404 -6.6643 -10.6372 -30.8805
# 2 27.8837 76.0205 37.1291 2.9492 -1.0802 -18.4732
# 3 36.8404 37.1291 108.0627 24.2529 -10.3463 -22.7798
# 4 -6.6643 2.9492 24.2529 53.3757 -3.3210 -5.8993
# 5 -10.6372 -1.0802 -10.3463 -3.3210 36.4325 -2.2685
# 6 -30.8805 -18.4732 -22.7798 -5.8993 -2.2685 29.2714
#
#
#
# Elastic Compliance Matrix: (Units=1/GPa)
#
#
# Indices 1 2 3 4 5 6 
#
# 1 0.016181 -0.000958 -0.002475 0.005311 0.005476 0.016035
# 2 -0.000958 0.017315 -0.004675 0.001744 -0.000525 0.006589
# 3 -0.002475 -0.004675 0.014264 -0.005842 0.002943 0.004591
# 4 0.005311 0.001744 -0.005842 0.022878 0.002462 0.006958
# 5 0.005476 -0.000525 0.002943 0.002462 0.030752 0.010615
# 6 0.016035 0.006589 0.004591 0.006958 0.010615 0.061035
#
#
# Mechanical properties :
#
#
# Convention : Reuss Voigt Hill
#
# Bulk Modulus (GPa) = 31.70100 54.80699 43.25400
# Shear Modulus (GPa) = 26.43290 36.32950 31.38120
#
# Velocity S-wave (km/s) = 3.36857 3.94915 3.67036
# Velocity P-wave (km/s) = 5.36083 6.65750 6.04404
#
# Compressibility (1/GPa) = 0.03154474
#
# Stress axis : x y z
#
# Youngs Moduli (GPa) = 61.80009 57.75235 70.10440
#
# Poissons Ratio (x) = 0.05534 0.17348
# Poissons Ratio (y) = 0.05922 0.32775
# Poissons Ratio (z) = 0.15293 0.27001
#
# Static dielectric constant tensor:
#      x y z
#    x 3.971310 -0.094260 -0.432870 
#    y -0.094260 4.465570 -0.033060 
#    z -0.432870 -0.033060 4.179210 
# 
# 
# High freq. dielectric constant tensor:
#      x y z
#    x 1.922770 -0.006870 -0.015140 
#    y -0.006870 1.924040 0.002660 
#    z -0.015140 0.002660 1.942080 
# 
# From -- ./inp_files/591774.got.cif
#   From: 2010.06.25/outbox.cif.g09.slc.cpg/sg2_296_cif.got.tgz:591774.got - 2010.06.27 13:26:56.
