data_PCOD8027425
_publ_section_title
;
Structure prediction by ZEFSAII (Michael W. Deem and Ramdas Pophale) SiO2 
 PCOD8027425
Probable space group: P -1
;
_chemical_formula_sum "Si O2"
_cell_formula_units_Z 16
_cell_length_a 10.420187
_cell_length_b 11.401053
_cell_length_c 13.275712
_cell_angle_alpha 63.857039
_cell_angle_beta 147.127893
_cell_angle_gamma 130.878743
_cell_volume 623.970366
_symmetry_space_group_name_H-M "P -1"
_symmetry_group_IT_number 2
_symmetry_cell_setting 'triclinic'
loop_
_space_group_symop_operation_xyz
x,y,z
-x,-y,-z
loop_
_atom_site_type_symbol
_atom_site_label
_atom_site_fract_x
_atom_site_fract_y
_atom_site_fract_z
Si Si1 0.247404 0.444131 0.775153
Si Si2 0.401396 0.081131 0.010259
Si Si3 0.851179 0.374612 0.861445
Si Si4 0.013771 0.778776 0.487578
Si Si5 0.532135 0.791696 0.789874
Si Si6 0.843645 0.778925 0.833507
Si Si7 0.788534 0.458502 0.573394
Si Si8 0.325420 0.092681 0.732411
O O1 0.202856 0.309811 0.718355
O O2 0.343652 0.601004 0.711646
O O3 0.943407 0.383683 0.651412
O O4 0.500000 0.500000 0.000000
O O5 0.462108 0.155449 0.911473
O O6 0.374545 0.184559 0.039072
O O7 0.094100 0.903971 0.873751
O O8 0.666197 0.063121 0.221994
O O9 0.841287 0.463495 0.724941
O O10 0.523167 0.231818 0.730653
O O11 0.000000 0.500000 0.000000
O O12 0.044705 0.308219 0.994933
O O13 0.938277 0.643166 0.571169
O O14 0.980929 0.919175 0.457304
O O15 0.337748 0.860252 0.625323
O O16 0.791320 0.876040 0.846919
O O17 0.556459 0.654100 0.628560
#
# Coordination Sequence:
#
# PCOD8027425 Si02
#       8
#     2   2   2   2   2   2   2   2
#     4  11  21  37  71 102 136 171 212 281 351 398
#     4  10  24  45  68  90 132 188 226 274 324 398
#     4  11  26  41  69 100 135 178 224 279 342 399
#     4  11  22  40  70 103 135 166 219 286 342 408
#     4  11  21  40  67  98 131 169 223 278 336 394
#     4  11  22  46  67  97 138 171 228 276 335 404
#     4  11  23  42  66 106 136 170 219 283 344 397
#     4  10  24  46  61  94 131 179 232 261 332 401
#
# _framework density 25.642243000000001
#
# number of rings (size 3 to 8) (size 9 to 14) (size 15 to 20)
#    0.000    1.250    2.500    3.375    5.250    2.500 
#    9.000    0.625    0.000    0.000    0.000    0.000 
#    0.000    0.000    0.000    0.000    0.000    0.000 
#
# Total GULP energy -198351.409962 kJ/mol
# GULP energy per Si atom -12396.963123 kJ/mol
# Density = 2.558388 g / cm^3
# Si number density = 25.642243 Si / 1000 Ang^3
#
#
#
# Elastic Constant Matrix: (Units=GPa)
#
#
# Indices 1 2 3 4 5 6 
#
# 1 146.8692 40.3815 49.7695 -17.0360 0.5504 -19.3957
# 2 40.3815 70.5509 11.9365 -0.6380 3.9686 -20.0595
# 3 49.7695 11.9365 127.9264 -18.5011 17.7085 6.5879
# 4 -17.0360 -0.6380 -18.5011 27.5923 -0.8185 -1.3423
# 5 0.5504 3.9686 17.7085 -0.8185 54.5008 -7.0280
# 6 -19.3957 -20.0595 6.5879 -1.3423 -7.0280 44.7560
#
#
#
# Elastic Compliance Matrix: (Units=1/GPa)
#
#
# Indices 1 2 3 4 5 6 
#
# 1 0.010019 -0.004295 -0.003325 0.004071 0.001780 0.003308
# 2 -0.004295 0.018580 -0.000701 -0.002386 -0.000286 0.006453
# 3 -0.003325 -0.000701 0.010574 0.004727 -0.003765 -0.003761
# 4 0.004071 -0.002386 0.004727 0.041907 -0.000624 0.001158
# 5 0.001780 -0.000286 -0.003765 -0.000624 0.020125 0.004339
# 6 0.003308 0.006453 -0.003761 0.001158 0.004339 0.027939
#
#
# Mechanical properties :
#
#
# Convention : Reuss Voigt Hill
#
# Bulk Modulus (GPa) = 44.38045 61.05793 52.71919
# Shear Modulus (GPa) = 32.61671 41.58708 37.10190
#
# Velocity S-wave (km/s) = 3.57037 4.03155 3.80795
# Velocity P-wave (km/s) = 5.86019 6.74791 6.31966
#
# Compressibility (1/GPa) = 0.02253244
#
# Stress axis : x y z
#
# Youngs Moduli (GPa) = 99.81362 53.82084 94.56778
#
# Poissons Ratio (x) = 0.23114 0.31444
# Poissons Ratio (y) = 0.42866 0.06627
# Poissons Ratio (z) = 0.33188 0.03772
#
# Static dielectric constant tensor:
#      x y z
#    x 4.886720 -0.281340 0.157810 
#    y -0.281340 4.455900 -0.030680 
#    z 0.157810 -0.030680 4.937360 
# 
# 
# High freq. dielectric constant tensor:
#      x y z
#    x 2.042670 -0.023600 -0.000270 
#    y -0.023600 1.999460 0.007300 
#    z -0.000270 0.007300 2.050880 
# 
# From -- ./inp_files/518872.got.cif
#   From: 2010.06.25/outbox.cif.g09.slc.cpg/sg2_260_cif.got.tgz:518872.got - 2010.06.27 13:26:56.
