data_PCOD8027980
_publ_section_title
;
Structure prediction by ZEFSAII (Michael W. Deem and Ramdas Pophale) SiO2 
 PCOD8027980
Probable space group: P -1
;
_chemical_formula_sum "Si O2"
_cell_formula_units_Z 14
_cell_length_a 12.692479
_cell_length_b 9.250431
_cell_length_c 8.981773
_cell_angle_alpha 124.372626
_cell_angle_beta 52.987659
_cell_angle_gamma 99.864384
_cell_volume 671.919100
_symmetry_space_group_name_H-M "P -1"
_symmetry_group_IT_number 2
_symmetry_cell_setting 'triclinic'
loop_
_space_group_symop_operation_xyz
x,y,z
-x,-y,-z
loop_
_atom_site_type_symbol
_atom_site_label
_atom_site_fract_x
_atom_site_fract_y
_atom_site_fract_z
Si Si1 0.685186 0.943485 0.608665
Si Si2 0.483181 0.696532 0.695961
Si Si3 0.979611 0.777082 0.182868
Si Si4 0.022047 0.516235 0.740370
Si Si5 0.508279 0.681738 0.017289
Si Si6 0.790818 0.031961 0.884357
Si Si7 0.190217 0.333575 0.230327
O O1 0.594228 0.797079 0.596261
O O2 0.820503 0.880293 0.355908
O O3 0.730014 0.958768 0.748478
O O4 0.604311 0.139567 0.727697
O O5 0.500000 0.500000 0.500000
O O6 0.496334 0.666837 0.842974
O O7 0.331315 0.813904 0.849673
O O8 0.992097 0.635347 0.221279
O O9 0.074837 0.902707 0.227692
O O10 0.035435 0.689230 0.925360
O O11 0.152277 0.449877 0.483125
O O12 0.886570 0.555410 0.778643
O O13 0.651116 0.712148 0.961326
O O14 0.500000 0.500000 0.000000
O O15 0.846304 0.859564 0.843529
#
# Coordination Sequence:
#
# PCOD8027980 Si02
#       7
#     2   2   2   2   2   2   2
#     4  11  22  45  66  98 132 174 215 267 322 399
#     4  11  24  42  68  95 130 179 216 265 326 390
#     4  11  24  41  67 100 126 170 222 270 312 388
#     4  10  25  40  66  92 135 165 219 266 324 380
#     4  11  24  42  67  95 129 171 221 266 326 384
#     4  11  22  39  68  94 131 173 219 257 332 387
#     4  11  22  44  63  93 133 174 209 269 329 386
#
# _framework density 20.835842
#
# number of rings (size 3 to 8) (size 9 to 14) (size 15 to 20)
#    0.000    1.143    4.286    1.286   10.000    1.714 
#    2.571    1.429    0.000    0.000    0.000    0.000 
#    0.000    0.000    0.000    0.000    0.000    0.000 
#
# Total GULP energy -173587.330242 kJ/mol
# GULP energy per Si atom -12399.095017 kJ/mol
# Density = 2.078842 g / cm^3
# Si number density = 20.835842 Si / 1000 Ang^3
#
#
#
# Elastic Constant Matrix: (Units=GPa)
#
#
# Indices 1 2 3 4 5 6 
#
# 1 90.2198 49.5256 51.9257 4.2785 -22.8461 11.1078
# 2 49.5256 90.0679 39.7249 21.6443 -13.4435 8.5687
# 3 51.9257 39.7249 99.4865 24.8901 -20.5215 -0.6279
# 4 4.2785 21.6443 24.8901 31.3700 -0.8042 -0.7438
# 5 -22.8461 -13.4435 -20.5215 -0.8042 38.0251 -0.0250
# 6 11.1078 8.5687 -0.6279 -0.7438 -0.0250 42.2662
#
#
#
# Elastic Compliance Matrix: (Units=1/GPa)
#
#
# Indices 1 2 3 4 5 6 
#
# 1 0.024044 -0.010361 -0.010346 0.012120 0.005453 -0.004156
# 2 -0.010361 0.019801 0.000959 -0.013019 0.001016 -0.001505
# 3 -0.010346 0.000959 0.019673 -0.014685 0.004431 0.002561
# 4 0.012120 -0.013019 -0.014685 0.050755 -0.004173 0.000127
# 5 0.005453 0.001016 0.004431 -0.004173 0.032236 -0.001628
# 6 -0.004156 -0.001505 0.002561 0.000127 -0.001628 0.025096
#
#
# Mechanical properties :
#
#
# Convention : Reuss Voigt Hill
#
# Bulk Modulus (GPa) = 41.62971 62.45851 52.04411
# Shear Modulus (GPa) = 22.81974 31.57213 27.19594
#
# Velocity S-wave (km/s) = 3.31299 3.89688 3.61674
# Velocity P-wave (km/s) = 5.88709 7.09148 6.51717
#
# Compressibility (1/GPa) = 0.02402131
#
# Stress axis : x y z
#
# Youngs Moduli (GPa) = 41.59054 50.50324 50.83134
#
# Poissons Ratio (x) = 0.52327 0.52589
# Poissons Ratio (y) = 0.43093 -0.04874
# Poissons Ratio (z) = 0.43029 -0.04842
#
# Static dielectric constant tensor:
#      x y z
#    x 3.769270 0.052540 -0.308430 
#    y 0.052540 2.992620 0.650770 
#    z -0.308430 0.650770 3.969370 
# 
# 
# High freq. dielectric constant tensor:
#      x y z
#    x 1.816470 -0.001420 -0.018060 
#    y -0.001420 1.813900 0.016520 
#    z -0.018060 0.016520 1.821140 
# 
# From -- ./inp_files/156921.got.cif
#   From: 2010.06.25/outbox.cif.g09.slc.cpg/sg2_79_cif.got.tgz:156921.got - 2010.06.27 13:26:56.
