data_PCOD8027986
_publ_section_title
;
Structure prediction by ZEFSAII (Michael W. Deem and Ramdas Pophale) SiO2 
 PCOD8027986
Probable space group: P -1
;
_chemical_formula_sum "Si O2"
_cell_formula_units_Z 14
_cell_length_a 9.328656
_cell_length_b 21.063598
_cell_length_c 7.787515
_cell_angle_alpha 40.084201
_cell_angle_beta 130.377807
_cell_angle_gamma 137.173893
_cell_volume 656.530584
_symmetry_space_group_name_H-M "P -1"
_symmetry_group_IT_number 2
_symmetry_cell_setting 'triclinic'
loop_
_space_group_symop_operation_xyz
x,y,z
-x,-y,-z
loop_
_atom_site_type_symbol
_atom_site_label
_atom_site_fract_x
_atom_site_fract_y
_atom_site_fract_z
Si Si1 0.650559 0.238806 0.268069
Si Si2 0.838540 0.086846 0.715096
Si Si3 0.720926 0.704575 0.782327
Si Si4 0.817873 0.810574 0.970599
Si Si5 0.249618 0.628507 0.581255
Si Si6 0.083389 0.054698 0.686976
Si Si7 0.044848 0.629173 0.077201
O O1 0.648945 0.119024 0.504277
O O2 0.412932 0.213233 0.091025
O O3 0.718720 0.288670 0.408652
O O4 0.811305 0.323996 0.076046
O O5 0.902846 0.077565 0.590244
O O6 0.047146 0.190434 0.757158
O O7 0.776294 0.969705 0.008991
O O8 0.789031 0.711552 0.021709
O O9 0.468204 0.621219 0.729470
O O10 0.754871 0.831390 0.519131
O O11 0.862124 0.667880 0.852541
O O12 0.950408 0.936785 0.720956
O O13 0.186965 0.673627 0.268528
O O14 0.063082 0.504916 0.739804
#
# Coordination Sequence:
#
# PCOD8027986 Si02
#       7
#     2   2   2   2   2   2   2
#     4  11  21  39  63  85 115 156 186 235 297 333
#     4   9  19  36  53  84 121 144 193 230 273 347
#     4  11  20  40  59  83 116 157 185 234 294 334
#     4   9  21  35  56  86 119 148 190 233 275 347
#     4  10  25  41  57  91 115 141 205 244 273 350
#     4   9  19  36  55  83 120 149 186 233 275 346
#     4  11  23  40  64  83 114 155 190 241 295 330
#
# _framework density 21.324216
#
# number of rings (size 3 to 8) (size 9 to 14) (size 15 to 20)
#    0.857    1.143    1.429    2.143    2.000    0.571 
#    2.571    1.429    0.000    9.429    0.000    0.000 
#    0.000    0.000    0.000    0.000    0.000    0.000 
#
# Total GULP energy -173486.293308 kJ/mol
# GULP energy per Si atom -12391.878093 kJ/mol
# Density = 2.127568 g / cm^3
# Si number density = 21.324216 Si / 1000 Ang^3
#
#
#
# Elastic Constant Matrix: (Units=GPa)
#
#
# Indices 1 2 3 4 5 6 
#
# 1 70.8696 -2.9043 6.3490 1.1709 3.2709 8.2189
# 2 -2.9043 33.0372 -11.4541 4.3863 -10.0441 0.4071
# 3 6.3490 -11.4541 42.8877 -3.4095 -2.2349 -0.0950
# 4 1.1709 4.3863 -3.4095 24.7445 -2.6818 1.4388
# 5 3.2709 -10.0441 -2.2349 -2.6818 25.3813 -3.3840
# 6 8.2189 0.4071 -0.0950 1.4388 -3.3840 25.7594
#
#
#
# Elastic Compliance Matrix: (Units=1/GPa)
#
#
# Indices 1 2 3 4 5 6 
#
# 1 0.015087 -0.000301 -0.002570 -0.001049 -0.003089 -0.005166
# 2 -0.000301 0.039640 0.011198 -0.003785 0.016565 0.001898
# 3 -0.002570 0.011198 0.027300 0.002635 0.007658 0.001603
# 4 -0.001049 -0.003785 0.002635 0.041921 0.003095 -0.001531
# 5 -0.003089 0.016565 0.007658 0.003095 0.048277 0.006921
# 6 -0.005166 0.001898 0.001603 -0.001531 0.006921 0.041440
#
#
# Mechanical properties :
#
#
# Convention : Reuss Voigt Hill
#
# Bulk Modulus (GPa) = 10.13362 14.53065 12.33213
# Shear Modulus (GPa) = 21.74826 25.49731 23.62278
#
# Velocity S-wave (km/s) = 3.19703 3.46164 3.33196
# Velocity P-wave (km/s) = 4.28841 4.77558 4.53854
#
# Compressibility (1/GPa) = 0.09868144
#
# Stress axis : x y z
#
# Youngs Moduli (GPa) = 66.28090 25.22714 36.63025
#
# Poissons Ratio (x) = 0.00759 0.09413
# Poissons Ratio (y) = 0.01994 -0.41018
# Poissons Ratio (z) = 0.17032 -0.28249
#
# Static dielectric constant tensor:
#      x y z
#    x 3.687120 -0.061540 -0.029890 
#    y -0.061540 3.799720 0.085640 
#    z -0.029890 0.085640 3.646150 
# 
# 
# High freq. dielectric constant tensor:
#      x y z
#    x 1.832810 -0.009910 0.002040 
#    y -0.009910 1.833970 0.005980 
#    z 0.002040 0.005980 1.819990 
# 
# From -- ./inp_files/90880.got.cif
#   From: 2010.06.25/outbox.cif.g09.slc.cpg/sg2_46_cif.got.tgz:90880.got - 2010.06.27 13:26:56.
