data_PCOD8027017
_publ_section_title
;
Structure prediction by ZEFSAII (Michael W. Deem and Ramdas Pophale) SiO2 
 PCOD8027017
Probable space group: P -1
;
_chemical_formula_sum "Si O2"
_cell_formula_units_Z 14
_cell_length_a 13.563872
_cell_length_b 14.025975
_cell_length_c 9.666389
_cell_angle_alpha 57.542388
_cell_angle_beta 28.222474
_cell_angle_gamma 50.692198
_cell_volume 671.736371
_symmetry_space_group_name_H-M "P -1"
_symmetry_group_IT_number 2
_symmetry_cell_setting 'triclinic'
loop_
_space_group_symop_operation_xyz
x,y,z
-x,-y,-z
loop_
_atom_site_type_symbol
_atom_site_label
_atom_site_fract_x
_atom_site_fract_y
_atom_site_fract_z
Si Si1 0.205441 0.971545 0.663348
Si Si2 0.739636 0.575536 0.729065
Si Si3 0.760273 0.132188 0.581372
Si Si4 0.622874 0.507967 0.642214
Si Si5 0.037940 0.251678 0.290320
Si Si6 0.547604 0.721677 0.371707
Si Si7 0.349739 0.167352 0.231746
O O1 0.130350 0.968952 0.596813
O O2 0.401670 0.837035 0.562981
O O3 0.304219 0.076994 0.468245
O O4 0.000000 0.000000 0.000000
O O5 0.699642 0.576865 0.613780
O O6 0.647393 0.716463 0.780095
O O7 0.000000 0.500000 0.500000
O O8 0.609782 0.503622 0.023563
O O9 0.963988 0.145877 0.403277
O O10 0.587966 0.261142 0.620656
O O11 0.597686 0.092725 0.913245
O O12 0.814451 0.374676 0.483180
O O13 0.576858 0.591205 0.498008
O O14 0.148394 0.210916 0.334598
O O15 0.207050 0.275439 0.956424
#
# Coordination Sequence:
#
# PCOD8027017 Si02
#       7
#     2   2   2   2   2   2   2
#     4  10  24  44  64  91 130 168 205 266 318 365
#     4  11  24  38  65  94 125 171 203 263 313 369
#     4   9  22  43  63  94 123 170 209 254 316 368
#     4  11  23  41  62  97 130 158 216 252 320 378
#     4  11  21  40  68  96 119 172 209 255 319 370
#     4   9  24  41  62  92 130 161 208 262 311 377
#     4  11  22  44  66  91 129 164 218 256 308 378
#
# _framework density 20.84151
#
# number of rings (size 3 to 8) (size 9 to 14) (size 15 to 20)
#    0.857    0.857    2.857    0.857    2.000    3.429 
#    0.000    1.429    0.000    0.000    0.000    0.000 
#    0.000    0.000    0.000    0.000    0.000    0.000 
#
# Total GULP energy -173578.526789 kJ/mol
# GULP energy per Si atom -12398.466199 kJ/mol
# Density = 2.079407 g / cm^3
# Si number density = 20.841510 Si / 1000 Ang^3
#
#
#
# Elastic Constant Matrix: (Units=GPa)
#
#
# Indices 1 2 3 4 5 6 
#
# 1 57.6631 6.7135 27.3535 -1.1874 -14.7651 18.2287
# 2 6.7135 48.3037 15.3174 0.2613 1.9762 11.6060
# 3 27.3535 15.3174 129.9897 10.2279 5.3631 3.2423
# 4 -1.1874 0.2613 10.2279 41.6845 2.3097 1.5752
# 5 -14.7651 1.9762 5.3631 2.3097 33.2634 1.9735
# 6 18.2287 11.6060 3.2423 1.5752 1.9735 35.7741
#
#
#
# Elastic Compliance Matrix: (Units=1/GPa)
#
#
# Indices 1 2 3 4 5 6 
#
# 1 0.029056 0.001180 -0.006647 0.002224 0.014664 -0.015493
# 2 0.001180 0.023356 -0.002873 0.000892 0.000009 -0.007958
# 3 -0.006647 -0.002873 0.009710 -0.002453 -0.004400 0.003790
# 4 0.002224 0.000892 -0.002453 0.024750 -0.000254 -0.002276
# 5 0.014664 0.000009 -0.004400 -0.000254 0.037842 -0.009153
# 6 -0.015493 -0.007958 0.003790 -0.002276 -0.009153 0.038691
#
#
# Mechanical properties :
#
#
# Convention : Reuss Voigt Hill
#
# Bulk Modulus (GPa) = 22.00543 37.19169 29.59856
# Shear Modulus (GPa) = 25.61069 34.58254 30.09661
#
# Velocity S-wave (km/s) = 3.50927 4.07788 3.80422
# Velocity P-wave (km/s) = 5.19628 6.32897 5.79039
#
# Compressibility (1/GPa) = 0.04544332
#
# Stress axis : x y z
#
# Youngs Moduli (GPa) = 34.41634 42.81530 102.98534
#
# Poissons Ratio (x) = -0.05052 0.68452
# Poissons Ratio (y) = -0.04061 0.29583
# Poissons Ratio (z) = 0.22876 0.12299
#
# Static dielectric constant tensor:
#      x y z
#    x 3.661740 0.118690 -0.038120 
#    y 0.118690 3.644850 0.060350 
#    z -0.038120 0.060350 3.759650 
# 
# 
# High freq. dielectric constant tensor:
#      x y z
#    x 1.801170 0.005810 -0.005610 
#    y 0.005810 1.817790 0.002870 
#    z -0.005610 0.002870 1.825020 
# 
# From -- ./inp_files/269671.got.cif
#   From: 2010.06.25/outbox.cif.g09.slc.cpg/sg2_135_cif.got.tgz:269671.got - 2010.06.27 13:26:56.
