data_PCOD8027632
_publ_section_title
;
Structure prediction by ZEFSAII (Michael W. Deem and Ramdas Pophale) SiO2 
 PCOD8027632
Probable space group: P -1
;
_chemical_formula_sum "Si O2"
_cell_formula_units_Z 16
_cell_length_a 17.481942
_cell_length_b 8.715514
_cell_length_c 9.408942
_cell_angle_alpha 98.947888
_cell_angle_beta 37.277461
_cell_angle_gamma 117.155033
_cell_volume 712.940630
_symmetry_space_group_name_H-M "P -1"
_symmetry_group_IT_number 2
_symmetry_cell_setting 'triclinic'
loop_
_space_group_symop_operation_xyz
x,y,z
-x,-y,-z
loop_
_atom_site_type_symbol
_atom_site_label
_atom_site_fract_x
_atom_site_fract_y
_atom_site_fract_z
Si Si1 0.089246 0.341610 0.559684
Si Si2 0.779101 0.294420 0.979780
Si Si3 0.646461 0.999512 0.368868
Si Si4 0.584972 0.424175 0.777073
Si Si5 0.184007 0.334600 0.113713
Si Si6 0.055980 0.996464 0.069415
Si Si7 0.478943 0.370599 0.640748
Si Si8 0.539957 0.989861 0.100805
O O1 0.256002 0.521998 0.380054
O O2 0.089545 0.286819 0.389873
O O3 0.956186 0.379299 0.763119
O O4 0.059931 0.182143 0.689477
O O5 0.760923 0.465600 0.008478
O O6 0.680858 0.171162 0.242737
O O7 0.709908 0.160855 0.922151
O O8 0.526268 0.810175 0.432995
O O9 0.581906 0.008565 0.616808
O O10 0.792340 0.995820 0.178719
O O11 0.610629 0.487841 0.581967
O O12 0.468789 0.201170 0.903607
O O13 0.500000 0.500000 0.000000
O O14 0.076320 0.176400 0.138396
O O15 0.323583 0.316568 0.940441
O O16 0.000000 0.000000 0.000000
O O17 0.500000 0.500000 0.500000
O O18 0.500000 0.000000 0.000000
#
# Coordination Sequence:
#
# PCOD8027632 Si02
#       8
#     2   2   2   2   2   2   2   2
#     4  11  25  45  68 101 143 182 229 285 357 407
#     4  11  24  46  72 101 141 184 231 282 356 413
#     4  10  24  46  68 100 136 186 230 280 352 407
#     4  12  27  45  70 107 139 177 238 292 342 412
#     4  11  23  43  72  98 135 189 230 282 346 414
#     4  10  25  43  68 103 139 183 232 285 344 414
#     4  11  24  42  72  99 137 183 233 285 341 408
#     4  12  27  45  73 103 140 182 237 289 340 416
#
# _framework density 22.442261999999999
#
# number of rings (size 3 to 8) (size 9 to 14) (size 15 to 20)
#    0.000    1.000    2.500    2.625    7.000    3.000 
#    0.000    2.500    0.000    0.000    0.000    0.000 
#    0.000    0.000    0.000    0.000    0.000    0.000 
#
# Total GULP energy -198339.909959 kJ/mol
# GULP energy per Si atom -12396.244372 kJ/mol
# Density = 2.239118 g / cm^3
# Si number density = 22.442262 Si / 1000 Ang^3
#
#
#
# Elastic Constant Matrix: (Units=GPa)
#
#
# Indices 1 2 3 4 5 6 
#
# 1 160.0155 43.9607 39.8216 8.3660 17.6314 14.9198
# 2 43.9607 119.8352 31.5961 16.9855 2.4948 1.9102
# 3 39.8216 31.5961 89.9612 16.8691 17.7101 -2.1824
# 4 8.3660 16.9855 16.8691 30.1280 6.0125 1.8384
# 5 17.6314 2.4948 17.7101 6.0125 46.7702 -0.0495
# 6 14.9198 1.9102 -2.1824 1.8384 -0.0495 38.8684
#
#
#
# Elastic Compliance Matrix: (Units=1/GPa)
#
#
# Indices 1 2 3 4 5 6 
#
# 1 0.007997 -0.002314 -0.002615 0.001151 -0.002052 -0.003160
# 2 -0.002314 0.010324 -0.002103 -0.004365 0.001679 0.000471
# 3 -0.002615 -0.002103 0.014903 -0.005810 -0.003796 0.002214
# 4 0.001151 -0.004365 -0.005810 0.039345 -0.003061 -0.002418
# 5 -0.002052 0.001679 -0.003796 -0.003061 0.023897 0.000667
# 6 -0.003160 0.000471 0.002214 -0.002418 0.000667 0.027157
#
#
# Mechanical properties :
#
#
# Convention : Reuss Voigt Hill
#
# Bulk Modulus (GPa) = 52.19362 66.72985 59.46173
# Shear Modulus (GPa) = 34.70493 40.11554 37.41023
#
# Velocity S-wave (km/s) = 3.93671 4.23247 4.08726
# Velocity P-wave (km/s) = 6.63105 7.32691 6.98765
#
# Compressibility (1/GPa) = 0.01915943
#
# Stress axis : x y z
#
# Youngs Moduli (GPa) = 125.05447 96.86018 67.10275
#
# Poissons Ratio (x) = 0.22412 0.17551
# Poissons Ratio (y) = 0.28936 0.14108
# Poissons Ratio (z) = 0.32708 0.20365
#
# Static dielectric constant tensor:
#      x y z
#    x 4.867730 0.022520 -0.149530 
#    y 0.022520 4.173740 0.001420 
#    z -0.149530 0.001420 4.578280 
# 
# 
# High freq. dielectric constant tensor:
#      x y z
#    x 1.903960 -0.004860 0.004520 
#    y -0.004860 1.886480 0.006590 
#    z 0.004520 0.006590 1.886650 
# 
# From -- ./inp_files/329111.got.cif
#   From: 2010.06.25/outbox.cif.g09.slc.cpg/sg2_165_cif.got.tgz:329111.got - 2010.06.27 13:26:56.
