data_PCOD8027006
_publ_section_title
;
Structure prediction by ZEFSAII (Michael W. Deem and Ramdas Pophale) SiO2 
 PCOD8027006
Probable space group: P -1
;
_chemical_formula_sum "Si O2"
_cell_formula_units_Z 12
_cell_length_a 11.857386
_cell_length_b 18.367717
_cell_length_c 20.483130
_cell_angle_alpha 158.934503
_cell_angle_beta 159.134118
_cell_angle_gamma 30.420643
_cell_volume 569.505546
_symmetry_space_group_name_H-M "P -1"
_symmetry_group_IT_number 2
_symmetry_cell_setting 'triclinic'
loop_
_space_group_symop_operation_xyz
x,y,z
-x,-y,-z
loop_
_atom_site_type_symbol
_atom_site_label
_atom_site_fract_x
_atom_site_fract_y
_atom_site_fract_z
Si Si1 0.598058 0.496752 0.396628
Si Si2 0.437410 0.214461 0.498595
Si Si3 0.770652 0.096604 0.095420
Si Si4 0.205899 0.355511 0.243457
Si Si5 0.898704 0.474875 0.054312
Si Si6 0.669614 0.900283 0.263748
O O1 0.667564 0.616994 0.467942
O O2 0.632969 0.258860 0.205588
O O3 0.853028 0.587052 0.664421
O O4 0.244218 0.532411 0.258598
O O5 0.142851 0.149997 0.331353
O O6 0.554322 0.017909 0.362294
O O7 0.726618 0.299585 0.771028
O O8 0.595752 0.092892 0.928868
O O9 0.715193 0.877923 0.916460
O O10 0.500000 0.500000 0.500000
O O11 0.914689 0.397259 0.072945
O O12 0.698531 0.670389 0.108837
O O13 0.000000 0.000000 0.500000
#
# Coordination Sequence:
#
# PCOD8027006 Si02
#       6
#     2   2   2   2   2   2
#     4  11  22  42  69  93 129 170 214 261 317 380
#     4  12  24  40  67 100 129 165 215 268 316 375
#     4  12  25  40  69  95 130 170 213 261 326 379
#     4  10  24  44  63  94 130 170 214 261 319 382
#     4  11  24  41  65  98 128 164 220 266 310 378
#     4  12  22  40  68  94 124 170 217 261 310 376
#
# _framework density 21.070909
#
# number of rings (size 3 to 8) (size 9 to 14) (size 15 to 20)
#    0.000    0.667    5.000    3.500    0.000    4.667 
#    0.000    1.667    0.000    0.000    0.000    0.000 
#    0.000    0.000    0.000    0.000    0.000    0.000 
#
# Total GULP energy -148855.749674 kJ/mol
# GULP energy per Si atom -12404.645806 kJ/mol
# Density = 2.102295 g / cm^3
# Si number density = 21.070909 Si / 1000 Ang^3
#
#
#
# Elastic Constant Matrix: (Units=GPa)
#
#
# Indices 1 2 3 4 5 6 
#
# 1 62.7813 29.3452 31.5449 -1.1485 -15.9991 15.9124
# 2 29.3452 115.0073 31.9629 25.2659 -4.1709 20.0519
# 3 31.5449 31.9629 52.1030 21.3310 -12.3577 4.0685
# 4 -1.1485 25.2659 21.3310 40.8393 0.3143 -6.5639
# 5 -15.9991 -4.1709 -12.3577 0.3143 40.7962 -6.6015
# 6 15.9124 20.0519 4.0685 -6.5639 -6.6015 39.2848
#
#
#
# Elastic Compliance Matrix: (Units=1/GPa)
#
#
# Indices 1 2 3 4 5 6 
#
# 1 0.030443 -0.003989 -0.019673 0.012703 0.004606 -0.005361
# 2 -0.003989 0.013215 -0.002306 -0.008124 -0.001912 -0.006569
# 3 -0.019673 -0.002306 0.042135 -0.020822 0.005328 0.002198
# 4 0.012703 -0.008124 -0.020822 0.042037 -0.001188 0.007982
# 5 0.004606 -0.001912 0.005328 -0.001188 0.028249 0.003107
# 6 -0.005361 -0.006569 0.002198 0.007982 0.003107 0.032608
#
#
# Mechanical properties :
#
#
# Convention : Reuss Voigt Hill
#
# Bulk Modulus (GPa) = 29.53720 46.17753 37.85737
# Shear Modulus (GPa) = 19.84845 33.31997 26.58421
#
# Velocity S-wave (km/s) = 3.07250 3.98090 3.55583
# Velocity P-wave (km/s) = 5.16096 6.56453 5.90459
#
# Compressibility (1/GPa) = 0.03385561
#
# Stress axis : x y z
#
# Youngs Moduli (GPa) = 32.84837 75.67338 23.73328
#
# Poissons Ratio (x) = 0.30186 0.46691
# Poissons Ratio (y) = 0.13103 0.05473
# Poissons Ratio (z) = 0.64624 0.17451
#
# Static dielectric constant tensor:
#      x y z
#    x 4.006080 0.313530 -0.369750 
#    y 0.313530 3.866780 -0.232540 
#    z -0.369750 -0.232540 3.905140 
# 
# 
# High freq. dielectric constant tensor:
#      x y z
#    x 1.816950 0.004780 -0.019390 
#    y 0.004780 1.831240 0.008200 
#    z -0.019390 0.008200 1.837940 
# 
# From -- ./inp_files/65269.got.cif
#   From: 2010.06.25/outbox.cif.g09.slc.cpg/sg2_33_cif.got.tgz:65269.got - 2010.06.27 13:26:56.
