data_PCOD8027879
_publ_section_title
;
Structure prediction by ZEFSAII (Michael W. Deem and Ramdas Pophale) SiO2 
 PCOD8027879
Probable space group: P -1
;
_chemical_formula_sum "Si O2"
_cell_formula_units_Z 16
_cell_length_a 15.944965
_cell_length_b 8.805568
_cell_length_c 14.583526
_cell_angle_alpha 80.158477
_cell_angle_beta 152.231120
_cell_angle_gamma 115.823200
_cell_volume 737.895591
_symmetry_space_group_name_H-M "P -1"
_symmetry_group_IT_number 2
_symmetry_cell_setting 'triclinic'
loop_
_space_group_symop_operation_xyz
x,y,z
-x,-y,-z
loop_
_atom_site_type_symbol
_atom_site_label
_atom_site_fract_x
_atom_site_fract_y
_atom_site_fract_z
Si Si1 0.805542 0.776590 0.811266
Si Si2 0.388958 0.776955 0.401276
Si Si3 0.805965 0.750223 0.604469
Si Si4 0.992303 0.746414 0.494945
Si Si5 0.300067 0.696869 0.683947
Si Si6 0.832523 0.947839 0.208540
Si Si7 0.885384 0.453927 0.670099
Si Si8 0.304277 0.586858 0.155243
O O1 0.560423 0.726452 0.588735
O O2 0.848838 0.741583 0.753870
O O3 0.804515 0.632148 0.893279
O O4 0.000000 0.000000 0.000000
O O5 0.191555 0.661840 0.296855
O O6 0.291459 0.708188 0.211210
O O7 0.500000 0.000000 0.500000
O O8 0.811585 0.591323 0.573734
O O9 0.562706 0.703530 0.357012
O O10 0.005488 0.963868 0.733880
O O11 0.209562 0.788626 0.648866
O O12 0.805557 0.519550 0.362374
O O13 0.859474 0.797869 0.298299
O O14 0.092023 0.875557 0.669334
O O15 0.220343 0.691546 0.503453
O O16 0.573127 0.834743 0.937539
O O17 0.161503 0.576953 0.931054
#
# Coordination Sequence:
#
# PCOD8027879 Si02
#       8
#     2   2   2   2   2   2   2   2
#     4  11  23  40  65  94 135 182 224 281 333 393
#     4  11  23  40  65  96 131 181 233 272 337 399
#     4  11  24  43  65 100 135 175 226 281 335 393
#     4  10  24  48  70 105 133 176 218 277 359 401
#     4  11  25  45  71 105 137 170 227 282 337 411
#     4  11  24  45  76 100 136 176 223 278 344 414
#     4  12  24  41  69  97 135 181 223 279 340 386
#     4  11  24  45  64  93 145 178 227 286 325 397
#
# _framework density 21.683285000000001
#
# number of rings (size 3 to 8) (size 9 to 14) (size 15 to 20)
#    0.000    1.000    3.750    2.625    3.500    5.000 
#    9.000    0.000    0.000    0.000    0.000    0.000 
#    0.000    0.000    0.000    0.000    0.000    0.000 
#
# Total GULP energy -198464.317897 kJ/mol
# GULP energy per Si atom -12404.019869 kJ/mol
# Density = 2.163393 g / cm^3
# Si number density = 21.683285 Si / 1000 Ang^3
#
#
#
# Elastic Constant Matrix: (Units=GPa)
#
#
# Indices 1 2 3 4 5 6 
#
# 1 94.5595 39.3411 60.0703 -10.5665 18.3920 2.1537
# 2 39.3411 66.1992 24.5065 4.2390 -0.8353 -16.1658
# 3 60.0703 24.5065 145.1864 -4.0719 9.4181 10.0136
# 4 -10.5665 4.2390 -4.0719 32.4599 2.9195 -1.6950
# 5 18.3920 -0.8353 9.4181 2.9195 31.7874 4.3786
# 6 2.1537 -16.1658 10.0136 -1.6950 4.3786 23.6092
#
#
#
# Elastic Compliance Matrix: (Units=1/GPa)
#
#
# Indices 1 2 3 4 5 6 
#
# 1 0.024073 -0.014475 -0.005979 0.009762 -0.012532 -0.006546
# 2 -0.014475 0.029669 -0.001127 -0.008350 0.007483 0.020126
# 3 -0.005979 -0.001127 0.009765 -0.000932 0.001265 -0.004669
# 4 0.009762 -0.008350 -0.000932 0.035622 -0.008579 -0.002064
# 5 -0.012532 0.007483 0.001265 -0.008579 0.039628 -0.002235
# 6 -0.006546 0.020126 -0.004669 -0.002064 -0.002235 0.058981
#
#
# Mechanical properties :
#
#
# Convention : Reuss Voigt Hill
#
# Bulk Modulus (GPa) = 49.14697 61.53118 55.33908
# Shear Modulus (GPa) = 20.18719 29.70645 24.94682
#
# Velocity S-wave (km/s) = 3.05454 3.70539 3.39560
# Velocity P-wave (km/s) = 5.92919 6.83706 6.39925
#
# Compressibility (1/GPa) = 0.02034713
#
# Stress axis : x y z
#
# Youngs Moduli (GPa) = 41.54019 33.70507 102.40251
#
# Poissons Ratio (x) = 0.48788 0.61223
# Poissons Ratio (y) = 0.60129 0.11538
# Poissons Ratio (z) = 0.24835 0.03798
#
# Static dielectric constant tensor:
#      x y z
#    x 3.990510 -0.099880 0.106310 
#    y -0.099880 3.944850 0.115610 
#    z 0.106310 0.115610 4.088780 
# 
# 
# High freq. dielectric constant tensor:
#      x y z
#    x 1.854410 -0.006810 0.006830 
#    y -0.006810 1.855160 0.000370 
#    z 0.006830 0.000370 1.859490 
# 
# From -- ./inp_files/529843.got.cif
#   From: 2010.06.25/outbox.cif.g09.slc.cpg/sg2_265_cif.got.tgz:529843.got - 2010.06.27 13:26:56.
