data_PCOD8027939
_publ_section_title
;
Structure prediction by ZEFSAII (Michael W. Deem and Ramdas Pophale) SiO2 
 PCOD8027939
Probable space group: P -1
;
_chemical_formula_sum "Si O2"
_cell_formula_units_Z 16
_cell_length_a 8.017681
_cell_length_b 8.706169
_cell_length_c 15.561377
_cell_angle_alpha 91.042462
_cell_angle_beta 121.614689
_cell_angle_gamma 131.363988
_cell_volume 570.210509
_symmetry_space_group_name_H-M "P -1"
_symmetry_group_IT_number 2
_symmetry_cell_setting 'triclinic'
loop_
_space_group_symop_operation_xyz
x,y,z
-x,-y,-z
loop_
_atom_site_type_symbol
_atom_site_label
_atom_site_fract_x
_atom_site_fract_y
_atom_site_fract_z
Si Si1 0.560908 0.844577 0.577409
Si Si2 0.064505 0.742908 0.046929
Si Si3 0.632209 0.669984 0.131057
Si Si4 0.678069 0.189775 0.312696
Si Si5 0.054439 0.635379 0.309084
Si Si6 0.848234 0.296610 0.117360
Si Si7 0.989766 0.842773 0.698528
Si Si8 0.304363 0.166045 0.023189
O O1 0.332871 0.764095 0.591505
O O2 0.382543 0.774264 0.441306
O O3 0.645179 0.715299 0.602732
O O4 0.900111 0.149540 0.680742
O O5 0.362354 0.908896 0.191835
O O6 0.045291 0.917241 0.015274
O O7 0.075377 0.648205 0.962292
O O8 0.725614 0.497722 0.996340
O O9 0.587212 0.458074 0.142014
O O10 0.754094 0.859784 0.239901
O O11 0.835058 0.831136 0.099258
O O12 0.968344 0.248815 0.371832
O O13 0.745876 0.383074 0.275889
O O14 0.060232 0.567161 0.214901
O O15 0.956140 0.208806 0.196131
O O16 0.474732 0.107365 0.037653
#
# Coordination Sequence:
#
# PCOD8027939 Si02
#       8
#     2   2   2   2   2   2   2   2
#     4  11  26  49  75  98 134 181 239 282 348 394
#     4  12  24  40  66 102 139 180 221 267 351 409
#     4  11  26  37  66  96 135 186 230 269 332 414
#     4  11  26  44  73 104 140 179 228 282 345 410
#     4  10  24  49  74  97 134 184 224 297 340 399
#     4  11  23  44  67  93 149 174 216 288 345 394
#     4  11  24  45  67 105 136 181 232 285 331 414
#     4  11  22  43  59  92 141 180 219 276 332 404
#
# _framework density 28.059812000000001
#
# number of rings (size 3 to 8) (size 9 to 14) (size 15 to 20)
#    0.000    1.000    3.750    2.625    7.000    4.000 
#    0.000    2.500    0.000    0.000    0.000    0.000 
#    0.000    0.000    0.000    0.000    0.000    0.000 
#
# Total GULP energy -198305.351713 kJ/mol
# GULP energy per Si atom -12394.084482 kJ/mol
# Density = 2.799595 g / cm^3
# Si number density = 28.059812 Si / 1000 Ang^3
#
#
#
# Elastic Constant Matrix: (Units=GPa)
#
#
# Indices 1 2 3 4 5 6 
#
# 1 146.2259 42.0947 17.7346 -18.6439 -5.2380 -16.5120
# 2 42.0947 120.3000 -4.3064 -11.4434 10.9633 5.9156
# 3 17.7346 -4.3064 44.3761 -7.1666 6.3633 -1.5091
# 4 -18.6439 -11.4434 -7.1666 37.6433 -2.0430 13.8030
# 5 -5.2380 10.9633 6.3633 -2.0430 26.5043 -7.7549
# 6 -16.5120 5.9156 -1.5091 13.8030 -7.7549 55.9750
#
#
#
# Elastic Compliance Matrix: (Units=1/GPa)
#
#
# Indices 1 2 3 4 5 6 
#
# 1 0.009330 -0.003966 -0.004558 0.001594 0.005710 0.003447
# 2 -0.003966 0.011014 0.004080 0.003244 -0.007248 -0.004028
# 3 -0.004558 0.004080 0.026809 0.004881 -0.009702 -0.003601
# 4 0.001594 0.003244 0.004881 0.032067 -0.002048 -0.007932
# 5 0.005710 -0.007248 -0.009702 -0.002048 0.046709 0.009165
# 6 0.003447 -0.004028 -0.003601 -0.007932 0.009165 0.022436
#
#
# Mechanical properties :
#
#
# Convention : Reuss Voigt Hill
#
# Bulk Modulus (GPa) = 26.13356 46.88309 36.50832
# Shear Modulus (GPa) = 29.41020 41.04980 35.23000
#
# Velocity S-wave (km/s) = 3.24099 3.82899 3.54719
# Velocity P-wave (km/s) = 4.83105 6.02435 5.46039
#
# Compressibility (1/GPa) = 0.03826497
#
# Stress axis : x y z
#
# Youngs Moduli (GPa) = 107.17832 90.79675 37.30068
#
# Poissons Ratio (x) = 0.36012 0.17001
# Poissons Ratio (y) = 0.42509 -0.15219
# Poissons Ratio (z) = 0.48851 -0.37046
#
# Static dielectric constant tensor:
#      x y z
#    x 5.598660 -0.551680 0.043630 
#    y -0.551680 5.590520 0.308040 
#    z 0.043630 0.308040 5.031010 
# 
# 
# High freq. dielectric constant tensor:
#      x y z
#    x 2.158520 -0.035890 0.010680 
#    y -0.035890 2.169750 0.013310 
#    z 0.010680 0.013310 2.134090 
# 
# From -- ./inp_files/557271.got.cif
#   From: 2010.06.25/outbox.cif.g09.slc.cpg/sg2_279_cif.got.tgz:557271.got - 2010.06.27 13:26:56.
