data_PCOD8027671
_publ_section_title
;
Structure prediction by ZEFSAII (Michael W. Deem and Ramdas Pophale) SiO2 
 PCOD8027671
Probable space group: P -1
;
_chemical_formula_sum "Si O2"
_cell_formula_units_Z 16
_cell_length_a 11.487617
_cell_length_b 8.946518
_cell_length_c 11.268098
_cell_angle_alpha 60.852078
_cell_angle_beta 51.880151
_cell_angle_gamma 49.828003
_cell_volume 688.518945
_symmetry_space_group_name_H-M "P -1"
_symmetry_group_IT_number 2
_symmetry_cell_setting 'triclinic'
loop_
_space_group_symop_operation_xyz
x,y,z
-x,-y,-z
loop_
_atom_site_type_symbol
_atom_site_label
_atom_site_fract_x
_atom_site_fract_y
_atom_site_fract_z
Si Si1 0.056868 0.718005 0.091190
Si Si2 0.777852 0.313371 0.464334
Si Si3 0.722553 0.086111 0.123306
Si Si4 0.550942 0.572730 0.702173
Si Si5 0.327509 0.086053 0.005449
Si Si6 0.267468 0.502115 0.834939
Si Si7 0.158853 0.429565 0.340004
Si Si8 0.170021 0.091575 0.342680
O O1 0.087028 0.533852 0.220147
O O2 0.178116 0.801566 0.023476
O O3 0.094569 0.648897 0.957630
O O4 0.858108 0.875301 0.172931
O O5 0.644237 0.516185 0.537836
O O6 0.750543 0.381196 0.319705
O O7 0.965733 0.222428 0.436954
O O8 0.738137 0.134481 0.579745
O O9 0.582664 0.196561 0.273165
O O10 0.641335 0.066765 0.059868
O O11 0.435496 0.466126 0.819592
O O12 0.703038 0.509569 0.726209
O O13 0.276098 0.294184 0.894261
O O14 0.192786 0.101050 0.182972
O O15 0.500000 0.000000 0.000000
O O16 0.245791 0.196925 0.340154
O O17 0.000000 0.500000 0.500000
#
# Coordination Sequence:
#
# PCOD8027671 Si02
#       8
#     2   2   2   2   2   2   2   2
#     4  10  24  46  70 106 139 187 240 291 357 419
#     4  11  25  47  72 103 143 191 237 292 360 423
#     4  10  25  43  72 103 143 186 234 301 351 419
#     4  11  25  46  68 106 141 190 231 297 357 422
#     4  12  25  42  71 108 142 185 243 296 350 427
#     4  11  25  45  75 100 146 186 239 298 354 420
#     4  12  25  44  73 102 146 183 237 289 358 433
#     4  11  25  45  72 104 139 189 241 292 353 424
#
# _framework density 23.238285999999999
#
# number of rings (size 3 to 8) (size 9 to 14) (size 15 to 20)
#    0.000    1.000    2.500    2.625    5.250    5.000 
#    0.000    4.375    0.000    0.000    0.000    0.000 
#    0.000    0.000    0.000    0.000    0.000    0.000 
#
# Total GULP energy -198263.801463 kJ/mol
# GULP energy per Si atom -12391.487591 kJ/mol
# Density = 2.318539 g / cm^3
# Si number density = 23.238286 Si / 1000 Ang^3
#
#
#
# Elastic Constant Matrix: (Units=GPa)
#
#
# Indices 1 2 3 4 5 6 
#
# 1 87.9859 48.7801 37.0696 5.4354 14.5841 9.2992
# 2 48.7801 142.9280 78.7247 20.4246 19.3098 5.9912
# 3 37.0696 78.7247 130.4267 8.6157 25.6018 -1.4900
# 4 5.4354 20.4246 8.6157 55.3434 -3.2219 0.3603
# 5 14.5841 19.3098 25.6018 -3.2219 31.8564 10.2087
# 6 9.2992 5.9912 -1.4900 0.3603 10.2087 37.7635
#
#
#
# Elastic Compliance Matrix: (Units=1/GPa)
#
#
# Indices 1 2 3 4 5 6 
#
# 1 0.014749 -0.003815 -0.001426 0.000050 -0.002519 -0.002403
# 2 -0.003815 0.012161 -0.005868 -0.003248 -0.000937 -0.000937
# 3 -0.001426 -0.005868 0.013172 -0.000215 -0.007637 0.003868
# 4 0.000050 -0.003248 -0.000215 0.019557 0.004377 -0.000875
# 5 -0.002519 -0.000937 -0.007637 0.004377 0.043308 -0.011282
# 6 -0.002403 -0.000937 0.003868 -0.000875 -0.011282 0.030432
#
#
# Mechanical properties :
#
#
# Convention : Reuss Voigt Hill
#
# Bulk Modulus (GPa) = 55.97570 76.72105 66.34838
# Shear Modulus (GPa) = 30.95007 38.11041 34.53024
#
# Velocity S-wave (km/s) = 3.65342 4.05406 3.85895
# Velocity P-wave (km/s) = 6.47585 7.41623 6.96194
#
# Compressibility (1/GPa) = 0.01786490
#
# Stress axis : x y z
#
# Youngs Moduli (GPa) = 67.79922 82.23271 75.91926
#
# Poissons Ratio (x) = 0.31369 0.10825
# Poissons Ratio (y) = 0.25863 0.44550
# Poissons Ratio (z) = 0.09667 0.48255
#
# Static dielectric constant tensor:
#      x y z
#    x 4.274070 0.464150 0.542110 
#    y 0.464150 5.408710 3.300590 
#    z 0.542110 3.300590 16.358360 
# 
# 
# High freq. dielectric constant tensor:
#      x y z
#    x 1.922990 0.012470 -0.010010 
#    y 0.012470 1.927240 0.020720 
#    z -0.010010 0.020720 1.910930 
# 
# From -- ./inp_files/419098.got.cif
#   From: 2010.06.25/outbox.cif.g09.slc.cpg/sg2_210_cif.got.tgz:419098.got - 2010.06.27 13:26:56.
