data_PCOD8027828
_publ_section_title
;
Structure prediction by ZEFSAII (Michael W. Deem and Ramdas Pophale) SiO2 
 PCOD8027828
Probable space group: P -1
;
_chemical_formula_sum "Si O2"
_cell_formula_units_Z 12
_cell_length_a 10.692164
_cell_length_b 4.887198
_cell_length_c 11.087021
_cell_angle_alpha 112.945141
_cell_angle_beta 51.464695
_cell_angle_gamma 94.252177
_cell_volume 405.714598
_symmetry_space_group_name_H-M "P -1"
_symmetry_group_IT_number 2
_symmetry_cell_setting 'triclinic'
loop_
_space_group_symop_operation_xyz
x,y,z
-x,-y,-z
loop_
_atom_site_type_symbol
_atom_site_label
_atom_site_fract_x
_atom_site_fract_y
_atom_site_fract_z
Si Si1 0.482426 0.734220 0.850545
Si Si2 0.166901 0.598072 0.443835
Si Si3 0.632487 0.733622 0.312219
Si Si4 0.821005 0.783862 0.918852
Si Si5 0.241093 0.846228 0.200388
Si Si6 0.163778 0.812639 0.752272
O O1 0.678501 0.716059 0.711448
O O2 0.455607 0.406906 0.766696
O O3 0.352717 0.990417 0.896184
O O4 0.437286 0.780668 0.031335
O O5 0.201679 0.843497 0.365747
O O6 0.176281 0.758185 0.591711
O O7 0.000000 0.500000 0.500000
O O8 0.711562 0.478384 0.317222
O O9 0.500000 0.000000 0.500000
O O10 0.778714 0.877040 0.195178
O O11 0.856370 0.859505 0.767985
O O12 0.823481 0.431557 0.869517
O O13 0.973908 0.851298 0.914581
#
# Coordination Sequence:
#
# PCOD8027828 Si02
#       6
#     2   2   2   2   2   2
#     4  10  27  48  79 112 153 203 254 313 385 444
#     4  12  25  49  80 112 156 201 254 318 372 464
#     4  12  27  49  78 110 157 197 254 316 371 459
#     4  10  24  47  73 114 151 193 253 305 386 438
#     4  10  24  47  72 113 151 201 244 309 384 441
#     4  12  27  47  77 116 149 200 256 308 381 443
#
# _framework density 29.577439999999999
#
# number of rings (size 3 to 8) (size 9 to 14) (size 15 to 20)
#    1.000    0.000    3.333    2.000    2.333    4.000 
#    0.000    0.000    0.000    0.000    0.000    0.000 
#    0.000    0.000    0.000    0.000    0.000    0.000 
#
# Total GULP energy -148705.827712 kJ/mol
# GULP energy per Si atom -12392.152309 kJ/mol
# Density = 2.951012 g / cm^3
# Si number density = 29.577440 Si / 1000 Ang^3
#
#
#
# Elastic Constant Matrix: (Units=GPa)
#
#
# Indices 1 2 3 4 5 6 
#
# 1 146.2033 23.0952 63.3510 -0.2318 -32.1065 10.9723
# 2 23.0952 87.9217 40.4216 -14.6826 -24.9479 20.3451
# 3 63.3510 40.4216 101.9418 -4.1567 -28.4491 -5.0871
# 4 -0.2318 -14.6826 -4.1567 62.0609 -6.2678 -2.5766
# 5 -32.1065 -24.9479 -28.4491 -6.2678 53.9725 -4.8681
# 6 10.9723 20.3451 -5.0871 -2.5766 -4.8681 40.0259
#
#
#
# Elastic Compliance Matrix: (Units=1/GPa)
#
#
# Indices 1 2 3 4 5 6 
#
# 1 0.010458 0.002405 -0.006708 0.000318 0.003427 -0.004504
# 2 0.002405 0.019025 -0.007810 0.004127 0.005652 -0.010369
# 3 -0.006708 -0.007810 0.018277 -0.000015 0.002796 0.008471
# 4 0.000318 0.004127 -0.000015 0.017477 0.004068 -0.000567
# 5 0.003427 0.005652 0.002796 0.004068 0.025113 -0.000141
# 6 -0.004504 -0.010369 0.008471 -0.000567 -0.000141 0.032512
#
#
# Mechanical properties :
#
#
# Convention : Reuss Voigt Hill
#
# Bulk Modulus (GPa) = 42.49177 65.53361 54.01269
# Shear Modulus (GPa) = 32.27214 45.15845 38.71530
#
# Velocity S-wave (km/s) = 3.30677 3.91165 3.62186
# Velocity P-wave (km/s) = 5.38304 6.52733 5.98261
#
# Compressibility (1/GPa) = 0.02353397
#
# Stress axis : x y z
#
# Youngs Moduli (GPa) = 95.62423 52.56219 54.71322
#
# Poissons Ratio (x) = -0.12640 0.36699
# Poissons Ratio (y) = -0.22995 0.42731
# Poissons Ratio (z) = 0.64141 0.41051
#
# Static dielectric constant tensor:
#      x y z
#    x 5.792940 0.278580 -0.159470 
#    y 0.278580 5.780710 -0.051280 
#    z -0.159470 -0.051280 5.995070 
# 
# 
# High freq. dielectric constant tensor:
#      x y z
#    x 2.231260 0.024370 0.006390 
#    y 0.024370 2.212060 0.007010 
#    z 0.006390 0.007010 2.234280 
# 
# From -- ./inp_files/409538.got.cif
#   From: 2010.06.25/outbox.cif.g09.slc.cpg/sg2_205_cif.got.tgz:409538.got - 2010.06.27 13:26:56.
