data_PCOD8027624
_publ_section_title
;
Structure prediction by ZEFSAII (Michael W. Deem and Ramdas Pophale) SiO2 
 PCOD8027624
Probable space group: P -1
;
_chemical_formula_sum "Si O2"
_cell_formula_units_Z 14
_cell_length_a 11.352969
_cell_length_b 23.224877
_cell_length_c 19.906462
_cell_angle_alpha 20.413945
_cell_angle_beta 156.643297
_cell_angle_gamma 156.414611
_cell_volume 663.481611
_symmetry_space_group_name_H-M "P -1"
_symmetry_group_IT_number 2
_symmetry_cell_setting 'triclinic'
loop_
_space_group_symop_operation_xyz
x,y,z
-x,-y,-z
loop_
_atom_site_type_symbol
_atom_site_label
_atom_site_fract_x
_atom_site_fract_y
_atom_site_fract_z
Si Si1 0.847997 0.629251 0.015529
Si Si2 0.029034 0.753367 0.115962
Si Si3 0.247647 0.949623 0.363016
Si Si4 0.649792 0.440711 0.349819
Si Si5 0.824978 0.608993 0.588336
Si Si6 0.693286 0.896226 0.552309
Si Si7 0.698107 0.753041 0.505567
O O1 0.073321 0.695416 0.127074
O O2 0.989175 0.521442 0.157475
O O3 0.500000 0.500000 0.000000
O O4 0.839313 0.801175 0.786082
O O5 0.374771 0.796087 0.285640
O O6 0.706968 0.597221 0.153523
O O7 0.957236 0.930194 0.882672
O O8 0.432208 0.960291 0.378449
O O9 0.003633 0.748437 0.470861
O O10 0.500000 0.000000 0.500000
O O11 0.502843 0.240729 0.459052
O O12 0.396231 0.416019 0.305961
O O13 0.000000 0.500000 0.500000
O O14 0.500000 0.500000 0.500000
O O15 0.795802 0.699907 0.543291
O O16 0.002653 0.074285 0.495738
#
# Coordination Sequence:
#
# PCOD8027624 Si02
#       7
#     2   2   2   2   2   2   2
#     4  12  21  38  69  96 126 170 210 264 328 376
#     4  11  22  43  66  96 132 172 212 262 323 384
#     4  12  23  40  66 100 132 164 210 272 327 378
#     4  10  24  46  67  88 129 179 218 258 318 386
#     4  12  24  39  65 100 133 165 213 266 323 379
#     4  12  24  42  69  94 131 166 220 268 321 379
#     4  11  25  43  64  97 134 169 216 265 315 385
#
# _framework density 21.100809999999999
#
# number of rings (size 3 to 8) (size 9 to 14) (size 15 to 20)
#    0.000    0.571    7.143    0.429    4.000    1.143 
#    0.000    7.143    0.000    0.000    0.000    0.000 
#    0.000    0.000    0.000    0.000    0.000    0.000 
#
# Total GULP energy -173499.894931 kJ/mol
# GULP energy per Si atom -12392.849638 kJ/mol
# Density = 2.105278 g / cm^3
# Si number density = 21.100810 Si / 1000 Ang^3
#
#
#
# Elastic Constant Matrix: (Units=GPa)
#
#
# Indices 1 2 3 4 5 6 
#
# 1 79.3531 32.2761 25.4607 4.8850 1.5868 11.2899
# 2 32.2761 140.9270 9.9044 10.3584 1.5509 5.3952
# 3 25.4607 9.9044 80.5618 -5.4668 20.7442 1.2525
# 4 4.8850 10.3584 -5.4668 27.7857 0.4730 -6.0562
# 5 1.5868 1.5509 20.7442 0.4730 34.4828 0.4314
# 6 11.2899 5.3952 1.2525 -6.0562 0.4314 40.7360
#
#
#
# Elastic Compliance Matrix: (Units=1/GPa)
#
#
# Indices 1 2 3 4 5 6 
#
# 1 0.016512 -0.002932 -0.005829 -0.004019 0.002992 -0.004638
# 2 -0.002932 0.008002 -0.000213 -0.002647 -0.000052 -0.000634
# 3 -0.005829 -0.000213 0.017216 0.005096 -0.010174 0.001980
# 4 -0.004019 -0.002647 0.005096 0.040344 -0.003407 0.007342
# 5 0.002992 -0.000052 -0.010174 -0.003407 0.035049 -0.001387
# 6 -0.004638 -0.000634 0.001980 0.007342 -0.001387 0.026963
#
#
# Mechanical properties :
#
#
# Convention : Reuss Voigt Hill
#
# Bulk Modulus (GPa) = 42.05030 48.45827 45.25429
# Shear Modulus (GPa) = 29.41847 36.14762 32.78305
#
# Velocity S-wave (km/s) = 3.73793 4.14344 3.94590
# Velocity P-wave (km/s) = 6.21298 6.77538 6.50026
#
# Compressibility (1/GPa) = 0.02378104
#
# Stress axis : x y z
#
# Youngs Moduli (GPa) = 60.56157 124.97251 58.08570
#
# Poissons Ratio (x) = 0.36643 0.33858
# Poissons Ratio (y) = 0.17757 0.01239
# Poissons Ratio (z) = 0.35301 0.02667
#
# Static dielectric constant tensor:
#      x y z
#    x 4.712000 0.197500 -0.380270 
#    y 0.197500 4.004720 0.041340 
#    z -0.380270 0.041340 3.512200 
# 
# 
# High freq. dielectric constant tensor:
#      x y z
#    x 1.833070 0.007370 -0.002420 
#    y 0.007370 1.847800 0.002620 
#    z -0.002420 0.002620 1.807560 
# 
# From -- ./inp_files/169345.got.cif
#   From: 2010.06.25/outbox.cif.g09.slc.cpg/sg2_85_cif.got.tgz:169345.got - 2010.06.27 13:26:56.
