data_PCOD8027220
_publ_section_title
;
Structure prediction by ZEFSAII (Michael W. Deem and Ramdas Pophale) SiO2 
 PCOD8027220
Probable space group: P -1
;
_chemical_formula_sum "Si O2"
_cell_formula_units_Z 16
_cell_length_a 8.213851
_cell_length_b 11.465405
_cell_length_c 11.402887
_cell_angle_alpha 59.524848
_cell_angle_beta 109.140744
_cell_angle_gamma 133.409594
_cell_volume 671.982112
_symmetry_space_group_name_H-M "P -1"
_symmetry_group_IT_number 2
_symmetry_cell_setting 'triclinic'
loop_
_space_group_symop_operation_xyz
x,y,z
-x,-y,-z
loop_
_atom_site_type_symbol
_atom_site_label
_atom_site_fract_x
_atom_site_fract_y
_atom_site_fract_z
Si Si1 0.410044 0.518874 0.084237
Si Si2 0.821428 0.531645 0.653031
Si Si3 0.418380 0.236977 0.321755
Si Si4 0.317420 0.738108 0.416338
Si Si5 0.953205 0.162398 0.596081
Si Si6 0.332845 0.241983 0.783331
Si Si7 0.397439 0.990923 0.856470
Si Si8 0.210333 0.648879 0.846999
O O1 0.352153 0.364046 0.235408
O O2 0.609603 0.711660 0.089087
O O3 0.500000 0.500000 0.000000
O O4 0.205145 0.516183 0.001794
O O5 0.853919 0.457380 0.580153
O O6 0.560647 0.400195 0.690108
O O7 0.907562 0.727243 0.544988
O O8 0.965801 0.539146 0.788186
O O9 0.503450 0.250519 0.466225
O O10 0.597743 0.278977 0.243751
O O11 0.185195 0.042818 0.349315
O O12 0.207793 0.792260 0.446699
O O13 0.416038 0.870398 0.262635
O O14 0.127623 0.236814 0.706464
O O15 0.252505 0.051581 0.824326
O O16 0.252090 0.802049 0.857764
O O17 0.500000 0.000000 0.000000
#
# Coordination Sequence:
#
# PCOD8027220 Si02
#       8
#     2   2   2   2   2   2   2   2
#     4  10  24  44  70 103 143 181 234 292 345 419
#     4  11  25  42  71 105 142 188 231 289 358 419
#     4  11  23  44  73 109 136 177 241 295 347 406
#     4  11  23  43  75 105 138 186 236 290 349 422
#     4  12  23  42  71 104 141 179 237 293 346 413
#     4  11  26  45  64 104 143 186 228 292 353 418
#     4  11  23  47  70 102 144 183 233 285 356 417
#     4  11  22  45  74 101 140 189 234 284 350 420
#
# _framework density 23.810161000000001
#
# number of rings (size 3 to 8) (size 9 to 14) (size 15 to 20)
#    0.000    1.000    3.750    2.625    3.500    2.500 
#    4.500    6.875    0.000    0.000    0.000    0.000 
#    0.000    0.000    0.000    0.000    0.000    0.000 
#
# Total GULP energy -198300.850574 kJ/mol
# GULP energy per Si atom -12393.803161 kJ/mol
# Density = 2.375597 g / cm^3
# Si number density = 23.810161 Si / 1000 Ang^3
#
#
#
# Elastic Constant Matrix: (Units=GPa)
#
#
# Indices 1 2 3 4 5 6 
#
# 1 22.7588 31.2196 22.1554 -2.7240 5.6897 -3.5458
# 2 31.2196 148.5410 54.3340 10.8611 10.8145 -7.0605
# 3 22.1554 54.3340 152.2138 10.2918 10.9503 13.5411
# 4 -2.7240 10.8611 10.2918 48.0877 -1.2337 5.4522
# 5 5.6897 10.8145 10.9503 -1.2337 37.0497 11.5512
# 6 -3.5458 -7.0605 13.5411 5.4522 11.5512 36.4095
#
#
#
# Elastic Compliance Matrix: (Units=1/GPa)
#
#
# Indices 1 2 3 4 5 6 
#
# 1 0.071110 -0.012020 -0.006729 0.007014 -0.007851 0.008537
# 2 -0.012020 0.010382 -0.001868 -0.002942 -0.001495 0.002453
# 3 -0.006729 -0.001868 0.008654 -0.001338 0.000260 -0.004118
# 4 0.007014 -0.002942 -0.001338 0.022580 0.001990 -0.003403
# 5 -0.007851 -0.001495 0.000260 0.001990 0.032266 -0.011686
# 6 0.008537 0.002453 -0.004118 -0.003403 -0.011686 0.034521
#
#
# Mechanical properties :
#
#
# Convention : Reuss Voigt Hill
#
# Bulk Modulus (GPa) = 20.44445 59.88130 40.16288
# Shear Modulus (GPa) = 21.09253 38.69635 29.89444
#
# Velocity S-wave (km/s) = 2.97957 4.03575 3.54719
# Velocity P-wave (km/s) = 4.52131 6.84985 5.80356
#
# Compressibility (1/GPa) = 0.04891303
#
# Stress axis : x y z
#
# Youngs Moduli (GPa) = 14.06276 96.31754 115.55264
#
# Poissons Ratio (x) = 1.15771 0.77752
# Poissons Ratio (y) = 0.16903 0.21588
# Poissons Ratio (z) = 0.09462 0.17994
#
# Static dielectric constant tensor:
#      x y z
#    x 4.270480 -0.430820 0.252720 
#    y -0.430820 4.864810 -0.147190 
#    z 0.252720 -0.147190 5.056930 
# 
# 
# High freq. dielectric constant tensor:
#      x y z
#    x 1.933360 -0.018760 0.005540 
#    y -0.018760 1.950890 0.005630 
#    z 0.005540 0.005630 1.963530 
# 
# From -- ./inp_files/392192.got.cif
#   From: 2010.06.25/outbox.cif.g09.slc.cpg/sg2_197_cif.got.tgz:392192.got - 2010.06.27 13:26:56.
