data_PCOD8027500
_publ_section_title
;
Structure prediction by ZEFSAII (Michael W. Deem and Ramdas Pophale) SiO2 
 PCOD8027500
Probable space group: P -1
;
_chemical_formula_sum "Si O2"
_cell_formula_units_Z 14
_cell_length_a 8.511693
_cell_length_b 16.953662
_cell_length_c 11.192741
_cell_angle_alpha 55.072379
_cell_angle_beta 137.581027
_cell_angle_gamma 144.902322
_cell_volume 624.369011
_symmetry_space_group_name_H-M "P -1"
_symmetry_group_IT_number 2
_symmetry_cell_setting 'triclinic'
loop_
_space_group_symop_operation_xyz
x,y,z
-x,-y,-z
loop_
_atom_site_type_symbol
_atom_site_label
_atom_site_fract_x
_atom_site_fract_y
_atom_site_fract_z
Si Si1 0.809175 0.860542 0.448599
Si Si2 0.760263 0.674172 0.216879
Si Si3 0.404469 0.862124 0.036894
Si Si4 0.636492 0.851855 0.930142
Si Si5 0.795478 0.569652 0.014004
Si Si6 0.857945 0.385895 0.618808
Si Si7 0.771232 0.147642 0.461439
O O1 0.635761 0.855381 0.241177
O O2 0.543630 0.731854 0.501557
O O3 0.079617 0.862209 0.560657
O O4 0.000000 0.000000 0.500000
O O5 0.027013 0.689607 0.279564
O O6 0.911898 0.729834 0.385574
O O7 0.691154 0.754996 0.046543
O O8 0.385691 0.516846 0.136903
O O9 0.018930 0.729295 0.971577
O O10 0.444754 0.845137 0.937284
O O11 0.500000 0.000000 0.000000
O O12 0.423070 0.814670 0.724184
O O13 0.000000 0.000000 0.000000
O O14 0.016381 0.555158 0.224828
O O15 0.500000 0.500000 0.000000
O O16 0.000000 0.500000 0.500000
O O17 0.500000 0.000000 0.500000
#
# Coordination Sequence:
#
# PCOD8027500 Si02
#       7
#     2   2   2   2   2   2   2
#     4  11  23  43  68 103 140 178 242 293 336 431
#     4  11  24  46  71 101 147 180 241 290 351 427
#     4  11  24  44  71 103 141 190 241 286 354 425
#     4  12  26  43  73 104 142 190 230 294 365 406
#     4   9  23  44  68  98 141 184 235 290 350 413
#     4  10  24  45  70 102 140 191 233 287 361 418
#     4  12  24  45  67 106 142 186 237 291 357 418
#
# _framework density 22.422637000000002
#
# number of rings (size 3 to 8) (size 9 to 14) (size 15 to 20)
#    0.000    1.143    2.857    1.714    8.000    5.143 
#    0.000    1.429    0.000    0.000    0.000    0.000 
#    0.000    0.000    0.000    0.000    0.000    0.000 
#
# Total GULP energy -173445.673428 kJ/mol
# GULP energy per Si atom -12388.976673 kJ/mol
# Density = 2.237160 g / cm^3
# Si number density = 22.422637 Si / 1000 Ang^3
#
#
#
# Elastic Constant Matrix: (Units=GPa)
#
#
# Indices 1 2 3 4 5 6 
#
# 1 103.6910 58.4026 31.9413 -1.8003 12.3339 9.7025
# 2 58.4026 186.8557 66.3340 13.8336 -1.0669 16.8076
# 3 31.9413 66.3340 155.3176 2.1522 -1.1555 -7.7970
# 4 -1.8003 13.8336 2.1522 45.0354 -10.3991 -1.4542
# 5 12.3339 -1.0669 -1.1555 -10.3991 39.5280 1.6678
# 6 9.7025 16.8076 -7.7970 -1.4542 1.6678 43.1653
#
#
#
# Elastic Compliance Matrix: (Units=1/GPa)
#
#
# Indices 1 2 3 4 5 6 
#
# 1 0.012560 -0.003420 -0.001238 0.000684 -0.003803 -0.001545
# 2 -0.003420 0.007833 -0.002749 -0.002342 0.000704 -0.002884
# 3 -0.001238 -0.002749 0.008003 0.000641 0.000597 0.002793
# 4 0.000684 -0.002342 0.000641 0.024375 0.006093 0.001460
# 5 -0.003803 0.000704 0.000597 0.006093 0.028133 -0.000193
# 6 -0.001545 -0.002884 0.002793 0.001460 -0.000193 0.025198
#
#
# Mechanical properties :
#
#
# Convention : Reuss Voigt Hill
#
# Bulk Modulus (GPa) = 73.62251 84.35777 78.99014
# Shear Modulus (GPa) = 39.85842 44.82483 42.34162
#
# Velocity S-wave (km/s) = 4.22073 4.47597 4.35022
# Velocity P-wave (km/s) = 7.52715 8.02594 7.78055
#
# Compressibility (1/GPa) = 0.01358280
#
# Stress axis : x y z
#
# Youngs Moduli (GPa) = 79.61664 127.65793 124.95320
#
# Poissons Ratio (x) = 0.43654 0.15468
# Poissons Ratio (y) = 0.27226 0.34355
# Poissons Ratio (z) = 0.09856 0.35098
#
# Static dielectric constant tensor:
#      x y z
#    x 4.471340 -0.363890 0.539780 
#    y -0.363890 4.590990 -0.126910 
#    z 0.539780 -0.126910 5.579250 
# 
# 
# High freq. dielectric constant tensor:
#      x y z
#    x 1.869290 0.005050 -0.001150 
#    y 0.005050 1.887120 0.017420 
#    z -0.001150 0.017420 1.903120 
# 
# From -- ./inp_files/403058.got.cif
#   From: 2010.06.25/outbox.cif.g09.slc.cpg/sg2_202_cif.got.tgz:403058.got - 2010.06.27 13:26:56.
