data_PCOD8027642
_publ_section_title
;
Structure prediction by ZEFSAII (Michael W. Deem and Ramdas Pophale) SiO2 
 PCOD8027642
Probable space group: P -1
;
_chemical_formula_sum "Si O2"
_cell_formula_units_Z 14
_cell_length_a 15.811830
_cell_length_b 8.196688
_cell_length_c 14.402374
_cell_angle_alpha 123.640520
_cell_angle_beta 26.917892
_cell_angle_gamma 106.029320
_cell_volume 574.120255
_symmetry_space_group_name_H-M "P -1"
_symmetry_group_IT_number 2
_symmetry_cell_setting 'triclinic'
loop_
_space_group_symop_operation_xyz
x,y,z
-x,-y,-z
loop_
_atom_site_type_symbol
_atom_site_label
_atom_site_fract_x
_atom_site_fract_y
_atom_site_fract_z
Si Si1 0.222112 0.334558 0.397355
Si Si2 0.560731 0.763548 0.258098
Si Si3 0.054053 0.161616 0.880106
Si Si4 0.008655 0.421390 0.822025
Si Si5 0.642918 0.326562 0.944934
Si Si6 0.130257 0.110783 0.087627
Si Si7 0.947401 0.910041 0.637733
O O1 0.184598 0.271672 0.518032
O O2 0.130165 0.245677 0.381916
O O3 0.088442 0.618506 0.614767
O O4 0.482931 0.232055 0.083852
O O5 0.311286 0.968107 0.606112
O O6 0.527444 0.604372 0.167819
O O7 0.645533 0.906510 0.166849
O O8 0.741156 0.589292 0.105723
O O9 0.055702 0.227432 0.791236
O O10 0.909253 0.048526 0.993578
O O11 0.933148 0.398810 0.136261
O O12 0.771501 0.255853 0.696027
O O13 0.851808 0.163968 0.761814
O O14 0.154972 0.015060 0.136569
#
# Coordination Sequence:
#
# PCOD8027642 Si02
#       7
#     2   2   2   2   2   2   2
#     4  11  23  42  62  96 128 171 210 270 321 383
#     4  11  23  44  67 100 130 173 214 268 326 386
#     4  11  24  46  68  97 129 174 211 278 322 382
#     4  10  24  46  68  96 134 163 225 266 324 391
#     4  11  23  40  63  92 128 175 209 259 333 369
#     4  11  24  40  65  95 131 164 225 264 316 391
#     4  11  24  41  62  94 133 170 215 269 313 392
#
# _framework density 24.385138000000001
#
# number of rings (size 3 to 8) (size 9 to 14) (size 15 to 20)
#    0.000    1.143    4.286    2.143    4.000    4.000 
#    2.571    1.429    0.000    0.000    0.000    0.000 
#    0.000    0.000    0.000    0.000    0.000    0.000 
#
# Total GULP energy -173579.484273 kJ/mol
# GULP energy per Si atom -12398.534591 kJ/mol
# Density = 2.432964 g / cm^3
# Si number density = 24.385138 Si / 1000 Ang^3
#
#
#
# Elastic Constant Matrix: (Units=GPa)
#
#
# Indices 1 2 3 4 5 6 
#
# 1 66.1961 12.1804 5.4720 -12.0487 1.5735 11.9277
# 2 12.1804 98.9126 15.3845 -7.5242 -5.7376 31.7104
# 3 5.4720 15.3845 64.3746 -20.4210 -3.3639 10.0077
# 4 -12.0487 -7.5242 -20.4210 43.9923 5.6495 -2.9624
# 5 1.5735 -5.7376 -3.3639 5.6495 20.0417 7.7027
# 6 11.9277 31.7104 10.0077 -2.9624 7.7027 35.4324
#
#
#
# Elastic Compliance Matrix: (Units=1/GPa)
#
#
# Indices 1 2 3 4 5 6 
#
# 1 0.016888 -0.000216 0.000899 0.004725 -0.000559 -0.005229
# 2 -0.000216 0.016202 -0.000750 -0.000162 0.010960 -0.016612
# 3 0.000899 -0.000750 0.019182 0.008379 0.002448 -0.004881
# 4 0.004725 -0.000162 0.008379 0.028822 -0.007198 0.000163
# 5 -0.000559 0.010960 0.002448 -0.007198 0.065155 -0.025077
# 6 -0.005229 -0.016612 -0.004881 0.000163 -0.025077 0.051693
#
#
# Mechanical properties :
#
#
# Convention : Reuss Voigt Hill
#
# Bulk Modulus (GPa) = 19.18043 32.83967 26.01005
# Shear Modulus (GPa) = 23.20660 32.98972 28.09816
#
# Velocity S-wave (km/s) = 3.08826 3.68212 3.39819
# Velocity P-wave (km/s) = 4.53863 5.61904 5.10749
#
# Compressibility (1/GPa) = 0.05213648
#
# Stress axis : x y z
#
# Youngs Moduli (GPa) = 59.21507 61.72032 52.13344
#
# Poissons Ratio (x) = 0.01334 -0.04685
# Poissons Ratio (y) = 0.01280 0.03910
# Poissons Ratio (z) = -0.05322 0.04629
#
# Static dielectric constant tensor:
#      x y z
#    x 4.350620 0.006370 0.200960 
#    y 0.006370 4.549430 -0.099550 
#    z 0.200960 -0.099550 4.428710 
# 
# 
# High freq. dielectric constant tensor:
#      x y z
#    x 1.957190 0.013130 0.008470 
#    y 0.013130 1.990030 0.005150 
#    z 0.008470 0.005150 1.955710 
# 
# From -- ./inp_files/179618.got.cif
#   From: 2010.06.25/outbox.cif.g09.slc.cpg/sg2_90_cif.got.tgz:179618.got - 2010.06.27 13:26:56.
