data_PCOD8027358
_publ_section_title
;
Structure prediction by ZEFSAII (Michael W. Deem and Ramdas Pophale) SiO2 
 PCOD8027358
Probable space group: P -1
;
_chemical_formula_sum "Si O2"
_cell_formula_units_Z 14
_cell_length_a 15.623483
_cell_length_b 9.641515
_cell_length_c 12.951261
_cell_angle_alpha 55.115857
_cell_angle_beta 26.985638
_cell_angle_gamma 44.428276
_cell_volume 606.800590
_symmetry_space_group_name_H-M "P -1"
_symmetry_group_IT_number 2
_symmetry_cell_setting 'triclinic'
loop_
_space_group_symop_operation_xyz
x,y,z
-x,-y,-z
loop_
_atom_site_type_symbol
_atom_site_label
_atom_site_fract_x
_atom_site_fract_y
_atom_site_fract_z
Si Si1 0.184032 0.804604 0.820442
Si Si2 0.122881 0.399462 0.305209
Si Si3 0.478404 0.426687 0.806326
Si Si4 0.120357 0.005720 0.471275
Si Si5 0.428755 0.135216 0.618931
Si Si6 0.087709 0.128258 0.112037
Si Si7 0.144632 0.512316 0.638637
O O1 0.297210 0.594736 0.850354
O O2 0.370796 0.846688 0.561983
O O3 0.073965 0.767465 0.856927
O O4 0.000000 0.000000 0.000000
O O5 0.175093 0.175655 0.337085
O O6 0.000000 0.500000 0.500000
O O7 0.971878 0.526846 0.314456
O O8 0.350974 0.398688 0.051021
O O9 0.637675 0.501812 0.640789
O O10 0.641927 0.206733 0.671377
O O11 0.000000 0.000000 0.500000
O O12 0.945341 0.047969 0.735756
O O13 0.214902 0.351377 0.722254
O O14 0.500000 0.000000 0.500000
O O15 0.344200 0.047476 0.836669
O O16 0.023653 0.274276 0.216785
#
# Coordination Sequence:
#
# PCOD8027358 Si02
#       7
#     2   2   2   2   2   2   2
#     4  11  24  43  69 105 140 169 232 291 348 411
#     4  12  26  44  72 103 137 185 240 288 343 406
#     4  10  24  46  73  95 140 184 230 287 349 414
#     4  11  24  50  68 100 142 185 236 285 334 421
#     4  11  23  40  69 103 135 178 220 284 362 404
#     4  11  23  43  71  95 138 184 224 285 344 415
#     4  10  24  45  64 100 140 175 233 283 345 420
#
# _framework density 23.071831
#
# number of rings (size 3 to 8) (size 9 to 14) (size 15 to 20)
#    0.000    1.143    4.286    1.714    2.000    8.000 
#    5.143    0.000    0.000    0.000    0.000    0.000 
#    0.000    0.000    0.000    0.000    0.000    0.000 
#
# Total GULP energy -173527.625029 kJ/mol
# GULP energy per Si atom -12394.830359 kJ/mol
# Density = 2.301932 g / cm^3
# Si number density = 23.071831 Si / 1000 Ang^3
#
#
#
# Elastic Constant Matrix: (Units=GPa)
#
#
# Indices 1 2 3 4 5 6 
#
# 1 86.2955 12.3498 36.9196 12.7657 4.5938 11.8701
# 2 12.3498 81.8152 34.7714 -3.5647 -2.5855 -6.6388
# 3 36.9196 34.7714 207.6325 -28.8235 8.9927 1.5978
# 4 12.7657 -3.5647 -28.8235 35.7708 2.6966 -2.7254
# 5 4.5938 -2.5855 8.9927 2.6966 28.7225 2.6992
# 6 11.8701 -6.6388 1.5978 -2.7254 2.6992 29.3847
#
#
#
# Elastic Compliance Matrix: (Units=1/GPa)
#
#
# Indices 1 2 3 4 5 6 
#
# 1 0.015899 -0.001811 -0.003786 -0.009483 0.000076 -0.007512
# 2 -0.001811 0.013739 -0.002006 0.000560 0.001741 0.003837
# 3 -0.003786 -0.002006 0.006898 0.007022 -0.002543 0.001586
# 4 -0.009483 0.000560 0.007022 0.037999 -0.004909 0.007551
# 5 0.000076 0.001741 -0.002543 -0.004909 0.036529 -0.003309
# 6 -0.007512 0.003837 0.001586 0.007551 -0.003309 0.038851
#
#
# Mechanical properties :
#
#
# Convention : Reuss Voigt Hill
#
# Bulk Modulus (GPa) = 46.88117 60.42498 53.65308
# Shear Modulus (GPa) = 29.03077 38.22244 33.62660
#
# Velocity S-wave (km/s) = 3.55107 4.07464 3.82183
# Velocity P-wave (km/s) = 6.09731 6.95584 6.54068
#
# Compressibility (1/GPa) = 0.02133053
#
# Stress axis : x y z
#
# Youngs Moduli (GPa) = 62.89699 72.78330 144.97031
#
# Poissons Ratio (x) = 0.13184 0.54879
# Poissons Ratio (y) = 0.11393 0.29080
# Poissons Ratio (z) = 0.23810 0.14600
#
# Static dielectric constant tensor:
#      x y z
#    x 4.007260 0.076680 -0.159840 
#    y 0.076680 4.117140 -0.396030 
#    z -0.159840 -0.396030 4.714240 
# 
# 
# High freq. dielectric constant tensor:
#      x y z
#    x 1.892230 -0.002230 -0.007810 
#    y -0.002230 1.906710 -0.022250 
#    z -0.007810 -0.022250 1.932190 
# 
# From -- ./inp_files/446894.got.cif
#   From: 2010.06.25/outbox.cif.g09.slc.cpg/sg2_224_cif.got.tgz:446894.got - 2010.06.27 13:26:56.
