data_PCOD8027916
_publ_section_title
;
Structure prediction by ZEFSAII (Michael W. Deem and Ramdas Pophale) SiO2 
 PCOD8027916
Probable space group: P -1
;
_chemical_formula_sum "Si O2"
_cell_formula_units_Z 14
_cell_length_a 21.857966
_cell_length_b 9.512606
_cell_length_c 5.320206
_cell_angle_alpha 73.202212
_cell_angle_beta 87.624210
_cell_angle_gamma 144.559486
_cell_volume 532.221479
_symmetry_space_group_name_H-M "P -1"
_symmetry_group_IT_number 2
_symmetry_cell_setting 'triclinic'
loop_
_space_group_symop_operation_xyz
x,y,z
-x,-y,-z
loop_
_atom_site_type_symbol
_atom_site_label
_atom_site_fract_x
_atom_site_fract_y
_atom_site_fract_z
Si Si1 0.118627 0.311338 0.446080
Si Si2 0.067176 0.500234 0.598668
Si Si3 0.150958 0.114373 0.859292
Si Si4 0.670055 0.874761 0.744768
Si Si5 0.365913 0.375345 0.602812
Si Si6 0.684881 0.409475 0.058816
Si Si7 0.538926 0.889012 0.658050
O O1 0.099840 0.445748 0.412408
O O2 0.127655 0.236080 0.736989
O O3 0.250357 0.563323 0.162539
O O4 0.000000 0.000000 0.500000
O O5 0.000000 0.500000 0.500000
O O6 0.193055 0.812178 0.541381
O O7 0.975966 0.236668 0.949561
O O8 0.249851 0.234650 0.607702
O O9 0.213447 0.257856 0.049853
O O10 0.600943 0.651042 0.637675
O O11 0.598988 0.879241 0.801161
O O12 0.671367 0.795522 0.052499
O O13 0.478549 0.710512 0.495139
O O14 0.565794 0.255645 0.067673
O O15 0.640731 0.220342 0.402374
#
# Coordination Sequence:
#
# PCOD8027916 Si02
#       7
#     2   2   2   2   2   2   2
#     4  12  27  45  83 107 154 208 259 330 392 478
#     4  12  27  48  75 118 159 203 263 326 402 473
#     4  11  25  48  72 112 157 204 260 330 396 472
#     4  12  27  49  76 116 160 212 261 329 401 471
#     4  11  27  48  78 111 159 209 266 328 397 466
#     4  10  24  50  74 111 149 203 271 324 395 464
#     4  10  24  48  78 108 157 206 268 330 387 471
#
# _framework density 26.304836000000002
#
# number of rings (size 3 to 8) (size 9 to 14) (size 15 to 20)
#    0.000    0.857    2.857    2.143   10.000    0.571 
#    5.143    2.857    0.000    0.000    0.000    0.000 
#    0.000    0.000    0.000    0.000    0.000    0.000 
#
# Total GULP energy -173491.745305 kJ/mol
# GULP energy per Si atom -12392.267522 kJ/mol
# Density = 2.624497 g / cm^3
# Si number density = 26.304836 Si / 1000 Ang^3
#
#
#
# Elastic Constant Matrix: (Units=GPa)
#
#
# Indices 1 2 3 4 5 6 
#
# 1 213.8461 17.7291 33.7867 -1.6487 -8.0415 -3.7566
# 2 17.7291 87.1880 12.8673 -22.4242 7.5296 10.5341
# 3 33.7867 12.8673 55.9308 -15.2600 -6.4537 10.3886
# 4 -1.6487 -22.4242 -15.2600 41.0081 6.0386 -5.9284
# 5 -8.0415 7.5296 -6.4537 6.0386 36.9962 -9.7642
# 6 -3.7566 10.5341 10.3886 -5.9284 -9.7642 39.8511
#
#
#
# Elastic Compliance Matrix: (Units=1/GPa)
#
#
# Indices 1 2 3 4 5 6 
#
# 1 0.005456 -0.001439 -0.003654 -0.001887 0.001671 0.001976
# 2 -0.001439 0.014941 -0.000196 0.008290 -0.005859 -0.004236
# 3 -0.003654 -0.000196 0.023211 0.007547 0.000732 -0.005042
# 4 -0.001887 0.008290 0.007547 0.032432 -0.006357 -0.001069
# 5 0.001671 -0.005859 0.000732 -0.006357 0.031968 0.008402
# 6 0.001976 -0.004236 -0.005042 -0.001069 0.008402 0.029613
#
#
# Mechanical properties :
#
#
# Convention : Reuss Voigt Hill
#
# Bulk Modulus (GPa) = 30.27399 53.97012 42.12205
# Shear Modulus (GPa) = 31.40529 43.07653 37.24091
#
# Velocity S-wave (km/s) = 3.45903 4.05110 3.76672
# Velocity P-wave (km/s) = 5.24281 6.51488 5.91315
#
# Compressibility (1/GPa) = 0.03303165
#
# Stress axis : x y z
#
# Youngs Moduli (GPa) = 183.29077 66.93129 43.08210
#
# Poissons Ratio (x) = 0.09629 0.15742
# Poissons Ratio (y) = 0.26368 0.00843
# Poissons Ratio (z) = 0.66973 0.01310
#
# Static dielectric constant tensor:
#      x y z
#    x 5.585380 0.159330 -0.148460 
#    y 0.159330 4.857310 -0.577370 
#    z -0.148460 -0.577370 4.530970 
# 
# 
# High freq. dielectric constant tensor:
#      x y z
#    x 2.087640 0.005730 -0.006040 
#    y 0.005730 2.049930 -0.030130 
#    z -0.006040 -0.030130 2.031450 
# 
# From -- ./inp_files/116837.got.cif
#   From: 2010.06.25/outbox.cif.g09.slc.cpg/sg2_59_cif.got.tgz:116837.got - 2010.06.27 13:26:56.
