data_PCOD8027505
_publ_section_title
;
Structure prediction by ZEFSAII (Michael W. Deem and Ramdas Pophale) SiO2 
 PCOD8027505
Probable space group: P -1
;
_chemical_formula_sum "Si O2"
_cell_formula_units_Z 16
_cell_length_a 11.867176
_cell_length_b 14.518961
_cell_length_c 5.438854
_cell_angle_alpha 109.939751
_cell_angle_beta 95.220472
_cell_angle_gamma 127.881298
_cell_volume 635.773366
_symmetry_space_group_name_H-M "P -1"
_symmetry_group_IT_number 2
_symmetry_cell_setting 'triclinic'
loop_
_space_group_symop_operation_xyz
x,y,z
-x,-y,-z
loop_
_atom_site_type_symbol
_atom_site_label
_atom_site_fract_x
_atom_site_fract_y
_atom_site_fract_z
Si Si1 0.682796 0.172970 0.888517
Si Si2 0.840475 0.328916 0.578362
Si Si3 0.356898 0.442188 0.090417
Si Si4 0.373593 0.641688 0.536279
Si Si5 0.415494 0.097854 0.474559
Si Si6 0.137973 0.224245 0.198575
Si Si7 0.877303 0.958224 0.637558
Si Si8 0.165711 0.437717 0.675624
O O1 0.796905 0.241562 0.734501
O O2 0.535589 0.155680 0.777381
O O3 0.626262 0.028622 0.776699
O O4 0.755235 0.244651 0.230966
O O5 0.783074 0.407372 0.678675
O O6 0.025745 0.431213 0.677952
O O7 0.210633 0.405306 0.895118
O O8 0.500000 0.500000 0.000000
O O9 0.426231 0.564802 0.397605
O O10 0.277231 0.303424 0.092600
O O11 0.513542 0.799465 0.650442
O O12 0.316349 0.592861 0.763468
O O13 0.266416 0.066445 0.525922
O O14 0.193166 0.182955 0.385112
O O15 0.117667 0.325494 0.365316
O O16 0.967993 0.084237 0.956857
O O17 0.000000 0.000000 0.500000
#
# Coordination Sequence:
#
# PCOD8027505 Si02
#       8
#     2   2   2   2   2   2   2   2
#     4  10  25  48  74 110 142 194 228 311 367 438
#     4  11  25  47  78 107 147 181 251 297 372 431
#     4  11  27  46  70 103 145 193 242 294 364 429
#     4  10  26  44  67 107 135 194 233 297 353 437
#     4  10  24  45  70 102 148 180 247 288 372 430
#     4  10  25  45  67 107 137 185 246 292 369 421
#     4  11  24  44  71 103 136 189 234 307 353 432
#     4  11  25  44  74  96 146 190 235 302 359 432
#
# _framework density 25.166201000000001
#
# number of rings (size 3 to 8) (size 9 to 14) (size 15 to 20)
#    0.000    1.500    0.000    1.875   15.750    6.000 
#    9.000    0.000    0.000    0.000    0.000    0.000 
#    0.000    0.000    0.000    0.000    0.000    0.000 
#
# Total GULP energy -198267.035479 kJ/mol
# GULP energy per Si atom -12391.689717 kJ/mol
# Density = 2.510892 g / cm^3
# Si number density = 25.166201 Si / 1000 Ang^3
#
#
#
# Elastic Constant Matrix: (Units=GPa)
#
#
# Indices 1 2 3 4 5 6 
#
# 1 149.9370 47.2414 10.0151 -7.3766 1.5375 23.5937
# 2 47.2414 187.6473 24.6679 -17.2923 -9.8198 -0.5367
# 3 10.0151 24.6679 51.2568 -16.8499 11.6518 9.4622
# 4 -7.3766 -17.2923 -16.8499 30.4027 -2.1722 -6.4247
# 5 1.5375 -9.8198 11.6518 -2.1722 28.1050 -1.0859
# 6 23.5937 -0.5367 9.4622 -6.4247 -1.0859 41.2215
#
#
#
# Elastic Compliance Matrix: (Units=1/GPa)
#
#
# Indices 1 2 3 4 5 6 
#
# 1 0.008116 -0.002257 0.000793 -0.000038 -0.001754 -0.004909
# 2 -0.002257 0.006799 -0.003560 0.002211 0.004248 0.002654
# 3 0.000793 -0.003560 0.028943 0.012131 -0.012565 -0.005584
# 4 -0.000038 0.002211 0.012131 0.041586 -0.000897 0.003724
# 5 -0.001754 0.004248 -0.012565 -0.000897 0.042491 0.004923
# 6 -0.004909 0.002654 -0.005584 0.003724 0.004923 0.029095
#
#
# Mechanical properties :
#
#
# Convention : Reuss Voigt Hill
#
# Bulk Modulus (GPa) = 29.57718 61.40999 45.49359
# Shear Modulus (GPa) = 28.03504 40.40695 34.22099
#
# Velocity S-wave (km/s) = 3.34128 4.01135 3.69155
# Velocity P-wave (km/s) = 5.16370 6.77564 6.02383
#
# Compressibility (1/GPa) = 0.03380985
#
# Stress axis : x y z
#
# Youngs Moduli (GPa) = 123.21123 147.08150 34.55090
#
# Poissons Ratio (x) = 0.33193 -0.02739
# Poissons Ratio (y) = 0.27806 0.12300
# Poissons Ratio (z) = -0.09768 0.52361
#
# Static dielectric constant tensor:
#      x y z
#    x 4.655070 -0.154070 -0.077640 
#    y -0.154070 4.959200 0.029280 
#    z -0.077640 0.029280 4.467640 
# 
# 
# High freq. dielectric constant tensor:
#      x y z
#    x 2.007950 -0.005070 -0.006770 
#    y -0.005070 2.023290 -0.003640 
#    z -0.006770 -0.003640 1.984900 
# 
# From -- ./inp_files/78406.got.cif
#   From: 2010.06.25/outbox.cif.g09.slc.cpg/sg2_40_cif.got.tgz:78406.got - 2010.06.27 13:26:56.
