data_PCOD8027216
_publ_section_title
;
Structure prediction by ZEFSAII (Michael W. Deem and Ramdas Pophale) SiO2 
 PCOD8027216
Probable space group: P -1
;
_chemical_formula_sum "Si O2"
_cell_formula_units_Z 14
_cell_length_a 14.971532
_cell_length_b 12.104334
_cell_length_c 9.323668
_cell_angle_alpha 47.867453
_cell_angle_beta 59.417550
_cell_angle_gamma 28.946862
_cell_volume 591.871888
_symmetry_space_group_name_H-M "P -1"
_symmetry_group_IT_number 2
_symmetry_cell_setting 'triclinic'
loop_
_space_group_symop_operation_xyz
x,y,z
-x,-y,-z
loop_
_atom_site_type_symbol
_atom_site_label
_atom_site_fract_x
_atom_site_fract_y
_atom_site_fract_z
Si Si1 0.361938 0.243804 0.511008
Si Si2 0.233957 0.368264 0.026392
Si Si3 0.961055 0.842634 0.247909
Si Si4 0.670776 0.904959 0.075561
Si Si5 0.276251 0.043126 0.442298
Si Si6 0.021087 0.070023 0.148630
Si Si7 0.312465 0.811331 0.341071
O O1 0.270155 0.224331 0.702922
O O2 0.494829 0.209636 0.509496
O O3 0.184543 0.536821 0.326462
O O4 0.500000 0.000000 0.500000
O O5 0.456215 0.114500 0.055678
O O6 0.180858 0.316162 0.241594
O O7 0.184467 0.355007 0.923796
O O8 0.138054 0.639957 0.896698
O O9 0.823160 0.884192 0.391337
O O10 0.895012 0.950608 0.044683
O O11 0.929471 0.025173 0.214772
O O12 0.676438 0.074138 0.891210
O O13 0.234202 0.975213 0.409427
O O14 0.175194 0.857895 0.333575
O O15 0.500000 0.500000 0.500000
#
# Coordination Sequence:
#
# PCOD8027216 Si02
#       7
#     2   2   2   2   2   2   2
#     4  11  24  44  73 104 139 183 229 284 350 414
#     4   9  20  41  66  98 135 175 228 278 343 398
#     4  11  26  46  66 105 144 178 234 286 341 420
#     4   9  21  40  67 100 135 172 229 289 328 413
#     4  10  24  44  70 103 136 181 232 286 335 420
#     4  11  26  44  67 101 141 182 228 286 348 410
#     4  11  25  44  68 102 135 184 235 282 353 407
#
# _framework density 23.653766999999998
#
# number of rings (size 3 to 8) (size 9 to 14) (size 15 to 20)
#    0.000    1.714    0.000    3.429    8.000    2.857 
#    0.000    2.143    0.000    0.000    0.000    0.000 
#    0.000    0.000    0.000    0.000    0.000    0.000 
#
# Total GULP energy -173475.720740 kJ/mol
# GULP energy per Si atom -12391.122910 kJ/mol
# Density = 2.359993 g / cm^3
# Si number density = 23.653767 Si / 1000 Ang^3
#
#
#
# Elastic Constant Matrix: (Units=GPa)
#
#
# Indices 1 2 3 4 5 6 
#
# 1 65.5887 28.2426 17.3802 -3.9369 18.8770 12.2645
# 2 28.2426 103.9273 29.3329 -11.8949 -4.0164 15.8161
# 3 17.3802 29.3329 69.0909 0.4818 5.6906 0.4064
# 4 -3.9369 -11.8949 0.4818 46.1200 -4.9715 -11.6464
# 5 18.8770 -4.0164 5.6906 -4.9715 37.3121 -1.7699
# 6 12.2645 15.8161 0.4064 -11.6464 -1.7699 33.9528
#
#
#
# Elastic Compliance Matrix: (Units=1/GPa)
#
#
# Indices 1 2 3 4 5 6 
#
# 1 0.022959 -0.005192 -0.002481 -0.002562 -0.012487 -0.007374
# 2 -0.005192 0.013367 -0.004785 0.002822 0.005026 -0.003064
# 3 -0.002481 -0.004785 0.017284 -0.001232 -0.001946 0.002394
# 4 -0.002562 0.002822 -0.001232 0.024937 0.005512 0.008466
# 5 -0.012487 0.005026 -0.001946 0.005512 0.034971 0.005906
# 6 -0.007374 -0.003064 0.002394 0.008466 0.005906 0.036727
#
#
# Mechanical properties :
#
#
# Convention : Reuss Voigt Hill
#
# Bulk Modulus (GPa) = 34.85088 43.16871 39.00979
# Shear Modulus (GPa) = 27.06717 34.38706 30.72712
#
# Velocity S-wave (km/s) = 3.38643 3.81697 3.60813
# Velocity P-wave (km/s) = 5.48236 6.14129 5.82116
#
# Compressibility (1/GPa) = 0.02869368
#
# Stress axis : x y z
#
# Youngs Moduli (GPa) = 43.55597 74.81056 57.85707
#
# Poissons Ratio (x) = 0.38844 0.14356
# Poissons Ratio (y) = 0.22616 0.27682
# Poissons Ratio (z) = 0.10807 0.35793
#
# Static dielectric constant tensor:
#      x y z
#    x 4.553570 0.060340 0.057690 
#    y 0.060340 3.972130 0.144380 
#    z 0.057690 0.144380 4.639200 
# 
# 
# High freq. dielectric constant tensor:
#      x y z
#    x 1.937460 0.008390 0.006900 
#    y 0.008390 1.928890 0.006440 
#    z 0.006900 0.006440 1.942430 
# 
# From -- ./inp_files/306467.got.cif
#   From: 2010.06.25/outbox.cif.g09.slc.cpg/sg2_154_cif.got.tgz:306467.got - 2010.06.27 13:26:56.
