data_PCOD8027468
_publ_section_title
;
Structure prediction by ZEFSAII (Michael W. Deem and Ramdas Pophale) SiO2 
 PCOD8027468
Probable space group: P -1
;
_chemical_formula_sum "Si O2"
_cell_formula_units_Z 16
_cell_length_a 9.630144
_cell_length_b 22.647375
_cell_length_c 19.015318
_cell_angle_alpha 162.013419
_cell_angle_beta 37.196359
_cell_angle_gamma 143.491622
_cell_volume 750.192551
_symmetry_space_group_name_H-M "P -1"
_symmetry_group_IT_number 2
_symmetry_cell_setting 'triclinic'
loop_
_space_group_symop_operation_xyz
x,y,z
-x,-y,-z
loop_
_atom_site_type_symbol
_atom_site_label
_atom_site_fract_x
_atom_site_fract_y
_atom_site_fract_z
Si Si1 0.951997 0.432088 0.612361
Si Si2 0.322538 0.215514 0.422530
Si Si3 0.571145 0.552093 0.609690
Si Si4 0.205462 0.780157 0.000359
Si Si5 0.823000 0.171788 0.504639
Si Si6 0.159244 0.114479 0.626211
Si Si7 0.546207 0.593506 0.266713
Si Si8 0.563389 0.180567 0.752439
O O1 0.846334 0.285275 0.551122
O O2 0.738315 0.443390 0.659691
O O3 0.144881 0.351911 0.397140
O O4 0.083138 0.645774 0.832566
O O5 0.527421 0.359143 0.457916
O O6 0.334972 0.279026 0.570712
O O7 0.071553 0.223751 0.502141
O O8 0.347617 0.992446 0.153816
O O9 0.500000 0.500000 0.500000
O O10 0.406490 0.694949 0.863428
O O11 0.000304 0.797210 0.156023
O O12 0.635561 0.238013 0.707292
O O13 0.715011 0.937929 0.267665
O O14 0.354114 0.295928 0.720199
O O15 0.279722 0.961364 0.442828
O O16 0.000000 0.000000 0.500000
O O17 0.604911 0.380125 0.006662
#
# Coordination Sequence:
#
# PCOD8027468 Si02
#       8
#     2   2   2   2   2   2   2   2
#     4  11  24  46  68  98 135 173 229 277 326 387
#     4  12  24  43  67 100 131 173 228 267 330 401
#     4  10  24  45  69  96 129 174 230 280 322 381
#     4  11  23  42  72  98 130 179 224 272 327 393
#     4  11  21  43  68  95 134 172 229 268 316 404
#     4  12  24  41  67 104 141 170 218 269 340 402
#     4  12  27  41  67 101 141 175 209 278 343 390
#     4  11  25  40  67 100 138 178 217 268 334 400
#
# _framework density 21.327857999999999
#
# number of rings (size 3 to 8) (size 9 to 14) (size 15 to 20)
#    0.000    0.750    6.250    1.500    3.500    4.500 
#    2.250    0.625    0.000    0.000    0.000    0.000 
#    0.000    0.000    0.000    0.000    0.000    0.000 
#
# Total GULP energy -198366.422638 kJ/mol
# GULP energy per Si atom -12397.901415 kJ/mol
# Density = 2.127932 g / cm^3
# Si number density = 21.327858 Si / 1000 Ang^3
#
#
#
# Elastic Constant Matrix: (Units=GPa)
#
#
# Indices 1 2 3 4 5 6 
#
# 1 64.3849 28.1949 20.8128 -11.3968 -4.5376 11.0860
# 2 28.1949 116.6377 37.5495 -1.1407 -19.9134 -11.2781
# 3 20.8128 37.5495 90.2819 4.8789 -14.8690 11.2990
# 4 -11.3968 -1.1407 4.8789 31.8013 8.8485 -10.5225
# 5 -4.5376 -19.9134 -14.8690 8.8485 27.6524 2.4152
# 6 11.0860 -11.2781 11.2990 -10.5225 2.4152 34.1939
#
#
#
# Elastic Compliance Matrix: (Units=1/GPa)
#
#
# Indices 1 2 3 4 5 6 
#
# 1 0.020541 -0.005028 -0.003026 0.007062 -0.003710 -0.004883
# 2 -0.005028 0.012694 -0.004046 -0.000041 0.005564 0.006748
# 3 -0.003026 -0.004046 0.016723 -0.009573 0.009474 -0.009494
# 4 0.007062 -0.000041 -0.009573 0.046626 -0.020392 0.016649
# 5 -0.003710 0.005564 0.009474 -0.020392 0.052058 -0.010045
# 6 -0.004883 0.006748 -0.009494 0.016649 -0.010045 0.042024
#
#
# Mechanical properties :
#
#
# Convention : Reuss Voigt Hill
#
# Bulk Modulus (GPa) = 38.82388 49.37989 44.10188
# Shear Modulus (GPa) = 22.37632 31.04600 26.71116
#
# Velocity S-wave (km/s) = 3.24259 3.81944 3.54278
# Velocity P-wave (km/s) = 5.67997 6.53099 6.12029
#
# Compressibility (1/GPa) = 0.02575734
#
# Stress axis : x y z
#
# Youngs Moduli (GPa) = 48.68397 78.77973 59.79858
#
# Poissons Ratio (x) = 0.39608 0.18094
# Poissons Ratio (y) = 0.24477 0.24197
# Poissons Ratio (z) = 0.14731 0.31877
#
# Static dielectric constant tensor:
#      x y z
#    x 3.803550 0.000270 -0.200620 
#    y 0.000270 4.112590 -0.065410 
#    z -0.200620 -0.065410 4.134690 
# 
# 
# High freq. dielectric constant tensor:
#      x y z
#    x 1.832720 0.006860 -0.009600 
#    y 0.006860 1.851970 0.009240 
#    z -0.009600 0.009240 1.823930 
# 
# From -- ./inp_files/562971.got.cif
#   From: 2010.06.25/outbox.cif.g09.slc.cpg/sg2_282_cif.got.tgz:562971.got - 2010.06.27 13:26:56.
