data_PCOD8027777
_publ_section_title
;
Structure prediction by ZEFSAII (Michael W. Deem and Ramdas Pophale) SiO2 
 PCOD8027777
Probable space group: P -1
;
_chemical_formula_sum "Si O2"
_cell_formula_units_Z 16
_cell_length_a 12.157292
_cell_length_b 8.415269
_cell_length_c 12.187632
_cell_angle_alpha 128.905780
_cell_angle_beta 115.530343
_cell_angle_gamma 52.449349
_cell_volume 766.911572
_symmetry_space_group_name_H-M "P -1"
_symmetry_group_IT_number 2
_symmetry_cell_setting 'triclinic'
loop_
_space_group_symop_operation_xyz
x,y,z
-x,-y,-z
loop_
_atom_site_type_symbol
_atom_site_label
_atom_site_fract_x
_atom_site_fract_y
_atom_site_fract_z
Si Si1 0.372793 0.606350 0.607257
Si Si2 0.209032 0.737109 0.814144
Si Si3 0.792098 0.897086 0.857012
Si Si4 0.941197 0.448508 0.060889
Si Si5 0.106265 0.938333 0.219454
Si Si6 0.254925 0.260279 0.728041
Si Si7 0.854169 0.061043 0.516925
Si Si8 0.540449 0.812005 0.674049
O O1 0.312571 0.681598 0.733939
O O2 0.264059 0.744638 0.524113
O O3 0.498910 0.667019 0.679296
O O4 0.424638 0.331655 0.488803
O O5 0.239066 0.496862 0.776573
O O6 0.053394 0.862866 0.755797
O O7 0.236006 0.896440 0.980766
O O8 0.670998 0.829078 0.784705
O O9 0.936314 0.667497 0.847197
O O10 0.802061 0.969382 0.767143
O O11 0.815275 0.687420 0.157850
O O12 0.878945 0.277238 0.938220
O O13 0.000000 0.500000 0.000000
O O14 0.160559 0.847959 0.325558
O O15 0.167548 0.165245 0.580254
O O16 0.416803 0.073836 0.719584
O O17 0.000000 0.000000 0.500000
#
# Coordination Sequence:
#
# PCOD8027777 Si02
#       8
#     2   2   2   2   2   2   2   2
#     4  10  24  47  64  92 136 172 216 275 324 382
#     4  11  22  43  69  95 135 169 216 279 320 383
#     4  11  24  44  67  99 132 174 216 265 332 393
#     4  11  23  41  69  97 134 169 217 273 322 378
#     4  11  22  42  65 103 133 166 216 278 326 380
#     4  11  24  44  63  99 134 171 221 264 324 388
#     4  11  23  39  68  99 127 169 225 268 326 384
#     4  10  26  46  63  94 135 176 220 259 328 393
#
# _framework density 20.862902999999999
#
# number of rings (size 3 to 8) (size 9 to 14) (size 15 to 20)
#    0.000    1.250    3.750    1.500   10.500    2.000 
#    4.500    0.000    0.000    0.000    0.000    0.000 
#    0.000    0.000    0.000    0.000    0.000    0.000 
#
# Total GULP energy -198398.800869 kJ/mol
# GULP energy per Si atom -12399.925054 kJ/mol
# Density = 2.081542 g / cm^3
# Si number density = 20.862903 Si / 1000 Ang^3
#
#
#
# Elastic Constant Matrix: (Units=GPa)
#
#
# Indices 1 2 3 4 5 6 
#
# 1 131.5033 24.5261 64.5532 -4.9947 0.0729 -3.2505
# 2 24.5261 57.6546 35.6340 14.3691 -0.5895 1.1472
# 3 64.5532 35.6340 93.3494 1.7777 -1.1075 -12.5860
# 4 -4.9947 14.3691 1.7777 35.4286 3.4564 -8.9093
# 5 0.0729 -0.5895 -1.1075 3.4564 50.3257 1.9517
# 6 -3.2505 1.1472 -12.5860 -8.9093 1.9517 24.9375
#
#
#
# Elastic Compliance Matrix: (Units=1/GPa)
#
#
# Indices 1 2 3 4 5 6 
#
# 1 0.011764 -0.000209 -0.008368 0.001666 -0.000238 -0.002067
# 2 -0.000209 0.028979 -0.012365 -0.014567 0.001569 -0.012928
# 3 -0.008368 -0.012365 0.022882 0.006071 -0.000560 0.013239
# 4 0.001666 -0.014567 0.006071 0.038959 -0.003418 0.018137
# 5 -0.000238 0.001569 -0.000560 -0.003418 0.020235 -0.003191
# 6 -0.002067 -0.012928 0.013239 0.018137 -0.003191 0.053837
#
#
# Mechanical properties :
#
#
# Convention : Reuss Voigt Hill
#
# Bulk Modulus (GPa) = 45.99556 59.10379 52.54968
# Shear Modulus (GPa) = 22.14479 32.65797 27.40138
#
# Velocity S-wave (km/s) = 3.26151 3.96076 3.62802
# Velocity P-wave (km/s) = 6.02310 7.02196 6.54162
#
# Compressibility (1/GPa) = 0.02174123
#
# Stress axis : x y z
#
# Youngs Moduli (GPa) = 85.00863 34.50733 43.70239
#
# Poissons Ratio (x) = 0.00720 0.36571
# Poissons Ratio (y) = 0.01775 0.54037
# Poissons Ratio (z) = 0.71137 0.42668
#
# Static dielectric constant tensor:
#      x y z
#    x 4.197880 -0.057990 0.033070 
#    y -0.057990 3.882670 0.249520 
#    z 0.033070 0.249520 3.933500 
# 
# 
# High freq. dielectric constant tensor:
#      x y z
#    x 1.832330 0.002510 -0.003950 
#    y 0.002510 1.808460 0.019030 
#    z -0.003950 0.019030 1.819760 
# 
# From -- ./inp_files/208678.got.cif
#   From: 2010.06.25/outbox.cif.g09.slc.cpg/sg2_105_cif.got.tgz:208678.got - 2010.06.27 13:26:56.
