data_PCOD8027194
_publ_section_title
;
Structure prediction by ZEFSAII (Michael W. Deem and Ramdas Pophale) SiO2 
 PCOD8027194
Probable space group: P -1
;
_chemical_formula_sum "Si O2"
_cell_formula_units_Z 16
_cell_length_a 16.582159
_cell_length_b 9.280331
_cell_length_c 7.931494
_cell_angle_alpha 60.643077
_cell_angle_beta 83.982427
_cell_angle_gamma 125.822197
_cell_volume 717.917880
_symmetry_space_group_name_H-M "P -1"
_symmetry_group_IT_number 2
_symmetry_cell_setting 'triclinic'
loop_
_space_group_symop_operation_xyz
x,y,z
-x,-y,-z
loop_
_atom_site_type_symbol
_atom_site_label
_atom_site_fract_x
_atom_site_fract_y
_atom_site_fract_z
Si Si1 0.545862 0.247545 0.396130
Si Si2 0.694208 0.407730 0.605659
Si Si3 0.317143 0.093125 0.508319
Si Si4 0.067212 0.761413 0.902558
Si Si5 0.925865 0.228828 0.718595
Si Si6 0.306014 0.968536 0.234417
Si Si7 0.420265 0.581856 0.075831
Si Si8 0.039936 0.074557 0.757119
O O1 0.634636 0.373768 0.461776
O O2 0.434437 0.193656 0.514430
O O3 0.500000 0.000000 0.500000
O O4 0.606511 0.408306 0.118716
O O5 0.709575 0.235669 0.720189
O O6 0.616785 0.334815 0.829360
O O7 0.819470 0.685676 0.424188
O O8 0.346364 0.308720 0.288121
O O9 0.209310 0.951401 0.742536
O O10 0.274132 0.906310 0.475688
O O11 0.019026 0.867612 0.778722
O O12 0.042586 0.749286 0.108761
O O13 0.000000 0.500000 0.000000
O O14 0.785161 0.042727 0.828464
O O15 0.000000 0.500000 0.500000
O O16 0.968823 0.127282 0.665315
O O17 0.438970 0.240408 0.030271
O O18 0.000000 0.000000 0.000000
#
# Coordination Sequence:
#
# PCOD8027194 Si02
#       8
#     2   2   2   2   2   2   2   2
#     4  11  24  41  71 106 140 185 226 280 355 411
#     4  12  23  45  72 101 144 182 232 288 341 424
#     4  11  24  45  65 101 144 172 233 291 345 418
#     4  11  25  45  70  98 136 184 235 296 347 418
#     4  11  23  44  71 100 135 186 235 282 357 412
#     4  11  23  42  71  97 140 183 223 290 348 411
#     4  11  25  44  69 106 142 183 232 285 347 420
#     4  10  24  44  69  99 137 183 237 287 351 417
#
# _framework density 22.286670000000001
#
# number of rings (size 3 to 8) (size 9 to 14) (size 15 to 20)
#    0.000    1.000    5.000    2.625    3.500    4.500 
#    0.000    3.750    0.000    0.000    0.000    0.000 
#    0.000    0.000    0.000    0.000    0.000    0.000 
#
# Total GULP energy -198294.624141 kJ/mol
# GULP energy per Si atom -12393.414009 kJ/mol
# Density = 2.223594 g / cm^3
# Si number density = 22.286670 Si / 1000 Ang^3
#
#
#
# Elastic Constant Matrix: (Units=GPa)
#
#
# Indices 1 2 3 4 5 6 
#
# 1 172.3142 61.4541 40.6716 -1.2989 0.2033 -15.3270
# 2 61.4541 89.0937 24.0727 -2.0815 -3.0964 -13.6955
# 3 40.6716 24.0727 96.4769 -7.2606 -7.2454 -4.5803
# 4 -1.2989 -2.0815 -7.2606 31.3902 -5.8632 2.1701
# 5 0.2033 -3.0964 -7.2454 -5.8632 27.9884 -1.2516
# 6 -15.3270 -13.6955 -4.5803 2.1701 -1.2516 41.4079
#
#
#
# Elastic Compliance Matrix: (Units=1/GPa)
#
#
# Indices 1 2 3 4 5 6 
#
# 1 0.008208 -0.004917 -0.002344 -0.000858 -0.001338 0.001157
# 2 -0.004917 0.015581 -0.001498 0.000568 0.001633 0.003187
# 3 -0.002344 -0.001498 0.012254 0.003338 0.003720 -0.000070
# 4 -0.000858 0.000568 0.003338 0.034224 0.008044 -0.001311
# 5 -0.001338 0.001633 0.003720 0.008044 0.038621 0.001202
# 6 0.001157 0.003187 -0.000070 -0.001311 0.001202 0.025730
#
#
# Mechanical properties :
#
#
# Convention : Reuss Voigt Hill
#
# Bulk Modulus (GPa) = 53.98011 67.80907 60.89459
# Shear Modulus (GPa) = 31.58338 35.60306 33.59322
#
# Velocity S-wave (km/s) = 3.76858 4.00122 3.88664
# Velocity P-wave (km/s) = 6.57340 7.19987 6.89376
#
# Compressibility (1/GPa) = 0.01852534
#
# Stress axis : x y z
#
# Youngs Moduli (GPa) = 121.82881 64.18234 81.60512
#
# Poissons Ratio (x) = 0.31560 0.19125
# Poissons Ratio (y) = 0.59906 0.12224
# Poissons Ratio (z) = 0.28551 0.09614
#
# Static dielectric constant tensor:
#      x y z
#    x 4.929160 -0.188400 0.332630 
#    y -0.188400 4.059950 0.056850 
#    z 0.332630 0.056850 4.607840 
# 
# 
# High freq. dielectric constant tensor:
#      x y z
#    x 1.894500 -0.025860 -0.006610 
#    y -0.025860 1.869630 -0.008130 
#    z -0.006610 -0.008130 1.880340 
# 
# From -- ./inp_files/271342.got.cif
#   From: 2010.06.25/outbox.cif.g09.slc.cpg/sg2_136_cif.got.tgz:271342.got - 2010.06.27 13:26:56.
