data_PCOD8027852
_publ_section_title
;
Structure prediction by ZEFSAII (Michael W. Deem and Ramdas Pophale) SiO2 
 PCOD8027852
Probable space group: P -1
;
_chemical_formula_sum "Si O2"
_cell_formula_units_Z 14
_cell_length_a 9.175933
_cell_length_b 13.526446
_cell_length_c 9.148389
_cell_angle_alpha 67.995215
_cell_angle_beta 130.751345
_cell_angle_gamma 136.002452
_cell_volume 587.707326
_symmetry_space_group_name_H-M "P -1"
_symmetry_group_IT_number 2
_symmetry_cell_setting 'triclinic'
loop_
_space_group_symop_operation_xyz
x,y,z
-x,-y,-z
loop_
_atom_site_type_symbol
_atom_site_label
_atom_site_fract_x
_atom_site_fract_y
_atom_site_fract_z
Si Si1 0.260095 0.224849 0.374276
Si Si2 0.298912 0.647162 0.607930
Si Si3 0.521239 0.736221 0.189776
Si Si4 0.733264 0.146170 0.991371
Si Si5 0.327301 0.523010 0.949756
Si Si6 0.844694 0.211083 0.717466
Si Si7 0.013328 0.052935 0.818102
O O1 0.525368 0.358761 0.386833
O O2 0.316944 0.236417 0.576060
O O3 0.199623 0.085648 0.344631
O O4 0.020390 0.216368 0.194483
O O5 0.391575 0.656839 0.827860
O O6 0.328948 0.783992 0.511365
O O7 0.000000 0.500000 0.500000
O O8 0.292879 0.735913 0.071460
O O9 0.712760 0.864141 0.127916
O O10 0.396299 0.579866 0.130029
O O11 0.692296 0.104004 0.815170
O O12 0.500000 0.000000 0.000000
O O13 0.036349 0.368971 0.832834
O O14 0.500000 0.500000 0.000000
O O15 0.971798 0.164836 0.731932
O O16 0.000000 0.000000 0.000000
#
# Coordination Sequence:
#
# PCOD8027852 Si02
#       7
#     2   2   2   2   2   2   2
#     4  12  25  46  76 110 153 195 250 312 379 443
#     4  10  24  47  76 109 147 196 258 306 374 451
#     4  12  26  46  72 112 153 194 250 313 381 446
#     4  12  25  46  74 111 156 197 246 309 385 445
#     4  11  23  47  77 101 145 197 256 311 368 447
#     4  11  23  46  74 107 147 197 258 312 368 443
#     4  12  23  43  79 107 147 202 252 307 372 448
#
# _framework density 23.821380000000001
#
# number of rings (size 3 to 8) (size 9 to 14) (size 15 to 20)
#    0.000    0.571    5.714    2.143    0.000    2.286 
#    2.571    1.429    0.000    0.000    0.000    0.000 
#    0.000    0.000    0.000    0.000    0.000    0.000 
#
# Total GULP energy -173485.292796 kJ/mol
# GULP energy per Si atom -12391.806628 kJ/mol
# Density = 2.376716 g / cm^3
# Si number density = 23.821380 Si / 1000 Ang^3
#
#
#
# Elastic Constant Matrix: (Units=GPa)
#
#
# Indices 1 2 3 4 5 6 
#
# 1 156.2510 39.2169 54.1902 -2.4310 16.8932 -5.5320
# 2 39.2169 73.2809 50.2533 0.0302 -4.1645 -10.0885
# 3 54.1902 50.2533 145.7154 -11.4072 -5.6828 -22.1511
# 4 -2.4310 0.0302 -11.4072 40.8396 -8.9800 -5.1716
# 5 16.8932 -4.1645 -5.6828 -8.9800 48.7132 -2.0359
# 6 -5.5320 -10.0885 -22.1511 -5.1716 -2.0359 56.0249
#
#
#
# Elastic Compliance Matrix: (Units=1/GPa)
#
#
# Indices 1 2 3 4 5 6 
#
# 1 0.008377 -0.003182 -0.002389 -0.001096 -0.003696 -0.000926
# 2 -0.003182 0.019242 -0.005309 -0.001126 0.001964 0.001019
# 3 -0.002389 -0.005309 0.010486 0.003754 0.002431 0.003389
# 4 -0.001096 -0.001126 0.003754 0.027265 0.005911 0.003905
# 5 -0.003696 0.001964 0.002431 0.005911 0.023450 0.002348
# 6 -0.000926 0.001019 0.003389 0.003905 0.002348 0.019727
#
#
# Mechanical properties :
#
#
# Convention : Reuss Voigt Hill
#
# Bulk Modulus (GPa) = 61.18021 73.61866 67.39943
# Shear Modulus (GPa) = 36.83117 44.55468 40.69292
#
# Velocity S-wave (km/s) = 3.93636 4.32946 4.13758
# Velocity P-wave (km/s) = 6.81165 7.48090 7.15411
#
# Compressibility (1/GPa) = 0.01634516
#
# Stress axis : x y z
#
# Youngs Moduli (GPa) = 119.37735 51.96872 95.36557
#
# Poissons Ratio (x) = 0.16536 0.22779
# Poissons Ratio (y) = 0.37986 0.50634
# Poissons Ratio (z) = 0.28514 0.27592
#
# Static dielectric constant tensor:
#      x y z
#    x 4.601990 0.052710 0.003100 
#    y 0.052710 4.940550 -0.310360 
#    z 0.003100 -0.310360 4.606590 
# 
# 
# High freq. dielectric constant tensor:
#      x y z
#    x 1.963140 0.010730 0.003490 
#    y 0.010730 1.935260 -0.015030 
#    z 0.003490 -0.015030 1.943650 
# 
# From -- ./inp_files/186992.got.cif
#   From: 2010.06.25/outbox.cif.g09.slc.cpg/sg2_94_cif.got.tgz:186992.got - 2010.06.27 13:26:56.
