data_PCOD8027345
_publ_section_title
;
Structure prediction by ZEFSAII (Michael W. Deem and Ramdas Pophale) SiO2 
 PCOD8027345
Probable space group: P -1
;
_chemical_formula_sum "Si O2"
_cell_formula_units_Z 14
_cell_length_a 5.603771
_cell_length_b 14.758767
_cell_length_c 15.042594
_cell_angle_alpha 29.468720
_cell_angle_beta 83.498723
_cell_angle_gamma 94.368227
_cell_volume 567.906053
_symmetry_space_group_name_H-M "P -1"
_symmetry_group_IT_number 2
_symmetry_cell_setting 'triclinic'
loop_
_space_group_symop_operation_xyz
x,y,z
-x,-y,-z
loop_
_atom_site_type_symbol
_atom_site_label
_atom_site_fract_x
_atom_site_fract_y
_atom_site_fract_z
Si Si1 0.795476 0.108660 0.654225
Si Si2 0.113276 0.294637 0.738699
Si Si3 0.619109 0.259075 0.693505
Si Si4 0.553668 0.975912 0.416692
Si Si5 0.916572 0.402041 0.992658
Si Si6 0.779560 0.702684 0.073410
Si Si7 0.287689 0.392050 0.316425
O O1 0.596137 0.171005 0.669606
O O2 0.697482 0.048332 0.609964
O O3 0.049843 0.302855 0.469756
O O4 0.845062 0.927626 0.852414
O O5 0.324300 0.185536 0.806673
O O6 0.251943 0.506659 0.508719
O O7 0.064574 0.300471 0.841176
O O8 0.827712 0.185608 0.800829
O O9 0.622749 0.784450 0.564629
O O10 0.500000 0.000000 0.500000
O O11 0.773985 0.169486 0.206713
O O12 0.753357 0.514797 0.854870
O O13 0.000000 0.500000 0.000000
O O14 0.154882 0.423483 0.900168
O O15 0.479581 0.572218 0.212834
#
# Coordination Sequence:
#
# PCOD8027345 Si02
#       7
#     2   2   2   2   2   2   2
#     4  12  27  47  75 110 149 201 256 317 387 463
#     4  10  24  44  76 110 153 203 259 321 391 463
#     4  10  24  44  76 110 153 203 259 321 391 463
#     4  12  27  47  76 111 150 199 257 314 389 463
#     4  12  27  47  76 111 150 199 257 314 389 463
#     4  12  27  47  75 110 149 201 256 317 387 463
#     4  12  26  48  76 102 158 194 250 322 382 454
#
# _framework density 24.651964
#
# number of rings (size 3 to 8) (size 9 to 14) (size 15 to 20)
#    0.000    0.571    2.857    4.286   12.000    3.429 
#    0.000    0.000    0.000    0.000    0.000    0.000 
#    0.000    0.000    0.000    0.000    0.000    0.000 
#
# Total GULP energy -173573.648882 kJ/mol
# GULP energy per Si atom -12398.117777 kJ/mol
# Density = 2.459585 g / cm^3
# Si number density = 24.651964 Si / 1000 Ang^3
#
#
#
# Elastic Constant Matrix: (Units=GPa)
#
#
# Indices 1 2 3 4 5 6 
#
# 1 126.6525 39.0259 25.9548 17.6834 7.6417 8.8905
# 2 39.0259 117.1931 18.7348 24.3062 0.0056 2.0016
# 3 25.9548 18.7348 124.2025 0.5904 5.6488 13.4593
# 4 17.6834 24.3062 0.5904 28.6117 2.1452 -3.0543
# 5 7.6417 0.0056 5.6488 2.1452 25.6761 4.2464
# 6 8.8905 2.0016 13.4593 -3.0543 4.2464 40.1518
#
#
#
# Elastic Compliance Matrix: (Units=1/GPa)
#
#
# Indices 1 2 3 4 5 6 
#
# 1 0.009648 -0.002089 -0.001412 -0.004193 -0.001933 -0.001673
# 2 -0.002089 0.011164 -0.001230 -0.008346 0.001669 -0.000493
# 3 -0.001412 -0.001230 0.008835 0.001582 -0.001270 -0.002333
# 4 -0.004193 -0.008346 0.001582 0.045370 -0.003658 0.004652
# 5 -0.001933 0.001669 -0.001270 -0.003658 0.040738 -0.003816
# 6 -0.001673 -0.000493 -0.002333 0.004652 -0.003816 0.026840
#
#
# Mechanical properties :
#
#
# Convention : Reuss Voigt Hill
#
# Bulk Modulus (GPa) = 49.54055 59.49766 54.51910
# Shear Modulus (GPa) = 31.48878 37.84344 34.66611
#
# Velocity S-wave (km/s) = 3.57786 3.92230 3.75403
# Velocity P-wave (km/s) = 6.09981 6.68581 6.39952
#
# Compressibility (1/GPa) = 0.02018548
#
# Stress axis : x y z
#
# Youngs Moduli (GPa) = 103.64668 89.56965 113.18550
#
# Poissons Ratio (x) = 0.18710 0.15981
# Poissons Ratio (y) = 0.21650 0.13926
# Poissons Ratio (z) = 0.14634 0.11020
#
# Static dielectric constant tensor:
#      x y z
#    x 4.727460 -0.034360 0.080370 
#    y -0.034360 4.435970 0.053690 
#    z 0.080370 0.053690 4.560850 
# 
# 
# High freq. dielectric constant tensor:
#      x y z
#    x 1.978360 0.000950 0.006240 
#    y 0.000950 1.984350 0.000130 
#    z 0.006240 0.000130 2.000090 
# 
# From -- ./inp_files/484098.got.cif
#   From: 2010.06.25/outbox.cif.g09.slc.cpg/sg2_243_cif.got.tgz:484098.got - 2010.06.27 13:26:56.
