data_PCOD8027171
_publ_section_title
;
Structure prediction by ZEFSAII (Michael W. Deem and Ramdas Pophale) SiO2 
 PCOD8027171
Probable space group: P -1
;
_chemical_formula_sum "Si O2"
_cell_formula_units_Z 16
_cell_length_a 16.467917
_cell_length_b 9.178298
_cell_length_c 11.722846
_cell_angle_alpha 39.772176
_cell_angle_beta 46.360772
_cell_angle_gamma 46.008594
_cell_volume 767.058485
_symmetry_space_group_name_H-M "P -1"
_symmetry_group_IT_number 2
_symmetry_cell_setting 'triclinic'
loop_
_space_group_symop_operation_xyz
x,y,z
-x,-y,-z
loop_
_atom_site_type_symbol
_atom_site_label
_atom_site_fract_x
_atom_site_fract_y
_atom_site_fract_z
Si Si1 0.502010 0.197783 0.467153
Si Si2 0.485726 0.401244 0.947844
Si Si3 0.733791 0.069105 0.812412
Si Si4 0.759528 0.563226 0.439107
Si Si5 0.256353 0.121820 0.514632
Si Si6 0.906077 0.164665 0.078379
Si Si7 0.082328 0.277999 0.984437
Si Si8 0.249729 0.306688 0.177689
O O1 0.541523 0.393833 0.244549
O O2 0.368017 0.319616 0.576004
O O3 0.500000 0.000000 0.500000
O O4 0.606106 0.057440 0.540760
O O5 0.605266 0.181190 0.929599
O O6 0.500000 0.500000 0.000000
O O7 0.373605 0.314588 0.102987
O O8 0.786877 0.274007 0.595997
O O9 0.726462 0.902158 0.814081
O O10 0.816708 0.908573 0.926151
O O11 0.747609 0.670328 0.514592
O O12 0.861763 0.622466 0.236003
O O13 0.191414 0.238246 0.389650
O O14 0.193622 0.948210 0.732339
O O15 0.841590 0.440024 0.932101
O O16 0.989023 0.152376 0.113584
O O17 0.000000 0.000000 0.000000
O O18 0.000000 0.500000 0.000000
#
# Coordination Sequence:
#
# PCOD8027171 Si02
#       8
#     2   2   2   2   2   2   2   2
#     4   9  19  39  65 103 134 167 224 284 345 402
#     4  11  23  42  73 103 141 180 233 289 347 413
#     4  11  27  45  68 104 144 182 230 287 354 421
#     4  10  24  44  69 104 133 184 236 285 349 411
#     4  11  24  43  72 102 139 179 234 296 343 410
#     4  12  27  47  69 102 140 186 242 289 336 419
#     4  12  27  47  71  97 142 193 232 282 351 421
#     4  12  26  45  69 106 142 183 228 291 355 410
#
# _framework density 20.858905
#
# number of rings (size 3 to 8) (size 9 to 14) (size 15 to 20)
#    0.000    1.000    3.750    2.625   10.500    2.000 
#    0.000    1.250    0.000    0.000    0.000    0.000 
#    0.000    0.000    0.000    0.000    0.000    0.000 
#
# Total GULP energy -198314.223714 kJ/mol
# GULP energy per Si atom -12394.638982 kJ/mol
# Density = 2.081143 g / cm^3
# Si number density = 20.858905 Si / 1000 Ang^3
#
#
#
# Elastic Constant Matrix: (Units=GPa)
#
#
# Indices 1 2 3 4 5 6 
#
# 1 125.9738 55.8462 32.2294 -8.3299 2.5651 11.0807
# 2 55.8462 141.7379 44.3775 -11.0390 5.0686 8.8153
# 3 32.2294 44.3775 68.8185 -14.3660 6.2908 -8.8459
# 4 -8.3299 -11.0390 -14.3660 31.5148 0.4421 -4.2105
# 5 2.5651 5.0686 6.2908 0.4421 30.7125 -2.5953
# 6 11.0807 8.8153 -8.8459 -4.2105 -2.5953 33.0145
#
#
#
# Elastic Compliance Matrix: (Units=1/GPa)
#
#
# Indices 1 2 3 4 5 6 
#
# 1 0.010401 -0.002744 -0.003673 -0.000393 0.000022 -0.003791
# 2 -0.002744 0.010125 -0.005669 -0.000205 -0.000563 -0.003372
# 3 -0.003673 -0.005669 0.023330 0.009044 -0.002827 0.009929
# 4 -0.000393 -0.000205 0.009044 0.036657 -0.001709 0.007151
# 5 0.000022 -0.000563 -0.002827 -0.001709 0.033406 0.001793
# 6 -0.003791 -0.003372 0.009929 0.007151 0.001793 0.036176
#
#
# Mechanical properties :
#
#
# Convention : Reuss Voigt Hill
#
# Bulk Modulus (GPa) = 50.80289 66.82627 58.81458
# Shear Modulus (GPa) = 27.65040 32.65352 30.15196
#
# Velocity S-wave (km/s) = 3.64482 3.96087 3.80612
# Velocity P-wave (km/s) = 6.49009 7.28181 6.89732
#
# Compressibility (1/GPa) = 0.01968392
#
# Stress axis : x y z
#
# Youngs Moduli (GPa) = 96.14191 98.76376 42.86383
#
# Poissons Ratio (x) = 0.27098 0.15745
# Poissons Ratio (y) = 0.26379 0.24300
# Poissons Ratio (z) = 0.35315 0.55991
#
# Static dielectric constant tensor:
#      x y z
#    x 4.018510 -0.223800 -0.016740 
#    y -0.223800 4.019750 -0.164600 
#    z -0.016740 -0.164600 3.878760 
# 
# 
# High freq. dielectric constant tensor:
#      x y z
#    x 1.822490 -0.009230 -0.007320 
#    y -0.009230 1.824310 -0.010340 
#    z -0.007320 -0.010340 1.826040 
# 
# From -- ./inp_files/399008.got.cif
#   From: 2010.06.25/outbox.cif.g09.slc.cpg/sg2_200_cif.got.tgz:399008.got - 2010.06.27 13:26:56.
