data_PCOD8027115
_publ_section_title
;
Structure prediction by ZEFSAII (Michael W. Deem and Ramdas Pophale) SiO2 
 PCOD8027115
Probable space group: P -1
;
_chemical_formula_sum "Si O2"
_cell_formula_units_Z 14
_cell_length_a 10.227936
_cell_length_b 13.194469
_cell_length_c 9.292350
_cell_angle_alpha 141.302053
_cell_angle_beta 126.479114
_cell_angle_gamma 59.390641
_cell_volume 627.869689
_symmetry_space_group_name_H-M "P -1"
_symmetry_group_IT_number 2
_symmetry_cell_setting 'triclinic'
loop_
_space_group_symop_operation_xyz
x,y,z
-x,-y,-z
loop_
_atom_site_type_symbol
_atom_site_label
_atom_site_fract_x
_atom_site_fract_y
_atom_site_fract_z
Si Si1 0.560288 0.531761 0.848004
Si Si2 0.939770 0.871677 0.212172
Si Si3 0.410230 0.875980 0.210598
Si Si4 0.852825 0.935346 0.922557
Si Si5 0.205230 0.652563 0.990055
Si Si6 0.199066 0.436848 0.487303
Si Si7 0.155616 0.439810 0.133119
O O1 0.650343 0.466496 0.980118
O O2 0.395636 0.444181 0.622076
O O3 0.681151 0.491537 0.747595
O O4 0.527094 0.726061 0.059675
O O5 0.074188 0.719945 0.095457
O O6 0.000000 0.000000 0.500000
O O7 0.878302 0.977682 0.152959
O O8 0.808740 0.760106 0.073593
O O9 0.272246 0.814838 0.154453
O O10 0.500000 0.000000 0.500000
O O11 0.321078 0.974266 0.130376
O O12 0.846119 0.741358 0.693977
O O13 0.000000 0.000000 0.000000
O O14 0.123664 0.560439 0.700195
O O15 0.133759 0.492420 0.346329
O O16 0.000000 0.500000 0.000000
#
# Coordination Sequence:
#
# PCOD8027115 Si02
#       7
#     2   2   2   2   2   2   2
#     4  11  23  44  68 100 136 176 225 275 337 396
#     4  11  26  44  63 101 139 170 222 280 335 391
#     4  11  23  41  68 101 134 176 223 275 335 396
#     4  11  23  45  68 102 133 179 222 275 336 396
#     4  11  22  44  68 100 130 177 224 278 327 393
#     4  10  24  44  68 100 136 170 230 275 331 399
#     4  11  24  45  68  99 132 181 223 275 336 393
#
# _framework density 22.297620999999999
#
# number of rings (size 3 to 8) (size 9 to 14) (size 15 to 20)
#    0.000    1.143    2.857    3.857    2.000    5.714 
#    5.143    1.429    0.000    0.000    0.000    0.000 
#    0.000    0.000    0.000    0.000    0.000    0.000 
#
# Total GULP energy -173519.104531 kJ/mol
# GULP energy per Si atom -12394.221752 kJ/mol
# Density = 2.224687 g / cm^3
# Si number density = 22.297621 Si / 1000 Ang^3
#
#
#
# Elastic Constant Matrix: (Units=GPa)
#
#
# Indices 1 2 3 4 5 6 
#
# 1 81.9087 31.7839 47.3583 4.2121 -4.9169 6.6888
# 2 31.7839 174.4544 66.7997 -25.5071 -5.7131 -1.4143
# 3 47.3583 66.7997 191.1674 -9.7148 -2.9795 11.1097
# 4 4.2121 -25.5071 -9.7148 40.9561 7.2593 6.3107
# 5 -4.9169 -5.7131 -2.9795 7.2593 27.4205 6.4754
# 6 6.6888 -1.4143 11.1097 6.3107 6.4754 41.6385
#
#
#
# Elastic Compliance Matrix: (Units=1/GPa)
#
#
# Indices 1 2 3 4 5 6 
#
# 1 0.015372 -0.002083 -0.003134 -0.003976 0.003420 -0.001633
# 2 -0.002083 0.007479 -0.001906 0.004400 -0.000300 0.000477
# 3 -0.003134 -0.001906 0.006810 0.001006 -0.000129 -0.001511
# 4 -0.003976 0.004400 0.001006 0.029455 -0.006803 -0.002886
# 5 0.003420 -0.000300 -0.000129 -0.006803 0.040162 -0.005740
# 6 -0.001633 0.000477 -0.001511 -0.002886 -0.005740 0.026028
#
#
# Mechanical properties :
#
#
# Convention : Reuss Voigt Hill
#
# Bulk Modulus (GPa) = 64.87297 82.15715 73.51506
# Shear Modulus (GPa) = 34.55619 42.10894 38.33256
#
# Velocity S-wave (km/s) = 3.94098 4.35040 4.15074
# Velocity P-wave (km/s) = 7.06157 7.88418 7.48418
#
# Compressibility (1/GPa) = 0.01541474
#
# Stress axis : x y z
#
# Youngs Moduli (GPa) = 65.05177 133.71028 146.83380
#
# Poissons Ratio (x) = 0.27855 0.46020
# Poissons Ratio (y) = 0.13552 0.27988
# Poissons Ratio (z) = 0.20388 0.25486
#
# Static dielectric constant tensor:
#      x y z
#    x 51.526380 -23.333070 2.994070 
#    y -23.333070 16.225860 -1.433320 
#    z 2.994070 -1.433320 4.302420 
# 
# 
# High freq. dielectric constant tensor:
#      x y z
#    x 1.883640 0.012080 0.020390 
#    y 0.012080 1.894910 -0.008770 
#    z 0.020390 -0.008770 1.882250 
# 
# From -- ./inp_files/186597.got.cif
#   From: 2010.06.25/outbox.cif.g09.slc.cpg/sg2_94_cif.got.tgz:186597.got - 2010.06.27 13:26:56.
