data_PCOD8027378
_publ_section_title
;
Structure prediction by ZEFSAII (Michael W. Deem and Ramdas Pophale) SiO2 
 PCOD8027378
Probable space group: P -1
;
_chemical_formula_sum "Si O2"
_cell_formula_units_Z 16
_cell_length_a 17.941679
_cell_length_b 12.123647
_cell_length_c 9.315255
_cell_angle_alpha 50.528685
_cell_angle_beta 132.753904
_cell_angle_gamma 149.470530
_cell_volume 748.700875
_symmetry_space_group_name_H-M "P -1"
_symmetry_group_IT_number 2
_symmetry_cell_setting 'triclinic'
loop_
_space_group_symop_operation_xyz
x,y,z
-x,-y,-z
loop_
_atom_site_type_symbol
_atom_site_label
_atom_site_fract_x
_atom_site_fract_y
_atom_site_fract_z
Si Si1 0.369255 0.442953 0.458796
Si Si2 0.388520 0.700906 0.484050
Si Si3 0.118117 0.160427 0.849063
Si Si4 0.856733 0.677588 0.974358
Si Si5 0.333655 0.960297 0.229470
Si Si6 0.984262 0.441626 0.694252
Si Si7 0.221558 0.090686 0.793428
Si Si8 0.032927 0.281848 0.426108
O O1 0.500000 0.500000 0.500000
O O2 0.441765 0.656478 0.459775
O O3 0.243264 0.374935 0.244120
O O4 0.301760 0.248120 0.633030
O O5 0.515460 0.816410 0.678489
O O6 0.218877 0.468193 0.504253
O O7 0.376133 0.854376 0.298972
O O8 0.231611 0.213578 0.834789
O O9 0.995397 0.138518 0.630816
O O10 0.215695 0.349964 0.943215
O O11 0.027355 0.930363 0.988929
O O12 0.885390 0.538388 0.117645
O O13 0.190030 0.794347 0.292603
O O14 0.301442 0.029248 0.996737
O O15 0.028688 0.625325 0.698126
O O16 0.000000 0.500000 0.500000
O O17 0.044789 0.860458 0.704143
#
# Coordination Sequence:
#
# PCOD8027378 Si02
#       8
#     2   2   2   2   2   2   2   2
#     4  12  28  44  66  99 139 175 224 282 342 395
#     4  10  24  45  66  93 138 172 223 271 340 397
#     4  11  21  39  69  94 134 170 217 276 331 389
#     4  11  24  41  65 102 136 173 220 278 332 396
#     4  10  25  44  68  99 132 180 223 275 330 404
#     4  11  23  41  68 101 135 176 224 273 331 400
#     4  12  24  43  71 100 131 175 233 277 328 397
#     4  11  22  40  71 100 128 174 225 277 326 397
#
# _framework density 21.370352
#
# number of rings (size 3 to 8) (size 9 to 14) (size 15 to 20)
#    0.000    1.000    5.000    1.125    3.500    3.500 
#    2.250    0.625    0.000    0.000    0.000    0.000 
#    0.000    0.000    0.000    0.000    0.000    0.000 
#
# Total GULP energy -198330.319577 kJ/mol
# GULP energy per Si atom -12395.644974 kJ/mol
# Density = 2.132171 g / cm^3
# Si number density = 21.370352 Si / 1000 Ang^3
#
#
#
# Elastic Constant Matrix: (Units=GPa)
#
#
# Indices 1 2 3 4 5 6 
#
# 1 143.7324 52.4389 53.9674 -9.2344 0.2579 -18.0385
# 2 52.4389 86.9739 47.8666 7.4533 2.4604 -11.2800
# 3 53.9674 47.8666 167.2981 -5.0978 10.2187 -5.0812
# 4 -9.2344 7.4533 -5.0978 23.0457 -7.5853 2.0347
# 5 0.2579 2.4604 10.2187 -7.5853 27.7393 -2.3228
# 6 -18.0385 -11.2800 -5.0812 2.0347 -2.3228 33.7724
#
#
#
# Elastic Compliance Matrix: (Units=1/GPa)
#
#
# Indices 1 2 3 4 5 6 
#
# 1 0.010426 -0.005573 -0.001661 0.006314 0.003011 0.003285
# 2 -0.005573 0.018055 -0.003413 -0.010003 -0.002780 0.002952
# 3 -0.001661 -0.003413 0.007635 0.001510 -0.002175 -0.001119
# 4 0.006314 -0.010003 0.001510 0.054618 0.015040 -0.001998
# 5 0.003011 -0.002780 -0.002175 0.015040 0.041374 0.002292
# 6 0.003285 0.002952 -0.001119 -0.001998 0.002292 0.032460
#
#
# Mechanical properties :
#
#
# Convention : Reuss Voigt Hill
#
# Bulk Modulus (GPa) = 67.46600 78.50557 72.98578
# Shear Modulus (GPa) = 26.20508 33.16025 29.68266
#
# Velocity S-wave (km/s) = 3.50556 3.94343 3.73092
# Velocity P-wave (km/s) = 6.92992 7.58615 7.26545
#
# Compressibility (1/GPa) = 0.01482228
#
# Stress axis : x y z
#
# Youngs Moduli (GPa) = 95.90952 55.38653 130.98258
#
# Poissons Ratio (x) = 0.30865 0.21753
# Poissons Ratio (y) = 0.53447 0.44711
# Poissons Ratio (z) = 0.15928 0.18906
#
# Static dielectric constant tensor:
#      x y z
#    x 4.138970 -0.288130 0.058150 
#    y -0.288130 3.865340 -0.144840 
#    z 0.058150 -0.144840 4.032890 
# 
# 
# High freq. dielectric constant tensor:
#      x y z
#    x 1.842660 -0.025110 0.007630 
#    y -0.025110 1.821310 -0.010100 
#    z 0.007630 -0.010100 1.852240 
# 
# From -- ./inp_files/332960.got.cif
#   From: 2010.06.25/outbox.cif.g09.slc.cpg/sg2_167_cif.got.tgz:332960.got - 2010.06.27 13:26:56.
