data_PCOD8027266
_publ_section_title
;
Structure prediction by ZEFSAII (Michael W. Deem and Ramdas Pophale) SiO2 
 PCOD8027266
Probable space group: P -1
;
_chemical_formula_sum "Si O2"
_cell_formula_units_Z 14
_cell_length_a 12.604690
_cell_length_b 5.802361
_cell_length_c 10.591579
_cell_angle_alpha 73.999805
_cell_angle_beta 129.451571
_cell_angle_gamma 95.122720
_cell_volume 571.112965
_symmetry_space_group_name_H-M "P -1"
_symmetry_group_IT_number 2
_symmetry_cell_setting 'triclinic'
loop_
_space_group_symop_operation_xyz
x,y,z
-x,-y,-z
loop_
_atom_site_type_symbol
_atom_site_label
_atom_site_fract_x
_atom_site_fract_y
_atom_site_fract_z
Si Si1 0.396802 0.659773 0.810405
Si Si2 0.233438 0.879936 0.880040
Si Si3 0.211016 0.898249 0.242832
Si Si4 0.546970 0.070162 0.748601
Si Si5 0.713523 0.576360 0.472369
Si Si6 0.075991 0.237389 0.555127
Si Si7 0.020607 0.747522 0.912230
O O1 0.280200 0.798429 0.787875
O O2 0.319833 0.503644 0.680849
O O3 0.483160 0.827764 0.766585
O O4 0.500000 0.500000 0.000000
O O5 0.111179 0.718829 0.856399
O O6 0.168398 0.156632 0.763199
O O7 0.363839 0.854140 0.076579
O O8 0.359428 0.972132 0.300214
O O9 0.230184 0.639007 0.360859
O O10 0.116154 0.899444 0.047349
O O11 0.131724 0.100943 0.245131
O O12 0.422024 0.276507 0.591354
O O13 0.838493 0.733683 0.514911
O O14 0.000000 0.500000 0.500000
O O15 0.000000 0.000000 0.500000
O O16 0.000000 0.500000 0.000000
#
# Coordination Sequence:
#
# PCOD8027266 Si02
#       7
#     2   2   2   2   2   2   2
#     4  12  24  41  71 104 142 188 236 302 370 439
#     4  11  23  46  70 105 139 184 247 296 370 434
#     4  10  25  45  67 102 140 184 241 294 358 436
#     4  11  24  44  71 103 136 187 239 300 367 432
#     4  12  25  45  69 105 145 181 242 298 369 439
#     4  12  27  45  71 107 148 195 241 307 371 440
#     4  10  24  44  71  96 135 190 235 292 354 433
#
# _framework density 24.513539000000002
#
# number of rings (size 3 to 8) (size 9 to 14) (size 15 to 20)
#    0.000    0.857    2.857    3.429    4.000    1.714 
#    2.571    0.000    0.000    0.000    0.000    0.000 
#    0.000    0.000    0.000    0.000    0.000    0.000 
#
# Total GULP energy -173525.344117 kJ/mol
# GULP energy per Si atom -12394.667437 kJ/mol
# Density = 2.445774 g / cm^3
# Si number density = 24.513539 Si / 1000 Ang^3
#
#
#
# Elastic Constant Matrix: (Units=GPa)
#
#
# Indices 1 2 3 4 5 6 
#
# 1 190.2891 53.8019 35.4299 -21.3048 20.3989 35.9203
# 2 53.8019 106.5962 22.9631 -29.8386 15.4998 16.3141
# 3 35.4299 22.9631 88.4257 -39.8372 19.1895 -1.0063
# 4 -21.3048 -29.8386 -39.8372 53.4091 -1.3408 -8.0769
# 5 20.3989 15.4998 19.1895 -1.3408 39.6713 -11.7739
# 6 35.9203 16.3141 -1.0063 -8.0769 -11.7739 41.4855
#
#
#
# Elastic Compliance Matrix: (Units=1/GPa)
#
#
# Indices 1 2 3 4 5 6 
#
# 1 0.008094 -0.001967 -0.002148 -0.000765 -0.004684 -0.007765
# 2 -0.001967 0.013525 0.001918 0.007468 -0.006089 -0.003843
# 3 -0.002148 0.001918 0.020600 0.015714 -0.008401 0.002281
# 4 -0.000765 0.007468 0.015714 0.034481 -0.008222 0.002486
# 5 -0.004684 -0.006089 -0.008401 -0.008222 0.038393 0.015542
# 6 -0.007765 -0.003843 0.002281 0.002486 0.015542 0.037290
#
#
# Mechanical properties :
#
#
# Convention : Reuss Voigt Hill
#
# Bulk Modulus (GPa) = 26.43834 67.74452 47.09143
# Shear Modulus (GPa) = 29.51859 45.12092 37.31976
#
# Velocity S-wave (km/s) = 3.47389 4.29494 3.90605
# Velocity P-wave (km/s) = 5.18644 7.23124 6.29246
#
# Compressibility (1/GPa) = 0.03782385
#
# Stress axis : x y z
#
# Youngs Moduli (GPa) = 123.55524 73.93894 48.54320
#
# Poissons Ratio (x) = 0.14542 0.10429
# Poissons Ratio (y) = 0.24300 -0.09310
# Poissons Ratio (z) = 0.26544 -0.14180
#
# Static dielectric constant tensor:
#      x y z
#    x 4.851580 0.133670 0.332100 
#    y 0.133670 4.195710 -0.211510 
#    z 0.332100 -0.211510 4.650780 
# 
# 
# High freq. dielectric constant tensor:
#      x y z
#    x 1.997270 0.011510 0.009130 
#    y 0.011510 1.960240 -0.013420 
#    z 0.009130 -0.013420 1.991220 
# 
# From -- ./inp_files/101285.got.cif
#   From: 2010.06.25/outbox.cif.g09.slc.cpg/sg2_51_cif.got.tgz:101285.got - 2010.06.27 13:26:56.
