data_PCOD8027204
_publ_section_title
;
Structure prediction by ZEFSAII (Michael W. Deem and Ramdas Pophale) SiO2 
 PCOD8027204
Probable space group: P -1
;
_chemical_formula_sum "Si O2"
_cell_formula_units_Z 12
_cell_length_a 12.577302
_cell_length_b 9.019513
_cell_length_c 9.721181
_cell_angle_alpha 97.319462
_cell_angle_beta 37.608799
_cell_angle_gamma 117.586322
_cell_volume 534.846533
_symmetry_space_group_name_H-M "P -1"
_symmetry_group_IT_number 2
_symmetry_cell_setting 'triclinic'
loop_
_space_group_symop_operation_xyz
x,y,z
-x,-y,-z
loop_
_atom_site_type_symbol
_atom_site_label
_atom_site_fract_x
_atom_site_fract_y
_atom_site_fract_z
Si Si1 0.169474 0.813353 0.708579
Si Si2 0.409407 0.810701 0.711480
Si Si3 0.336490 0.443400 0.783717
Si Si4 0.634090 0.661560 0.988671
Si Si5 0.327676 0.973927 0.065641
Si Si6 0.954392 0.312605 0.470384
O O1 0.264636 0.744558 0.713554
O O2 0.202038 0.759442 0.513190
O O3 0.331953 0.041500 0.572474
O O4 0.920974 0.728214 0.996485
O O5 0.355568 0.629283 0.823308
O O6 0.339780 0.909450 0.895339
O O7 0.500000 0.500000 0.500000
O O8 0.453254 0.397477 0.773308
O O9 0.500000 0.500000 0.000000
O O10 0.659277 0.841849 0.934178
O O11 0.851110 0.678900 0.792708
O O12 0.105742 0.815970 0.349773
O O13 0.500000 0.000000 0.000000
O O14 0.000000 0.500000 0.500000
#
# Coordination Sequence:
#
# PCOD8027204 Si02
#       6
#     2   2   2   2   2   2
#     4  10  24  44  70 101 137 176 238 278 353 413
#     4  11  24  44  72  99 139 183 231 287 354 416
#     4  11  26  45  68  99 141 179 234 289 350 413
#     4  11  26  43  64 101 137 178 234 284 344 414
#     4  12  23  43  69  98 135 180 229 284 349 408
#     4  11  23  44  72 100 139 180 227 287 348 416
#
# _framework density 22.436344999999999
#
# number of rings (size 3 to 8) (size 9 to 14) (size 15 to 20)
#    0.000    1.000    1.667    5.000    4.667    2.000 
#    3.000    0.000    0.000    0.000    0.000    0.000 
#    0.000    0.000    0.000    0.000    0.000    0.000 
#
# Total GULP energy -148666.953913 kJ/mol
# GULP energy per Si atom -12388.912826 kJ/mol
# Density = 2.238528 g / cm^3
# Si number density = 22.436345 Si / 1000 Ang^3
#
#
#
# Elastic Constant Matrix: (Units=GPa)
#
#
# Indices 1 2 3 4 5 6 
#
# 1 159.7160 80.1574 47.3297 -9.6666 23.7020 -3.1325
# 2 80.1574 143.3277 40.1684 -5.3612 10.4066 -18.4606
# 3 47.3297 40.1684 112.4632 -12.0023 15.7896 7.0719
# 4 -9.6666 -5.3612 -12.0023 39.3987 -1.3323 3.0213
# 5 23.7020 10.4066 15.7896 -1.3323 37.6300 -6.6428
# 6 -3.1325 -18.4606 7.0719 3.0213 -6.6428 45.7469
#
#
#
# Elastic Compliance Matrix: (Units=1/GPa)
#
#
# Indices 1 2 3 4 5 6 
#
# 1 0.009924 -0.004988 -0.001507 0.001285 -0.004518 -0.001841
# 2 -0.004988 0.010897 -0.002454 -0.000788 0.001973 0.004774
# 3 -0.001507 -0.002454 0.011464 0.002939 -0.003714 -0.003599
# 4 0.001285 -0.000788 0.002939 0.026642 -0.001347 -0.002639
# 5 -0.004518 0.001973 -0.003714 -0.001347 0.031393 0.005708
# 6 -0.001841 0.004774 -0.003599 -0.002639 0.005708 0.025219
#
#
# Mechanical properties :
#
#
# Convention : Reuss Voigt Hill
#
# Bulk Modulus (GPa) = 69.51722 83.42422 76.47072
# Shear Modulus (GPa) = 36.17106 41.07856 38.62481
#
# Velocity S-wave (km/s) = 4.01953 4.28354 4.15363
# Velocity P-wave (km/s) = 7.25215 7.85673 7.56049
#
# Compressibility (1/GPa) = 0.01438493
#
# Stress axis : x y z
#
# Youngs Moduli (GPa) = 100.77083 91.77121 87.23041
#
# Poissons Ratio (x) = 0.45780 0.13148
# Poissons Ratio (y) = 0.50269 0.21405
# Poissons Ratio (z) = 0.15189 0.22519
#
# Static dielectric constant tensor:
#      x y z
#    x 7.470650 -1.632290 2.417410 
#    y -1.632290 4.743220 -1.355530 
#    z 2.417410 -1.355530 5.963140 
# 
# 
# High freq. dielectric constant tensor:
#      x y z
#    x 1.897620 0.004330 0.021410 
#    y 0.004330 1.878480 -0.013130 
#    z 0.021410 -0.013130 1.898770 
# 
# From -- ./inp_files/162677.got.cif
#   From: 2010.06.25/outbox.cif.g09.slc.cpg/sg2_82_cif.got.tgz:162677.got - 2010.06.27 13:26:56.
