data_PCOD8027958
_publ_section_title
;
Structure prediction by ZEFSAII (Michael W. Deem and Ramdas Pophale) SiO2 
 PCOD8027958
Probable space group: P -1
;
_chemical_formula_sum "Si O2"
_cell_formula_units_Z 14
_cell_length_a 6.635578
_cell_length_b 19.115240
_cell_length_c 15.433195
_cell_angle_alpha 24.803063
_cell_angle_beta 124.782042
_cell_angle_gamma 133.506434
_cell_volume 585.987241
_symmetry_space_group_name_H-M "P -1"
_symmetry_group_IT_number 2
_symmetry_cell_setting 'triclinic'
loop_
_space_group_symop_operation_xyz
x,y,z
-x,-y,-z
loop_
_atom_site_type_symbol
_atom_site_label
_atom_site_fract_x
_atom_site_fract_y
_atom_site_fract_z
Si Si1 0.319896 0.232803 0.411169
Si Si2 0.723772 0.775082 0.397519
Si Si3 0.174164 0.672171 0.285285
Si Si4 0.886658 0.920450 0.966669
Si Si5 0.287851 0.397995 0.985468
Si Si6 0.709524 0.955539 0.552086
Si Si7 0.261695 0.607644 0.185759
O O1 0.303846 0.154274 0.592688
O O2 0.529366 0.465208 0.204417
O O3 0.428090 0.138809 0.469361
O O4 0.998877 0.159243 0.381578
O O5 0.493003 0.790562 0.264624
O O6 0.686157 0.565164 0.633008
O O7 0.022930 0.909353 0.272735
O O8 0.176287 0.587428 0.287788
O O9 0.000000 0.500000 0.500000
O O10 0.025357 0.799250 0.100142
O O11 0.548874 0.803631 0.016746
O O12 0.000000 0.000000 0.000000
O O13 0.991878 0.395907 0.927423
O O14 0.500000 0.500000 0.000000
O O15 0.228723 0.180761 0.214770
O O16 0.500000 0.000000 0.500000
#
# Coordination Sequence:
#
# PCOD8027958 Si02
#       7
#     2   2   2   2   2   2   2
#     4  10  25  47  70 111 144 189 245 305 365 442
#     4  12  26  46  74 108 152 194 244 305 370 439
#     4  12  24  47  73 107 151 187 246 307 362 443
#     4  12  27  48  74 107 148 203 245 300 370 437
#     4  10  25  49  73 103 144 192 246 303 368 440
#     4  10  24  50  75 106 145 190 246 309 371 438
#     4  12  27  48  72 107 149 198 248 303 370 434
#
# _framework density 23.891304000000002
#
# number of rings (size 3 to 8) (size 9 to 14) (size 15 to 20)
#    0.000    0.857    2.857    2.571    6.000    1.714 
#   10.286    0.000    0.000    0.000    0.000    0.000 
#    0.000    0.000    0.000    0.000    0.000    0.000 
#
# Total GULP energy -173548.400777 kJ/mol
# GULP energy per Si atom -12396.314341 kJ/mol
# Density = 2.383693 g / cm^3
# Si number density = 23.891304 Si / 1000 Ang^3
#
#
#
# Elastic Constant Matrix: (Units=GPa)
#
#
# Indices 1 2 3 4 5 6 
#
# 1 148.4035 59.2215 49.1514 -2.2488 -11.3041 -0.3097
# 2 59.2215 120.5774 35.8762 7.5740 -5.4373 9.7288
# 3 49.1514 35.8762 84.9923 -8.1599 -22.9803 11.9895
# 4 -2.2488 7.5740 -8.1599 38.7151 6.2960 -9.9681
# 5 -11.3041 -5.4373 -22.9803 6.2960 50.2005 0.5987
# 6 -0.3097 9.7288 11.9895 -9.9681 0.5987 58.2655
#
#
#
# Elastic Compliance Matrix: (Units=1/GPa)
#
#
# Indices 1 2 3 4 5 6 
#
# 1 0.009596 -0.003654 -0.004245 0.000861 -0.000306 0.001685
# 2 -0.003654 0.011279 -0.002829 -0.003433 -0.000443 -0.001903
# 3 -0.004245 -0.002829 0.017840 0.002235 0.006659 -0.002907
# 4 0.000861 -0.003433 0.002235 0.028788 -0.002826 0.005072
# 5 -0.000306 -0.000443 0.006659 -0.002826 0.023230 -0.002020
# 6 0.001685 -0.001903 -0.002907 0.005072 -0.002020 0.018976
#
#
# Mechanical properties :
#
#
# Convention : Reuss Voigt Hill
#
# Bulk Modulus (GPa) = 57.93861 71.38570 64.66215
# Shear Modulus (GPa) = 36.51886 43.41782 39.96834
#
# Velocity S-wave (km/s) = 3.91390 4.26761 4.09458
# Velocity P-wave (km/s) = 6.68793 7.36394 7.03406
#
# Compressibility (1/GPa) = 0.01725965
#
# Stress axis : x y z
#
# Youngs Moduli (GPa) = 104.21532 88.66128 56.05505
#
# Poissons Ratio (x) = 0.32395 0.23793
# Poissons Ratio (y) = 0.38078 0.15857
# Poissons Ratio (z) = 0.44236 0.25080
#
# Static dielectric constant tensor:
#      x y z
#    x 4.692400 0.050120 -0.787520 
#    y 0.050120 4.504160 -0.061860 
#    z -0.787520 -0.061860 5.819010 
# 
# 
# High freq. dielectric constant tensor:
#      x y z
#    x 1.953590 0.004400 -0.024650 
#    y 0.004400 1.954490 -0.009310 
#    z -0.024650 -0.009310 1.947410 
# 
# From -- ./inp_files/56793.got.cif
#   From: 2010.06.25/outbox.cif.g09.slc.cpg/sg2_29_cif.got.tgz:56793.got - 2010.06.27 13:26:56.
