data_PCOD8027443
_publ_section_title
;
Structure prediction by ZEFSAII (Michael W. Deem and Ramdas Pophale) SiO2 
 PCOD8027443
Probable space group: P -1
;
_chemical_formula_sum "Si O2"
_cell_formula_units_Z 14
_cell_length_a 10.422547
_cell_length_b 10.827899
_cell_length_c 13.169361
_cell_angle_alpha 146.946683
_cell_angle_beta 135.484259
_cell_angle_gamma 55.227154
_cell_volume 566.870656
_symmetry_space_group_name_H-M "P -1"
_symmetry_group_IT_number 2
_symmetry_cell_setting 'triclinic'
loop_
_space_group_symop_operation_xyz
x,y,z
-x,-y,-z
loop_
_atom_site_type_symbol
_atom_site_label
_atom_site_fract_x
_atom_site_fract_y
_atom_site_fract_z
Si Si1 0.764996 0.421735 0.315776
Si Si2 0.424983 0.107723 0.932229
Si Si3 0.681703 0.201313 0.744045
Si Si4 0.931986 0.865228 0.768840
Si Si5 0.344512 0.328563 0.753030
Si Si6 0.741662 0.101401 0.483162
Si Si7 0.097971 0.368537 0.878131
O O1 0.817913 0.623504 0.566271
O O2 0.798213 0.547329 0.311422
O O3 0.890124 0.207884 0.244390
O O4 0.554068 0.334122 0.139188
O O5 0.221741 0.192010 0.884562
O O6 0.417346 0.915411 0.705503
O O7 0.500000 0.000000 0.000000
O O8 0.472194 0.164152 0.643224
O O9 0.674962 0.214293 0.626215
O O10 0.812497 0.013932 0.730847
O O11 0.783758 0.450929 0.004742
O O12 0.000000 0.000000 0.000000
O O13 0.234658 0.170775 0.666685
O O14 0.500000 0.500000 0.000000
O O15 0.929114 0.221659 0.626231
O O16 0.000000 0.500000 0.000000
#
# Coordination Sequence:
#
# PCOD8027443 Si02
#       7
#     2   2   2   2   2   2   2
#     4  11  25  44  66 106 144 176 239 292 358 422
#     4  12  27  45  70  99 142 186 238 300 357 420
#     4  11  23  43  70 100 141 182 241 290 347 433
#     4  11  26  42  69 103 145 184 223 296 367 417
#     4  12  21  40  74 104 135 178 237 295 348 423
#     4  11  24  42  73 101 138 189 238 288 357 420
#     4  10  24  45  68  99 137 187 240 284 350 431
#
# _framework density 24.696994
#
# number of rings (size 3 to 8) (size 9 to 14) (size 15 to 20)
#    0.000    0.857    4.286    1.714    4.000    1.143 
#    0.000    2.857    0.000    0.000    0.000    0.000 
#    0.000    0.000    0.000    0.000    0.000    0.000 
#
# Total GULP energy -173472.649284 kJ/mol
# GULP energy per Si atom -12390.903520 kJ/mol
# Density = 2.464078 g / cm^3
# Si number density = 24.696994 Si / 1000 Ang^3
#
#
#
# Elastic Constant Matrix: (Units=GPa)
#
#
# Indices 1 2 3 4 5 6 
#
# 1 68.9899 35.2953 42.0445 -12.1456 22.1985 6.1945
# 2 35.2953 130.6918 35.4900 -10.9517 -5.7597 2.0148
# 3 42.0445 35.4900 196.5114 -14.5158 11.0608 5.1178
# 4 -12.1456 -10.9517 -14.5158 42.4267 1.9711 -3.7555
# 5 22.1985 -5.7597 11.0608 1.9711 51.0246 4.3509
# 6 6.1945 2.0148 5.1178 -3.7555 4.3509 37.1958
#
#
#
# Elastic Compliance Matrix: (Units=1/GPa)
#
#
# Indices 1 2 3 4 5 6 
#
# 1 0.023411 -0.005535 -0.003059 0.004565 -0.010193 -0.001525
# 2 -0.005535 0.009536 -0.000709 0.000478 0.003609 0.000129
# 3 -0.003059 -0.000709 0.005950 0.000965 -0.000062 -0.000166
# 4 0.004565 0.000478 0.000965 0.025667 -0.003309 0.002059
# 5 -0.010193 0.003609 -0.000062 -0.003309 0.024728 -0.001716
# 6 -0.001525 0.000129 -0.000166 0.002059 -0.001716 0.027563
#
#
# Mechanical properties :
#
#
# Convention : Reuss Voigt Hill
#
# Bulk Modulus (GPa) = 49.28064 69.09474 59.18769
# Shear Modulus (GPa) = 35.15551 45.02030 40.08790
#
# Velocity S-wave (km/s) = 3.77699 4.27418 4.03325
# Velocity P-wave (km/s) = 6.24646 7.23850 6.76070
#
# Compressibility (1/GPa) = 0.02029194
#
# Stress axis : x y z
#
# Youngs Moduli (GPa) = 42.71480 104.86445 168.05642
#
# Poissons Ratio (x) = 0.58044 0.51402
# Poissons Ratio (y) = 0.23643 0.11917
# Poissons Ratio (z) = 0.13065 0.07436
#
# Static dielectric constant tensor:
#      x y z
#    x 4.279750 0.209300 0.113970 
#    y 0.209300 4.207520 0.418120 
#    z 0.113970 0.418120 5.902730 
# 
# 
# High freq. dielectric constant tensor:
#      x y z
#    x 1.966570 -0.016970 0.002030 
#    y -0.016970 1.962880 0.008920 
#    z 0.002030 0.008920 2.041440 
# 
# From -- ./inp_files/519430.got.cif
#   From: 2010.06.25/outbox.cif.g09.slc.cpg/sg2_260_cif.got.tgz:519430.got - 2010.06.27 13:26:56.
