data_PCOD8027051
_publ_section_title
;
Structure prediction by ZEFSAII (Michael W. Deem and Ramdas Pophale) SiO2 
 PCOD8027051
Probable space group: P -1
;
_chemical_formula_sum "Si O2"
_cell_formula_units_Z 16
_cell_length_a 8.695113
_cell_length_b 24.227517
_cell_length_c 20.363706
_cell_angle_alpha 158.354415
_cell_angle_beta 29.685770
_cell_angle_gamma 140.171050
_cell_volume 765.086142
_symmetry_space_group_name_H-M "P -1"
_symmetry_group_IT_number 2
_symmetry_cell_setting 'triclinic'
loop_
_space_group_symop_operation_xyz
x,y,z
-x,-y,-z
loop_
_atom_site_type_symbol
_atom_site_label
_atom_site_fract_x
_atom_site_fract_y
_atom_site_fract_z
Si Si1 0.671516 0.121258 0.746879
Si Si2 0.839700 0.443597 0.061364
Si Si3 0.250047 0.099124 0.997627
Si Si4 0.824349 0.546909 0.919187
Si Si5 0.662245 0.061624 0.924544
Si Si6 0.778979 0.381342 0.453643
Si Si7 0.680407 0.860362 0.236858
Si Si8 0.373258 0.260268 0.369084
O O1 0.549254 0.138100 0.737207
O O2 0.724435 0.287888 0.925927
O O3 0.401150 0.073167 0.839959
O O4 0.000000 0.000000 0.500000
O O5 0.534605 0.574117 0.336556
O O6 0.074522 0.414024 0.002877
O O7 0.000000 0.500000 0.000000
O O8 0.018844 0.259057 0.270101
O O9 0.550664 0.095501 0.929121
O O10 0.000000 0.000000 0.000000
O O11 0.074904 0.405130 0.636465
O O12 0.500000 0.500000 0.000000
O O13 0.763595 0.696394 0.060946
O O14 0.995176 0.098204 0.859530
O O15 0.684524 0.879394 0.719242
O O16 0.422613 0.179360 0.190197
O O17 0.675245 0.321826 0.355133
O O18 0.000000 0.500000 0.500000
O O19 0.500000 0.000000 0.500000
#
# Coordination Sequence:
#
# PCOD8027051 Si02
#       8
#     2   2   2   2   2   2   2   2
#     4  12  27  46  71 101 138 180 236 286 351 424
#     4  11  25  43  70 102 137 184 233 289 346 412
#     4  12  25  44  71 104 139 187 232 287 350 417
#     4  11  24  45  69  98 141 180 235 285 350 414
#     4  11  24  42  70 100 141 175 234 280 348 413
#     4  11  23  45  70  96 144 181 234 286 344 416
#     4  12  26  45  71  99 139 184 228 291 352 417
#     4  10  24  44  66 101 135 183 226 285 340 417
#
# _framework density 20.912679000000001
#
# number of rings (size 3 to 8) (size 9 to 14) (size 15 to 20)
#    0.000    0.750    2.500    4.500    5.250    3.500 
#    0.000    0.000    0.000    0.000    0.000    0.000 
#    0.000    0.000    0.000    0.000    0.000    0.000 
#
# Total GULP energy -198217.761807 kJ/mol
# GULP energy per Si atom -12388.610113 kJ/mol
# Density = 2.086508 g / cm^3
# Si number density = 20.912679 Si / 1000 Ang^3
#
#
#
# Elastic Constant Matrix: (Units=GPa)
#
#
# Indices 1 2 3 4 5 6 
#
# 1 144.3863 48.7569 62.6265 5.4857 -10.3493 -1.9469
# 2 48.7569 135.1925 47.9627 6.4156 -0.7232 4.3573
# 3 62.6265 47.9627 147.4286 13.3496 -12.4348 -7.4909
# 4 5.4857 6.4156 13.3496 38.3796 3.3821 1.9510
# 5 -10.3493 -0.7232 -12.4348 3.3821 37.3909 0.2190
# 6 -1.9469 4.3573 -7.4909 1.9510 0.2190 42.7515
#
#
#
# Elastic Compliance Matrix: (Units=1/GPa)
#
#
# Indices 1 2 3 4 5 6 
#
# 1 0.009083 -0.002202 -0.003011 -0.000018 0.001471 0.000104
# 2 -0.002202 0.008998 -0.002130 -0.000281 -0.001110 -0.001372
# 3 -0.003011 -0.002130 0.009305 -0.002759 0.002459 0.001824
# 4 -0.000018 -0.000281 -0.002759 0.027451 -0.003401 -0.001691
# 5 0.001471 -0.001110 0.002459 -0.003401 0.028252 0.000621
# 6 0.000104 -0.001372 0.001824 -0.001691 0.000621 0.023929
#
#
# Mechanical properties :
#
#
# Convention : Reuss Voigt Hill
#
# Bulk Modulus (GPa) = 78.73985 82.85550 80.79767
# Shear Modulus (GPa) = 39.70237 41.54848 40.62542
#
# Velocity S-wave (km/s) = 4.36189 4.46214 4.41230
# Velocity P-wave (km/s) = 7.94365 8.13962 8.04223
#
# Compressibility (1/GPa) = 0.01270005
#
# Stress axis : x y z
#
# Youngs Moduli (GPa) = 110.09540 111.13198 107.47131
#
# Poissons Ratio (x) = 0.24473 0.32360
# Poissons Ratio (y) = 0.24245 0.22890
# Poissons Ratio (z) = 0.33150 0.23670
#
# Static dielectric constant tensor:
#      x y z
#    x 3.898000 0.070410 -0.006410 
#    y 0.070410 3.837120 0.031580 
#    z -0.006410 0.031580 4.163470 
# 
# 
# High freq. dielectric constant tensor:
#      x y z
#    x 1.832350 0.010960 -0.004760 
#    y 0.010960 1.829340 0.005670 
#    z -0.004760 0.005670 1.839810 
# 
# From -- ./inp_files/355252.got.cif
#   From: 2010.06.25/outbox.cif.g09.slc.cpg/sg2_178_cif.got.tgz:355252.got - 2010.06.27 13:26:56.
