data_PCOD8027236
_publ_section_title
;
Structure prediction by ZEFSAII (Michael W. Deem and Ramdas Pophale) SiO2 
 PCOD8027236
Probable space group: P -1
;
_chemical_formula_sum "Si O2"
_cell_formula_units_Z 14
_cell_length_a 9.301429
_cell_length_b 5.208487
_cell_length_c 13.398482
_cell_angle_alpha 89.110860
_cell_angle_beta 99.445015
_cell_angle_gamma 95.229107
_cell_volume 637.643317
_symmetry_space_group_name_H-M "P -1"
_symmetry_group_IT_number 2
_symmetry_cell_setting 'triclinic'
loop_
_space_group_symop_operation_xyz
x,y,z
-x,-y,-z
loop_
_atom_site_type_symbol
_atom_site_label
_atom_site_fract_x
_atom_site_fract_y
_atom_site_fract_z
Si Si1 0.012776 0.917248 0.194836
Si Si2 0.345700 0.029955 0.186505
Si Si3 0.252989 0.495424 0.509695
Si Si4 0.618269 0.442539 0.934865
Si Si5 0.904046 0.415455 0.082554
Si Si6 0.456796 0.193341 0.410920
Si Si7 0.996440 0.194525 0.586374
O O1 0.996183 0.962755 0.310051
O O2 0.927149 0.638663 0.166371
O O3 0.179558 0.911813 0.180336
O O4 0.939801 0.141775 0.129653
O O5 0.346032 0.308044 0.132453
O O6 0.426356 0.059733 0.301855
O O7 0.425565 0.814325 0.135063
O O8 0.308343 0.307174 0.431677
O O9 0.399039 0.606691 0.584244
O O10 0.159562 0.684583 0.433711
O O11 0.142935 0.385877 0.585212
O O12 0.500000 0.500000 0.000000
O O13 0.742382 0.375125 0.024803
O O14 0.000000 0.500000 0.000000
O O15 0.500000 0.000000 0.500000
O O16 0.000000 0.000000 0.500000
#
# Coordination Sequence:
#
# PCOD8027236 Si02
#       7
#     2   2   2   2   2   2   2
#     4  12  25  42  80 105 134 194 239 289 363 421
#     4  12  25  45  79 100 141 191 239 285 371 427
#     4  10  24  44  70  99 154 187 233 296 357 414
#     4  12  28  50  70 106 143 184 233 309 361 423
#     4  12  24  48  74 103 138 179 245 302 346 429
#     4  11  25  45  72 104 145 190 241 289 354 441
#     4  11  25  45  69 106 151 181 238 299 356 428
#
# _framework density 21.955846999999999
#
# number of rings (size 3 to 8) (size 9 to 14) (size 15 to 20)
#    0.000    0.571    2.857    4.286   12.000    1.143 
#    5.143    0.000    0.000    0.000    0.000    0.000 
#    0.000    0.000    0.000    0.000    0.000    0.000 
#
# Total GULP energy -173563.851993 kJ/mol
# GULP energy per Si atom -12397.418000 kJ/mol
# Density = 2.190587 g / cm^3
# Si number density = 21.955847 Si / 1000 Ang^3
#
#
#
# Elastic Constant Matrix: (Units=GPa)
#
#
# Indices 1 2 3 4 5 6 
#
# 1 120.5216 29.3092 54.4814 5.6895 2.0202 -28.4397
# 2 29.3092 101.1506 34.9672 17.4342 2.2186 -20.8314
# 3 54.4814 34.9672 135.9539 14.0252 1.3413 -16.8599
# 4 5.6895 17.4342 14.0252 47.2715 0.1271 -1.5070
# 5 2.0202 2.2186 1.3413 0.1271 30.9934 4.3516
# 6 -28.4397 -20.8314 -16.8599 -1.5070 4.3516 31.0898
#
#
#
# Elastic Compliance Matrix: (Units=1/GPa)
#
#
# Indices 1 2 3 4 5 6 
#
# 1 0.012250 -0.000342 -0.003657 0.000037 -0.001917 0.009263
# 2 -0.000342 0.012852 -0.001832 -0.003915 -0.001837 0.007373
# 3 -0.003657 -0.001832 0.009534 -0.001696 -0.000111 0.000530
# 4 0.000037 -0.003915 -0.001696 0.023016 0.000605 -0.002478
# 5 -0.001917 -0.001837 -0.000111 0.000605 0.033607 -0.007719
# 6 0.009263 0.007373 0.000530 -0.002478 -0.007719 0.046827
#
#
# Mechanical properties :
#
#
# Convention : Reuss Voigt Hill
#
# Bulk Modulus (GPa) = 43.52840 66.12683 54.82762
# Shear Modulus (GPa) = 31.76480 37.79549 34.78014
#
# Velocity S-wave (km/s) = 3.80775 4.15351 3.98439
# Velocity P-wave (km/s) = 6.26103 7.29285 6.79655
#
# Compressibility (1/GPa) = 0.02297351
#
# Stress axis : x y z
#
# Youngs Moduli (GPa) = 81.63338 77.80784 104.88738
#
# Poissons Ratio (x) = 0.02660 0.38359
# Poissons Ratio (y) = 0.02791 0.19218
# Poissons Ratio (z) = 0.29855 0.14256
#
# Static dielectric constant tensor:
#      x y z
#    x 3.711060 -0.050370 0.111850 
#    y -0.050370 4.187100 0.132730 
#    z 0.111850 0.132730 3.985020 
# 
# 
# High freq. dielectric constant tensor:
#      x y z
#    x 1.872330 -0.001550 0.001400 
#    y -0.001550 1.875520 0.001560 
#    z 0.001400 0.001560 1.871620 
# 
# From -- ./inp_files/373079.got.cif
#   From: 2010.06.25/outbox.cif.g09.slc.cpg/sg2_187_cif.got.tgz:373079.got - 2010.06.27 13:26:56.
