data_PCOD8027272
_publ_section_title
;
Structure prediction by ZEFSAII (Michael W. Deem and Ramdas Pophale) SiO2 
 PCOD8027272
Probable space group: P -1
;
_chemical_formula_sum "Si O2"
_cell_formula_units_Z 10
_cell_length_a 11.484722
_cell_length_b 20.165509
_cell_length_c 5.083665
_cell_angle_alpha 102.107711
_cell_angle_beta 101.742705
_cell_angle_gamma 22.065612
_cell_volume 432.321436
_symmetry_space_group_name_H-M "P -1"
_symmetry_group_IT_number 2
_symmetry_cell_setting 'triclinic'
loop_
_space_group_symop_operation_xyz
x,y,z
-x,-y,-z
loop_
_atom_site_type_symbol
_atom_site_label
_atom_site_fract_x
_atom_site_fract_y
_atom_site_fract_z
Si Si1 0.324311 0.459025 0.585141
Si Si2 0.682708 0.049342 0.879323
Si Si3 0.779970 0.813758 0.342340
Si Si4 0.317887 0.371919 0.014870
Si Si5 0.965923 0.185451 0.668199
O O1 0.401656 0.361404 0.322922
O O2 0.597947 0.370007 0.641525
O O3 0.005308 0.665171 0.544985
O O4 0.288329 0.445020 0.842415
O O5 0.590003 0.176349 0.901227
O O6 0.121015 0.079626 0.382695
O O7 0.368436 0.169956 0.878944
O O8 0.895690 0.932841 0.135498
O O9 0.966540 0.769858 0.211854
O O10 0.500000 0.000000 0.500000
O O11 0.000000 0.500000 0.000000
#
# Coordination Sequence:
#
# PCOD8027272 Si02
#       5
#     2   2   2   2   2
#     4  12  26  44  70 101 134 175 219 280 334 384
#     4  11  24  44  70  98 135 179 220 267 331 395
#     4  10  24  44  71  97 134 178 224 270 326 399
#     4  12  26  43  72  98 135 173 227 273 326 401
#     4  11  25  44  68 102 137 171 220 276 333 391
#
# _framework density 23.130935000000001
#
# number of rings (size 3 to 8) (size 9 to 14) (size 15 to 20)
#    0.000    0.800    2.000    4.200    5.600    8.000 
#    0.000    7.000    0.000    0.000    0.000    0.000 
#    0.000    0.000    0.000    0.000    0.000    0.000 
#
# Total GULP energy -124042.229692 kJ/mol
# GULP energy per Si atom -12404.222969 kJ/mol
# Density = 2.307829 g / cm^3
# Si number density = 23.130935 Si / 1000 Ang^3
#
#
#
# Elastic Constant Matrix: (Units=GPa)
#
#
# Indices 1 2 3 4 5 6 
#
# 1 146.7020 6.9078 -5.0519 -3.1741 16.8029 -17.9679
# 2 6.9078 121.9223 23.1523 -11.8032 10.4589 8.7549
# 3 -5.0519 23.1523 90.4717 -15.0670 -10.1197 -11.0375
# 4 -3.1741 -11.8032 -15.0670 34.9054 -3.5494 5.3710
# 5 16.8029 10.4589 -10.1197 -3.5494 42.4771 -10.1381
# 6 -17.9679 8.7549 -11.0375 5.3710 -10.1381 40.2098
#
#
#
# Elastic Compliance Matrix: (Units=1/GPa)
#
#
# Indices 1 2 3 4 5 6 
#
# 1 0.007481 -0.000635 0.000788 0.000124 -0.001837 0.003218
# 2 -0.000635 0.009687 -0.003121 0.002179 -0.003767 -0.004490
# 3 0.000788 -0.003121 0.013993 0.004752 0.005532 0.005633
# 4 0.000124 0.002179 0.004752 0.032134 0.002574 -0.002758
# 5 -0.001837 -0.003767 0.005532 0.002574 0.028739 0.008420
# 6 0.003218 -0.004490 0.005633 -0.002758 0.008420 0.031323
#
#
# Mechanical properties :
#
#
# Convention : Reuss Voigt Hill
#
# Bulk Modulus (GPa) = 39.64273 45.45694 42.54984
# Shear Modulus (GPa) = 36.31056 45.79096 41.05076
#
# Velocity S-wave (km/s) = 3.96635 4.45414 4.21730
# Velocity P-wave (km/s) = 6.17669 6.79317 6.49225
#
# Compressibility (1/GPa) = 0.02522530
#
# Stress axis : x y z
#
# Youngs Moduli (GPa) = 133.67679 103.23047 71.46324
#
# Poissons Ratio (x) = 0.06555 -0.05631
# Poissons Ratio (y) = 0.08488 0.22302
# Poissons Ratio (z) = -0.10533 0.32216
#
# Static dielectric constant tensor:
#      x y z
#    x 4.790830 0.123440 0.420830 
#    y 0.123440 4.248350 -0.038850 
#    z 0.420830 -0.038850 4.210280 
# 
# 
# High freq. dielectric constant tensor:
#      x y z
#    x 1.925240 0.002640 0.010320 
#    y 0.002640 1.927140 -0.007440 
#    z 0.010320 -0.007440 1.911450 
# 
# From -- ./inp_files/30675.got.cif
#   From: 2010.06.25/outbox.cif.g09.slc.cpg/sg2_16_cif.got.tgz:30675.got - 2010.06.27 13:26:56.
