data_PCOD8027605
_publ_section_title
;
Structure prediction by ZEFSAII (Michael W. Deem and Ramdas Pophale) SiO2 
 PCOD8027605
Probable space group: P -1
;
_chemical_formula_sum "Si O2"
_cell_formula_units_Z 16
_cell_length_a 8.626954
_cell_length_b 11.864588
_cell_length_c 9.577361
_cell_angle_alpha 123.006174
_cell_angle_beta 93.310857
_cell_angle_gamma 101.572824
_cell_volume 788.552053
_symmetry_space_group_name_H-M "P -1"
_symmetry_group_IT_number 2
_symmetry_cell_setting 'triclinic'
loop_
_space_group_symop_operation_xyz
x,y,z
-x,-y,-z
loop_
_atom_site_type_symbol
_atom_site_label
_atom_site_fract_x
_atom_site_fract_y
_atom_site_fract_z
Si Si1 0.672102 0.561494 0.981561
Si Si2 0.869318 0.143440 0.936608
Si Si3 0.219452 0.252063 0.120420
Si Si4 0.846617 0.831979 0.633549
Si Si5 0.808156 0.109725 0.436788
Si Si6 0.303901 0.731159 0.219819
Si Si7 0.315024 0.194293 0.669837
Si Si8 0.671073 0.021358 0.091647
O O1 0.662147 0.608547 0.850167
O O2 0.759104 0.437698 0.905303
O O3 0.500000 0.500000 0.000000
O O4 0.757547 0.699406 0.170806
O O5 0.758874 0.211483 0.882722
O O6 0.862488 0.990915 0.778744
O O7 0.051435 0.238208 0.021268
O O8 0.803158 0.131374 0.082292
O O9 0.202596 0.263752 0.294573
O O10 0.287822 0.124906 0.994510
O O11 0.705465 0.774858 0.474063
O O12 0.015383 0.822907 0.572459
O O13 0.773050 0.220965 0.615766
O O14 0.795341 0.962698 0.413342
O O15 0.674717 0.083837 0.289122
O O16 0.498010 0.789644 0.275111
O O17 0.500000 0.000000 0.000000
#
# Coordination Sequence:
#
# PCOD8027605 Si02
#       8
#     2   2   2   2   2   2   2   2
#     4  10  24  46  64  86 126 173 212 253 315 381
#     4  11  21  40  61  96 132 161 205 261 317 372
#     4  11  22  43  63  88 131 172 202 251 325 378
#     4  11  22  38  63  96 126 165 203 260 322 370
#     4  12  21  39  62 100 126 157 212 262 311 362
#     4  11  26  39  62  96 126 162 218 261 306 366
#     4  11  22  41  65  91 125 168 209 259 314 370
#     4  11  22  35  66  97 129 161 209 260 314 371
#
# _framework density 20.290354000000001
#
# number of rings (size 3 to 8) (size 9 to 14) (size 15 to 20)
#    0.000    1.000    5.000    2.250    7.000    0.500 
#    0.000    4.375    0.000    0.000    0.000    0.000 
#    0.000    0.000    0.000    0.000    0.000    0.000 
#
# Total GULP energy -198371.120585 kJ/mol
# GULP energy per Si atom -12398.195037 kJ/mol
# Density = 2.024417 g / cm^3
# Si number density = 20.290354 Si / 1000 Ang^3
#
#
#
# Elastic Constant Matrix: (Units=GPa)
#
#
# Indices 1 2 3 4 5 6 
#
# 1 73.8956 30.7266 10.1331 4.9556 3.4042 0.2245
# 2 30.7266 103.8014 35.4630 -13.1038 -21.4621 10.0398
# 3 10.1331 35.4630 92.3351 2.8981 -18.6430 -3.6971
# 4 4.9556 -13.1038 2.8981 23.8560 -8.5800 -8.1220
# 5 3.4042 -21.4621 -18.6430 -8.5800 37.5663 -5.9394
# 6 0.2245 10.0398 -3.6971 -8.1220 -5.9394 24.3090
#
#
#
# Elastic Compliance Matrix: (Units=1/GPa)
#
#
# Indices 1 2 3 4 5 6 
#
# 1 0.018845 -0.009081 -0.000513 -0.014125 -0.010995 -0.003907
# 2 -0.009081 0.018678 -0.003897 0.018005 0.013859 0.001179
# 3 -0.000513 -0.003897 0.013671 -0.000062 0.005379 0.004987
# 4 -0.014125 0.018005 -0.000062 0.075379 0.032846 0.025895
# 5 -0.010995 0.013859 0.005379 0.032846 0.048556 0.018034
# 6 -0.003907 0.001179 0.004987 0.025895 0.018034 0.054503
#
#
# Mechanical properties :
#
#
# Convention : Reuss Voigt Hill
#
# Bulk Modulus (GPa) = 41.30435 46.96417 44.13426
# Shear Modulus (GPa) = 18.89047 30.06021 24.47534
#
# Velocity S-wave (km/s) = 3.05455 3.85321 3.47689
# Velocity P-wave (km/s) = 5.73073 6.55687 6.15767
#
# Compressibility (1/GPa) = 0.02421053
#
# Stress axis : x y z
#
# Youngs Moduli (GPa) = 53.06509 53.54016 73.14950
#
# Poissons Ratio (x) = 0.48622 0.03754
# Poissons Ratio (y) = 0.48191 0.28504
# Poissons Ratio (z) = 0.02723 0.20863
#
# Static dielectric constant tensor:
#      x y z
#    x 3.797590 0.042950 -0.161540 
#    y 0.042950 3.962820 -0.133600 
#    z -0.161540 -0.133600 4.015300 
# 
# 
# High freq. dielectric constant tensor:
#      x y z
#    x 1.792060 0.001030 -0.008820 
#    y 0.001030 1.787000 -0.025290 
#    z -0.008820 -0.025290 1.793500 
# 
# From -- ./inp_files/175012.got.cif
#   From: 2010.06.25/outbox.cif.g09.slc.cpg/sg2_88_cif.got.tgz:175012.got - 2010.06.27 13:26:56.
