data_PCOD8027225
_publ_section_title
;
Structure prediction by ZEFSAII (Michael W. Deem and Ramdas Pophale) SiO2 
 PCOD8027225
Probable space group: P -1
;
_chemical_formula_sum "Si O2"
_cell_formula_units_Z 16
_cell_length_a 11.527710
_cell_length_b 23.614398
_cell_length_c 17.260502
_cell_angle_alpha 26.835882
_cell_angle_beta 148.245251
_cell_angle_gamma 158.995134
_cell_volume 755.960693
_symmetry_space_group_name_H-M "P -1"
_symmetry_group_IT_number 2
_symmetry_cell_setting 'triclinic'
loop_
_space_group_symop_operation_xyz
x,y,z
-x,-y,-z
loop_
_atom_site_type_symbol
_atom_site_label
_atom_site_fract_x
_atom_site_fract_y
_atom_site_fract_z
Si Si1 0.881637 0.319847 0.183675
Si Si2 0.200728 0.143691 0.868300
Si Si3 0.295824 0.515364 0.910195
Si Si4 0.526885 0.522062 0.579699
Si Si5 0.713097 0.808677 0.917566
Si Si6 0.745814 0.186973 0.110739
Si Si7 0.082192 0.524955 0.391105
Si Si8 0.144056 0.759774 0.262369
O O1 0.524856 0.204059 0.151793
O O2 0.878873 0.217111 0.236822
O O3 0.109150 0.359046 0.332236
O O4 0.000000 0.500000 0.000000
O O5 0.244588 0.308235 0.709902
O O6 0.564752 0.244004 0.945376
O O7 0.026031 0.033695 0.820823
O O8 0.000000 0.000000 0.000000
O O9 0.545280 0.707501 0.864914
O O10 0.127289 0.538825 0.726607
O O11 0.500000 0.500000 0.000000
O O12 0.044205 0.331750 0.044650
O O13 0.500000 0.500000 0.500000
O O14 0.425187 0.612466 0.448648
O O15 0.842549 0.732210 0.123199
O O16 0.497246 0.973991 0.204388
O O17 0.146555 0.682761 0.278051
O O18 0.891227 0.348770 0.553191
#
# Coordination Sequence:
#
# PCOD8027225 Si02
#       8
#     2   2   2   2   2   2   2   2
#     4  12  20  38  69  97 127 167 219 271 317 383
#     4  11  20  39  69 101 125 170 219 271 321 391
#     4  12  25  45  66  95 133 174 221 271 324 387
#     4  12  25  42  62  98 138 172 208 272 338 384
#     4  11  21  40  69  98 126 170 226 266 317 387
#     4  11  23  40  70 102 125 169 233 267 316 394
#     4  11  24  45  66  93 137 175 211 270 341 384
#     4  10  24  44  70  93 129 178 219 267 324 394
#
# _framework density 21.165120999999999
#
# number of rings (size 3 to 8) (size 9 to 14) (size 15 to 20)
#    0.000    0.750    5.000    3.750    0.000    0.500 
#    4.500    2.500    0.000    0.000    0.000    0.000 
#    0.000    0.000    0.000    0.000    0.000    0.000 
#
# Total GULP energy -198252.914490 kJ/mol
# GULP energy per Si atom -12390.807156 kJ/mol
# Density = 2.111695 g / cm^3
# Si number density = 21.165121 Si / 1000 Ang^3
#
#
#
# Elastic Constant Matrix: (Units=GPa)
#
#
# Indices 1 2 3 4 5 6 
#
# 1 136.1379 50.8353 40.0473 12.2286 3.3035 -2.9500
# 2 50.8353 123.4626 42.2992 20.5795 -2.9636 -22.7677
# 3 40.0473 42.2992 87.8559 23.6182 3.2998 -7.0990
# 4 12.2286 20.5795 23.6182 28.9382 -5.6400 0.4053
# 5 3.3035 -2.9636 3.2998 -5.6400 34.6369 8.5101
# 6 -2.9500 -22.7677 -7.0990 0.4053 8.5101 42.1194
#
#
#
# Elastic Compliance Matrix: (Units=1/GPa)
#
#
# Indices 1 2 3 4 5 6 
#
# 1 0.009349 -0.003233 -0.003018 0.000760 -0.000381 -0.001532
# 2 -0.003233 0.012338 -0.002390 -0.005717 -0.000881 0.006273
# 3 -0.003018 -0.002390 0.017534 -0.012181 -0.004163 0.002410
# 4 0.000760 -0.005717 -0.012181 0.050439 0.010714 -0.007740
# 5 -0.000381 -0.000881 -0.004163 0.010714 0.032929 -0.007960
# 6 -0.001532 0.006273 0.002410 -0.007740 -0.007960 0.029115
#
#
# Mechanical properties :
#
#
# Convention : Reuss Voigt Hill
#
# Bulk Modulus (GPa) = 45.58195 68.20223 56.89209
# Shear Modulus (GPa) = 28.36074 35.42387 31.89231
#
# Velocity S-wave (km/s) = 3.66454 4.09552 3.88601
# Velocity P-wave (km/s) = 6.28397 7.39312 6.86099
#
# Compressibility (1/GPa) = 0.02193851
#
# Stress axis : x y z
#
# Youngs Moduli (GPa) = 106.96799 81.04776 57.03099
#
# Poissons Ratio (x) = 0.26207 0.17214
# Poissons Ratio (y) = 0.34588 0.13628
# Poissons Ratio (z) = 0.32286 0.19367
#
# Static dielectric constant tensor:
#      x y z
#    x 3.384570 -0.377620 0.112940 
#    y -0.377620 4.676580 0.409660 
#    z 0.112940 0.409660 3.963180 
# 
# 
# High freq. dielectric constant tensor:
#      x y z
#    x 1.840670 -0.016650 0.008350 
#    y -0.016650 1.841900 0.015040 
#    z 0.008350 0.015040 1.811670 
# 
# From -- ./inp_files/570951.got.cif
#   From: 2010.06.25/outbox.cif.g09.slc.cpg/sg2_286_cif.got.tgz:570951.got - 2010.06.27 13:26:56.
