data_PCOD8027084
_publ_section_title
;
Structure prediction by ZEFSAII (Michael W. Deem and Ramdas Pophale) SiO2 
 PCOD8027084
Probable space group: P -1
;
_chemical_formula_sum "Si O2"
_cell_formula_units_Z 16
_cell_length_a 17.692009
_cell_length_b 8.594594
_cell_length_c 6.386491
_cell_angle_alpha 93.952129
_cell_angle_beta 76.478057
_cell_angle_gamma 133.960229
_cell_volume 673.566587
_symmetry_space_group_name_H-M "P -1"
_symmetry_group_IT_number 2
_symmetry_cell_setting 'triclinic'
loop_
_space_group_symop_operation_xyz
x,y,z
-x,-y,-z
loop_
_atom_site_type_symbol
_atom_site_label
_atom_site_fract_x
_atom_site_fract_y
_atom_site_fract_z
Si Si1 0.568894 0.952756 0.817773
Si Si2 0.309713 0.440256 0.652361
Si Si3 0.127156 0.834771 0.474708
Si Si4 0.504344 0.153786 0.696179
Si Si5 0.869931 0.824254 0.563606
Si Si6 0.939129 0.499621 0.852372
Si Si7 0.658999 0.873859 0.429942
Si Si8 0.251760 0.566714 0.071052
O O1 0.510123 0.969186 0.661639
O O2 0.674412 0.201786 0.839108
O O3 0.596035 0.822682 0.686427
O O4 0.487312 0.814963 0.051287
O O5 0.389522 0.614732 0.438210
O O6 0.184587 0.281075 0.640434
O O7 0.348816 0.316450 0.654600
O O8 0.321316 0.556014 0.867529
O O9 0.115591 0.700619 0.282687
O O10 0.020286 0.712837 0.672901
O O11 0.162655 0.043069 0.353607
O O12 0.217040 0.902753 0.589666
O O13 0.390451 0.076904 0.705021
O O14 0.813079 0.630646 0.742980
O O15 0.000000 0.000000 0.500000
O O16 0.843286 0.475384 0.999522
O O17 0.000000 0.500000 0.000000
#
# Coordination Sequence:
#
# PCOD8027084 Si02
#       8
#     2   2   2   2   2   2   2   2
#     4  11  26  45  74 103 137 189 237 279 354 411
#     4  11  28  45  70 106 140 182 234 287 353 412
#     4  10  24  44  67 103 136 186 230 283 348 408
#     4  11  26  46  73 103 141 184 234 292 345 417
#     4  11  24  46  70  95 144 182 228 287 341 414
#     4  11  25  42  71 101 141 180 233 285 346 413
#     4  11  25  46  69 101 143 182 231 291 343 413
#     4  12  26  46  72 105 139 184 232 287 350 414
#
# _framework density 23.754148000000001
#
# number of rings (size 3 to 8) (size 9 to 14) (size 15 to 20)
#    0.000    1.000    3.750    0.750    8.750    5.000 
#    0.000    0.000    0.000    0.000    0.000    0.000 
#    0.000    0.000    0.000    0.000    0.000    0.000 
#
# Total GULP energy -198280.557409 kJ/mol
# GULP energy per Si atom -12392.534838 kJ/mol
# Density = 2.370008 g / cm^3
# Si number density = 23.754148 Si / 1000 Ang^3
#
#
#
# Elastic Constant Matrix: (Units=GPa)
#
#
# Indices 1 2 3 4 5 6 
#
# 1 161.4461 38.3063 46.1941 17.1293 12.8001 -1.7925
# 2 38.3063 84.2707 41.7038 6.2172 8.5467 4.9163
# 3 46.1941 41.7038 77.9349 -4.4438 -4.4260 -12.8577
# 4 17.1293 6.2172 -4.4438 21.3183 -1.6385 2.7301
# 5 12.8001 8.5467 -4.4260 -1.6385 42.3381 6.5356
# 6 -1.7925 4.9163 -12.8577 2.7301 6.5356 32.7249
#
#
#
# Elastic Compliance Matrix: (Units=1/GPa)
#
#
# Indices 1 2 3 4 5 6 
#
# 1 0.009226 -0.000045 -0.006239 -0.008927 -0.003708 -0.000454
# 2 -0.000045 0.019137 -0.011894 -0.007595 -0.004456 -0.006027
# 3 -0.006239 -0.011894 0.025495 0.013087 0.006044 0.009163
# 4 -0.008927 -0.007595 0.013087 0.059743 0.008035 -0.000795
# 5 -0.003708 -0.004456 0.006044 0.008035 0.027083 -0.003238
# 6 -0.000454 -0.006027 0.009163 -0.000795 -0.003238 0.035752
#
#
# Mechanical properties :
#
#
# Convention : Reuss Voigt Hill
#
# Bulk Modulus (GPa) = 57.13676 64.00667 60.57172
# Shear Modulus (GPa) = 22.87012 32.43943 27.65477
#
# Velocity S-wave (km/s) = 3.10624 3.69945 3.41575
# Velocity P-wave (km/s) = 6.08034 6.72695 6.41181
#
# Compressibility (1/GPa) = 0.01750187
#
# Stress axis : x y z
#
# Youngs Moduli (GPa) = 108.39050 52.25434 39.22330
#
# Poissons Ratio (x) = 0.00236 0.24470
# Poissons Ratio (y) = 0.00490 0.46653
# Poissons Ratio (z) = 0.67622 0.62152
#
# Static dielectric constant tensor:
#      x y z
#    x 4.808420 0.127000 0.107010 
#    y 0.127000 4.291510 0.049180 
#    z 0.107010 0.049180 4.151670 
# 
# 
# High freq. dielectric constant tensor:
#      x y z
#    x 1.967930 0.009740 0.005850 
#    y 0.009740 1.948470 0.006550 
#    z 0.005850 0.006550 1.931160 
# 
# From -- ./inp_files/106894.got.cif
#   From: 2010.06.25/outbox.cif.g09.slc.cpg/sg2_54_cif.got.tgz:106894.got - 2010.06.27 13:26:56.
