data_PCOD8027691
_publ_section_title
;
Structure prediction by ZEFSAII (Michael W. Deem and Ramdas Pophale) SiO2 
 PCOD8027691
Probable space group: P -1
;
_chemical_formula_sum "Si O2"
_cell_formula_units_Z 10
_cell_length_a 12.300035
_cell_length_b 5.795188
_cell_length_c 7.904570
_cell_angle_alpha 65.163013
_cell_angle_beta 71.523770
_cell_angle_gamma 57.072800
_cell_volume 426.279011
_symmetry_space_group_name_H-M "P -1"
_symmetry_group_IT_number 2
_symmetry_cell_setting 'triclinic'
loop_
_space_group_symop_operation_xyz
x,y,z
-x,-y,-z
loop_
_atom_site_type_symbol
_atom_site_label
_atom_site_fract_x
_atom_site_fract_y
_atom_site_fract_z
Si Si1 0.032667 0.703180 0.308901
Si Si2 0.241751 0.820141 0.307231
Si Si3 0.853769 0.598379 0.983898
Si Si4 0.500500 0.307795 0.393754
Si Si5 0.233701 0.799155 0.706204
O O1 0.103782 0.824822 0.358681
O O2 0.135040 0.547264 0.158169
O O3 0.000000 0.500000 0.500000
O O4 0.896931 0.951294 0.219661
O O5 0.369911 0.518577 0.289417
O O6 0.243217 0.894546 0.480884
O O7 0.237197 0.060704 0.105627
O O8 0.777504 0.496400 0.184839
O O9 0.000000 0.500000 0.000000
O O10 0.500000 0.500000 0.500000
O O11 0.635412 0.239351 0.251792
O O12 0.500000 0.000000 0.500000
#
# Coordination Sequence:
#
# PCOD8027691 Si02
#       5
#     2   2   2   2   2
#     4  12  22  40  69  94 135 179 225 286 344 401
#     4  11  24  44  68  95 137 177 229 285 342 409
#     4  12  25  41  66 104 137 173 235 284 344 410
#     4  10  24  46  71 101 138 184 232 281 347 416
#     4  11  23  44  68  99 135 182 226 286 344 410
#
# _framework density 23.458812000000002
#
# number of rings (size 3 to 8) (size 9 to 14) (size 15 to 20)
#    0.000    0.800    4.000    3.600    2.800    2.400 
#    0.000    1.000    0.000    0.000    0.000    0.000 
#    0.000    0.000    0.000    0.000    0.000    0.000 
#
# Total GULP energy -123888.217727 kJ/mol
# GULP energy per Si atom -12388.821773 kJ/mol
# Density = 2.340542 g / cm^3
# Si number density = 23.458812 Si / 1000 Ang^3
#
#
#
# Elastic Constant Matrix: (Units=GPa)
#
#
# Indices 1 2 3 4 5 6 
#
# 1 140.6953 64.8882 40.7285 -24.9629 -37.1060 -29.1700
# 2 64.8882 133.5642 27.3652 -45.4259 -2.4090 -23.9677
# 3 40.7285 27.3652 90.7004 -46.6828 -8.4530 -3.4976
# 4 -24.9629 -45.4259 -46.6828 52.7424 9.5896 4.0641
# 5 -37.1060 -2.4090 -8.4530 9.5896 34.1683 -4.9556
# 6 -29.1700 -23.9677 -3.4976 4.0641 -4.9556 49.8861
#
#
#
# Elastic Compliance Matrix: (Units=1/GPa)
#
#
# Indices 1 2 3 4 5 6 
#
# 1 0.021587 -0.010738 -0.010977 -0.014175 0.025454 0.010377
# 2 -0.010738 0.017495 0.008612 0.020178 -0.014005 -0.000305
# 3 -0.010977 0.008612 0.026650 0.028545 -0.013321 -0.004061
# 4 -0.014175 0.020178 0.028545 0.059591 -0.024192 -0.003851
# 5 0.025454 -0.014005 -0.013321 -0.024192 0.061637 0.015315
# 6 0.010377 -0.000305 -0.004061 -0.003851 0.015315 0.027517
#
#
# Mechanical properties :
#
#
# Convention : Reuss Voigt Hill
#
# Bulk Modulus (GPa) = 25.30026 70.10263 47.70145
# Shear Modulus (GPa) = 19.69600 42.82457 31.26028
#
# Velocity S-wave (km/s) = 2.90073 4.27725 3.65439
# Velocity P-wave (km/s) = 4.69333 7.37165 6.17935
#
# Compressibility (1/GPa) = 0.03952529
#
# Stress axis : x y z
#
# Youngs Moduli (GPa) = 46.32396 57.16025 37.52336
#
# Poissons Ratio (x) = 0.61380 0.41190
# Poissons Ratio (y) = 0.49743 -0.32315
# Poissons Ratio (z) = 0.50851 -0.49227
#
# Static dielectric constant tensor:
#      x y z
#    x 4.811040 -0.404720 -0.107430 
#    y -0.404720 4.709000 -0.148700 
#    z -0.107430 -0.148700 4.231950 
# 
# 
# High freq. dielectric constant tensor:
#      x y z
#    x 1.941810 -0.012130 -0.007210 
#    y -0.012130 1.930100 -0.022100 
#    z -0.007210 -0.022100 1.908860 
# 
# From -- ./inp_files/15125.got.cif
#   From: 2010.06.25/outbox.cif.g09.slc.cpg/sg2_8_cif.got.tgz:15125.got - 2010.06.27 13:26:56.
