data_PCOD8027847
_publ_section_title
;
Structure prediction by ZEFSAII (Michael W. Deem and Ramdas Pophale) SiO2 
 PCOD8027847
Probable space group: P -1
;
_chemical_formula_sum "Si O2"
_cell_formula_units_Z 16
_cell_length_a 9.212612
_cell_length_b 13.981501
_cell_length_c 5.446634
_cell_angle_alpha 82.681422
_cell_angle_beta 108.458242
_cell_angle_gamma 74.422171
_cell_volume 623.461018
_symmetry_space_group_name_H-M "P -1"
_symmetry_group_IT_number 2
_symmetry_cell_setting 'triclinic'
loop_
_space_group_symop_operation_xyz
x,y,z
-x,-y,-z
loop_
_atom_site_type_symbol
_atom_site_label
_atom_site_fract_x
_atom_site_fract_y
_atom_site_fract_z
Si Si1 0.143436 0.749989 0.541347
Si Si2 0.822065 0.841326 0.619491
Si Si3 0.620932 0.406234 0.954088
Si Si4 0.774318 0.687877 0.963386
Si Si5 0.874801 0.424865 0.747457
Si Si6 0.492520 0.941523 0.262007
Si Si7 0.660761 0.630519 0.415732
Si Si8 0.837512 0.046373 0.745625
O O1 0.300150 0.694197 0.807307
O O2 0.138138 0.680455 0.331236
O O3 0.154858 0.858764 0.438430
O O4 0.976822 0.764257 0.593444
O O5 0.814131 0.793889 0.903417
O O6 0.657252 0.843684 0.384468
O O7 0.830618 0.955172 0.594384
O O8 0.500000 0.500000 0.000000
O O9 0.761492 0.447884 0.919709
O O10 0.519141 0.377673 0.688674
O O11 0.672321 0.677889 0.671663
O O12 0.679426 0.695671 0.164933
O O13 0.939637 0.590797 0.081495
O O14 0.801978 0.520399 0.494822
O O15 0.324555 0.915372 0.183140
O O16 0.500000 0.000000 0.500000
O O17 0.500000 0.000000 0.000000
O O18 0.000000 0.000000 0.000000
#
# Coordination Sequence:
#
# PCOD8027847 Si02
#       8
#     2   2   2   2   2   2   2   2
#     4  12  26  47  81 112 155 211 264 326 396 471
#     4  11  25  51  73 112 158 204 260 323 385 462
#     4  12  27  50  77 111 163 203 264 327 402 467
#     4  12  27  47  76 113 150 205 259 317 393 468
#     4  12  26  50  75 110 154 206 259 331 393 471
#     4  10  24  47  75 104 148 198 248 314 381 444
#     4  12  28  46  78 109 155 200 263 321 392 466
#     4  11  25  47  81 116 154 206 264 322 390 467
#
# _framework density 25.663191000000001
#
# number of rings (size 3 to 8) (size 9 to 14) (size 15 to 20)
#    0.000    0.500    2.500    4.500    3.500    4.000 
#    2.250    0.000    0.000    0.000    0.000    0.000 
#    0.000    0.000    0.000    0.000    0.000    0.000 
#
# Total GULP energy -198357.775551 kJ/mol
# GULP energy per Si atom -12397.360972 kJ/mol
# Density = 2.560478 g / cm^3
# Si number density = 25.663191 Si / 1000 Ang^3
#
#
#
# Elastic Constant Matrix: (Units=GPa)
#
#
# Indices 1 2 3 4 5 6 
#
# 1 128.1652 8.3055 49.4869 -6.1080 11.1011 -1.6678
# 2 8.3055 99.3077 33.0014 -16.1025 -6.2910 2.2980
# 3 49.4869 33.0014 155.8220 -18.4357 6.9833 2.7479
# 4 -6.1080 -16.1025 -18.4357 51.6921 -1.3783 -2.5205
# 5 11.1011 -6.2910 6.9833 -1.3783 61.2920 -11.9570
# 6 -1.6678 2.2980 2.7479 -2.5205 -11.9570 36.6905
#
#
#
# Elastic Compliance Matrix: (Units=1/GPa)
#
#
# Indices 1 2 3 4 5 6 
#
# 1 0.008999 0.000112 -0.002821 0.000069 -0.001255 0.000209
# 2 0.000112 0.011329 -0.002170 0.002814 0.001479 0.000133
# 3 -0.002821 -0.002170 0.008031 0.001801 -0.000724 -0.000706
# 4 0.000069 0.002814 0.001801 0.020962 0.000815 0.001398
# 5 -0.001255 0.001479 -0.000724 0.000815 0.017927 0.005803
# 6 0.000209 0.000133 -0.000706 0.001398 0.005803 0.029296
#
#
# Mechanical properties :
#
#
# Convention : Reuss Voigt Hill
#
# Bulk Modulus (GPa) = 53.76550 62.76473 58.26512
# Shear Modulus (GPa) = 44.44302 49.43501 46.93901
#
# Velocity S-wave (km/s) = 4.16598 4.39372 4.28137
# Velocity P-wave (km/s) = 6.64353 7.08872 6.86973
#
# Compressibility (1/GPa) = 0.01859929
#
# Stress axis : x y z
#
# Youngs Moduli (GPa) = 111.12236 88.27272 124.51529
#
# Poissons Ratio (x) = -0.00985 0.35125
# Poissons Ratio (y) = -0.01241 0.27025
# Poissons Ratio (z) = 0.31347 0.19159
#
# Static dielectric constant tensor:
#      x y z
#    x 5.350930 0.126060 0.337280 
#    y 0.126060 4.798430 -0.517150 
#    z 0.337280 -0.517150 4.736040 
# 
# 
# High freq. dielectric constant tensor:
#      x y z
#    x 2.041510 -0.002160 0.010620 
#    y -0.002160 2.025630 -0.018550 
#    z 0.010620 -0.018550 2.031710 
# 
# From -- ./inp_files/38192.got.cif
#   From: 2010.06.25/outbox.cif.g09.slc.cpg/sg2_20_cif.got.tgz:38192.got - 2010.06.27 13:26:56.
