data_PCOD8027107
_publ_section_title
;
Structure prediction by ZEFSAII (Michael W. Deem and Ramdas Pophale) SiO2 
 PCOD8027107
Probable space group: P -1
;
_chemical_formula_sum "Si O2"
_cell_formula_units_Z 16
_cell_length_a 8.993894
_cell_length_b 16.973342
_cell_length_c 12.297334
_cell_angle_alpha 51.355725
_cell_angle_beta 85.174349
_cell_angle_gamma 43.988568
_cell_volume 752.989531
_symmetry_space_group_name_H-M "P -1"
_symmetry_group_IT_number 2
_symmetry_cell_setting 'triclinic'
loop_
_space_group_symop_operation_xyz
x,y,z
-x,-y,-z
loop_
_atom_site_type_symbol
_atom_site_label
_atom_site_fract_x
_atom_site_fract_y
_atom_site_fract_z
Si Si1 0.922920 0.740225 0.380441
Si Si2 0.541612 0.151551 0.744050
Si Si3 0.097194 0.736523 0.158217
Si Si4 0.411085 0.791920 0.728652
Si Si5 0.538640 0.657496 0.222747
Si Si6 0.890474 0.372350 0.964720
Si Si7 0.545912 0.826147 0.900997
Si Si8 0.118648 0.035181 0.328126
O O1 0.744106 0.744812 0.356855
O O2 0.109235 0.667065 0.327890
O O3 0.156941 0.578926 0.599231
O O4 0.721578 0.944216 0.263856
O O5 0.458956 0.293227 0.701411
O O6 0.687846 0.108449 0.662723
O O7 0.760600 0.952014 0.967250
O O8 0.264539 0.744023 0.154535
O O9 0.234743 0.594960 0.171008
O O10 0.637380 0.575503 0.867449
O O11 0.555009 0.783427 0.813398
O O12 0.139290 0.895250 0.711485
O O13 0.316029 0.915101 0.526545
O O14 0.512824 0.751715 0.046998
O O15 0.154742 0.292647 0.989480
O O16 0.999141 0.217817 0.166959
#
# Coordination Sequence:
#
# PCOD8027107 Si02
#       8
#     2   2   2   2   2   2   2   2
#     4  12  25  43  67 103 137 177 216 277 337 396
#     4  11  22  45  70  96 142 174 218 274 339 396
#     4  11  23  44  68 101 139 175 216 279 336 393
#     4  11  26  43  70  95 132 178 228 270 329 397
#     4  12  27  40  71 105 134 176 223 271 334 412
#     4  11  24  44  70  94 135 178 221 274 333 394
#     4  12  25  44  67 101 137 175 221 278 333 392
#     4  10  24  44  67  98 128 179 220 282 325 388
#
# _framework density 21.248635
#
# number of rings (size 3 to 8) (size 9 to 14) (size 15 to 20)
#    0.000    0.750    3.750    4.500    5.250    3.500 
#    0.000    0.000    0.000    0.000    0.000    0.000 
#    0.000    0.000    0.000    0.000    0.000    0.000 
#
# Total GULP energy -198511.109964 kJ/mol
# GULP energy per Si atom -12406.944373 kJ/mol
# Density = 2.120027 g / cm^3
# Si number density = 21.248635 Si / 1000 Ang^3
#
#
#
# Elastic Constant Matrix: (Units=GPa)
#
#
# Indices 1 2 3 4 5 6 
#
# 1 -40.4598 3.6514 150.6282 -4.0189 -16.6314 -10.4370
# 2 3.6514 83.8349 67.6337 11.1677 -17.6785 11.0795
# 3 150.6282 67.6337 -84.8416 -1.1296 13.4896 24.2679
# 4 -4.0189 11.1677 -1.1296 15.8048 -2.4283 2.7384
# 5 -16.6314 -17.6785 13.4896 -2.4283 21.1595 -1.8851
# 6 -10.4370 11.0795 24.2679 2.7384 -1.8851 30.1253
#
#
#
# Elastic Compliance Matrix: (Units=1/GPa)
#
#
# Indices 1 2 3 4 5 6 
#
# 1 0.010618 -0.010254 0.009348 0.010051 -0.005145 -0.001316
# 2 -0.010254 0.019321 -0.003166 -0.014175 0.007911 -0.006325
# 3 0.009348 -0.003166 0.003206 0.005091 0.003383 0.001569
# 4 0.010051 -0.014175 0.005091 0.076825 0.001423 -0.002300
# 5 -0.005145 0.007911 0.003383 0.001423 0.047424 -0.004579
# 6 -0.001316 -0.006325 0.001569 -0.002300 -0.004579 0.033723
#
#
# Mechanical properties :
#
#
# Convention : Reuss Voigt Hill
#
# Bulk Modulus (GPa) = 39.99699 44.70668 42.35183
# Shear Modulus (GPa) = 24.08548 -4.14076 9.97236
#
# Velocity S-wave (km/s) = 3.37041 -1.39748 2.16872
# Velocity P-wave (km/s) = 5.83185 4.29902 5.12308
#
# Compressibility (1/GPa) = 0.02500188
#
# Stress axis : x y z
#
# Youngs Moduli (GPa) = 94.17985 51.75700 311.92411
#
# Poissons Ratio (x) = 0.53073 -2.91599
# Poissons Ratio (y) = 0.96574 0.98746
# Poissons Ratio (z) = -0.88043 0.16385
#
# Static dielectric constant tensor:
#      x y z
#    x 3.874330 0.013140 0.025340 
#    y 0.013140 3.955450 0.034880 
#    z 0.025340 0.034880 3.910330 
# 
# 
# High freq. dielectric constant tensor:
#      x y z
#    x 1.842050 -0.002530 0.000050 
#    y -0.002530 1.838440 -0.000010 
#    z 0.000050 -0.000010 1.841600 
# 
# From -- ./inp_files/242151.got.cif
#   From: 2010.06.25/outbox.cif.g09.slc.cpg/sg2_122_cif.got.tgz:242151.got - 2010.06.27 13:26:56.
