data_PCOD8027521
_publ_section_title
;
Structure prediction by ZEFSAII (Michael W. Deem and Ramdas Pophale) SiO2 
 PCOD8027521
Probable space group: P -1
;
_chemical_formula_sum "Si O2"
_cell_formula_units_Z 14
_cell_length_a 20.666630
_cell_length_b 11.740441
_cell_length_c 11.815961
_cell_angle_alpha 133.112641
_cell_angle_beta 142.719228
_cell_angle_gamma 21.251492
_cell_volume 606.979427
_symmetry_space_group_name_H-M "P -1"
_symmetry_group_IT_number 2
_symmetry_cell_setting 'triclinic'
loop_
_space_group_symop_operation_xyz
x,y,z
-x,-y,-z
loop_
_atom_site_type_symbol
_atom_site_label
_atom_site_fract_x
_atom_site_fract_y
_atom_site_fract_z
Si Si1 0.363861 0.248408 0.695146
Si Si2 0.867004 0.634668 0.017768
Si Si3 0.572284 0.684489 0.519525
Si Si4 0.054524 0.699274 0.380322
Si Si5 0.428470 0.582429 0.825931
Si Si6 0.734910 0.428431 0.032384
Si Si7 0.165771 0.667698 0.146898
O O1 0.216153 0.541401 0.601730
O O2 0.254869 0.417307 0.782505
O O3 0.374270 0.056286 0.534410
O O4 0.612707 0.995307 0.875118
O O5 0.952740 0.659097 0.239216
O O6 0.905472 0.417592 0.980743
O O7 0.000000 0.500000 0.000000
O O8 0.789282 0.501603 0.651019
O O9 0.476309 0.690719 0.295251
O O10 0.660996 0.486905 0.623461
O O11 0.841814 0.087707 0.334559
O O12 0.500000 0.500000 0.000000
O O13 0.520084 0.613167 0.906420
O O14 0.707325 0.496125 0.907615
O O15 0.953108 0.049607 0.106565
#
# Coordination Sequence:
#
# PCOD8027521 Si02
#       7
#     2   2   2   2   2   2   2
#     4  11  24  42  68 103 141 177 229 281 344 401
#     4  11  23  42  70 103 135 182 223 288 340 405
#     4  11  24  41  68 101 141 177 225 288 335 409
#     4  12  23  41  68 102 140 174 230 284 342 405
#     4  12  26  42  71 104 136 184 231 281 346 408
#     4  11  24  45  70  97 139 184 227 284 340 411
#     4  10  24  45  70  96 139 182 229 282 347 399
#
# _framework density 23.065033
#
# number of rings (size 3 to 8) (size 9 to 14) (size 15 to 20)
#    0.000    0.857    4.286    3.429    2.000    2.857 
#    0.000    0.714    0.000    0.000    0.000    0.000 
#    0.000    0.000    0.000    0.000    0.000    0.000 
#
# Total GULP energy -173499.996037 kJ/mol
# GULP energy per Si atom -12392.856860 kJ/mol
# Density = 2.301254 g / cm^3
# Si number density = 23.065033 Si / 1000 Ang^3
#
#
#
# Elastic Constant Matrix: (Units=GPa)
#
#
# Indices 1 2 3 4 5 6 
#
# 1 129.9728 44.1552 49.7302 11.4722 -29.2887 -9.2257
# 2 44.1552 132.4317 62.1271 14.1212 -20.7491 -13.1976
# 3 49.7302 62.1271 121.9016 11.9905 -34.9800 -5.7323
# 4 11.4722 14.1212 11.9905 51.6035 2.7917 -4.4474
# 5 -29.2887 -20.7491 -34.9800 2.7917 39.6144 5.8601
# 6 -9.2257 -13.1976 -5.7323 -4.4474 5.8601 27.1668
#
#
#
# Elastic Compliance Matrix: (Units=1/GPa)
#
#
# Indices 1 2 3 4 5 6 
#
# 1 0.010263 -0.001530 -0.001683 -0.001673 0.005274 0.000975
# 2 -0.001530 0.010665 -0.004515 -0.001230 0.000037 0.003499
# 3 -0.001683 -0.004515 0.013957 -0.002319 0.009201 -0.002185
# 4 -0.001673 -0.001230 -0.002319 0.021210 -0.005880 0.003086
# 5 0.005274 0.000037 0.009201 -0.005880 0.038518 -0.005521
# 6 0.000975 0.003499 -0.002185 0.003086 -0.005521 0.040076
#
#
# Mechanical properties :
#
#
# Convention : Reuss Voigt Hill
#
# Bulk Modulus (GPa) = 51.47279 77.37013 64.42146
# Shear Modulus (GPa) = 31.92402 38.89652 35.41027
#
# Velocity S-wave (km/s) = 3.72437 4.11102 3.92246
# Velocity P-wave (km/s) = 6.39213 7.49340 6.96457
#
# Compressibility (1/GPa) = 0.01942774
#
# Stress axis : x y z
#
# Youngs Moduli (GPa) = 97.43572 93.76403 71.64948
#
# Poissons Ratio (x) = 0.14350 0.12060
# Poissons Ratio (y) = 0.14912 0.32350
# Poissons Ratio (z) = 0.16400 0.42335
#
# Static dielectric constant tensor:
#      x y z
#    x 4.119640 -0.033910 0.043920 
#    y -0.033910 4.441210 0.303710 
#    z 0.043920 0.303710 4.522060 
# 
# 
# High freq. dielectric constant tensor:
#      x y z
#    x 1.881520 -0.001640 -0.013740 
#    y -0.001640 1.929840 0.010640 
#    z -0.013740 0.010640 1.921580 
# 
# From -- ./inp_files/433441.got.cif
#   From: 2010.06.25/outbox.cif.g09.slc.cpg/sg2_217_cif.got.tgz:433441.got - 2010.06.27 13:26:56.
