data_PCOD8027080
_publ_section_title
;
Structure prediction by ZEFSAII (Michael W. Deem and Ramdas Pophale) SiO2 
 PCOD8027080
Probable space group: P -1
;
_chemical_formula_sum "Si O2"
_cell_formula_units_Z 16
_cell_length_a 12.287570
_cell_length_b 11.664984
_cell_length_c 11.666498
_cell_angle_alpha 119.574993
_cell_angle_beta 30.125609
_cell_angle_gamma 120.765071
_cell_volume 716.080187
_symmetry_space_group_name_H-M "P -1"
_symmetry_group_IT_number 2
_symmetry_cell_setting 'triclinic'
loop_
_space_group_symop_operation_xyz
x,y,z
-x,-y,-z
loop_
_atom_site_type_symbol
_atom_site_label
_atom_site_fract_x
_atom_site_fract_y
_atom_site_fract_z
Si Si1 0.212508 0.097167 0.304514
Si Si2 0.802548 0.619243 0.496361
Si Si3 0.502704 0.568070 0.153505
Si Si4 0.950551 0.607453 0.876313
Si Si5 0.677875 0.200539 0.485670
Si Si6 0.924242 0.715238 0.193111
Si Si7 0.344777 0.077586 0.549943
Si Si8 0.373569 0.895109 0.907226
O O1 0.137831 0.239420 0.419177
O O2 0.417967 0.128006 0.219959
O O3 0.000000 0.000000 0.500000
O O4 0.291854 0.031027 0.086358
O O5 0.586116 0.534499 0.712549
O O6 0.767680 0.647266 0.406325
O O7 0.999187 0.535665 0.281225
O O8 0.359501 0.685415 0.332997
O O9 0.500000 0.500000 0.000000
O O10 0.749588 0.633944 0.996040
O O11 0.149734 0.731802 0.733664
O O12 0.907178 0.606903 0.052569
O O13 0.441902 0.144070 0.613033
O O14 0.765896 0.079542 0.408910
O O15 0.841926 0.847889 0.290352
O O16 0.174692 0.765414 0.035761
O O17 0.553312 0.085170 0.280174
#
# Coordination Sequence:
#
# PCOD8027080 Si02
#       8
#     2   2   2   2   2   2   2   2
#     4  11  23  44  63  99 141 174 227 269 340 412
#     4  11  26  43  70 105 134 180 228 279 343 415
#     4  11  27  50  66  95 137 190 233 277 336 414
#     4  11  25  46  71  96 142 180 231 282 339 410
#     4  10  24  44  67 102 130 184 237 277 334 406
#     4  12  23  44  70 109 136 175 224 288 354 400
#     4  11  22  42  71 100 142 170 229 289 338 402
#     4  11  23  39  68  98 139 177 213 283 340 404
#
# _framework density 22.343866999999999
#
# number of rings (size 3 to 8) (size 9 to 14) (size 15 to 20)
#    0.000    1.000    5.000    0.375    3.500    4.000 
#    4.500    0.000    0.000    0.000    0.000    0.000 
#    0.000    0.000    0.000    0.000    0.000    0.000 
#
# Total GULP energy -198384.001993 kJ/mol
# GULP energy per Si atom -12399.000125 kJ/mol
# Density = 2.229301 g / cm^3
# Si number density = 22.343867 Si / 1000 Ang^3
#
#
#
# Elastic Constant Matrix: (Units=GPa)
#
#
# Indices 1 2 3 4 5 6 
#
# 1 81.8238 23.7198 36.0822 -7.1084 4.3033 9.6886
# 2 23.7198 126.9457 49.1820 9.0244 0.2824 -6.1208
# 3 36.0822 49.1820 110.1324 14.2447 13.0433 5.2315
# 4 -7.1084 9.0244 14.2447 32.2320 7.8118 3.1010
# 5 4.3033 0.2824 13.0433 7.8118 41.7823 3.1717
# 6 9.6886 -6.1208 5.2315 3.1010 3.1717 40.1367
#
#
#
# Elastic Compliance Matrix: (Units=1/GPa)
#
#
# Indices 1 2 3 4 5 6 
#
# 1 0.016081 -0.001712 -0.005086 0.006906 -0.001050 -0.003931
# 2 -0.001712 0.009982 -0.003932 -0.002045 0.001530 0.002485
# 3 -0.005086 -0.003932 0.013526 -0.005309 -0.002640 -0.000516
# 4 0.006906 -0.002045 -0.005309 0.037209 -0.005715 -0.003710
# 5 -0.001050 0.001530 -0.002640 -0.005715 0.025983 -0.000781
# 6 -0.003931 0.002485 -0.000516 -0.003710 -0.000781 0.026658
#
#
# Mechanical properties :
#
#
# Convention : Reuss Voigt Hill
#
# Bulk Modulus (GPa) = 55.15934 59.65221 57.40578
# Shear Modulus (GPa) = 31.85855 36.82473 34.34164
#
# Velocity S-wave (km/s) = 3.78011 4.06407 3.92466
# Velocity P-wave (km/s) = 6.61759 6.98409 6.80331
#
# Compressibility (1/GPa) = 0.01812930
#
# Stress axis : x y z
#
# Youngs Moduli (GPa) = 62.18403 100.17710 73.93206
#
# Poissons Ratio (x) = 0.17155 0.37603
# Poissons Ratio (y) = 0.10649 0.29067
# Poissons Ratio (z) = 0.31628 0.39385
#
# Static dielectric constant tensor:
#      x y z
#    x 3.720730 0.020330 0.164410 
#    y 0.020330 4.099860 0.211370 
#    z 0.164410 0.211370 4.247420 
# 
# 
# High freq. dielectric constant tensor:
#      x y z
#    x 1.854800 0.005900 0.010330 
#    y 0.005900 1.884930 0.013380 
#    z 0.010330 0.013380 1.896370 
# 
# From -- ./inp_files/78788.got.cif
#   From: 2010.06.25/outbox.cif.g09.slc.cpg/sg2_40_cif.got.tgz:78788.got - 2010.06.27 13:26:56.
