data_PCOD8027185
_publ_section_title
;
Structure prediction by ZEFSAII (Michael W. Deem and Ramdas Pophale) SiO2 
 PCOD8027185
Probable space group: P -1
;
_chemical_formula_sum "Si O2"
_cell_formula_units_Z 14
_cell_length_a 11.487635
_cell_length_b 13.469443
_cell_length_c 9.190896
_cell_angle_alpha 72.782003
_cell_angle_beta 114.449441
_cell_angle_gamma 51.673143
_cell_volume 643.168621
_symmetry_space_group_name_H-M "P -1"
_symmetry_group_IT_number 2
_symmetry_cell_setting 'triclinic'
loop_
_space_group_symop_operation_xyz
x,y,z
-x,-y,-z
loop_
_atom_site_type_symbol
_atom_site_label
_atom_site_fract_x
_atom_site_fract_y
_atom_site_fract_z
Si Si1 0.373520 0.695754 0.387180
Si Si2 0.496462 0.112836 0.523856
Si Si3 0.712059 0.857628 0.000149
Si Si4 0.271291 0.029180 0.761179
Si Si5 0.157942 0.518085 0.165038
Si Si6 0.962539 0.825420 0.725711
Si Si7 0.102060 0.943047 0.849535
O O1 0.500000 0.500000 0.500000
O O2 0.584757 0.630072 0.563211
O O3 0.239244 0.833570 0.118397
O O4 0.174492 0.823303 0.360102
O O5 0.229929 0.347663 0.240805
O O6 0.500000 0.000000 0.500000
O O7 0.721841 0.020925 0.611630
O O8 0.540927 0.062949 0.741159
O O9 0.815772 0.834493 0.212868
O O10 0.941354 0.670090 0.101582
O O11 0.554139 0.862621 0.943630
O O12 0.097771 0.167423 0.472021
O O13 0.251001 0.923145 0.840183
O O14 0.109963 0.625623 0.956598
O O15 0.114313 0.827486 0.812378
#
# Coordination Sequence:
#
# PCOD8027185 Si02
#       7
#     2   2   2   2   2   2   2
#     4  11  21  40  68 101 127 169 231 274 327 392
#     4  11  22  45  71  96 128 173 229 279 322 388
#     4  10  24  44  69  96 134 181 222 274 330 395
#     4  11  23  45  64  96 147 177 217 267 342 401
#     4  11  23  42  74  99 129 171 231 280 325 394
#     4  11  23  42  66 102 134 175 219 278 336 392
#     4  11  23  40  70  95 135 179 216 280 330 394
#
# _framework density 21.767230000000001
#
# number of rings (size 3 to 8) (size 9 to 14) (size 15 to 20)
#    0.000    1.143    4.286    2.143    4.000    2.286 
#    0.000   12.857    0.000    0.000    0.000    0.000 
#    0.000    0.000    0.000    0.000    0.000    0.000 
#
# Total GULP energy -173578.189105 kJ/mol
# GULP energy per Si atom -12398.442079 kJ/mol
# Density = 2.171769 g / cm^3
# Si number density = 21.767230 Si / 1000 Ang^3
#
#
#
# Elastic Constant Matrix: (Units=GPa)
#
#
# Indices 1 2 3 4 5 6 
#
# 1 156.8677 55.8779 55.8935 -1.2353 -9.0992 4.4853
# 2 55.8779 104.5407 75.5140 -1.3799 -19.8965 10.9050
# 3 55.8935 75.5140 126.5901 0.7663 -8.1404 1.4504
# 4 -1.2353 -1.3799 0.7663 51.6440 6.9061 -2.9872
# 5 -9.0992 -19.8965 -8.1404 6.9061 23.7073 -1.5564
# 6 4.4853 10.9050 1.4504 -2.9872 -1.5564 23.8765
#
#
#
# Elastic Compliance Matrix: (Units=1/GPa)
#
#
# Indices 1 2 3 4 5 6 
#
# 1 0.008088 -0.003094 -0.001735 0.000155 -0.000133 0.000010
# 2 -0.003094 0.022928 -0.011296 -0.001671 0.014105 -0.008494
# 3 -0.001735 -0.011296 0.015045 0.000323 -0.004792 0.004299
# 4 0.000155 -0.001671 0.000323 0.020416 -0.006995 0.002813
# 5 -0.000133 0.014105 -0.004792 -0.006995 0.054132 -0.003473
# 6 0.000010 -0.008494 0.004299 0.002813 -0.003473 0.045624
#
#
# Mechanical properties :
#
#
# Convention : Reuss Voigt Hill
#
# Bulk Modulus (GPa) = 72.41283 84.72993 78.57138
# Shear Modulus (GPa) = 24.61991 33.22641 28.92316
#
# Velocity S-wave (km/s) = 3.36676 3.91121 3.64915
# Velocity P-wave (km/s) = 6.96079 7.70757 7.34368
#
# Compressibility (1/GPa) = 0.01380971
#
# Stress axis : x y z
#
# Youngs Moduli (GPa) = 123.63258 43.61508 66.46836
#
# Poissons Ratio (x) = 0.13496 0.11533
# Poissons Ratio (y) = 0.38255 0.75085
# Poissons Ratio (z) = 0.21452 0.49269
#
# Static dielectric constant tensor:
#      x y z
#    x 4.371560 -0.019760 0.172680 
#    y -0.019760 3.878250 -0.042770 
#    z 0.172680 -0.042770 4.734830 
# 
# 
# High freq. dielectric constant tensor:
#      x y z
#    x 1.870050 0.013600 0.009520 
#    y 0.013600 1.844650 0.013230 
#    z 0.009520 0.013230 1.860330 
# 
# From -- ./inp_files/270040.got.cif
#   From: 2010.06.25/outbox.cif.g09.slc.cpg/sg2_136_cif.got.tgz:270040.got - 2010.06.27 13:26:56.
