data_PCOD8027718
_publ_section_title
;
Structure prediction by ZEFSAII (Michael W. Deem and Ramdas Pophale) SiO2 
 PCOD8027718
Probable space group: P -1
;
_chemical_formula_sum "Si O2"
_cell_formula_units_Z 14
_cell_length_a 5.021110
_cell_length_b 16.778890
_cell_length_c 8.628289
_cell_angle_alpha 52.079151
_cell_angle_beta 78.576274
_cell_angle_gamma 82.910293
_cell_volume 562.078200
_symmetry_space_group_name_H-M "P -1"
_symmetry_group_IT_number 2
_symmetry_cell_setting 'triclinic'
loop_
_space_group_symop_operation_xyz
x,y,z
-x,-y,-z
loop_
_atom_site_type_symbol
_atom_site_label
_atom_site_fract_x
_atom_site_fract_y
_atom_site_fract_z
Si Si1 0.362925 0.447883 0.934390
Si Si2 0.233564 0.649279 0.582061
Si Si3 0.983623 0.105196 0.463521
Si Si4 0.787311 0.994349 0.895063
Si Si5 0.000140 0.793243 0.962695
Si Si6 0.701250 0.731258 0.637836
Si Si7 0.463894 0.676473 0.193814
O O1 0.164272 0.534650 0.783877
O O2 0.579519 0.415398 0.813857
O O3 0.500000 0.500000 0.000000
O O4 0.230300 0.344329 0.135777
O O5 0.415209 0.712055 0.610943
O O6 0.402108 0.639773 0.416673
O O7 0.953302 0.709986 0.515995
O O8 0.881228 0.186831 0.249710
O O9 0.271050 0.153156 0.438219
O O10 0.000000 0.000000 0.500000
O O11 0.800576 0.087486 0.659132
O O12 0.836970 0.890768 0.923114
O O13 0.500000 0.000000 0.000000
O O14 0.000000 0.000000 0.000000
O O15 0.782735 0.703399 0.108355
O O16 0.264635 0.769307 0.063272
#
# Coordination Sequence:
#
# PCOD8027718 Si02
#       7
#     2   2   2   2   2   2   2
#     4  10  24  46  72 103 141 189 237 287 349 422
#     4  11  26  43  71 105 143 186 234 293 354 410
#     4  10  25  48  73 103 143 188 234 286 356 422
#     4  11  26  46  72 104 141 177 234 292 346 416
#     4  11  26  45  70 104 139 190 227 283 353 419
#     4  11  24  45  73 102 139 186 242 288 347 424
#     4  12  25  45  70 103 146 178 234 287 351 413
#
# _framework density 24.907563
#
# number of rings (size 3 to 8) (size 9 to 14) (size 15 to 20)
#    0.000    1.143    1.429    2.571   10.000    3.429 
#    0.000   11.429    0.000    0.000    0.000    0.000 
#    0.000    0.000    0.000    0.000    0.000    0.000 
#
# Total GULP energy -173451.265364 kJ/mol
# GULP energy per Si atom -12389.376097 kJ/mol
# Density = 2.485087 g / cm^3
# Si number density = 24.907563 Si / 1000 Ang^3
#
#
#
# Elastic Constant Matrix: (Units=GPa)
#
#
# Indices 1 2 3 4 5 6 
#
# 1 89.1636 7.3459 15.4258 2.1006 -5.8886 0.7696
# 2 7.3459 117.2049 24.1459 4.4092 -7.2949 14.9444
# 3 15.4258 24.1459 129.8785 15.1045 -4.7157 18.3309
# 4 2.1006 4.4092 15.1045 42.5885 0.8731 -0.3208
# 5 -5.8886 -7.2949 -4.7157 0.8731 32.0458 -3.1527
# 6 0.7696 14.9444 18.3309 -0.3208 -3.1527 32.8835
#
#
#
# Elastic Compliance Matrix: (Units=1/GPa)
#
#
# Indices 1 2 3 4 5 6 
#
# 1 0.011604 -0.000438 -0.001338 -0.000085 0.001922 0.000857
# 2 -0.000438 0.009346 -0.001061 -0.000628 0.001563 -0.003502
# 3 -0.001338 -0.001061 0.009071 -0.003085 0.000486 -0.004526
# 4 -0.000085 -0.000628 -0.003085 0.024682 -0.001074 0.002145
# 5 0.001922 0.001563 0.000486 -0.001074 0.032217 0.002052
# 6 0.000857 -0.003502 -0.004526 0.002145 0.002052 0.034723
#
#
# Mechanical properties :
#
#
# Convention : Reuss Voigt Hill
#
# Bulk Modulus (GPa) = 41.07430 47.78691 44.43061
# Shear Modulus (GPa) = 36.91846 40.79217 38.85532
#
# Velocity S-wave (km/s) = 3.85414 4.05129 3.95394
# Velocity P-wave (km/s) = 6.02763 6.41181 6.22269
#
# Compressibility (1/GPa) = 0.02434612
#
# Stress axis : x y z
#
# Youngs Moduli (GPa) = 86.17348 107.00232 110.24034
#
# Poissons Ratio (x) = 0.04687 0.14751
# Poissons Ratio (y) = 0.03775 0.11701
# Poissons Ratio (z) = 0.11530 0.11358
#
# Static dielectric constant tensor:
#      x y z
#    x 3.932950 0.308210 -0.067650 
#    y 0.308210 5.221800 -0.088430 
#    z -0.067650 -0.088430 5.295700 
# 
# 
# High freq. dielectric constant tensor:
#      x y z
#    x 1.961870 0.008690 -0.002960 
#    y 0.008690 2.010190 0.008120 
#    z -0.002960 0.008120 2.010780 
# 
# From -- ./inp_files/137143.got.cif
#   From: 2010.06.25/outbox.cif.g09.slc.cpg/sg2_69_cif.got.tgz:137143.got - 2010.06.27 13:26:56.
