data_PCOD8027457
_publ_section_title
;
Structure prediction by ZEFSAII (Michael W. Deem and Ramdas Pophale) SiO2 
 PCOD8027457
Probable space group: P -1
;
_chemical_formula_sum "Si O2"
_cell_formula_units_Z 14
_cell_length_a 14.856320
_cell_length_b 15.719309
_cell_length_c 5.304905
_cell_angle_alpha 73.079508
_cell_angle_beta 100.099615
_cell_angle_gamma 153.583998
_cell_volume 516.594585
_symmetry_space_group_name_H-M "P -1"
_symmetry_group_IT_number 2
_symmetry_cell_setting 'triclinic'
loop_
_space_group_symop_operation_xyz
x,y,z
-x,-y,-z
loop_
_atom_site_type_symbol
_atom_site_label
_atom_site_fract_x
_atom_site_fract_y
_atom_site_fract_z
Si Si1 0.718344 0.812914 0.918323
Si Si2 0.239854 0.976035 0.480845
Si Si3 0.048957 0.393378 0.623402
Si Si4 0.513747 0.846531 0.057839
Si Si5 0.826023 0.333341 0.851601
Si Si6 0.020001 0.098907 0.240627
Si Si7 0.725489 0.514873 0.925407
O O1 0.792341 0.943637 0.605891
O O2 0.798102 0.781244 0.958064
O O3 0.473152 0.597688 0.012162
O O4 0.816952 0.941901 0.109726
O O5 0.331559 0.021672 0.746471
O O6 0.389825 0.092709 0.215750
O O7 0.033969 0.737940 0.537467
O O8 0.158974 0.580511 0.438472
O O9 0.848353 0.253060 0.815452
O O10 0.204872 0.471895 0.795638
O O11 0.400873 0.844729 0.988658
O O12 0.332598 0.610800 0.205752
O O13 0.000000 0.500000 0.000000
O O14 0.092689 0.256830 0.263834
O O15 0.000000 0.000000 0.500000
#
# Coordination Sequence:
#
# PCOD8027457 Si02
#       7
#     2   2   2   2   2   2   2
#     4  10  24  45  69 105 144 180 243 296 359 438
#     4  11  26  47  74 107 144 192 248 301 359 439
#     4  11  25  45  74 102 146 197 239 302 364 433
#     4  11  26  46  73 105 147 191 246 303 363 431
#     4  11  24  44  68 106 145 188 249 299 365 426
#     4  11  25  45  72 107 141 185 241 301 360 432
#     4  11  23  49  72 102 145 195 236 294 371 429
#
# _framework density 27.100555
#
# number of rings (size 3 to 8) (size 9 to 14) (size 15 to 20)
#    0.000    1.143    2.857    2.143    8.000    2.857 
#   10.286    0.000    0.000    0.000    0.000    0.000 
#    0.000    0.000    0.000    0.000    0.000    0.000 
#
# Total GULP energy -173602.981990 kJ/mol
# GULP energy per Si atom -12400.212999 kJ/mol
# Density = 2.703887 g / cm^3
# Si number density = 27.100555 Si / 1000 Ang^3
#
#
#
# Elastic Constant Matrix: (Units=GPa)
#
#
# Indices 1 2 3 4 5 6 
#
# 1 148.4782 24.2002 16.8175 33.0488 10.3757 -7.5177
# 2 24.2002 115.6564 29.0777 29.8330 16.5365 -16.9807
# 3 16.8175 29.0777 110.1533 23.2309 22.5766 3.7072
# 4 33.0488 29.8330 23.2309 51.8684 -1.4598 4.4954
# 5 10.3757 16.5365 22.5766 -1.4598 32.0025 12.4296
# 6 -7.5177 -16.9807 3.7072 4.4954 12.4296 49.2444
#
#
#
# Elastic Compliance Matrix: (Units=1/GPa)
#
#
# Indices 1 2 3 4 5 6 
#
# 1 0.008612 0.001178 0.000939 -0.007077 -0.005852 0.003773
# 2 0.001178 0.013828 0.000359 -0.009953 -0.011640 0.008768
# 3 0.000939 0.000359 0.012360 -0.006865 -0.010542 0.002624
# 4 -0.007077 -0.009953 -0.006865 0.034125 0.018403 -0.011756
# 5 -0.005852 -0.011640 -0.010542 0.018403 0.055087 -0.019698
# 6 0.003773 0.008768 0.002624 -0.011756 -0.019698 0.029754
#
#
# Mechanical properties :
#
#
# Convention : Reuss Voigt Hill
#
# Bulk Modulus (GPa) = 25.15492 57.16431 41.15961
# Shear Modulus (GPa) = 30.85209 46.90256 38.87732
#
# Velocity S-wave (km/s) = 3.37772 4.16467 3.79167
# Velocity P-wave (km/s) = 4.95119 6.65320 5.86427
#
# Compressibility (1/GPa) = 0.03975366
#
# Stress axis : x y z
#
# Youngs Moduli (GPa) = 116.11950 72.31549 80.90465
#
# Poissons Ratio (x) = -0.08520 -0.07598
# Poissons Ratio (y) = -0.13680 -0.02908
# Poissons Ratio (z) = -0.10905 -0.02600
#
# Static dielectric constant tensor:
#      x y z
#    x 6.550000 -0.160510 -0.186340 
#    y -0.160510 5.085550 -0.112970 
#    z -0.186340 -0.112970 4.655840 
# 
# 
# High freq. dielectric constant tensor:
#      x y z
#    x 2.139670 0.007950 -0.012690 
#    y 0.007950 2.093900 -0.001440 
#    z -0.012690 -0.001440 2.082790 
# 
# From -- ./inp_files/97795.got.cif
#   From: 2010.06.25/outbox.cif.g09.slc.cpg/sg2_49_cif.got.tgz:97795.got - 2010.06.27 13:26:56.
