data_PCOD8027518
_publ_section_title
;
Structure prediction by ZEFSAII (Michael W. Deem and Ramdas Pophale) SiO2 
 PCOD8027518
Probable space group: P -1
;
_chemical_formula_sum "Si O2"
_cell_formula_units_Z 14
_cell_length_a 8.636261
_cell_length_b 11.162112
_cell_length_c 8.746884
_cell_angle_alpha 94.583595
_cell_angle_beta 53.675623
_cell_angle_gamma 82.713147
_cell_volume 661.048311
_symmetry_space_group_name_H-M "P -1"
_symmetry_group_IT_number 2
_symmetry_cell_setting 'triclinic'
loop_
_space_group_symop_operation_xyz
x,y,z
-x,-y,-z
loop_
_atom_site_type_symbol
_atom_site_label
_atom_site_fract_x
_atom_site_fract_y
_atom_site_fract_z
Si Si1 0.260598 0.807648 0.663502
Si Si2 0.575115 0.814382 0.706291
Si Si3 0.561825 0.427794 0.611141
Si Si4 0.181045 0.777774 0.031806
Si Si5 0.812566 0.505333 0.005580
Si Si6 0.203133 0.426544 0.316269
Si Si7 0.124025 0.043242 0.563941
O O1 0.487106 0.786339 0.590126
O O2 0.268590 0.694979 0.529126
O O3 0.116093 0.801720 0.892858
O O4 0.190689 0.936316 0.635925
O O5 0.385757 0.829877 0.936460
O O6 0.752978 0.710231 0.655071
O O7 0.679975 0.928240 0.627248
O O8 0.500000 0.500000 0.500000
O O9 0.629284 0.508868 0.712174
O O10 0.360952 0.403030 0.793744
O O11 0.224332 0.631316 0.020381
O O12 0.011418 0.842741 0.253760
O O13 0.818431 0.576760 0.852501
O O14 0.000000 0.500000 0.000000
O O15 0.000000 0.500000 0.500000
O O16 0.000000 0.000000 0.500000
#
# Coordination Sequence:
#
# PCOD8027518 Si02
#       7
#     2   2   2   2   2   2   2
#     4  10  24  45  70  94 141 183 225 285 346 416
#     4  10  24  46  67  97 137 182 227 285 347 404
#     4  12  21  44  68 103 138 176 228 286 359 418
#     4  10  24  46  71  95 142 177 233 280 351 411
#     4  12  26  41  71 106 140 184 228 286 361 425
#     4  12  25  40  70 101 143 181 230 291 348 421
#     4  12  27  44  71 103 132 184 243 286 338 409
#
# _framework density 21.17848
#
# number of rings (size 3 to 8) (size 9 to 14) (size 15 to 20)
#    0.857    0.000    4.286    3.000    6.000    0.571 
#    0.000    0.000    0.000    0.000    0.000    0.000 
#    0.000    0.000    0.000    0.000    0.000    0.000 
#
# Total GULP energy -173447.535466 kJ/mol
# GULP energy per Si atom -12389.109676 kJ/mol
# Density = 2.113028 g / cm^3
# Si number density = 21.178480 Si / 1000 Ang^3
#
#
#
# Elastic Constant Matrix: (Units=GPa)
#
#
# Indices 1 2 3 4 5 6 
#
# 1 87.3745 7.1933 28.0433 -5.9384 16.8508 -15.3967
# 2 7.1933 83.4782 18.8151 -0.1616 9.1430 -17.2285
# 3 28.0433 18.8151 112.4282 5.2263 2.2294 -4.4694
# 4 -5.9384 -0.1616 5.2263 32.7408 -1.2667 2.3987
# 5 16.8508 9.1430 2.2294 -1.2667 36.6887 -4.8333
# 6 -15.3967 -17.2285 -4.4694 2.3987 -4.8333 40.5117
#
#
#
# Elastic Compliance Matrix: (Units=1/GPa)
#
#
# Indices 1 2 3 4 5 6 
#
# 1 0.014744 0.001236 -0.003696 0.002679 -0.006126 0.004832
# 2 0.001236 0.013935 -0.002355 0.000126 -0.003135 0.005754
# 3 -0.003696 -0.002355 0.010245 -0.002190 0.001458 -0.000972
# 4 0.002679 0.000126 -0.002190 0.031449 -0.000182 -0.001054
# 5 -0.006126 -0.003135 0.001458 -0.000182 0.030780 0.000182
# 6 0.004832 0.005754 -0.000972 -0.001054 0.000182 0.028945
#
#
# Mechanical properties :
#
#
# Convention : Reuss Voigt Hill
#
# Bulk Modulus (GPa) = 34.13660 43.48714 38.81187
# Shear Modulus (GPa) = 33.44641 37.27018 35.35830
#
# Velocity S-wave (km/s) = 3.97831 4.19956 4.09043
# Velocity P-wave (km/s) = 6.10378 6.64028 6.37767
#
# Compressibility (1/GPa) = 0.02929407
#
# Stress axis : x y z
#
# Youngs Moduli (GPa) = 67.82219 71.76315 97.61113
#
# Poissons Ratio (x) = -0.08869 0.36073
# Poissons Ratio (y) = -0.08382 0.22989
# Poissons Ratio (z) = 0.25064 0.16902
#
# Static dielectric constant tensor:
#      x y z
#    x 5.700090 -0.896370 -1.310220 
#    y -0.896370 4.095330 0.477510 
#    z -1.310220 0.477510 4.793440 
# 
# 
# High freq. dielectric constant tensor:
#      x y z
#    x 1.828910 -0.012330 -0.001570 
#    y -0.012330 1.820670 -0.009710 
#    z -0.001570 -0.009710 1.834790 
# 
# From -- ./inp_files/178564.got.cif
#   From: 2010.06.25/outbox.cif.g09.slc.cpg/sg2_90_cif.got.tgz:178564.got - 2010.06.27 13:26:56.
