data_PCOD8027901
_publ_section_title
;
Structure prediction by ZEFSAII (Michael W. Deem and Ramdas Pophale) SiO2 
 PCOD8027901
Probable space group: P -1
;
_chemical_formula_sum "Si O2"
_cell_formula_units_Z 14
_cell_length_a 13.795082
_cell_length_b 9.326850
_cell_length_c 11.421853
_cell_angle_alpha 109.336628
_cell_angle_beta 31.660629
_cell_angle_gamma 118.310981
_cell_volume 670.678588
_symmetry_space_group_name_H-M "P -1"
_symmetry_group_IT_number 2
_symmetry_cell_setting 'triclinic'
loop_
_space_group_symop_operation_xyz
x,y,z
-x,-y,-z
loop_
_atom_site_type_symbol
_atom_site_label
_atom_site_fract_x
_atom_site_fract_y
_atom_site_fract_z
Si Si1 0.084938 0.509681 0.285736
Si Si2 0.624360 0.645838 0.997262
Si Si3 0.294838 0.791791 0.990536
Si Si4 0.301852 0.693865 0.501172
Si Si5 0.304505 0.019077 0.472269
Si Si6 0.074899 0.021394 0.297436
Si Si7 0.559228 0.342603 0.398932
O O1 0.207399 0.394102 0.117630
O O2 0.234445 0.697339 0.151734
O O3 0.000000 0.500000 0.500000
O O4 0.903445 0.451995 0.365473
O O5 0.729926 0.810274 0.858255
O O6 0.500000 0.500000 0.000000
O O7 0.485880 0.672234 0.244381
O O8 0.286818 0.655022 0.863428
O O9 0.134500 0.872893 0.151834
O O10 0.520624 0.934999 0.795652
O O11 0.300692 0.870588 0.518189
O O12 0.327049 0.673639 0.606486
O O13 0.092223 0.968402 0.615213
O O14 0.354153 0.178971 0.548520
O O15 0.000000 0.000000 0.500000
O O16 0.500000 0.500000 0.500000
#
# Coordination Sequence:
#
# PCOD8027901 Si02
#       7
#     2   2   2   2   2   2   2
#     4  12  25  42  68 105 137 183 228 286 351 414
#     4  12  25  42  66 102 136 180 230 281 346 410
#     4  10  26  45  68  99 141 179 232 283 349 401
#     4  12  24  46  71  96 144 181 232 286 346 412
#     4  10  25  47  66 100 140 178 235 282 347 409
#     4  12  26  43  71 101 140 186 227 281 351 417
#     4  10  24  48  73  99 138 183 234 294 342 403
#
# _framework density 20.874379999999999
#
# number of rings (size 3 to 8) (size 9 to 14) (size 15 to 20)
#    0.857    0.000    4.286    2.143    4.000    1.143 
#    2.571    1.429    0.000    0.000    0.000    0.000 
#    0.000    0.000    0.000    0.000    0.000    0.000 
#
# Total GULP energy -173562.330158 kJ/mol
# GULP energy per Si atom -12397.309297 kJ/mol
# Density = 2.082687 g / cm^3
# Si number density = 20.874380 Si / 1000 Ang^3
#
#
#
# Elastic Constant Matrix: (Units=GPa)
#
#
# Indices 1 2 3 4 5 6 
#
# 1 111.2262 44.3812 41.5925 10.8558 2.2026 -3.0528
# 2 44.3812 135.8414 49.3592 12.9196 0.6797 -19.5324
# 3 41.5925 49.3592 111.5887 9.7927 -2.7244 -12.2016
# 4 10.8558 12.9196 9.7927 45.6433 -9.1873 -4.5843
# 5 2.2026 0.6797 -2.7244 -9.1873 28.4955 -1.8523
# 6 -3.0528 -19.5324 -12.2016 -4.5843 -1.8523 40.1026
#
#
#
# Elastic Compliance Matrix: (Units=1/GPa)
#
#
# Indices 1 2 3 4 5 6 
#
# 1 0.011386 -0.002634 -0.003145 -0.001820 -0.001813 -0.001665
# 2 -0.002634 0.009921 -0.002914 -0.001298 -0.000498 0.003574
# 3 -0.003145 -0.002914 0.011707 -0.000463 0.001407 0.001915
# 4 -0.001820 -0.001298 -0.000463 0.024697 0.008239 0.002292
# 5 -0.001813 -0.000498 0.001407 0.008239 0.038215 0.002755
# 6 -0.001665 0.003574 0.001915 0.002292 0.002755 0.027522
#
#
# Mechanical properties :
#
#
# Convention : Reuss Voigt Hill
#
# Bulk Modulus (GPa) = 63.99260 69.92468 66.95864
# Shear Modulus (GPa) = 34.23634 37.73650 35.98642
#
# Velocity S-wave (km/s) = 4.05422 4.25642 4.15655
# Velocity P-wave (km/s) = 7.25522 7.59781 7.42849
#
# Compressibility (1/GPa) = 0.01562681
#
# Stress axis : x y z
#
# Youngs Moduli (GPa) = 87.82892 100.79909 85.41789
#
# Poissons Ratio (x) = 0.26554 0.26866
# Poissons Ratio (y) = 0.23137 0.24890
# Poissons Ratio (z) = 0.27624 0.29372
#
# Static dielectric constant tensor:
#      x y z
#    x 3.643500 -0.041680 -0.135840 
#    y -0.041680 3.899520 0.038820 
#    z -0.135840 0.038820 3.873810 
# 
# 
# High freq. dielectric constant tensor:
#      x y z
#    x 1.808580 -0.011930 -0.007390 
#    y -0.011930 1.832250 -0.001580 
#    z -0.007390 -0.001580 1.824900 
# 
# From -- ./inp_files/447602.got.cif
#   From: 2010.06.25/outbox.cif.g09.slc.cpg/sg2_224_cif.got.tgz:447602.got - 2010.06.27 13:26:56.
