data_PCOD8027181
_publ_section_title
;
Structure prediction by ZEFSAII (Michael W. Deem and Ramdas Pophale) SiO2 
 PCOD8027181
Probable space group: P -1
;
_chemical_formula_sum "Si O2"
_cell_formula_units_Z 14
_cell_length_a 8.691219
_cell_length_b 8.801421
_cell_length_c 11.682189
_cell_angle_alpha 67.249353
_cell_angle_beta 63.332357
_cell_angle_gamma 52.032215
_cell_volume 621.751187
_symmetry_space_group_name_H-M "P -1"
_symmetry_group_IT_number 2
_symmetry_cell_setting 'triclinic'
loop_
_space_group_symop_operation_xyz
x,y,z
-x,-y,-z
loop_
_atom_site_type_symbol
_atom_site_label
_atom_site_fract_x
_atom_site_fract_y
_atom_site_fract_z
Si Si1 0.022494 0.038671 0.791732
Si Si2 0.146985 0.520176 0.595468
Si Si3 0.216808 0.509974 0.315655
Si Si4 0.430659 0.813122 0.845184
Si Si5 0.397551 0.878034 0.084213
Si Si6 0.185136 0.853961 0.557726
Si Si7 0.477070 0.168090 0.700670
O O1 0.897184 0.274160 0.762852
O O2 0.850515 0.983221 0.869585
O O3 0.185763 0.935993 0.869579
O O4 0.163465 0.950203 0.659090
O O5 0.246832 0.511881 0.441295
O O6 0.179371 0.659635 0.626164
O O7 0.248881 0.315749 0.688907
O O8 0.911487 0.590827 0.637139
O O9 0.439746 0.376763 0.222410
O O10 0.516409 0.953831 0.757568
O O11 0.460541 0.742415 0.988899
O O12 0.478354 0.763986 0.211505
O O13 0.500000 0.000000 0.000000
O O14 0.390565 0.814924 0.446155
O O15 0.000000 0.000000 0.500000
#
# Coordination Sequence:
#
# PCOD8027181 Si02
#       7
#     2   2   2   2   2   2   2
#     4  12  24  45  70  99 132 175 221 274 336 391
#     4  11  23  40  65 104 136 171 220 271 337 398
#     4  11  24  41  68 100 136 171 218 278 331 395
#     4  11  25  44  68  96 134 182 223 270 326 391
#     4  10  24  44  69  93 133 178 224 275 322 389
#     4  12  22  38  68  97 136 172 210 274 336 390
#     4  11  22  42  68 100 135 175 221 272 334 390
#
# _framework density 22.517047000000002
#
# number of rings (size 3 to 8) (size 9 to 14) (size 15 to 20)
#    0.000    0.857    4.286    2.571    4.000    2.857 
#    0.000    2.143    0.000    0.000    0.000    0.000 
#    0.000    0.000    0.000    0.000    0.000    0.000 
#
# Total GULP energy -173557.960426 kJ/mol
# GULP energy per Si atom -12396.997173 kJ/mol
# Density = 2.246580 g / cm^3
# Si number density = 22.517047 Si / 1000 Ang^3
#
#
#
# Elastic Constant Matrix: (Units=GPa)
#
#
# Indices 1 2 3 4 5 6 
#
# 1 104.0030 26.4307 33.7472 0.4574 -3.3471 -11.4559
# 2 26.4307 104.9345 33.3865 9.9957 5.8047 -9.1054
# 3 33.7472 33.3865 91.5814 12.2524 -3.2514 -6.8241
# 4 0.4574 9.9957 12.2524 23.4918 4.1044 -1.7497
# 5 -3.3471 5.8047 -3.2514 4.1044 39.0657 -6.0324
# 6 -11.4559 -9.1054 -6.8241 -1.7497 -6.0324 32.3394
#
#
#
# Elastic Compliance Matrix: (Units=1/GPa)
#
#
# Indices 1 2 3 4 5 6 
#
# 1 0.011647 -0.001783 -0.003694 0.002490 0.001188 0.003200
# 2 -0.001783 0.011447 -0.003081 -0.002842 -0.001581 0.001492
# 3 -0.003694 -0.003081 0.014411 -0.006442 0.002159 0.000919
# 4 0.002490 -0.002842 -0.006442 0.047971 -0.004878 0.000408
# 5 0.001188 -0.001581 0.002159 -0.004878 0.027443 0.005287
# 6 0.003200 0.001492 0.000919 0.000408 0.005287 0.033678
#
#
# Mechanical properties :
#
#
# Convention : Reuss Voigt Hill
#
# Bulk Modulus (GPa) = 49.04817 54.18306 51.61561
# Shear Modulus (GPa) = 29.32404 32.77634 31.05019
#
# Velocity S-wave (km/s) = 3.61266 3.81940 3.71747
# Velocity P-wave (km/s) = 6.26352 6.60044 6.43419
#
# Compressibility (1/GPa) = 0.02038812
#
# Stress axis : x y z
#
# Youngs Moduli (GPa) = 85.86047 87.36118 69.39376
#
# Poissons Ratio (x) = 0.15580 0.25634
# Poissons Ratio (y) = 0.15312 0.21377
# Poissons Ratio (z) = 0.31717 0.26912
#
# Static dielectric constant tensor:
#      x y z
#    x 3.919490 -0.330400 0.134270 
#    y -0.330400 3.582240 -0.068370 
#    z 0.134270 -0.068370 4.192940 
# 
# 
# High freq. dielectric constant tensor:
#      x y z
#    x 1.904930 -0.001600 0.001480 
#    y -0.001600 1.862040 0.002510 
#    z 0.001480 0.002510 1.892620 
# 
# From -- ./inp_files/168951.got.cif
#   From: 2010.06.25/outbox.cif.g09.slc.cpg/sg2_85_cif.got.tgz:168951.got - 2010.06.27 13:26:56.
