data_PCOD8027582
_publ_section_title
;
Structure prediction by ZEFSAII (Michael W. Deem and Ramdas Pophale) SiO2 
 PCOD8027582
Probable space group: P -1
;
_chemical_formula_sum "Si O2"
_cell_formula_units_Z 14
_cell_length_a 10.584231
_cell_length_b 11.055139
_cell_length_c 11.161896
_cell_angle_alpha 94.574012
_cell_angle_beta 154.364255
_cell_angle_gamma 85.127836
_cell_volume 563.005471
_symmetry_space_group_name_H-M "P -1"
_symmetry_group_IT_number 2
_symmetry_cell_setting 'triclinic'
loop_
_space_group_symop_operation_xyz
x,y,z
-x,-y,-z
loop_
_atom_site_type_symbol
_atom_site_label
_atom_site_fract_x
_atom_site_fract_y
_atom_site_fract_z
Si Si1 0.712457 0.249430 0.286559
Si Si2 0.202364 0.891064 0.413191
Si Si3 0.756054 0.512381 0.394241
Si Si4 0.168982 0.746492 0.147390
Si Si5 0.648441 0.760390 0.241638
Si Si6 0.707252 0.048261 0.895541
Si Si7 0.293543 0.408480 0.385954
O O1 0.772066 0.151491 0.432136
O O2 0.609538 0.381293 0.261288
O O3 0.000469 0.248989 0.448833
O O4 0.445134 0.209900 0.972262
O O5 0.514954 0.949372 0.653599
O O6 0.141645 0.775841 0.267446
O O7 0.935101 0.987948 0.178757
O O8 0.539103 0.625821 0.178134
O O9 0.863613 0.534293 0.625527
O O10 0.000000 0.500000 0.500000
O O11 0.946712 0.641988 0.914247
O O12 0.109729 0.873224 0.036580
O O13 0.498955 0.701687 0.397989
O O14 0.523977 0.865872 0.226534
O O15 0.500000 0.500000 0.500000
#
# Coordination Sequence:
#
# PCOD8027582 Si02
#       7
#     2   2   2   2   2   2   2
#     4  11  25  43  68 101 144 180 236 294 362 417
#     4  12  26  45  69 105 142 191 236 301 350 420
#     4  10  24  45  74 105 143 187 239 295 363 438
#     4  12  26  47  72 102 145 186 245 288 360 431
#     4  11  24  43  70 102 136 189 234 292 356 432
#     4  12  25  44  74  99 144 189 246 286 354 425
#     4  12  26  45  75 110 146 187 235 302 367 430
#
# _framework density 24.866544000000001
#
# number of rings (size 3 to 8) (size 9 to 14) (size 15 to 20)
#    0.000    0.571    1.429    6.000    4.000    6.857 
#    0.000    0.000    0.000    0.000    0.000    0.000 
#    0.000    0.000    0.000    0.000    0.000    0.000 
#
# Total GULP energy -173580.366613 kJ/mol
# GULP energy per Si atom -12398.597615 kJ/mol
# Density = 2.480995 g / cm^3
# Si number density = 24.866544 Si / 1000 Ang^3
#
#
#
# Elastic Constant Matrix: (Units=GPa)
#
#
# Indices 1 2 3 4 5 6 
#
# 1 98.6153 24.0087 17.6321 7.0773 -17.7670 -0.0844
# 2 24.0087 75.6328 26.8491 1.8688 -6.1945 10.4993
# 3 17.6321 26.8491 103.7708 11.9182 -11.9167 -3.3257
# 4 7.0773 1.8688 11.9182 45.5787 0.4494 -3.9338
# 5 -17.7670 -6.1945 -11.9167 0.4494 38.8764 -0.6703
# 6 -0.0844 10.4993 -3.3257 -3.9338 -0.6703 30.3794
#
#
#
# Elastic Compliance Matrix: (Units=1/GPa)
#
#
# Indices 1 2 3 4 5 6 
#
# 1 0.012028 -0.003389 -0.000391 -0.001583 0.004874 0.001064
# 2 -0.003389 0.016525 -0.003965 0.000360 -0.000240 -0.006113
# 3 -0.000391 -0.003965 0.011418 -0.002587 0.002760 0.002345
# 4 -0.001583 0.000360 -0.002587 0.023083 -0.001682 0.002540
# 5 0.004874 -0.000240 0.002760 -0.001682 0.028791 0.000816
# 6 0.001064 -0.006113 0.002345 0.002540 0.000816 0.035636
#
#
# Mechanical properties :
#
#
# Convention : Reuss Voigt Hill
#
# Bulk Modulus (GPa) = 40.84715 46.11097 43.47906
# Shear Modulus (GPa) = 33.08371 36.93549 35.00960
#
# Velocity S-wave (km/s) = 3.65149 3.85820 3.75627
# Velocity P-wave (km/s) = 5.85150 6.19930 6.02791
#
# Compressibility (1/GPa) = 0.02448151
#
# Stress axis : x y z
#
# Youngs Moduli (GPa) = 83.13976 60.51455 87.57990
#
# Poissons Ratio (x) = 0.20506 0.03428
# Poissons Ratio (y) = 0.28173 0.34723
# Poissons Ratio (z) = 0.03254 0.23992
#
# Static dielectric constant tensor:
#      x y z
#    x 4.250760 -0.000860 -0.122630 
#    y -0.000860 4.987660 -0.085310 
#    z -0.122630 -0.085310 4.364150 
# 
# 
# High freq. dielectric constant tensor:
#      x y z
#    x 1.985530 -0.004340 -0.013140 
#    y -0.004340 2.008260 -0.008550 
#    z -0.013140 -0.008550 1.982710 
# 
# From -- ./inp_files/426271.got.cif
#   From: 2010.06.25/outbox.cif.g09.slc.cpg/sg2_214_cif.got.tgz:426271.got - 2010.06.27 13:26:56.
