data_PCOD8027941
_publ_section_title
;
Structure prediction by ZEFSAII (Michael W. Deem and Ramdas Pophale) SiO2 
 PCOD8027941
Probable space group: P -1
;
_chemical_formula_sum "Si O2"
_cell_formula_units_Z 14
_cell_length_a 5.110306
_cell_length_b 13.913575
_cell_length_c 22.927537
_cell_angle_alpha 160.368603
_cell_angle_beta 76.014915
_cell_angle_gamma 103.461679
_cell_volume 531.395950
_symmetry_space_group_name_H-M "P -1"
_symmetry_group_IT_number 2
_symmetry_cell_setting 'triclinic'
loop_
_space_group_symop_operation_xyz
x,y,z
-x,-y,-z
loop_
_atom_site_type_symbol
_atom_site_label
_atom_site_fract_x
_atom_site_fract_y
_atom_site_fract_z
Si Si1 0.319915 0.798625 0.137327
Si Si2 0.047752 0.373853 0.300922
Si Si3 0.246146 0.641776 0.171363
Si Si4 0.536662 0.690810 0.848794
Si Si5 0.493360 0.619961 0.504025
Si Si6 0.710743 0.898646 0.478705
Si Si7 0.161446 0.804007 0.026573
O O1 0.129634 0.692535 0.140685
O O2 0.158047 0.921476 0.160570
O O3 0.513903 0.039146 0.293378
O O4 0.489835 0.545745 0.956347
O O5 0.171340 0.409042 0.248157
O O6 0.236016 0.521988 0.424516
O O7 0.758680 0.515757 0.395964
O O8 0.020592 0.038128 0.126853
O O9 0.343399 0.937740 0.364272
O O10 0.014569 0.488043 0.134600
O O11 0.321758 0.439999 0.698859
O O12 0.468540 0.737526 0.948319
O O13 0.500000 0.000000 0.000000
O O14 0.500000 0.500000 0.500000
O O15 0.500000 0.000000 0.500000
O O16 0.000000 0.000000 0.500000
#
# Coordination Sequence:
#
# PCOD8027941 Si02
#       7
#     2   2   2   2   2   2   2
#     4  11  25  42  70 105 144 194 248 305 371 441
#     4  11  26  45  73 109 146 196 247 309 371 446
#     4  11  25  44  71 104 146 193 249 308 371 445
#     4  10  24  49  75 112 150 198 251 314 377 450
#     4  12  24  46  73 103 148 192 246 306 372 440
#     4  12  26  50  79 109 150 201 254 310 381 449
#     4  11  22  46  70 103 146 194 245 308 373 445
#
# _framework density 26.345703
#
# number of rings (size 3 to 8) (size 9 to 14) (size 15 to 20)
#    0.000    0.857    2.857    3.429    2.000    2.286 
#    2.571    2.857    0.000    0.000    0.000    0.000 
#    0.000    0.000    0.000    0.000    0.000    0.000 
#
# Total GULP energy -173462.273750 kJ/mol
# GULP energy per Si atom -12390.162411 kJ/mol
# Density = 2.628574 g / cm^3
# Si number density = 26.345703 Si / 1000 Ang^3
#
#
#
# Elastic Constant Matrix: (Units=GPa)
#
#
# Indices 1 2 3 4 5 6 
#
# 1 67.1714 26.4089 15.2556 -2.2864 5.6017 11.6085
# 2 26.4089 138.5690 48.9623 -10.3912 -2.0697 22.7645
# 3 15.2556 48.9623 166.8284 12.0159 10.4726 13.7043
# 4 -2.2864 -10.3912 12.0159 49.7569 12.1288 5.6783
# 5 5.6017 -2.0697 10.4726 12.1288 30.3944 -6.8229
# 6 11.6085 22.7645 13.7043 5.6783 -6.8229 37.4691
#
#
#
# Elastic Compliance Matrix: (Units=1/GPa)
#
#
# Indices 1 2 3 4 5 6 
#
# 1 0.017253 -0.002227 -0.000331 0.002289 -0.005294 -0.005182
# 2 -0.002227 0.009492 -0.002389 0.003102 -0.000425 -0.004751
# 3 -0.000331 -0.002389 0.007073 -0.001552 -0.002188 -0.001196
# 4 0.002289 0.003102 -0.001552 0.024897 -0.011378 -0.007871
# 5 -0.005294 -0.000425 -0.002188 -0.011378 0.041845 0.012042
# 6 -0.005182 -0.004751 -0.001196 -0.007871 0.012042 0.035004
#
#
# Mechanical properties :
#
#
# Convention : Reuss Voigt Hill
#
# Bulk Modulus (GPa) = 41.79864 61.53582 51.66723
# Shear Modulus (GPa) = 32.58759 42.32021 37.45390
#
# Velocity S-wave (km/s) = 3.52081 4.01227 3.77454
# Velocity P-wave (km/s) = 5.69456 6.69867 6.21692
#
# Compressibility (1/GPa) = 0.02392422
#
# Stress axis : x y z
#
# Youngs Moduli (GPa) = 57.96053 105.35348 141.38478
#
# Poissons Ratio (x) = 0.23465 0.04678
# Poissons Ratio (y) = 0.12910 0.33772
# Poissons Ratio (z) = 0.01918 0.25165
#
# Static dielectric constant tensor:
#      x y z
#    x 4.188610 0.272810 0.043660 
#    y 0.272810 5.504520 -0.068010 
#    z 0.043660 -0.068010 5.256550 
# 
# 
# High freq. dielectric constant tensor:
#      x y z
#    x 2.014170 0.015420 0.007310 
#    y 0.015420 2.087190 -0.005490 
#    z 0.007310 -0.005490 2.077820 
# 
# From -- ./inp_files/604651.got.cif
#   From: 2010.06.25/outbox.cif.g09.slc.cpg/sg2_303_cif.got.tgz:604651.got - 2010.06.27 13:26:56.
