data_PCOD8027474
_publ_section_title
;
Structure prediction by ZEFSAII (Michael W. Deem and Ramdas Pophale) SiO2 
 PCOD8027474
Probable space group: P -1
;
_chemical_formula_sum "Si O2"
_cell_formula_units_Z 16
_cell_length_a 9.337138
_cell_length_b 9.385936
_cell_length_c 15.142720
_cell_angle_alpha 80.064152
_cell_angle_beta 110.908762
_cell_angle_gamma 47.999468
_cell_volume 742.107079
_symmetry_space_group_name_H-M "P -1"
_symmetry_group_IT_number 2
_symmetry_cell_setting 'triclinic'
loop_
_space_group_symop_operation_xyz
x,y,z
-x,-y,-z
loop_
_atom_site_type_symbol
_atom_site_label
_atom_site_fract_x
_atom_site_fract_y
_atom_site_fract_z
Si Si1 0.429552 0.490673 0.392074
Si Si2 0.352997 0.818406 0.096785
Si Si3 0.309809 0.992347 0.679552
Si Si4 0.119680 0.709296 0.583804
Si Si5 0.358729 0.217418 0.382003
Si Si6 0.812280 0.632732 0.283401
Si Si7 0.009721 0.966395 0.153317
Si Si8 0.280405 0.715048 0.785776
O O1 0.500000 0.500000 0.500000
O O2 0.624346 0.401213 0.372640
O O3 0.443785 0.309493 0.424609
O O4 0.152054 0.747059 0.272180
O O5 0.562616 0.787527 0.153842
O O6 0.197702 0.926587 0.142584
O O7 0.476956 0.569932 0.130957
O O8 0.166921 0.994481 0.955992
O O9 0.551208 0.870068 0.690686
O O10 0.378072 0.803852 0.774760
O O11 0.197746 0.201756 0.693868
O O12 0.103019 0.089747 0.553541
O O13 0.167236 0.501066 0.619363
O O14 0.068619 0.810902 0.660240
O O15 0.057076 0.430274 0.296778
O O16 0.500000 0.000000 0.500000
O O17 0.843595 0.194884 0.154460
#
# Coordination Sequence:
#
# PCOD8027474 Si02
#       8
#     2   2   2   2   2   2   2   2
#     4  12  25  41  68 101 132 173 221 270 330 398
#     4  10  24  45  69  97 130 171 232 279 312 402
#     4  12  24  40  64  96 142 176 213 273 336 395
#     4  11  22  41  62  95 137 170 225 272 316 399
#     4  12  26  40  62  94 138 178 213 265 335 395
#     4  11  24  43  61  95 132 175 222 271 328 389
#     4  11  22  43  74  97 126 174 227 275 333 377
#     4  11  22  40  65  98 129 170 224 276 325 387
#
# _framework density 21.560231999999999
#
# number of rings (size 3 to 8) (size 9 to 14) (size 15 to 20)
#    0.000    0.750    5.000    3.375    3.500    2.000 
#    0.000    2.500    0.000    4.500    0.000    0.000 
#    0.000    0.000    0.000    0.000    0.000    0.000 
#
# Total GULP energy -198427.482072 kJ/mol
# GULP energy per Si atom -12401.717630 kJ/mol
# Density = 2.151116 g / cm^3
# Si number density = 21.560232 Si / 1000 Ang^3
#
#
#
# Elastic Constant Matrix: (Units=GPa)
#
#
# Indices 1 2 3 4 5 6 
#
# 1 103.6330 46.6066 30.2884 -4.8780 6.2553 -10.1485
# 2 46.6066 106.5589 31.2237 8.1799 -9.9571 -15.5184
# 3 30.2884 31.2237 114.3319 3.3065 5.8662 -10.5117
# 4 -4.8780 8.1799 3.3065 26.2246 -2.0842 -4.3303
# 5 6.2553 -9.9571 5.8662 -2.0842 32.1668 -9.9569
# 6 -10.1485 -15.5184 -10.5117 -4.3303 -9.9569 45.2486
#
#
#
# Elastic Compliance Matrix: (Units=1/GPa)
#
#
# Indices 1 2 3 4 5 6 
#
# 1 0.013296 -0.005952 -0.001818 0.004273 -0.003791 0.000094
# 2 -0.005952 0.014188 -0.002155 -0.004016 0.006976 0.004181
# 3 -0.001818 -0.002155 0.010007 -0.000980 -0.002003 0.000643
# 4 0.004273 -0.004016 -0.000980 0.041067 0.001912 0.003704
# 5 -0.003791 0.006976 -0.002003 0.001912 0.037412 0.009493
# 6 0.000094 0.004181 0.000643 0.003704 0.009493 0.026148
#
#
# Mechanical properties :
#
#
# Convention : Reuss Voigt Hill
#
# Bulk Modulus (GPa) = 56.68193 60.08457 58.38325
# Shear Modulus (GPa) = 29.78883 35.15501 32.47192
#
# Velocity S-wave (km/s) = 3.72110 4.04239 3.88506
# Velocity P-wave (km/s) = 6.69397 7.05100 6.87480
#
# Compressibility (1/GPa) = 0.01764231
#
# Stress axis : x y z
#
# Youngs Moduli (GPa) = 75.20887 70.48090 99.93114
#
# Poissons Ratio (x) = 0.41947 0.18163
# Poissons Ratio (y) = 0.44761 0.21540
# Poissons Ratio (z) = 0.13670 0.15192
#
# Static dielectric constant tensor:
#      x y z
#    x 4.038080 -0.221710 -0.053810 
#    y -0.221710 4.047410 -0.044500 
#    z -0.053810 -0.044500 3.802530 
# 
# 
# High freq. dielectric constant tensor:
#      x y z
#    x 1.847670 -0.009990 -0.001700 
#    y -0.009990 1.855730 -0.003190 
#    z -0.001700 -0.003190 1.831430 
# 
# From -- ./inp_files/494911.got.cif
#   From: 2010.06.25/outbox.cif.g09.slc.cpg/sg2_248_cif.got.tgz:494911.got - 2010.06.27 13:26:56.
