data_PCOD8027463
_publ_section_title
;
Structure prediction by ZEFSAII (Michael W. Deem and Ramdas Pophale) SiO2 
 PCOD8027463
Probable space group: P -1
;
_chemical_formula_sum "Si O2"
_cell_formula_units_Z 16
_cell_length_a 8.833849
_cell_length_b 6.571720
_cell_length_c 13.266001
_cell_angle_alpha 98.529508
_cell_angle_beta 121.831514
_cell_angle_gamma 84.996209
_cell_volume 647.038062
_symmetry_space_group_name_H-M "P -1"
_symmetry_group_IT_number 2
_symmetry_cell_setting 'triclinic'
loop_
_space_group_symop_operation_xyz
x,y,z
-x,-y,-z
loop_
_atom_site_type_symbol
_atom_site_label
_atom_site_fract_x
_atom_site_fract_y
_atom_site_fract_z
Si Si1 0.760408 0.460502 0.166673
Si Si2 0.863501 0.126554 0.328225
Si Si3 0.589549 0.308489 0.897863
Si Si4 0.172652 0.359915 0.070019
Si Si5 0.282229 0.029961 0.229272
Si Si6 0.497147 0.740180 0.504319
Si Si7 0.051825 0.190614 0.825907
Si Si8 0.745471 0.966625 0.478290
O O1 0.798343 0.344876 0.277025
O O2 0.616508 0.642440 0.149487
O O3 0.940942 0.580920 0.206166
O O4 0.698614 0.310629 0.042748
O O5 0.735386 0.047890 0.366299
O O6 0.850389 0.972148 0.221178
O O7 0.065729 0.139655 0.440242
O O8 0.656692 0.493640 0.862765
O O9 0.611268 0.090007 0.831512
O O10 0.170060 0.225179 0.160679
O O11 0.175755 0.193752 0.968820
O O12 0.000000 0.500000 0.000000
O O13 0.409839 0.131663 0.363818
O O14 0.149998 0.869096 0.223155
O O15 0.500000 0.500000 0.500000
O O16 0.294937 0.834310 0.447454
O O17 0.593352 0.794858 0.435824
#
# Coordination Sequence:
#
# PCOD8027463 Si02
#       8
#     2   2   2   2   2   2   2   2
#     4  10  25  44  72 108 149 195 230 291 354 443
#     4  11  24  47  74 101 145 186 240 293 370 415
#     4  10  24  45  69 109 151 185 243 282 356 442
#     4  11  24  39  71 113 146 188 238 283 352 442
#     4  12  25  44  76 100 146 194 233 304 361 416
#     4  11  27  50  76 100 139 183 250 307 360 418
#     4  11  24  41  72 108 146 184 237 288 351 442
#     4  10  26  50  72 105 135 185 244 313 352 428
#
# _framework density 24.728066999999999
#
# number of rings (size 3 to 8) (size 9 to 14) (size 15 to 20)
#    0.000    1.250    2.500    1.125    7.000    5.000 
#    0.000    6.250    0.000    0.000    0.000    0.000 
#    0.000    0.000    0.000    0.000    0.000    0.000 
#
# Total GULP energy -198273.169728 kJ/mol
# GULP energy per Si atom -12392.073108 kJ/mol
# Density = 2.467179 g / cm^3
# Si number density = 24.728067 Si / 1000 Ang^3
#
#
#
# Elastic Constant Matrix: (Units=GPa)
#
#
# Indices 1 2 3 4 5 6 
#
# 1 114.7821 44.9358 26.6127 -9.6683 -20.9646 8.1135
# 2 44.9358 128.0889 44.1614 -18.9555 -8.6348 8.0492
# 3 26.6127 44.1614 73.8893 -14.8862 -9.7795 8.7986
# 4 -9.6683 -18.9555 -14.8862 50.7077 4.7330 -7.7996
# 5 -20.9646 -8.6348 -9.7795 4.7330 30.6050 -4.0945
# 6 8.1135 8.0492 8.7986 -7.7996 -4.0945 37.7542
#
#
#
# Elastic Compliance Matrix: (Units=1/GPa)
#
#
# Indices 1 2 3 4 5 6 
#
# 1 0.011461 -0.003081 -0.001354 -0.000091 0.006455 -0.000809
# 2 -0.003081 0.010893 -0.005101 0.002057 -0.001006 -0.000156
# 3 -0.001354 -0.005101 0.018204 0.002609 0.002776 -0.002024
# 4 -0.000091 0.002057 0.002609 0.021898 -0.001590 0.003324
# 5 0.006455 -0.001006 0.002776 -0.001590 0.038212 0.001996
# 6 -0.000809 -0.000156 -0.002024 0.003324 0.001996 0.028069
#
#
# Mechanical properties :
#
#
# Convention : Reuss Voigt Hill
#
# Bulk Modulus (GPa) = 46.54271 60.90891 53.72581
# Shear Modulus (GPa) = 32.26405 37.21675 34.74040
#
# Velocity S-wave (km/s) = 3.61606 3.88369 3.75226
# Velocity P-wave (km/s) = 6.02471 6.69296 6.36761
#
# Compressibility (1/GPa) = 0.02148564
#
# Stress axis : x y z
#
# Youngs Moduli (GPa) = 87.25378 91.80151 54.93288
#
# Poissons Ratio (x) = 0.28287 0.07437
# Poissons Ratio (y) = 0.26886 0.28020
# Poissons Ratio (z) = 0.11813 0.46827
#
# Static dielectric constant tensor:
#      x y z
#    x 4.705280 0.107130 -0.278120 
#    y 0.107130 4.511590 -0.023120 
#    z -0.278120 -0.023120 4.603510 
# 
# 
# High freq. dielectric constant tensor:
#      x y z
#    x 1.993000 0.006160 -0.011900 
#    y 0.006160 1.979190 -0.005540 
#    z -0.011900 -0.005540 1.981130 
# 
# From -- ./inp_files/488592.got.cif
#   From: 2010.06.25/outbox.cif.g09.slc.cpg/sg2_245_cif.got.tgz:488592.got - 2010.06.27 13:26:56.
