data_PCOD8027420
_publ_section_title
;
Structure prediction by ZEFSAII (Michael W. Deem and Ramdas Pophale) SiO2 
 PCOD8027420
Probable space group: P -1
;
_chemical_formula_sum "Si O2"
_cell_formula_units_Z 14
_cell_length_a 9.738731
_cell_length_b 7.979242
_cell_length_c 8.787863
_cell_angle_alpha 85.800935
_cell_angle_beta 57.702743
_cell_angle_gamma 84.286115
_cell_volume 574.202894
_symmetry_space_group_name_H-M "P -1"
_symmetry_group_IT_number 2
_symmetry_cell_setting 'triclinic'
loop_
_space_group_symop_operation_xyz
x,y,z
-x,-y,-z
loop_
_atom_site_type_symbol
_atom_site_label
_atom_site_fract_x
_atom_site_fract_y
_atom_site_fract_z
Si Si1 0.919574 0.681547 0.512529
Si Si2 0.435765 0.685728 0.560656
Si Si3 0.759368 0.845158 0.344492
Si Si4 0.669611 0.673236 0.920285
Si Si5 0.664207 0.307622 0.036542
Si Si6 0.132660 0.855425 0.589653
Si Si7 0.168735 0.052006 0.030751
O O1 0.869098 0.688603 0.362686
O O2 0.758445 0.704765 0.707808
O O3 0.000000 0.500000 0.500000
O O4 0.051655 0.815999 0.476868
O O5 0.500000 0.500000 0.500000
O O6 0.573822 0.810042 0.420044
O O7 0.403826 0.718606 0.753868
O O8 0.270101 0.709618 0.561186
O O9 0.848690 0.924793 0.143099
O O10 0.771277 0.974395 0.473584
O O11 0.476991 0.684823 0.006315
O O12 0.737725 0.491635 0.965376
O O13 0.691279 0.826349 0.013335
O O14 0.790284 0.145571 0.937171
O O15 0.993526 0.868820 0.799443
#
# Coordination Sequence:
#
# PCOD8027420 Si02
#       7
#     2   2   2   2   2   2   2
#     4  11  25  45  68 104 143 186 230 296 363 419
#     4  12  25  44  71 106 143 185 236 296 355 426
#     4  12  24  46  71 104 141 185 236 293 357 423
#     4  10  24  45  68 105 142 187 239 292 353 436
#     4  11  23  45  72 103 142 190 240 289 361 427
#     4  11  26  45  71 105 140 186 240 289 360 425
#     4  11  25  46  75 102 142 187 244 295 357 418
#
# _framework density 24.381623000000001
#
# number of rings (size 3 to 8) (size 9 to 14) (size 15 to 20)
#    0.000    0.857    2.857    3.429    2.000    0.000 
#    0.000    3.571    0.000    0.000    0.000    0.000 
#    0.000    0.000    0.000    0.000    0.000    0.000 
#
# Total GULP energy -173529.718438 kJ/mol
# GULP energy per Si atom -12394.979888 kJ/mol
# Density = 2.432613 g / cm^3
# Si number density = 24.381623 Si / 1000 Ang^3
#
#
#
# Elastic Constant Matrix: (Units=GPa)
#
#
# Indices 1 2 3 4 5 6 
#
# 1 110.6754 21.4078 23.3866 5.9452 -4.0832 -14.1723
# 2 21.4078 115.5613 10.0019 2.4278 -7.6585 -14.5425
# 3 23.3866 10.0019 67.8114 -6.7583 -0.6832 -14.0769
# 4 5.9452 2.4278 -6.7583 35.6347 -2.8735 1.4296
# 5 -4.0832 -7.6585 -0.6832 -2.8735 32.7350 -2.5382
# 6 -14.1723 -14.5425 -14.0769 1.4296 -2.5382 52.3188
#
#
#
# Elastic Compliance Matrix: (Units=1/GPa)
#
#
# Indices 1 2 3 4 5 6 
#
# 1 0.010341 -0.001323 -0.003242 -0.002249 0.000844 0.001664
# 2 -0.001323 0.009373 -0.000483 -0.000426 0.002154 0.002233
# 3 -0.003242 -0.000483 0.017034 0.003699 0.000433 0.003491
# 4 -0.002249 -0.000426 0.003699 0.029366 0.002242 -0.000426
# 5 0.000844 0.002154 0.000433 0.002242 0.031550 0.002413
# 6 0.001664 0.002233 0.003491 -0.000426 0.002413 0.021253
#
#
# Mechanical properties :
#
#
# Convention : Reuss Voigt Hill
#
# Bulk Modulus (GPa) = 37.51983 44.84896 41.18440
# Shear Modulus (GPa) = 36.25900 40.08784 38.17342
#
# Velocity S-wave (km/s) = 3.86054 4.05925 3.96114
# Velocity P-wave (km/s) = 5.94084 6.35646 6.15216
#
# Compressibility (1/GPa) = 0.02665257
#
# Stress axis : x y z
#
# Youngs Moduli (GPa) = 96.70024 106.69006 58.70717
#
# Poissons Ratio (x) = 0.14110 0.19030
# Poissons Ratio (y) = 0.12789 0.02838
# Poissons Ratio (z) = 0.31346 0.05158
#
# Static dielectric constant tensor:
#      x y z
#    x 5.045080 0.144130 0.297000 
#    y 0.144130 4.962150 -0.179970 
#    z 0.297000 -0.179970 3.900900 
# 
# 
# High freq. dielectric constant tensor:
#      x y z
#    x 1.984390 0.003810 0.001090 
#    y 0.003810 1.983160 -0.004740 
#    z 0.001090 -0.004740 1.951880 
# 
# From -- ./inp_files/157870.got.cif
#   From: 2010.06.25/outbox.cif.g09.slc.cpg/sg2_79_cif.got.tgz:157870.got - 2010.06.27 13:26:56.
