data_PCOD8027162
_publ_section_title
;
Structure prediction by ZEFSAII (Michael W. Deem and Ramdas Pophale) SiO2 
 PCOD8027162
Probable space group: P -1
;
_chemical_formula_sum "Si O2"
_cell_formula_units_Z 16
_cell_length_a 14.214575
_cell_length_b 7.725144
_cell_length_c 11.875553
_cell_angle_alpha 123.773760
_cell_angle_beta 126.253462
_cell_angle_gamma 43.549273
_cell_volume 705.250834
_symmetry_space_group_name_H-M "P -1"
_symmetry_group_IT_number 2
_symmetry_cell_setting 'triclinic'
loop_
_space_group_symop_operation_xyz
x,y,z
-x,-y,-z
loop_
_atom_site_type_symbol
_atom_site_label
_atom_site_fract_x
_atom_site_fract_y
_atom_site_fract_z
Si Si1 0.869307 0.717141 0.181768
Si Si2 0.086621 0.221106 0.401294
Si Si3 0.298614 0.859732 0.951928
Si Si4 0.898640 0.224927 0.093705
Si Si5 0.185568 0.425894 0.376281
Si Si6 0.446339 0.994499 0.270143
Si Si7 0.619811 0.488604 0.331132
Si Si8 0.672241 0.084893 0.372309
O O1 0.859514 0.478362 0.093177
O O2 0.027981 0.641165 0.292282
O O3 0.826370 0.853564 0.078917
O O4 0.749066 0.918064 0.256067
O O5 0.178782 0.215466 0.361327
O O6 0.000000 0.500000 0.500000
O O7 0.972018 0.181916 0.252871
O O8 0.197989 0.985420 0.476921
O O9 0.240406 0.770302 0.977259
O O10 0.366858 0.648372 0.825692
O O11 0.419659 0.878076 0.100459
O O12 0.000000 0.000000 0.000000
O O13 0.228151 0.565179 0.543701
O O14 0.304239 0.272017 0.306223
O O15 0.500990 0.795090 0.341814
O O16 0.571853 0.021884 0.336689
O O17 0.577958 0.382025 0.368680
#
# Coordination Sequence:
#
# PCOD8027162 Si02
#       8
#     2   2   2   2   2   2   2   2
#     4  10  24  44  69 101 129 169 227 277 325 380
#     4  11  20  42  72  96 132 173 220 276 329 380
#     4  11  25  43  70  95 132 177 222 271 325 394
#     4  11  23  39  64 100 135 167 211 273 336 387
#     4  11  23  43  68  97 138 168 214 283 331 385
#     4  12  26  46  63  96 144 176 210 269 339 393
#     4  11  25  42  67  99 128 177 228 262 321 400
#     4  11  24  42  72  98 128 177 226 270 322 389
#
# _framework density 22.686962999999999
#
# number of rings (size 3 to 8) (size 9 to 14) (size 15 to 20)
#    0.000    1.000    3.750    3.750    1.750    6.500 
#    0.000    0.000    0.000    0.000    0.000    0.000 
#    0.000    0.000    0.000    0.000    0.000    0.000 
#
# Total GULP energy -198373.665711 kJ/mol
# GULP energy per Si atom -12398.354107 kJ/mol
# Density = 2.263533 g / cm^3
# Si number density = 22.686963 Si / 1000 Ang^3
#
#
#
# Elastic Constant Matrix: (Units=GPa)
#
#
# Indices 1 2 3 4 5 6 
#
# 1 71.3534 41.7823 13.0565 -4.3863 5.5886 -1.4565
# 2 41.7823 98.0814 27.4039 -16.0790 0.0745 12.6447
# 3 13.0565 27.4039 60.9758 -2.6245 -0.0451 8.8810
# 4 -4.3863 -16.0790 -2.6245 29.5518 -1.7050 -4.9095
# 5 5.5886 0.0745 -0.0451 -1.7050 24.0628 4.7375
# 6 -1.4565 12.6447 8.8810 -4.9095 4.7375 36.3462
#
#
#
# Elastic Compliance Matrix: (Units=1/GPa)
#
#
# Indices 1 2 3 4 5 6 
#
# 1 0.019961 -0.009110 -0.000941 -0.001620 -0.005653 0.004717
# 2 -0.009110 0.017155 -0.004775 0.006981 0.003469 -0.004676
# 3 -0.000941 -0.004775 0.019173 -0.001549 0.000825 -0.003378
# 4 -0.001620 0.006981 -0.001549 0.037848 0.002508 0.002670
# 5 -0.005653 0.003469 0.000825 0.002508 0.044435 -0.007088
# 6 0.004717 -0.004676 -0.003378 0.002670 -0.007088 0.031439
#
#
# Mechanical properties :
#
#
# Convention : Reuss Voigt Hill
#
# Bulk Modulus (GPa) = 37.54093 43.87734 40.70913
# Shear Modulus (GPa) = 23.97606 27.87004 25.92305
#
# Velocity S-wave (km/s) = 3.25440 3.50874 3.38396
# Velocity P-wave (km/s) = 5.54119 5.98309 5.76638
#
# Compressibility (1/GPa) = 0.02663759
#
# Stress axis : x y z
#
# Youngs Moduli (GPa) = 50.09837 58.29165 52.15534
#
# Poissons Ratio (x) = 0.53102 0.04907
# Poissons Ratio (y) = 0.45638 0.24906
# Poissons Ratio (z) = 0.04714 0.27836
#
# Static dielectric constant tensor:
#      x y z
#    x 5.654110 2.072990 0.164830 
#    y 2.072990 6.226610 0.002250 
#    z 0.164830 0.002250 4.111060 
# 
# 
# High freq. dielectric constant tensor:
#      x y z
#    x 1.893460 0.008920 0.002630 
#    y 0.008920 1.892510 -0.005210 
#    z 0.002630 -0.005210 1.899400 
# 
# From -- ./inp_files/448231.got.cif
#   From: 2010.06.25/outbox.cif.g09.slc.cpg/sg2_225_cif.got.tgz:448231.got - 2010.06.27 13:26:56.
