data_PCOD8027061
_publ_section_title
;
Structure prediction by ZEFSAII (Michael W. Deem and Ramdas Pophale) SiO2 
 PCOD8027061
Probable space group: P -1
;
_chemical_formula_sum "Si O2"
_cell_formula_units_Z 16
_cell_length_a 15.570751
_cell_length_b 15.996066
_cell_length_c 8.801735
_cell_angle_alpha 112.483967
_cell_angle_beta 94.149008
_cell_angle_gamma 28.000432
_cell_volume 752.381599
_symmetry_space_group_name_H-M "P -1"
_symmetry_group_IT_number 2
_symmetry_cell_setting 'triclinic'
loop_
_space_group_symop_operation_xyz
x,y,z
-x,-y,-z
loop_
_atom_site_type_symbol
_atom_site_label
_atom_site_fract_x
_atom_site_fract_y
_atom_site_fract_z
Si Si1 0.435053 0.747257 0.140196
Si Si2 0.127953 0.391397 0.784881
Si Si3 0.671631 0.106854 0.110119
Si Si4 0.627527 0.468441 0.458232
Si Si5 0.393049 0.988902 0.366640
Si Si6 0.693305 0.881743 0.893819
Si Si7 0.851252 0.275009 0.032951
Si Si8 0.950422 0.009147 0.664824
O O1 0.344382 0.929740 0.325076
O O2 0.702599 0.470154 0.020637
O O3 0.293968 0.803026 0.237086
O O4 0.415822 0.764678 0.968749
O O5 0.334743 0.261316 0.742181
O O6 0.948232 0.603052 0.784384
O O7 0.236672 0.188750 0.612642
O O8 0.000000 0.500000 0.000000
O O9 0.533905 0.288263 0.355945
O O10 0.626268 0.044116 0.069441
O O11 0.944356 0.857669 0.984714
O O12 0.500000 0.500000 0.500000
O O13 0.688964 0.411785 0.250057
O O14 0.855421 0.252320 0.442320
O O15 0.309663 0.111723 0.282811
O O16 0.500000 0.000000 0.000000
O O17 0.956045 0.081058 0.843691
O O18 0.000000 0.000000 0.500000
#
# Coordination Sequence:
#
# PCOD8027061 Si02
#       8
#     2   2   2   2   2   2   2   2
#     4  11  24  44  65  97 131 167 219 267 318 386
#     4  11  22  43  68  95 129 172 213 264 327 382
#     4  11  25  45  67  96 131 172 217 264 323 386
#     4  12  23  42  68  95 130 170 213 268 319 380
#     4  10  24  44  66  95 131 169 214 268 320 384
#     4  11  23  44  67  97 132 170 214 268 324 382
#     4  12  24  45  67  93 134 170 215 268 319 384
#     4  12  24  43  67  95 131 175 214 265 326 378
#
# _framework density 21.265802999999998
#
# number of rings (size 3 to 8) (size 9 to 14) (size 15 to 20)
#    0.000    0.750    3.750    4.125    0.000    2.000 
#    4.500    0.000    0.000    0.000    0.000    0.000 
#    0.000    0.000    0.000    0.000    0.000    0.000 
#
# Total GULP energy -198513.714608 kJ/mol
# GULP energy per Si atom -12407.107163 kJ/mol
# Density = 2.121740 g / cm^3
# Si number density = 21.265803 Si / 1000 Ang^3
#
#
#
# Elastic Constant Matrix: (Units=GPa)
#
#
# Indices 1 2 3 4 5 6 
#
# 1 123.9552 31.9671 51.9845 -6.0525 3.5173 -2.6004
# 2 31.9671 150.9389 25.7048 12.1811 -13.9335 -17.6184
# 3 51.9845 25.7048 131.1462 -1.1798 1.1765 -4.8311
# 4 -6.0525 12.1811 -1.1798 29.3818 0.6929 3.0536
# 5 3.5173 -13.9335 1.1765 0.6929 25.6981 -2.2421
# 6 -2.6004 -17.6184 -4.8311 3.0536 -2.2421 26.6070
#
#
#
# Elastic Compliance Matrix: (Units=1/GPa)
#
#
# Indices 1 2 3 4 5 6 
#
# 1 0.010400 -0.002292 -0.003685 0.003193 -0.002738 -0.001767
# 2 -0.002292 0.008962 -0.000701 -0.005047 0.005922 0.006661
# 3 -0.003685 -0.000701 0.009255 -0.000181 -0.000220 0.000858
# 4 0.003193 -0.005047 -0.000181 0.037703 -0.004863 -0.007800
# 5 -0.002738 0.005922 -0.000220 -0.004863 0.043323 0.007823
# 6 -0.001767 0.006661 0.000858 -0.007800 0.007823 0.043532
#
#
# Mechanical properties :
#
#
# Convention : Reuss Voigt Hill
#
# Bulk Modulus (GPa) = 65.52730 69.48366 67.50548
# Shear Modulus (GPa) = 29.13439 36.09631 32.61535
#
# Velocity S-wave (km/s) = 3.70538 4.12441 3.92050
# Velocity P-wave (km/s) = 7.01333 7.44485 7.23231
#
# Compressibility (1/GPa) = 0.01526081
#
# Stress axis : x y z
#
# Youngs Moduli (GPa) = 96.14925 111.58836 108.04679
#
# Poissons Ratio (x) = 0.25574 0.39818
# Poissons Ratio (y) = 0.22035 0.07576
# Poissons Ratio (z) = 0.35433 0.07824
#
# Static dielectric constant tensor:
#      x y z
#    x 3.797990 -0.173560 0.103240 
#    y -0.173560 3.823430 0.135310 
#    z 0.103240 0.135310 3.831140 
# 
# 
# High freq. dielectric constant tensor:
#      x y z
#    x 1.833750 -0.009300 0.005840 
#    y -0.009300 1.853970 0.002900 
#    z 0.005840 0.002900 1.836270 
# 
# From -- ./inp_files/52299.got.cif
#   From: 2010.06.25/outbox.cif.g09.slc.cpg/sg2_27_cif.got.tgz:52299.got - 2010.06.27 13:26:56.
