data_PCOD8027248
_publ_section_title
;
Structure prediction by ZEFSAII (Michael W. Deem and Ramdas Pophale) SiO2 
 PCOD8027248
Probable space group: P -1
;
_chemical_formula_sum "Si O2"
_cell_formula_units_Z 16
_cell_length_a 18.422179
_cell_length_b 12.099497
_cell_length_c 8.234679
_cell_angle_alpha 104.862316
_cell_angle_beta 49.513027
_cell_angle_gamma 143.423281
_cell_volume 674.968006
_symmetry_space_group_name_H-M "P -1"
_symmetry_group_IT_number 2
_symmetry_cell_setting 'triclinic'
loop_
_space_group_symop_operation_xyz
x,y,z
-x,-y,-z
loop_
_atom_site_type_symbol
_atom_site_label
_atom_site_fract_x
_atom_site_fract_y
_atom_site_fract_z
Si Si1 0.872879 0.128156 0.276131
Si Si2 0.988183 0.507928 0.293261
Si Si3 0.622560 0.490494 0.763486
Si Si4 0.963833 0.706097 0.244568
Si Si5 0.307837 0.749757 0.111306
Si Si6 0.898726 0.830299 0.937807
Si Si7 0.221794 0.143544 0.163096
Si Si8 0.551844 0.347074 0.184361
O O1 0.900541 0.292028 0.313994
O O2 0.991035 0.176310 0.254399
O O3 0.655949 0.868152 0.519204
O O4 0.942648 0.158174 0.009356
O O5 0.977312 0.581310 0.182196
O O6 0.857133 0.438782 0.587007
O O7 0.210473 0.730993 0.109798
O O8 0.744263 0.519508 0.506302
O O9 0.744050 0.736152 0.687458
O O10 0.431995 0.316336 0.868944
O O11 0.557569 0.383886 0.998294
O O12 0.085996 0.890872 0.285789
O O13 0.356055 0.681101 0.931382
O O14 0.500000 0.000000 0.000000
O O15 0.901096 0.909921 0.805542
O O16 0.676223 0.566250 0.191468
O O17 0.000000 0.000000 0.000000
#
# Coordination Sequence:
#
# PCOD8027248 Si02
#       8
#     2   2   2   2   2   2   2   2
#     4  12  26  46  68 103 142 182 230 290 354 419
#     4  11  25  42  71 101 139 182 232 285 353 418
#     4  10  24  45  69 103 138 177 236 289 348 409
#     4  12  25  44  69 101 144 183 226 286 355 414
#     4  11  22  42  70 102 133 182 237 288 341 409
#     4  11  24  49  71 102 141 188 231 286 351 422
#     4  10  24  44  71 103 134 184 234 289 342 412
#     4  11  24  44  75 102 139 181 237 289 344 414
#
# _framework density 23.704827000000002
#
# number of rings (size 3 to 8) (size 9 to 14) (size 15 to 20)
#    0.000    1.000    5.000    0.750    1.750    6.500 
#    0.000    0.625    0.000    0.000    0.000    0.000 
#    0.000    0.000    0.000    0.000    0.000    0.000 
#
# Total GULP energy -198260.334425 kJ/mol
# GULP energy per Si atom -12391.270902 kJ/mol
# Density = 2.365087 g / cm^3
# Si number density = 23.704827 Si / 1000 Ang^3
#
#
#
# Elastic Constant Matrix: (Units=GPa)
#
#
# Indices 1 2 3 4 5 6 
#
# 1 110.6357 30.2494 53.2719 -10.3869 -28.8938 -11.8110
# 2 30.2494 107.1590 25.8440 -26.0076 -13.7361 -9.6620
# 3 53.2719 25.8440 135.6199 -13.8144 -21.0711 1.8474
# 4 -10.3869 -26.0076 -13.8144 34.1767 5.5882 -7.2222
# 5 -28.8938 -13.7361 -21.0711 5.5882 34.1437 -1.5925
# 6 -11.8110 -9.6620 1.8474 -7.2222 -1.5925 37.2214
#
#
#
# Elastic Compliance Matrix: (Units=1/GPa)
#
#
# Indices 1 2 3 4 5 6 
#
# 1 0.014325 -0.001080 -0.003894 0.001530 0.009274 0.005152
# 2 -0.001080 0.013004 -0.000725 0.009948 0.002481 0.005105
# 3 -0.003894 -0.000725 0.009519 0.001467 0.001976 -0.001527
# 4 0.001530 0.009948 0.001467 0.040146 0.000135 0.010791
# 5 0.009274 0.002481 0.001976 0.000135 0.039575 0.005208
# 6 0.005152 0.005105 -0.001527 0.010791 0.005208 0.032219
#
#
# Mechanical properties :
#
#
# Convention : Reuss Voigt Hill
#
# Bulk Modulus (GPa) = 39.29316 63.57169 51.43242
# Shear Modulus (GPa) = 29.64398 37.37831 33.51114
#
# Velocity S-wave (km/s) = 3.54014 3.97523 3.76398
# Velocity P-wave (km/s) = 5.77253 6.92432 6.37449
#
# Compressibility (1/GPa) = 0.02544972
#
# Stress axis : x y z
#
# Youngs Moduli (GPa) = 69.80838 76.89808 105.05762
#
# Poissons Ratio (x) = 0.08303 0.40915
# Poissons Ratio (y) = 0.07537 0.07615
# Poissons Ratio (z) = 0.27187 0.05574
#
# Static dielectric constant tensor:
#      x y z
#    x 4.626850 -0.184180 -0.363280 
#    y -0.184180 4.365580 -0.175870 
#    z -0.363280 -0.175870 4.125130 
# 
# 
# High freq. dielectric constant tensor:
#      x y z
#    x 1.946360 -0.015710 -0.031030 
#    y -0.015710 1.942060 -0.013880 
#    z -0.031030 -0.013880 1.927560 
# 
# From -- ./inp_files/333357.got.cif
#   From: 2010.06.25/outbox.cif.g09.slc.cpg/sg2_167_cif.got.tgz:333357.got - 2010.06.27 13:26:56.
