data_PCOD8027315
_publ_section_title
;
Structure prediction by ZEFSAII (Michael W. Deem and Ramdas Pophale) SiO2 
 PCOD8027315
Probable space group: P -1
;
_chemical_formula_sum "Si O2"
_cell_formula_units_Z 14
_cell_length_a 11.201250
_cell_length_b 24.061857
_cell_length_c 8.784763
_cell_angle_alpha 151.448313
_cell_angle_beta 139.608317
_cell_angle_gamma 30.296671
_cell_volume 570.837649
_symmetry_space_group_name_H-M "P -1"
_symmetry_group_IT_number 2
_symmetry_cell_setting 'triclinic'
loop_
_space_group_symop_operation_xyz
x,y,z
-x,-y,-z
loop_
_atom_site_type_symbol
_atom_site_label
_atom_site_fract_x
_atom_site_fract_y
_atom_site_fract_z
Si Si1 0.376024 0.502786 0.536707
Si Si2 0.662637 0.210828 0.254007
Si Si3 0.828439 0.897109 0.600059
Si Si4 0.888827 0.666290 0.338916
Si Si5 0.753662 0.862913 0.111048
Si Si6 0.459013 0.844035 0.564059
Si Si7 0.276571 0.700186 0.164341
O O1 0.500000 0.500000 0.500000
O O2 0.454355 0.336391 0.237702
O O3 0.094833 0.638225 0.577503
O O4 0.448002 0.544400 0.861678
O O5 0.599927 0.297592 0.560350
O O6 0.905697 0.166312 0.317600
O O7 0.679353 0.064076 0.929085
O O8 0.825877 0.783731 0.429070
O O9 0.699042 0.915774 0.360518
O O10 0.653995 0.730810 0.357641
O O11 0.000000 0.500000 0.000000
O O12 0.032968 0.732781 0.048300
O O13 0.690962 0.988861 0.236109
O O14 0.597150 0.815238 0.789480
O O15 0.264220 0.819867 0.333222
#
# Coordination Sequence:
#
# PCOD8027315 Si02
#       7
#     2   2   2   2   2   2   2
#     4  12  24  45  72 103 143 189 235 291 356 421
#     4  10  24  44  73 107 135 191 242 288 357 421
#     4  10  24  46  72 102 144 184 239 296 349 426
#     4  12  27  46  68 108 146 184 240 292 358 426
#     4  10  24  45  71 104 143 184 240 291 355 421
#     4  11  25  44  70 107 142 187 234 295 355 424
#     4  11  24  45  73 102 145 187 235 295 355 423
#
# _framework density 24.525365000000001
#
# number of rings (size 3 to 8) (size 9 to 14) (size 15 to 20)
#    0.000    1.143    2.857    1.714    8.000    2.857 
#    0.000    1.429    0.000    0.000    0.000    0.000 
#    0.000    0.000    0.000    0.000    0.000    0.000 
#
# Total GULP energy -173479.350775 kJ/mol
# GULP energy per Si atom -12391.382198 kJ/mol
# Density = 2.446954 g / cm^3
# Si number density = 24.525365 Si / 1000 Ang^3
#
#
#
# Elastic Constant Matrix: (Units=GPa)
#
#
# Indices 1 2 3 4 5 6 
#
# 1 64.7710 23.3987 51.7975 -0.2754 -15.2007 16.0059
# 2 23.3987 99.4446 30.6953 12.2610 4.2576 24.9573
# 3 51.7975 30.6953 137.2076 15.3305 -15.0175 25.5520
# 4 -0.2754 12.2610 15.3305 34.1167 6.3392 5.1693
# 5 -15.2007 4.2576 -15.0175 6.3392 46.6569 -1.1293
# 6 16.0059 24.9573 25.5520 5.1693 -1.1293 34.8934
#
#
#
# Elastic Compliance Matrix: (Units=1/GPa)
#
#
# Indices 1 2 3 4 5 6 
#
# 1 0.025236 -0.003284 -0.008014 0.004601 0.005223 -0.003872
# 2 -0.003284 0.013233 -0.000218 -0.003174 -0.002095 -0.007397
# 3 -0.008014 -0.000218 0.011882 -0.005049 0.001821 -0.004062
# 4 0.004601 -0.003174 -0.005049 0.033782 -0.004458 -0.001292
# 5 0.005223 -0.002095 0.001821 -0.004458 0.024499 -0.000778
# 6 -0.003872 -0.007397 -0.004062 -0.001292 -0.000778 0.038866
#
#
# Mechanical properties :
#
#
# Convention : Reuss Voigt Hill
#
# Bulk Modulus (GPa) = 36.60224 57.02291 46.81257
# Shear Modulus (GPa) = 27.83418 36.16886 32.00152
#
# Velocity S-wave (km/s) = 3.37250 3.84442 3.61617
# Velocity P-wave (km/s) = 5.48832 6.55798 6.04685
#
# Compressibility (1/GPa) = 0.02732073
#
# Stress axis : x y z
#
# Youngs Moduli (GPa) = 39.62628 75.56786 84.15945
#
# Poissons Ratio (x) = 0.24813 0.67442
# Poissons Ratio (y) = 0.13011 0.01835
# Poissons Ratio (z) = 0.31755 0.01648
#
# Static dielectric constant tensor:
#      x y z
#    x 4.394440 -0.038550 -0.016030 
#    y -0.038550 4.756810 -0.274060 
#    z -0.016030 -0.274060 4.681040 
# 
# 
# High freq. dielectric constant tensor:
#      x y z
#    x 1.986570 0.000720 -0.005780 
#    y 0.000720 1.970410 -0.003240 
#    z -0.005780 -0.003240 1.983820 
# 
# From -- ./inp_files/285244.got.cif
#   From: 2010.06.25/outbox.cif.g09.slc.cpg/sg2_143_cif.got.tgz:285244.got - 2010.06.27 13:26:56.
