data_PCOD8027156
_publ_section_title
;
Structure prediction by ZEFSAII (Michael W. Deem and Ramdas Pophale) SiO2 
 PCOD8027156
Probable space group: P -1
;
_chemical_formula_sum "Si O2"
_cell_formula_units_Z 14
_cell_length_a 18.408247
_cell_length_b 11.787207
_cell_length_c 7.902151
_cell_angle_alpha 47.075130
_cell_angle_beta 126.194625
_cell_angle_gamma 151.204811
_cell_volume 604.666577
_symmetry_space_group_name_H-M "P -1"
_symmetry_group_IT_number 2
_symmetry_cell_setting 'triclinic'
loop_
_space_group_symop_operation_xyz
x,y,z
-x,-y,-z
loop_
_atom_site_type_symbol
_atom_site_label
_atom_site_fract_x
_atom_site_fract_y
_atom_site_fract_z
Si Si1 0.420201 0.990170 0.041123
Si Si2 0.368832 0.709993 0.680413
Si Si3 0.339178 0.118822 0.549670
Si Si4 0.403804 0.460640 0.770761
Si Si5 0.832592 0.909656 0.434369
Si Si6 0.859429 0.404059 0.338528
Si Si7 0.861842 0.586105 0.801389
O O1 0.278477 0.687203 0.218974
O O2 0.551707 0.233838 0.094982
O O3 0.500000 0.000000 0.000000
O O4 0.354546 0.058568 0.812791
O O5 0.341319 0.531003 0.697438
O O6 0.207218 0.567893 0.642132
O O7 0.500000 0.000000 0.500000
O O8 0.498563 0.382123 0.423359
O O9 0.236906 0.125008 0.448968
O O10 0.267783 0.902351 0.538515
O O11 0.257265 0.175488 0.778799
O O12 0.500000 0.500000 0.000000
O O13 0.835370 0.730210 0.654567
O O14 0.991780 0.217479 0.317012
O O15 0.000000 0.500000 0.500000
O O16 0.889326 0.532177 0.070926
#
# Coordination Sequence:
#
# PCOD8027156 Si02
#       7
#     2   2   2   2   2   2   2
#     4  11  20  42  74  96 130 175 238 280 326 407
#     4  12  23  43  72 103 136 177 228 288 339 398
#     4  11  24  44  67 102 130 184 233 283 334 408
#     4  12  27  42  68 107 140 178 226 283 349 407
#     4  11  25  45  68  97 145 179 228 275 349 426
#     4  11  26  43  70 102 141 176 233 290 346 398
#     4  10  24  44  69 100 129 189 228 277 348 408
#
# _framework density 23.153255999999999
#
# number of rings (size 3 to 8) (size 9 to 14) (size 15 to 20)
#    0.000    0.857    4.286    3.000    4.000    6.857 
#    0.000    1.429    0.000    0.000    0.000    0.000 
#    0.000    0.000    0.000    0.000    0.000    0.000 
#
# Total GULP energy -173469.130073 kJ/mol
# GULP energy per Si atom -12390.652148 kJ/mol
# Density = 2.310056 g / cm^3
# Si number density = 23.153256 Si / 1000 Ang^3
#
#
#
# Elastic Constant Matrix: (Units=GPa)
#
#
# Indices 1 2 3 4 5 6 
#
# 1 167.7960 36.2511 14.7420 -7.9757 4.0037 14.8265
# 2 36.2511 89.6030 19.7173 -10.8750 1.6707 24.6481
# 3 14.7420 19.7173 71.1851 0.6257 11.2394 12.8150
# 4 -7.9757 -10.8750 0.6257 36.0403 6.0693 4.3196
# 5 4.0037 1.6707 11.2394 6.0693 25.3487 3.0866
# 6 14.8265 24.6481 12.8150 4.3196 3.0866 32.4441
#
#
#
# Elastic Compliance Matrix: (Units=1/GPa)
#
#
# Indices 1 2 3 4 5 6 
#
# 1 0.006638 -0.002055 -0.000437 0.001161 -0.000830 -0.001376
# 2 -0.002055 0.016299 -0.002116 0.005836 0.000179 -0.011402
# 3 -0.000437 -0.002116 0.016537 0.000616 -0.006764 -0.004163
# 4 0.001161 0.005836 0.000616 0.032060 -0.007450 -0.008768
# 5 -0.000830 0.000179 -0.006764 -0.007450 0.044391 -0.000317
# 6 -0.001376 -0.011402 -0.004163 -0.008768 -0.000317 0.042955
#
#
# Mechanical properties :
#
#
# Convention : Reuss Voigt Hill
#
# Bulk Modulus (GPa) = 33.04937 52.22276 42.63607
# Shear Modulus (GPa) = 28.06150 35.95819 32.00985
#
# Velocity S-wave (km/s) = 3.48514 3.94515 3.72226
# Velocity P-wave (km/s) = 5.52269 6.58457 6.07687
#
# Compressibility (1/GPa) = 0.03025776
#
# Stress axis : x y z
#
# Youngs Moduli (GPa) = 150.63673 61.35481 60.47217
#
# Poissons Ratio (x) = 0.12607 0.02644
# Poissons Ratio (y) = 0.30951 0.12796
# Poissons Ratio (z) = 0.06586 0.12983
#
# Static dielectric constant tensor:
#      x y z
#    x 4.170730 0.314570 0.181140 
#    y 0.314570 4.006620 -0.132630 
#    z 0.181140 -0.132630 4.199570 
# 
# 
# High freq. dielectric constant tensor:
#      x y z
#    x 1.925140 0.004970 0.007700 
#    y 0.004970 1.917390 0.002550 
#    z 0.007700 0.002550 1.912800 
# 
# From -- ./inp_files/158544.got.cif
#   From: 2010.06.25/outbox.cif.g09.slc.cpg/sg2_80_cif.got.tgz:158544.got - 2010.06.27 13:26:56.
