data_PCOD8027830
_publ_section_title
;
Structure prediction by ZEFSAII (Michael W. Deem and Ramdas Pophale) SiO2 
 PCOD8027830
Probable space group: P -1
;
_chemical_formula_sum "Si O2"
_cell_formula_units_Z 12
_cell_length_a 7.067738
_cell_length_b 14.249741
_cell_length_c 8.621569
_cell_angle_alpha 141.122777
_cell_angle_beta 100.182099
_cell_angle_gamma 89.135207
_cell_volume 525.756816
_symmetry_space_group_name_H-M "P -1"
_symmetry_group_IT_number 2
_symmetry_cell_setting 'triclinic'
loop_
_space_group_symop_operation_xyz
x,y,z
-x,-y,-z
loop_
_atom_site_type_symbol
_atom_site_label
_atom_site_fract_x
_atom_site_fract_y
_atom_site_fract_z
Si Si1 0.007215 0.374571 0.710603
Si Si2 0.383381 0.104328 0.023620
Si Si3 0.981862 0.958946 0.626818
Si Si4 0.625296 0.397562 0.523474
Si Si5 0.632755 0.110744 0.777424
Si Si6 0.682670 0.443084 0.235861
O O1 0.059135 0.223118 0.599515
O O2 0.162518 0.429636 0.667883
O O3 0.788301 0.332023 0.555998
O O4 0.000000 0.500000 0.000000
O O5 0.491230 0.143525 0.930202
O O6 0.421962 0.269002 0.323754
O O7 0.159242 0.032243 0.860565
O O8 0.500000 0.000000 0.000000
O O9 0.804026 0.029409 0.759186
O O10 0.000000 0.000000 0.500000
O O11 0.721593 0.450440 0.437594
O O12 0.544041 0.530754 0.777057
O O13 0.500000 0.000000 0.500000
O O14 0.710786 0.284231 0.951997
#
# Coordination Sequence:
#
# PCOD8027830 Si02
#       6
#     2   2   2   2   2   2
#     4  12  27  42  72 108 143 186 240 294 357 425
#     4  11  24  45  71 103 140 182 242 288 346 420
#     4  12  26  45  72 103 146 188 234 293 353 421
#     4  10  24  47  73 101 143 190 236 295 353 423
#     4  11  25  44  73 101 141 189 232 290 358 419
#     4  10  25  46  71 101 142 187 236 293 357 422
#
# _framework density 22.824241000000001
#
# number of rings (size 3 to 8) (size 9 to 14) (size 15 to 20)
#    0.000    1.000    3.333    1.500    4.667    9.333 
#    0.000    0.000    0.000    0.000    0.000    0.000 
#    0.000    0.000    0.000    0.000    0.000    0.000 
#
# Total GULP energy -148680.248298 kJ/mol
# GULP energy per Si atom -12390.020692 kJ/mol
# Density = 2.277229 g / cm^3
# Si number density = 22.824241 Si / 1000 Ang^3
#
#
#
# Elastic Constant Matrix: (Units=GPa)
#
#
# Indices 1 2 3 4 5 6 
#
# 1 133.8115 40.9614 63.3476 12.8657 0.9532 -27.4132
# 2 40.9614 122.0566 57.6302 29.3344 5.6945 -19.9627
# 3 63.3476 57.6302 120.1084 21.1207 1.5465 -5.7482
# 4 12.8657 29.3344 21.1207 38.2656 -9.8841 -2.9736
# 5 0.9532 5.6945 1.5465 -9.8841 41.3638 2.7861
# 6 -27.4132 -19.9627 -5.7482 -2.9736 2.7861 38.0194
#
#
#
# Elastic Compliance Matrix: (Units=1/GPa)
#
#
# Indices 1 2 3 4 5 6 
#
# 1 0.011834 0.000231 -0.005885 -0.000491 -0.000726 0.007779
# 2 0.000231 0.013641 -0.004828 -0.008456 -0.004144 0.006242
# 3 -0.005885 -0.004828 0.013931 -0.002377 0.000039 -0.004861
# 4 -0.000491 -0.008456 -0.002377 0.036487 0.010188 -0.003046
# 5 -0.000726 -0.004144 0.000039 0.010188 0.027459 -0.003909
# 6 0.007779 0.006242 -0.004861 -0.003046 -0.003909 0.034502
#
#
# Mechanical properties :
#
#
# Convention : Reuss Voigt Hill
#
# Bulk Modulus (GPa) = 54.22028 77.76163 65.99096
# Shear Modulus (GPa) = 30.30914 37.79891 34.05402
#
# Velocity S-wave (km/s) = 3.64804 4.07392 3.86685
# Velocity P-wave (km/s) = 6.44604 7.50152 6.99372
#
# Compressibility (1/GPa) = 0.01844328
#
# Stress axis : x y z
#
# Youngs Moduli (GPa) = 84.49961 73.30614 71.78200
#
# Poissons Ratio (x) = -0.01695 0.42241
# Poissons Ratio (y) = -0.01953 0.34659
# Poissons Ratio (z) = 0.49725 0.35395
#
# Static dielectric constant tensor:
#      x y z
#    x 4.514030 -0.254240 -0.046270 
#    y -0.254240 4.220800 0.197010 
#    z -0.046270 0.197010 4.054880 
# 
# 
# High freq. dielectric constant tensor:
#      x y z
#    x 1.905580 -0.007870 -0.009670 
#    y -0.007870 1.909270 0.014750 
#    z -0.009670 0.014750 1.905450 
# 
# From -- ./inp_files/135961.got.cif
#   From: 2010.06.25/outbox.cif.g09.slc.cpg/sg2_68_cif.got.tgz:135961.got - 2010.06.27 13:26:56.
