data_PCOD8027150
_publ_section_title
;
Structure prediction by ZEFSAII (Michael W. Deem and Ramdas Pophale) SiO2 
 PCOD8027150
Probable space group: P -1
;
_chemical_formula_sum "Si O2"
_cell_formula_units_Z 14
_cell_length_a 21.056400
_cell_length_b 11.723504
_cell_length_c 15.266077
_cell_angle_alpha 28.937700
_cell_angle_beta 159.504264
_cell_angle_gamma 149.528340
_cell_volume 618.390986
_symmetry_space_group_name_H-M "P -1"
_symmetry_group_IT_number 2
_symmetry_cell_setting 'triclinic'
loop_
_space_group_symop_operation_xyz
x,y,z
-x,-y,-z
loop_
_atom_site_type_symbol
_atom_site_label
_atom_site_fract_x
_atom_site_fract_y
_atom_site_fract_z
Si Si1 0.237246 0.905553 0.879052
Si Si2 0.963611 0.061470 0.229689
Si Si3 0.332290 0.347311 0.572717
Si Si4 0.586866 0.110175 0.629178
Si Si5 0.133155 0.664795 0.628830
Si Si6 0.611128 0.951069 0.417142
Si Si7 0.722493 0.492763 0.911999
O O1 0.092311 0.968819 0.718897
O O2 0.313037 0.131519 0.761936
O O3 0.403257 0.826949 0.198398
O O4 0.155522 0.658819 0.883149
O O5 0.141618 0.300596 0.298454
O O6 0.793959 0.072531 0.939102
O O7 0.030939 0.828026 0.444410
O O8 0.384832 0.599964 0.523521
O O9 0.502180 0.344918 0.727085
O O10 0.429808 0.970753 0.589400
O O11 0.500000 0.000000 0.500000
O O12 0.000000 0.500000 0.500000
O O13 0.301102 0.822911 0.682100
O O14 0.209131 0.489246 0.910702
O O15 0.743946 0.761981 0.719009
#
# Coordination Sequence:
#
# PCOD8027150 Si02
#       7
#     2   2   2   2   2   2   2
#     4  11  21  42  69 101 135 174 230 283 343 392
#     4  11  25  42  66 103 137 175 232 287 332 399
#     4  11  21  40  71  98 134 179 229 278 335 402
#     4  10  25  45  68  97 143 183 224 279 348 406
#     4  12  27  45  68 100 141 180 230 280 338 410
#     4  10  24  44  68  98 134 182 226 277 342 409
#     4  11  23  43  71  98 137 181 227 279 342 403
#
# _framework density 22.639399000000001
#
# number of rings (size 3 to 8) (size 9 to 14) (size 15 to 20)
#    0.000    1.143    2.857    2.571    4.000    5.143 
#    0.000    2.857    0.000    0.000    0.000    0.000 
#    0.000    0.000    0.000    0.000    0.000    0.000 
#
# Total GULP energy -173530.858991 kJ/mol
# GULP energy per Si atom -12395.061357 kJ/mol
# Density = 2.258787 g / cm^3
# Si number density = 22.639399 Si / 1000 Ang^3
#
#
#
# Elastic Constant Matrix: (Units=GPa)
#
#
# Indices 1 2 3 4 5 6 
#
# 1 97.9879 15.1721 21.0961 12.7435 1.9602 -23.1799
# 2 15.1721 66.0187 16.7465 14.3679 -0.8116 -23.8652
# 3 21.0961 16.7465 80.7796 7.9750 -4.5488 -9.7632
# 4 12.7435 14.3679 7.9750 31.4754 -1.4263 -5.8445
# 5 1.9602 -0.8116 -4.5488 -1.4263 40.3580 -0.3255
# 6 -23.1799 -23.8652 -9.7632 -5.8445 -0.3255 30.8375
#
#
#
# Elastic Compliance Matrix: (Units=1/GPa)
#
#
# Indices 1 2 3 4 5 6 
#
# 1 0.013304 0.002010 -0.002343 -0.003883 -0.000926 0.010068
# 2 0.002010 0.023199 -0.002506 -0.007570 -0.000042 0.017236
# 3 -0.002343 -0.002506 0.013776 -0.001244 0.001576 0.000442
# 4 -0.003883 -0.007570 -0.001244 0.036760 0.001178 -0.002191
# 5 -0.000926 -0.000042 0.001576 0.001178 0.025044 0.000258
# 6 0.010068 0.017236 0.000442 -0.002191 0.000258 0.053062
#
#
# Mechanical properties :
#
#
# Convention : Reuss Voigt Hill
#
# Bulk Modulus (GPa) = 22.42149 38.97949 30.70049
# Shear Modulus (GPa) = 26.92680 33.31895 30.12288
#
# Velocity S-wave (km/s) = 3.45248 3.84047 3.65163
# Velocity P-wave (km/s) = 5.08115 6.07623 5.60083
#
# Compressibility (1/GPa) = 0.04460007
#
# Stress axis : x y z
#
# Youngs Moduli (GPa) = 75.16672 43.10622 72.59130
#
# Poissons Ratio (x) = -0.08665 0.17008
# Poissons Ratio (y) = -0.15110 0.18192
# Poissons Ratio (z) = 0.17612 0.10803
#
# Static dielectric constant tensor:
#      x y z
#    x 4.322560 -0.040770 0.088500 
#    y -0.040770 3.837630 0.113150 
#    z 0.088500 0.113150 4.378210 
# 
# 
# High freq. dielectric constant tensor:
#      x y z
#    x 1.908590 -0.001010 -0.003150 
#    y -0.001010 1.862670 -0.004460 
#    z -0.003150 -0.004460 1.911800 
# 
# From -- ./inp_files/207292.got.cif
#   From: 2010.06.25/outbox.cif.g09.slc.cpg/sg2_104_cif.got.tgz:207292.got - 2010.06.27 13:26:56.
