data_PCOD8027778
_publ_section_title
;
Structure prediction by ZEFSAII (Michael W. Deem and Ramdas Pophale) SiO2 
 PCOD8027778
Probable space group: P -1
;
_chemical_formula_sum "Si O2"
_cell_formula_units_Z 12
_cell_length_a 9.538385
_cell_length_b 11.618870
_cell_length_c 14.350427
_cell_angle_alpha 32.699907
_cell_angle_beta 131.197876
_cell_angle_gamma 109.547291
_cell_volume 543.944996
_symmetry_space_group_name_H-M "P -1"
_symmetry_group_IT_number 2
_symmetry_cell_setting 'triclinic'
loop_
_space_group_symop_operation_xyz
x,y,z
-x,-y,-z
loop_
_atom_site_type_symbol
_atom_site_label
_atom_site_fract_x
_atom_site_fract_y
_atom_site_fract_z
Si Si1 0.955848 0.940530 0.621826
Si Si2 0.550633 0.914575 0.474673
Si Si3 0.152872 0.942472 0.974682
Si Si4 0.595225 0.401027 0.842063
Si Si5 0.848335 0.378441 0.409561
Si Si6 0.835301 0.806570 0.013261
O O1 0.799062 0.832676 0.615882
O O2 0.829877 0.193042 0.456735
O O3 0.000000 0.000000 0.500000
O O4 0.185560 0.728951 0.911476
O O5 0.519092 0.686687 0.593424
O O6 0.500000 0.000000 0.500000
O O7 0.374293 0.139325 0.176810
O O8 0.011486 0.814949 0.017719
O O9 0.360849 0.751083 0.131490
O O10 0.008372 0.215837 0.675313
O O11 0.241515 0.982435 0.083091
O O12 0.394946 0.409463 0.802720
O O13 0.942338 0.527468 0.295171
#
# Coordination Sequence:
#
# PCOD8027778 Si02
#       6
#     2   2   2   2   2   2
#     4  11  25  39  63  98 129 170 218 256 323 389
#     4  12  23  42  66  96 132 172 209 265 326 379
#     4  10  24  47  64  98 128 169 222 263 323 377
#     4  11  23  43  67  90 136 170 210 272 317 380
#     4  11  23  45  66  98 131 167 216 271 317 380
#     4  11  24  43  71  93 131 173 213 270 320 380
#
# _framework density 22.061053000000001
#
# number of rings (size 3 to 8) (size 9 to 14) (size 15 to 20)
#    0.000    1.000    3.333    3.000    4.667    2.667 
#    0.000    0.000    0.000    0.000    0.000    0.000 
#    0.000    0.000    0.000    0.000    0.000    0.000 
#
# Total GULP energy -148870.441244 kJ/mol
# GULP energy per Si atom -12405.870104 kJ/mol
# Density = 2.201084 g / cm^3
# Si number density = 22.061053 Si / 1000 Ang^3
#
#
#
# Elastic Constant Matrix: (Units=GPa)
#
#
# Indices 1 2 3 4 5 6 
#
# 1 104.5408 12.9696 54.8127 6.4069 -7.1254 -15.1557
# 2 12.9696 75.4081 24.5111 12.5328 1.0748 -19.9603
# 3 54.8127 24.5111 88.2099 -5.3216 -7.0138 -2.6659
# 4 6.4069 12.5328 -5.3216 32.2941 0.5838 -5.2231
# 5 -7.1254 1.0748 -7.0138 0.5838 43.3043 -9.3140
# 6 -15.1557 -19.9603 -2.6659 -5.2231 -9.3140 37.5341
#
#
#
# Elastic Compliance Matrix: (Units=1/GPa)
#
#
# Indices 1 2 3 4 5 6 
#
# 1 0.016642 0.003717 -0.011259 -0.005387 0.002569 0.007784
# 2 0.003717 0.019136 -0.007686 -0.007778 0.001223 0.010352
# 3 -0.011259 -0.007686 0.020773 0.007661 0.000305 -0.006016
# 4 -0.005387 -0.007778 0.007661 0.036195 -0.000103 -0.000756
# 5 0.002569 0.001223 0.000305 -0.000103 0.025248 0.007961
# 6 0.007784 0.010352 -0.006016 -0.000756 0.007961 0.036734
#
#
# Mechanical properties :
#
#
# Convention : Reuss Voigt Hill
#
# Bulk Modulus (GPa) = 38.32311 50.30507 44.31409
# Shear Modulus (GPa) = 25.78890 34.35083 30.06986
#
# Velocity S-wave (km/s) = 3.42274 3.95027 3.69593
# Velocity P-wave (km/s) = 5.74711 6.60744 6.19224
#
# Compressibility (1/GPa) = 0.02609392
#
# Stress axis : x y z
#
# Youngs Moduli (GPa) = 60.08979 52.25841 48.13870
#
# Poissons Ratio (x) = -0.19423 0.54200
# Poissons Ratio (y) = -0.22334 0.36999
# Poissons Ratio (z) = 0.67656 0.40165
#
# Static dielectric constant tensor:
#      x y z
#    x 3.933160 -0.304400 -0.224090 
#    y -0.304400 3.705430 -0.149600 
#    z -0.224090 -0.149600 3.870550 
# 
# 
# High freq. dielectric constant tensor:
#      x y z
#    x 1.878730 -0.008220 -0.011810 
#    y -0.008220 1.870530 0.002550 
#    z -0.011810 0.002550 1.861890 
# 
# From -- ./inp_files/21568.got.cif
#   From: 2010.06.25/outbox.cif.g09.slc.cpg/sg2_11_cif.got.tgz:21568.got - 2010.06.27 13:26:56.
