data_PCOD8027866
_publ_section_title
;
Structure prediction by ZEFSAII (Michael W. Deem and Ramdas Pophale) SiO2 
 PCOD8027866
Probable space group: P -1
;
_chemical_formula_sum "Si O2"
_cell_formula_units_Z 16
_cell_length_a 14.793705
_cell_length_b 8.345262
_cell_length_c 13.879798
_cell_angle_alpha 100.188268
_cell_angle_beta 150.477374
_cell_angle_gamma 96.576537
_cell_volume 692.157186
_symmetry_space_group_name_H-M "P -1"
_symmetry_group_IT_number 2
_symmetry_cell_setting 'triclinic'
loop_
_space_group_symop_operation_xyz
x,y,z
-x,-y,-z
loop_
_atom_site_type_symbol
_atom_site_label
_atom_site_fract_x
_atom_site_fract_y
_atom_site_fract_z
Si Si1 0.266753 0.807015 0.266810
Si Si2 0.588457 0.931493 0.899091
Si Si3 0.985625 0.157475 0.808608
Si Si4 0.598011 0.483672 0.689373
Si Si5 0.039108 0.191552 0.462592
Si Si6 0.301432 0.466237 0.567621
Si Si7 0.075555 0.847193 0.913489
Si Si8 0.836516 0.097666 0.451423
O O1 0.178577 0.792137 0.290748
O O2 0.278722 0.625805 0.227064
O O3 0.500000 0.000000 0.500000
O O4 0.097275 0.826066 0.044783
O O5 0.454050 0.697745 0.742613
O O6 0.419256 0.978503 0.789724
O O7 0.674320 0.028131 0.883430
O O8 0.814549 0.032461 0.180435
O O9 0.965965 0.187170 0.680579
O O10 0.939512 0.945469 0.769575
O O11 0.230367 0.301282 0.089331
O O12 0.500000 0.500000 0.500000
O O13 0.420900 0.387487 0.602230
O O14 0.225638 0.378408 0.595334
O O15 0.966697 0.252215 0.500090
O O16 0.168466 0.093004 0.602721
O O17 0.066449 0.374510 0.284969
#
# Coordination Sequence:
#
# PCOD8027866 Si02
#       8
#     2   2   2   2   2   2   2   2
#     4  12  26  40  68  99 136 184 233 272 353 413
#     4  11  23  43  71  99 139 182 225 287 343 407
#     4  12  23  45  67  97 141 181 229 289 342 407
#     4  12  26  43  67 104 140 180 231 285 341 415
#     4  10  24  48  67 104 135 181 229 288 342 411
#     4  11  23  44  70  95 138 179 227 276 345 403
#     4  11  23  44  66 100 138 179 229 285 336 411
#     4  11  23  43  75  95 141 178 228 288 349 399
#
# _framework density 23.116136999999998
#
# number of rings (size 3 to 8) (size 9 to 14) (size 15 to 20)
#    0.000    0.750    3.750    4.125    5.250    0.500 
#    0.000    5.625    0.000    0.000    0.000    0.000 
#    0.000    0.000    0.000    0.000    0.000    0.000 
#
# Total GULP energy -198218.808397 kJ/mol
# GULP energy per Si atom -12388.675525 kJ/mol
# Density = 2.306352 g / cm^3
# Si number density = 23.116137 Si / 1000 Ang^3
#
#
#
# Elastic Constant Matrix: (Units=GPa)
#
#
# Indices 1 2 3 4 5 6 
#
# 1 174.3862 41.5961 42.5570 -3.5095 14.5984 3.8394
# 2 41.5961 72.3016 41.2988 -2.0019 4.0602 -6.7721
# 3 42.5570 41.2988 101.1566 15.1535 7.6900 4.7062
# 4 -3.5095 -2.0019 15.1535 34.9732 -2.2101 6.0851
# 5 14.5984 4.0602 7.6900 -2.2101 42.4039 -11.7526
# 6 3.8394 -6.7721 4.7062 6.0851 -11.7526 32.6014
#
#
#
# Elastic Compliance Matrix: (Units=1/GPa)
#
#
# Indices 1 2 3 4 5 6 
#
# 1 0.007201 -0.003269 -0.001618 0.001509 -0.002478 -0.002469
# 2 -0.003269 0.020904 -0.008157 0.003490 0.002490 0.006151
# 3 -0.001618 -0.008157 0.015287 -0.006831 -0.002739 -0.003423
# 4 0.001509 0.003490 -0.006831 0.032700 0.000914 -0.004241
# 5 -0.002478 0.002490 -0.002739 0.000914 0.027807 0.011058
# 6 -0.002469 0.006151 -0.003423 -0.004241 0.011058 0.037514
#
#
# Mechanical properties :
#
#
# Convention : Reuss Voigt Hill
#
# Bulk Modulus (GPa) = 57.78955 66.52758 62.15856
# Shear Modulus (GPa) = 28.85666 36.82185 32.83926
#
# Velocity S-wave (km/s) = 3.53701 3.99545 3.77320
# Velocity P-wave (km/s) = 6.46023 7.08005 6.77723
#
# Compressibility (1/GPa) = 0.01730417
#
# Stress axis : x y z
#
# Youngs Moduli (GPa) = 138.86630 47.83716 65.41339
#
# Poissons Ratio (x) = 0.15639 0.10582
# Poissons Ratio (y) = 0.45398 0.53361
# Poissons Ratio (z) = 0.22465 0.39023
#
# Static dielectric constant tensor:
#      x y z
#    x 5.358390 0.494890 0.288390 
#    y 0.494890 3.104020 0.131840 
#    z 0.288390 0.131840 4.171440 
# 
# 
# High freq. dielectric constant tensor:
#      x y z
#    x 1.941770 0.001730 0.009960 
#    y 0.001730 1.888250 -0.000680 
#    z 0.009960 -0.000680 1.918350 
# 
# From -- ./inp_files/530039.got.cif
#   From: 2010.06.25/outbox.cif.g09.slc.cpg/sg2_266_cif.got.tgz:530039.got - 2010.06.27 13:26:56.
