data_PCOD8027404
_publ_section_title
;
Structure prediction by ZEFSAII (Michael W. Deem and Ramdas Pophale) SiO2 
 PCOD8027404
Probable space group: P -1
;
_chemical_formula_sum "Si O2"
_cell_formula_units_Z 12
_cell_length_a 14.548230
_cell_length_b 14.374505
_cell_length_c 11.461653
_cell_angle_alpha 45.279253
_cell_angle_beta 28.148750
_cell_angle_gamma 28.175575
_cell_volume 503.939797
_symmetry_space_group_name_H-M "P -1"
_symmetry_group_IT_number 2
_symmetry_cell_setting 'triclinic'
loop_
_space_group_symop_operation_xyz
x,y,z
-x,-y,-z
loop_
_atom_site_type_symbol
_atom_site_label
_atom_site_fract_x
_atom_site_fract_y
_atom_site_fract_z
Si Si1 0.207010 0.843521 0.514478
Si Si2 0.894532 0.395335 0.151270
Si Si3 0.132967 0.917448 0.105425
Si Si4 0.140861 0.489827 0.664750
Si Si5 0.246901 0.704547 0.953197
Si Si6 0.770003 0.591601 0.780618
O O1 0.573530 0.640917 0.257125
O O2 0.103941 0.754757 0.756983
O O3 0.000000 0.000000 0.500000
O O4 0.134279 0.972462 0.595518
O O5 0.946831 0.365832 0.259122
O O6 0.167887 0.331217 0.835626
O O7 0.218541 0.738663 0.096201
O O8 0.428657 0.818617 0.930851
O O9 0.052600 0.071674 0.966408
O O10 0.457115 0.369985 0.357980
O O11 0.874201 0.620423 0.750463
O O12 0.249713 0.553461 0.043793
O O13 0.000000 0.500000 0.500000
#
# Coordination Sequence:
#
# PCOD8027404 Si02
#       6
#     2   2   2   2   2   2
#     4  11  23  42  72 100 134 179 227 281 334 398
#     4  10  24  45  67  97 140 180 225 277 333 404
#     4  11  24  45  69 103 133 179 229 274 341 403
#     4  11  23  46  72  96 135 188 221 271 350 395
#     4  11  25  47  71  97 141 179 220 288 339 398
#     4  12  26  44  69 105 137 176 224 281 344 403
#
# _framework density 23.812366999999998
#
# number of rings (size 3 to 8) (size 9 to 14) (size 15 to 20)
#    0.000    1.000    3.333    2.500    4.667    0.667 
#    6.000   10.833    0.000    0.000    0.000    0.000 
#    0.000    0.000    0.000    0.000    0.000    0.000 
#
# Total GULP energy -148741.816145 kJ/mol
# GULP energy per Si atom -12395.151345 kJ/mol
# Density = 2.375817 g / cm^3
# Si number density = 23.812367 Si / 1000 Ang^3
#
#
#
# Elastic Constant Matrix: (Units=GPa)
#
#
# Indices 1 2 3 4 5 6 
#
# 1 134.8255 29.2334 18.5708 10.4406 0.0919 -19.3860
# 2 29.2334 66.9073 51.0154 8.1754 -12.7102 -13.0809
# 3 18.5708 51.0154 106.2979 -11.5093 3.6641 7.0784
# 4 10.4406 8.1754 -11.5093 26.9875 -0.3621 -5.0922
# 5 0.0919 -12.7102 3.6641 -0.3621 46.3291 3.6830
# 6 -19.3860 -13.0809 7.0784 -5.0922 3.6830 33.6024
#
#
#
# Elastic Compliance Matrix: (Units=1/GPa)
#
#
# Indices 1 2 3 4 5 6 
#
# 1 0.008811 -0.002088 -0.001052 -0.002441 -0.000861 0.004216
# 2 -0.002088 0.040090 -0.022203 -0.017798 0.011417 0.015130
# 3 -0.001052 -0.022203 0.022812 0.014680 -0.006898 -0.011075
# 4 -0.002441 -0.017798 0.014680 0.048932 -0.005384 -0.003423
# 5 -0.000861 0.011417 -0.006898 -0.005384 0.025076 0.001836
# 6 0.004216 0.015130 -0.011075 -0.003423 0.001836 0.039695
#
#
# Mechanical properties :
#
#
# Convention : Reuss Voigt Hill
#
# Bulk Modulus (GPa) = 47.56390 56.18553 51.87471
# Shear Modulus (GPa) = 20.56665 35.33124 27.94894
#
# Velocity S-wave (km/s) = 2.94206 3.85611 3.42967
# Velocity P-wave (km/s) = 5.61772 6.59336 6.12500
#
# Compressibility (1/GPa) = 0.02102435
#
# Stress axis : x y z
#
# Youngs Moduli (GPa) = 113.50018 24.94409 43.83623
#
# Poissons Ratio (x) = 0.05209 0.04614
# Poissons Ratio (y) = 0.23700 0.97332
# Poissons Ratio (z) = 0.11945 0.55384
#
# Static dielectric constant tensor:
#      x y z
#    x 4.789000 -0.102420 -0.046080 
#    y -0.102420 3.964040 -0.131640 
#    z -0.046080 -0.131640 4.003770 
# 
# 
# High freq. dielectric constant tensor:
#      x y z
#    x 1.972450 -0.009570 0.009170 
#    y -0.009570 1.918270 0.001280 
#    z 0.009170 0.001280 1.941300 
# 
# From -- ./inp_files/452901.got.cif
#   From: 2010.06.25/outbox.cif.g09.slc.cpg/sg2_227_cif.got.tgz:452901.got - 2010.06.27 13:26:56.
