data_PCOD8027504
_publ_section_title
;
Structure prediction by ZEFSAII (Michael W. Deem and Ramdas Pophale) SiO2 
 PCOD8027504
Probable space group: P -1
;
_chemical_formula_sum "Si O2"
_cell_formula_units_Z 16
_cell_length_a 22.658227
_cell_length_b 20.079671
_cell_length_c 9.290680
_cell_angle_alpha 29.556054
_cell_angle_beta 137.173349
_cell_angle_gamma 157.753807
_cell_volume 728.857954
_symmetry_space_group_name_H-M "P -1"
_symmetry_group_IT_number 2
_symmetry_cell_setting 'triclinic'
loop_
_space_group_symop_operation_xyz
x,y,z
-x,-y,-z
loop_
_atom_site_type_symbol
_atom_site_label
_atom_site_fract_x
_atom_site_fract_y
_atom_site_fract_z
Si Si1 0.693131 0.285908 0.303644
Si Si2 0.004398 0.159896 0.666637
Si Si3 0.748393 0.567000 0.638451
Si Si4 0.346744 0.266319 0.774926
Si Si5 0.134647 0.740593 0.393963
Si Si6 0.448077 0.078152 0.815279
Si Si7 0.365982 0.221350 0.217558
Si Si8 0.157687 0.549442 0.429446
O O1 0.748395 0.229354 0.415408
O O2 0.776900 0.417388 0.362460
O O3 0.500000 0.000000 0.500000
O O4 0.730867 0.473271 0.936162
O O5 0.080893 0.263723 0.446829
O O6 0.147275 0.417836 0.539916
O O7 0.821204 0.984062 0.679171
O O8 0.000000 0.000000 0.000000
O O9 0.760133 0.742187 0.364353
O O10 0.587177 0.328753 0.696383
O O11 0.500000 0.500000 0.500000
O O12 0.398216 0.267108 0.017918
O O13 0.228455 0.992079 0.009959
O O14 0.000000 0.500000 0.500000
O O15 0.036955 0.659553 0.514344
O O16 0.406594 0.123250 0.525190
O O17 0.276532 0.830881 0.064499
O O18 0.500000 0.000000 0.000000
O O19 0.500000 0.500000 0.000000
#
# Coordination Sequence:
#
# PCOD8027504 Si02
#       8
#     2   2   2   2   2   2   2   2
#     4  11  24  44  72 106 143 190 240 298 367 428
#     4  12  24  49  74 101 150 189 242 307 363 440
#     4  12  25  47  71 111 148 190 242 303 361 440
#     4  12  26  48  75 103 147 190 243 299 367 435
#     4  10  24  45  70 102 145 187 242 299 362 436
#     4  12  26  43  74 110 144 190 245 297 362 435
#     4  12  27  49  75 106 144 196 244 301 375 431
#     4  11  24  45  73 102 148 189 240 302 364 430
#
# _framework density 21.952152000000002
#
# number of rings (size 3 to 8) (size 9 to 14) (size 15 to 20)
#    0.000    0.500    6.250    0.750    5.250    1.500 
#    2.250    3.125    0.000    0.000    0.000    0.000 
#    0.000    0.000    0.000    0.000    0.000    0.000 
#
# Total GULP energy -198324.652130 kJ/mol
# GULP energy per Si atom -12395.290758 kJ/mol
# Density = 2.190219 g / cm^3
# Si number density = 21.952152 Si / 1000 Ang^3
#
#
#
# Elastic Constant Matrix: (Units=GPa)
#
#
# Indices 1 2 3 4 5 6 
#
# 1 103.0725 46.3746 51.1013 5.2179 3.4450 4.0814
# 2 46.3746 100.7724 57.6657 -2.2281 1.6979 6.8145
# 3 51.1013 57.6657 168.9865 10.7980 0.1500 -1.4626
# 4 5.2179 -2.2281 10.7980 48.8500 1.0372 1.3632
# 5 3.4450 1.6979 0.1500 1.0372 54.5179 -4.8974
# 6 4.0814 6.8145 -1.4626 1.3632 -4.8974 38.2725
#
#
#
# Elastic Compliance Matrix: (Units=1/GPa)
#
#
# Indices 1 2 3 4 5 6 
#
# 1 0.013037 -0.004651 -0.002293 -0.001063 -0.000716 -0.000703
# 2 -0.004651 0.014356 -0.003642 0.002030 -0.000390 -0.002322
# 3 -0.002293 -0.003642 0.007975 -0.001729 0.000387 0.001309
# 4 -0.001063 0.002030 -0.001729 0.021101 -0.000494 -0.001129
# 5 -0.000716 -0.000390 0.000387 -0.000494 0.018639 0.002563
# 6 -0.000703 -0.002322 0.001309 -0.001129 0.002563 0.027035
#
#
# Mechanical properties :
#
#
# Convention : Reuss Voigt Hill
#
# Bulk Modulus (GPa) = 70.43955 75.90163 73.17059
# Shear Modulus (GPa) = 39.04812 42.84074 40.94443
#
# Velocity S-wave (km/s) = 4.22214 4.42243 4.32344
# Velocity P-wave (km/s) = 7.47837 7.79283 7.63722
#
# Compressibility (1/GPa) = 0.01419657
#
# Stress axis : x y z
#
# Youngs Moduli (GPa) = 76.70528 69.65541 125.38976
#
# Poissons Ratio (x) = 0.32400 0.28747
# Poissons Ratio (y) = 0.35679 0.45666
# Poissons Ratio (z) = 0.17585 0.25368
#
# Static dielectric constant tensor:
#      x y z
#    x 19.248880 4.439840 0.038600 
#    y 4.439840 5.469560 -0.293000 
#    z 0.038600 -0.293000 4.216830 
# 
# 
# High freq. dielectric constant tensor:
#      x y z
#    x 1.878210 0.004860 0.003610 
#    y 0.004860 1.861620 -0.018360 
#    z 0.003610 -0.018360 1.875750 
# 
# From -- ./inp_files/355260.got.cif
#   From: 2010.06.25/outbox.cif.g09.slc.cpg/sg2_178_cif.got.tgz:355260.got - 2010.06.27 13:26:56.
