data_PCOD8027839
_publ_section_title
;
Structure prediction by ZEFSAII (Michael W. Deem and Ramdas Pophale) SiO2 
 PCOD8027839
Probable space group: P -1
;
_chemical_formula_sum "Si O2"
_cell_formula_units_Z 14
_cell_length_a 6.809756
_cell_length_b 7.666055
_cell_length_c 17.196173
_cell_angle_alpha 70.523832
_cell_angle_beta 45.992643
_cell_angle_gamma 84.941511
_cell_volume 594.951295
_symmetry_space_group_name_H-M "P -1"
_symmetry_group_IT_number 2
_symmetry_cell_setting 'triclinic'
loop_
_space_group_symop_operation_xyz
x,y,z
-x,-y,-z
loop_
_atom_site_type_symbol
_atom_site_label
_atom_site_fract_x
_atom_site_fract_y
_atom_site_fract_z
Si Si1 0.321590 0.020810 0.758145
Si Si2 0.194762 0.396642 0.792868
Si Si3 0.109790 0.194116 0.990693
Si Si4 0.761278 0.787423 0.700286
Si Si5 0.235327 0.051258 0.602219
Si Si6 0.204848 0.362612 0.446206
Si Si7 0.396969 0.560761 0.102915
O O1 0.309682 0.203437 0.785069
O O2 0.274428 0.094549 0.674985
O O3 0.613409 0.960143 0.695582
O O4 0.096553 0.833038 0.874259
O O5 0.092362 0.377665 0.914589
O O6 0.461717 0.559380 0.673204
O O7 0.924347 0.412542 0.814207
O O8 0.416615 0.242992 0.941691
O O9 0.000000 0.000000 0.000000
O O10 0.907181 0.745036 0.586079
O O11 0.574469 0.601266 0.818332
O O12 0.992224 0.866318 0.688812
O O13 0.168376 0.232701 0.551131
O O14 0.500000 0.000000 0.500000
O O15 0.000000 0.500000 0.500000
O O16 0.500000 0.500000 0.000000
#
# Coordination Sequence:
#
# PCOD8027839 Si02
#       7
#     2   2   2   2   2   2   2
#     4  11  26  45  74 102 141 189 235 290 365 424
#     4  11  26  48  73 107 143 189 243 293 364 434
#     4  10  24  47  74 104 150 185 240 297 368 430
#     4  12  26  46  70 103 146 183 242 294 364 422
#     4  12  26  45  70 102 143 188 243 292 356 431
#     4  12  27  46  74 102 145 192 239 297 358 423
#     4  12  26  43  78 112 146 188 243 303 365 433
#
# _framework density 23.531338000000002
#
# number of rings (size 3 to 8) (size 9 to 14) (size 15 to 20)
#    0.000    0.571    2.857    3.857    6.000    6.286 
#    0.000    0.000    0.000    0.000    0.000    0.000 
#    0.000    0.000    0.000    0.000    0.000    0.000 
#
# Total GULP energy -173437.477479 kJ/mol
# GULP energy per Si atom -12388.391248 kJ/mol
# Density = 2.347778 g / cm^3
# Si number density = 23.531338 Si / 1000 Ang^3
#
#
#
# Elastic Constant Matrix: (Units=GPa)
#
#
# Indices 1 2 3 4 5 6 
#
# 1 108.8041 27.0014 34.2743 -4.3638 -2.2543 0.0432
# 2 27.0014 89.2467 13.8156 1.5166 -2.7204 -16.7508
# 3 34.2743 13.8156 115.2672 -9.6969 15.4282 2.4847
# 4 -4.3638 1.5166 -9.6969 33.6648 -1.6916 -7.9445
# 5 -2.2543 -2.7204 15.4282 -1.6916 54.4022 -10.4372
# 6 0.0432 -16.7508 2.4847 -7.9445 -10.4372 33.9991
#
#
#
# Elastic Compliance Matrix: (Units=1/GPa)
#
#
# Indices 1 2 3 4 5 6 
#
# 1 0.010903 -0.002976 -0.002955 0.000551 0.000999 -0.000829
# 2 -0.002976 0.013818 -0.001213 0.000601 0.002424 0.007785
# 3 -0.002955 -0.001213 0.010371 0.002031 -0.003432 -0.001931
# 4 0.000551 0.000601 0.002031 0.032412 0.002089 0.008362
# 5 0.000999 0.002424 -0.003432 0.002089 0.021202 0.008440
# 6 -0.000829 0.007785 -0.001931 0.008362 0.008440 0.037935
#
#
# Mechanical properties :
#
#
# Convention : Reuss Voigt Hill
#
# Bulk Modulus (GPa) = 48.06529 51.50008 49.78268
# Shear Modulus (GPa) = 33.81489 40.29500 37.05494
#
# Velocity S-wave (km/s) = 3.79491 4.14260 3.97256
# Velocity P-wave (km/s) = 6.29859 6.69438 6.49950
#
# Compressibility (1/GPa) = 0.02080504
#
# Stress axis : x y z
#
# Youngs Moduli (GPa) = 91.71568 72.37056 96.41991
#
# Poissons Ratio (x) = 0.21536 0.28491
# Poissons Ratio (y) = 0.27292 0.11696
# Poissons Ratio (z) = 0.27101 0.08779
#
# Static dielectric constant tensor:
#      x y z
#    x 4.333670 0.227360 -0.129460 
#    y 0.227360 3.861990 0.026760 
#    z -0.129460 0.026760 4.436810 
# 
# 
# High freq. dielectric constant tensor:
#      x y z
#    x 1.939520 0.003630 0.006680 
#    y 0.003630 1.919460 -0.008690 
#    z 0.006680 -0.008690 1.957780 
# 
# From -- ./inp_files/134064.got.cif
#   From: 2010.06.25/outbox.cif.g09.slc.cpg/sg2_68_cif.got.tgz:134064.got - 2010.06.27 13:26:56.
