data_PCOD8027564
_publ_section_title
;
Structure prediction by ZEFSAII (Michael W. Deem and Ramdas Pophale) SiO2 
 PCOD8027564
Probable space group: P -1
;
_chemical_formula_sum "Si O2"
_cell_formula_units_Z 16
_cell_length_a 16.464583
_cell_length_b 14.054064
_cell_length_c 8.662086
_cell_angle_alpha 77.307019
_cell_angle_beta 60.823558
_cell_angle_gamma 28.198366
_cell_volume 711.904232
_symmetry_space_group_name_H-M "P -1"
_symmetry_group_IT_number 2
_symmetry_cell_setting 'triclinic'
loop_
_space_group_symop_operation_xyz
x,y,z
-x,-y,-z
loop_
_atom_site_type_symbol
_atom_site_label
_atom_site_fract_x
_atom_site_fract_y
_atom_site_fract_z
Si Si1 0.559062 0.045836 0.621642
Si Si2 0.992682 0.703078 0.516453
Si Si3 0.969194 0.182874 0.799537
Si Si4 0.327856 0.431739 0.847548
Si Si5 0.681540 0.089153 0.903502
Si Si6 0.327690 0.717411 0.978357
Si Si7 0.445586 0.173878 0.333375
Si Si8 0.542233 0.355282 0.442060
O O1 0.369513 0.278264 0.822822
O O2 0.539199 0.102688 0.443921
O O3 0.509261 0.979576 0.705305
O O4 0.806651 0.834734 0.527945
O O5 0.107290 0.687541 0.330993
O O6 0.180291 0.445278 0.474794
O O7 0.887642 0.836325 0.727552
O O8 0.913830 0.308391 0.951297
O O9 0.858453 0.183140 0.934309
O O10 0.227122 0.916370 0.630837
O O11 0.506387 0.293371 0.863266
O O12 0.356398 0.462421 0.649336
O O13 0.781365 0.088993 0.896735
O O14 0.569614 0.124519 0.116951
O O15 0.468305 0.627098 0.738009
O O16 0.500000 0.500000 0.000000
O O17 0.500000 0.500000 0.500000
#
# Coordination Sequence:
#
# PCOD8027564 Si02
#       8
#     2   2   2   2   2   2   2   2
#     4  10  24  45  73 100 139 175 226 280 344 404
#     4  11  24  45  69 100 138 180 226 278 337 411
#     4  12  24  43  66  96 134 176 227 263 341 397
#     4  11  22  44  66  96 136 174 219 281 335 402
#     4  11  23  43  64 100 135 171 230 277 334 399
#     4  12  24  42  65  95 132 178 220 280 326 399
#     4  11  23  48  69 103 136 177 224 286 340 402
#     4  12  24  43  64  92 133 174 226 274 328 402
#
# _framework density 22.474933
#
# number of rings (size 3 to 8) (size 9 to 14) (size 15 to 20)
#    0.000    0.750    6.250    1.500    0.000    3.500 
#    4.500    1.250    0.000    0.000    0.000    0.000 
#    0.000    0.000    0.000    0.000    0.000    0.000 
#
# Total GULP energy -198364.332853 kJ/mol
# GULP energy per Si atom -12397.770803 kJ/mol
# Density = 2.242378 g / cm^3
# Si number density = 22.474933 Si / 1000 Ang^3
#
#
#
# Elastic Constant Matrix: (Units=GPa)
#
#
# Indices 1 2 3 4 5 6 
#
# 1 103.1782 33.8285 38.1640 7.8220 27.9547 20.1908
# 2 33.8285 99.4509 30.7276 3.5636 13.6901 9.7138
# 3 38.1640 30.7276 106.9254 8.0426 18.7000 10.2906
# 4 7.8220 3.5636 8.0426 44.4670 10.0415 10.2779
# 5 27.9547 13.6901 18.7000 10.0415 34.7681 2.5611
# 6 20.1908 9.7138 10.2906 10.2779 2.5611 31.0131
#
#
#
# Elastic Compliance Matrix: (Units=1/GPa)
#
#
# Indices 1 2 3 4 5 6 
#
# 1 0.015692 -0.002403 -0.002443 0.002183 -0.010360 -0.008521
# 2 -0.002403 0.011895 -0.002173 0.000579 -0.001640 -0.001497
# 3 -0.002443 -0.002173 0.011549 -0.000510 -0.003161 -0.001131
# 4 0.002183 0.000579 -0.000510 0.026272 -0.008602 -0.009430
# 5 -0.010360 -0.001640 -0.003161 -0.008602 0.041352 0.007743
# 6 -0.008521 -0.001497 -0.001131 -0.009430 0.007743 0.041122
#
#
# Mechanical properties :
#
#
# Convention : Reuss Voigt Hill
#
# Bulk Modulus (GPa) = 39.84347 57.22164 48.53256
# Shear Modulus (GPa) = 29.36239 35.83860 32.60050
#
# Velocity S-wave (km/s) = 3.61841 3.99758 3.81271
# Velocity P-wave (km/s) = 5.93495 6.84273 6.40494
#
# Compressibility (1/GPa) = 0.02509821
#
# Stress axis : x y z
#
# Youngs Moduli (GPa) = 63.72639 84.06713 86.58903
#
# Poissons Ratio (x) = 0.20200 0.21151
# Poissons Ratio (y) = 0.15312 0.18820
# Poissons Ratio (z) = 0.15566 0.18272
#
# Static dielectric constant tensor:
#      x y z
#    x -2.777190 -0.709430 4.456300 
#    y -0.709430 4.122720 0.514760 
#    z 4.456300 0.514760 1.659790 
# 
# 
# High freq. dielectric constant tensor:
#      x y z
#    x 1.872530 0.018820 0.021470 
#    y 0.018820 1.899230 -0.005470 
#    z 0.021470 -0.005470 1.893590 
# 
# From -- ./inp_files/222693.got.cif
#   From: 2010.06.25/outbox.cif.g09.slc.cpg/sg2_112_cif.got.tgz:222693.got - 2010.06.27 13:26:56.
