data_PCOD8027701
_publ_section_title
;
Structure prediction by ZEFSAII (Michael W. Deem and Ramdas Pophale) SiO2 
 PCOD8027701
Probable space group: P -1
;
_chemical_formula_sum "Si O2"
_cell_formula_units_Z 16
_cell_length_a 8.397987
_cell_length_b 22.125937
_cell_length_c 18.983918
_cell_angle_alpha 158.439506
_cell_angle_beta 43.075829
_cell_angle_gamma 145.298859
_cell_volume 728.066800
_symmetry_space_group_name_H-M "P -1"
_symmetry_group_IT_number 2
_symmetry_cell_setting 'triclinic'
loop_
_space_group_symop_operation_xyz
x,y,z
-x,-y,-z
loop_
_atom_site_type_symbol
_atom_site_label
_atom_site_fract_x
_atom_site_fract_y
_atom_site_fract_z
Si Si1 0.177740 0.160689 0.460360
Si Si2 0.378486 0.117113 0.862933
Si Si3 0.269460 0.823063 0.053238
Si Si4 0.826890 0.734572 0.578034
Si Si5 0.386595 0.002299 0.463732
Si Si6 0.691017 0.539752 0.769976
Si Si7 0.325898 0.539018 0.151531
Si Si8 0.273792 0.640978 0.721067
O O1 0.108243 0.239589 0.498407
O O2 0.487665 0.323756 0.566568
O O3 0.949980 0.103710 0.534192
O O4 0.158800 0.963317 0.231460
O O5 0.493985 0.092330 0.871823
O O6 0.566585 0.123536 0.744375
O O7 0.390072 0.317768 0.082020
O O8 0.053271 0.935069 0.763381
O O9 0.396855 0.818629 0.931594
O O10 0.002430 0.598538 0.915756
O O11 0.515352 0.685967 0.637437
O O12 0.848829 0.561290 0.413978
O O13 0.500000 0.000000 0.500000
O O14 0.556975 0.229855 0.629141
O O15 0.645471 0.535402 0.863062
O O16 0.016250 0.616730 0.733159
O O17 0.500000 0.500000 0.000000
#
# Coordination Sequence:
#
# PCOD8027701 Si02
#       8
#     2   2   2   2   2   2   2   2
#     4  12  25  42  66  97 132 171 219 260 323 379
#     4  12  25  42  65  98 133 171 219 259 320 382
#     4  11  24  42  67  97 130 171 214 269 315 386
#     4  11  23  46  71  95 126 167 213 272 325 387
#     4  12  25  40  65  95 134 177 210 266 315 380
#     4  11  26  42  64  98 130 171 217 265 315 388
#     4  11  22  42  63  90 131 171 216 261 314 376
#     4  10  24  46  71  94 127 166 212 273 331 373
#
# _framework density 21.976005000000001
#
# number of rings (size 3 to 8) (size 9 to 14) (size 15 to 20)
#    0.000    0.750    2.500    6.000    3.500    4.500 
#    0.000    0.000    0.000    0.000    0.000    0.000 
#    0.000    0.000    0.000    0.000    0.000    0.000 
#
# Total GULP energy -198478.193109 kJ/mol
# GULP energy per Si atom -12404.887069 kJ/mol
# Density = 2.192599 g / cm^3
# Si number density = 21.976005 Si / 1000 Ang^3
#
#
#
# Elastic Constant Matrix: (Units=GPa)
#
#
# Indices 1 2 3 4 5 6 
#
# 1 80.9488 5.1751 14.3621 11.6248 8.3080 12.1904
# 2 5.1751 75.5103 32.8095 6.4820 -2.2525 9.2228
# 3 14.3621 32.8095 95.9778 -1.3656 -3.0055 13.4038
# 4 11.6248 6.4820 -1.3656 31.3097 7.6133 -2.1808
# 5 8.3080 -2.2525 -3.0055 7.6133 45.3055 4.3004
# 6 12.1904 9.2228 13.4038 -2.1808 4.3004 22.0375
#
#
#
# Elastic Compliance Matrix: (Units=1/GPa)
#
#
# Indices 1 2 3 4 5 6 
#
# 1 0.014759 0.001168 -0.001593 -0.006123 -0.000956 -0.008103
# 2 0.001168 0.016476 -0.005097 -0.004813 0.001572 -0.005224
# 3 -0.001593 -0.005097 0.013163 0.001596 0.001124 -0.005053
# 4 -0.006123 -0.004813 0.001596 0.037434 -0.006188 0.009343
# 5 -0.000956 0.001572 0.001124 -0.006188 0.024020 -0.006112
# 6 -0.008103 -0.005224 -0.005053 0.009343 -0.006112 0.057237
#
#
# Mechanical properties :
#
#
# Convention : Reuss Voigt Hill
#
# Bulk Modulus (GPa) = 29.98131 39.68115 34.83123
# Shear Modulus (GPa) = 26.99032 33.06988 30.03010
#
# Velocity S-wave (km/s) = 3.50833 3.88341 3.70062
# Velocity P-wave (km/s) = 5.48485 6.18090 5.84325
#
# Compressibility (1/GPa) = 0.03335411
#
# Stress axis : x y z
#
# Youngs Moduli (GPa) = 67.75417 60.69518 75.96861
#
# Poissons Ratio (x) = -0.07086 0.12102
# Poissons Ratio (y) = -0.07910 0.38718
# Poissons Ratio (z) = 0.10794 0.30934
#
# Static dielectric constant tensor:
#      x y z
#    x 3.935310 0.102170 -0.113080 
#    y 0.102170 4.103020 0.023330 
#    z -0.113080 0.023330 4.212940 
# 
# 
# High freq. dielectric constant tensor:
#      x y z
#    x 1.864470 0.008830 -0.003770 
#    y 0.008830 1.866060 -0.002170 
#    z -0.003770 -0.002170 1.876190 
# 
# From -- ./inp_files/534197.got.cif
#   From: 2010.06.25/outbox.cif.g09.slc.cpg/sg2_268_cif.got.tgz:534197.got - 2010.06.27 13:26:56.
