data_PCOD8027685
_publ_section_title
;
Structure prediction by ZEFSAII (Michael W. Deem and Ramdas Pophale) SiO2 
 PCOD8027685
Probable space group: P -1
;
_chemical_formula_sum "Si O2"
_cell_formula_units_Z 16
_cell_length_a 11.540805
_cell_length_b 13.925295
_cell_length_c 13.501755
_cell_angle_alpha 57.551696
_cell_angle_beta 47.633063
_cell_angle_gamma 34.306079
_cell_volume 902.522922
_symmetry_space_group_name_H-M "P -1"
_symmetry_group_IT_number 2
_symmetry_cell_setting 'triclinic'
loop_
_space_group_symop_operation_xyz
x,y,z
-x,-y,-z
loop_
_atom_site_type_symbol
_atom_site_label
_atom_site_fract_x
_atom_site_fract_y
_atom_site_fract_z
Si Si1 0.206742 0.632946 0.254906
Si Si2 0.875086 0.128062 0.235706
Si Si3 0.366793 0.723616 0.432516
Si Si4 0.130262 0.041455 0.488856
Si Si5 0.467090 0.278077 0.240335
Si Si6 0.550344 0.466905 0.325888
Si Si7 0.269526 0.156713 0.487840
Si Si8 0.200526 0.881957 0.029136
O O1 0.322638 0.472872 0.210337
O O2 0.327633 0.578297 0.321848
O O3 0.232075 0.734837 0.123821
O O4 0.937831 0.747194 0.367279
O O5 0.676274 0.173967 0.258079
O O6 0.789558 0.302148 0.220149
O O7 0.923050 0.023828 0.360250
O O8 0.120789 0.002557 0.102427
O O9 0.542933 0.597536 0.308370
O O10 0.485455 0.606778 0.526507
O O11 0.113254 0.800478 0.514805
O O12 0.320286 0.883350 0.389245
O O13 0.239184 0.096016 0.441227
O O14 0.286959 0.276714 0.374729
O O15 0.563534 0.202343 0.115000
O O16 0.500000 0.000000 0.500000
O O17 0.000000 0.000000 0.000000
#
# Coordination Sequence:
#
# PCOD8027685 Si02
#       8
#     2   2   2   2   2   2   2   2
#     4  11  20  34  51  73 107 137 172 213 255 305
#     4   9  16  30  49  72 102 136 171 206 247 307
#     4   9  17  29  48  76 106 124 173 224 253 287
#     4  10  17  30  50  74 103 137 170 209 257 295
#     4  10  21  31  47  76 107 141 170 204 253 305
#     4   9  17  29  49  78 101 125 165 224 266 282
#     4  12  20  33  50  75 109 145 166 200 259 322
#     4  10  18  33  50  71 100 141 179 208 240 306
#
# _framework density 17.728083000000002
#
# number of rings (size 3 to 8) (size 9 to 14) (size 15 to 20)
#    0.000    2.000    3.750    1.500    0.000    0.000 
#    0.000    0.000    0.000    0.000    0.000   15.750 
#    0.000    0.000    0.000    0.000    0.000    0.000 
#
# Total GULP energy -198235.654715 kJ/mol
# GULP energy per Si atom -12389.728420 kJ/mol
# Density = 1.768773 g / cm^3
# Si number density = 17.728083 Si / 1000 Ang^3
#
#
#
# Elastic Constant Matrix: (Units=GPa)
#
#
# Indices 1 2 3 4 5 6 
#
# 1 66.7812 25.7314 9.9006 0.4003 11.5524 9.0205
# 2 25.7314 87.8788 17.9039 -0.4644 13.2551 4.5459
# 3 9.9006 17.9039 56.7858 5.3371 9.6691 0.3288
# 4 0.4003 -0.4644 5.3371 25.5902 7.0440 12.5441
# 5 11.5524 13.2551 9.6691 7.0440 18.8467 7.4269
# 6 9.0205 4.5459 0.3288 12.5441 7.4269 40.4745
#
#
#
# Elastic Compliance Matrix: (Units=1/GPa)
#
#
# Indices 1 2 3 4 5 6 
#
# 1 0.018418 -0.003764 -0.000953 0.003739 -0.008242 -0.003321
# 2 -0.003764 0.014189 -0.002878 0.003078 -0.007203 -0.000364
# 3 -0.000953 -0.002878 0.020298 -0.003590 -0.007597 0.002877
# 4 0.003739 0.003078 -0.003590 0.051163 -0.016207 -0.014033
# 5 -0.008242 -0.007203 -0.007597 -0.016207 0.075549 -0.006132
# 6 -0.003321 -0.000364 0.002877 -0.014033 -0.006132 0.030939
#
#
# Mechanical properties :
#
#
# Convention : Reuss Voigt Hill
#
# Bulk Modulus (GPa) = 26.51500 35.39085 30.95293
# Shear Modulus (GPa) = 20.98031 27.50959 24.24495
#
# Velocity S-wave (km/s) = 3.44386 3.94350 3.70212
# Velocity P-wave (km/s) = 5.55001 6.38290 5.98097
#
# Compressibility (1/GPa) = 0.03771451
#
# Stress axis : x y z
#
# Youngs Moduli (GPa) = 54.29531 70.47574 49.26579
#
# Poissons Ratio (x) = 0.26526 0.04696
# Poissons Ratio (y) = 0.20436 0.14180
# Poissons Ratio (z) = 0.05175 0.20284
#
# Static dielectric constant tensor:
#      x y z
#    x 3.399410 0.299140 0.436590 
#    y 0.299140 3.782200 0.263490 
#    z 0.436590 0.263490 3.225540 
# 
# 
# High freq. dielectric constant tensor:
#      x y z
#    x 1.669000 0.010620 0.041320 
#    y 0.010620 1.718980 0.005240 
#    z 0.041320 0.005240 1.634750 
# 
# From -- ./inp_files/178952.got.cif
#   From: 2010.06.25/outbox.cif.g09.slc.cpg/sg2_90_cif.got.tgz:178952.got - 2010.06.27 13:26:56.
