data_PCOD8027541
_publ_section_title
;
Structure prediction by ZEFSAII (Michael W. Deem and Ramdas Pophale) SiO2 
 PCOD8027541
Probable space group: P -1
;
_chemical_formula_sum "Si O2"
_cell_formula_units_Z 14
_cell_length_a 5.080898
_cell_length_b 23.107593
_cell_length_c 9.081217
_cell_angle_alpha 39.489761
_cell_angle_beta 56.264607
_cell_angle_gamma 57.143997
_cell_volume 550.624393
_symmetry_space_group_name_H-M "P -1"
_symmetry_group_IT_number 2
_symmetry_cell_setting 'triclinic'
loop_
_space_group_symop_operation_xyz
x,y,z
-x,-y,-z
loop_
_atom_site_type_symbol
_atom_site_label
_atom_site_fract_x
_atom_site_fract_y
_atom_site_fract_z
Si Si1 0.613418 0.166467 0.790346
Si Si2 0.019494 0.073016 0.597419
Si Si3 0.682912 0.246806 0.167251
Si Si4 0.878661 0.723092 0.493790
Si Si5 0.048346 0.517084 0.784872
Si Si6 0.233641 0.557614 0.239053
Si Si7 0.360760 0.886843 0.790514
O O1 0.302164 0.200345 0.716824
O O2 0.865278 0.085218 0.784297
O O3 0.796976 0.249965 0.600045
O O4 0.503808 0.128880 0.052839
O O5 0.398084 0.078178 0.468720
O O6 0.848932 0.155756 0.383537
O O7 0.025116 0.967492 0.744166
O O8 0.337238 0.287530 0.273470
O O9 0.677411 0.212618 0.066967
O O10 0.880699 0.329636 0.939060
O O11 0.973804 0.627343 0.561527
O O12 0.424525 0.471637 0.725519
O O13 0.791519 0.469863 0.870007
O O14 0.000000 0.500000 0.000000
O O15 0.000000 0.500000 0.500000
#
# Coordination Sequence:
#
# PCOD8027541 Si02
#       7
#     2   2   2   2   2   2   2
#     4  11  25  45  73 108 144 191 241 301 362 438
#     4  10  24  45  71 106 145 189 246 297 370 435
#     4  11  25  45  73 100 150 191 242 302 373 429
#     4  11  25  46  72 105 142 192 245 297 365 440
#     4  12  26  48  74 103 140 195 247 299 362 439
#     4  12  29  47  73 110 151 190 246 306 368 436
#     4  11  24  45  72 105 143 196 238 305 365 439
#
# _framework density 25.425681999999998
#
# number of rings (size 3 to 8) (size 9 to 14) (size 15 to 20)
#    0.000    0.857    2.857    2.571   10.000    1.143 
#    0.000    2.143    0.000    0.000    0.000    0.000 
#    0.000    0.000    0.000    0.000    0.000    0.000 
#
# Total GULP energy -173523.708860 kJ/mol
# GULP energy per Si atom -12394.550633 kJ/mol
# Density = 2.536781 g / cm^3
# Si number density = 25.425682 Si / 1000 Ang^3
#
#
#
# Elastic Constant Matrix: (Units=GPa)
#
#
# Indices 1 2 3 4 5 6 
#
# 1 58.4214 34.9562 2.1383 -7.8069 6.7198 4.7409
# 2 34.9562 146.4096 35.8658 -17.5685 14.2636 24.9140
# 3 2.1383 35.8658 98.6651 0.7637 8.9866 6.7248
# 4 -7.8069 -17.5685 0.7637 43.0864 7.4595 4.8663
# 5 6.7198 14.2636 8.9866 7.4595 34.1119 -2.7876
# 6 4.7409 24.9140 6.7248 4.8663 -2.7876 34.4438
#
#
#
# Elastic Compliance Matrix: (Units=1/GPa)
#
#
# Indices 1 2 3 4 5 6 
#
# 1 0.020530 -0.004632 0.001523 0.002374 -0.003057 -0.000356
# 2 -0.004632 0.011172 -0.003017 0.005511 -0.004825 -0.008023
# 3 0.001523 -0.003017 0.011397 -0.000796 -0.001891 -0.000293
# 4 0.002374 0.005511 -0.000796 0.028565 -0.009542 -0.008966
# 5 -0.003057 -0.004825 -0.001891 -0.009542 0.035213 0.008478
# 6 -0.000356 -0.008023 -0.000293 -0.008966 0.008478 0.036895
#
#
# Mechanical properties :
#
#
# Convention : Reuss Voigt Hill
#
# Bulk Modulus (GPa) = 32.41675 49.93517 41.17596
# Shear Modulus (GPa) = 30.06505 37.69748 33.88126
#
# Velocity S-wave (km/s) = 3.44243 3.85470 3.65439
# Velocity P-wave (km/s) = 5.34582 6.28442 5.83402
#
# Compressibility (1/GPa) = 0.03084825
#
# Stress axis : x y z
#
# Youngs Moduli (GPa) = 48.70847 89.51194 87.73945
#
# Poissons Ratio (x) = 0.41458 -0.13363
# Poissons Ratio (y) = 0.22560 0.26471
# Poissons Ratio (z) = -0.07418 0.27006
#
# Static dielectric constant tensor:
#      x y z
#    x 2.041170 -0.231580 0.195730 
#    y -0.231580 4.730920 0.088630 
#    z 0.195730 0.088630 4.489320 
# 
# 
# High freq. dielectric constant tensor:
#      x y z
#    x 1.996180 0.003880 0.004480 
#    y 0.003880 2.035650 -0.000970 
#    z 0.004480 -0.000970 2.018210 
# 
# From -- ./inp_files/140963.got.cif
#   From: 2010.06.25/outbox.cif.g09.slc.cpg/sg2_71_cif.got.tgz:140963.got - 2010.06.27 13:26:56.
