data_PCOD8027361
_publ_section_title
;
Structure prediction by ZEFSAII (Michael W. Deem and Ramdas Pophale) SiO2 
 PCOD8027361
Probable space group: P -1
;
_chemical_formula_sum "Si O2"
_cell_formula_units_Z 16
_cell_length_a 11.883899
_cell_length_b 8.615450
_cell_length_c 18.207090
_cell_angle_alpha 47.879822
_cell_angle_beta 133.950213
_cell_angle_gamma 144.470378
_cell_volume 754.524556
_symmetry_space_group_name_H-M "P -1"
_symmetry_group_IT_number 2
_symmetry_cell_setting 'triclinic'
loop_
_space_group_symop_operation_xyz
x,y,z
-x,-y,-z
loop_
_atom_site_type_symbol
_atom_site_label
_atom_site_fract_x
_atom_site_fract_y
_atom_site_fract_z
Si Si1 0.355386 0.382024 0.543919
Si Si2 0.481824 0.501788 0.721738
Si Si3 0.958007 0.271849 0.376054
Si Si4 0.058467 0.984467 0.200511
Si Si5 0.117648 0.765270 0.017743
Si Si6 0.933233 0.549094 0.158064
Si Si7 0.886536 0.541203 0.374597
Si Si8 0.543146 0.996149 0.104772
O O1 0.500000 0.500000 0.500000
O O2 0.503388 0.536842 0.632018
O O3 0.191349 0.428536 0.457573
O O4 0.207301 0.054518 0.588322
O O5 0.326660 0.546942 0.665029
O O6 0.703673 0.733599 0.786634
O O7 0.395091 0.194236 0.798209
O O8 0.848594 0.357952 0.346426
O O9 0.993464 0.375452 0.274832
O O10 0.993560 0.771686 0.174579
O O11 0.026639 0.855513 0.307903
O O12 0.901098 0.037788 0.099457
O O13 0.038689 0.717253 0.079035
O O14 0.343189 0.875052 0.099114
O O15 0.000000 0.500000 0.000000
O O16 0.696228 0.305407 0.107295
O O17 0.000000 0.500000 0.500000
O O18 0.500000 0.000000 0.000000
#
# Coordination Sequence:
#
# PCOD8027361 Si02
#       8
#     2   2   2   2   2   2   2   2
#     4  11  25  41  70  99 140 181 237 282 346 412
#     4  12  25  44  72 102 137 186 238 279 346 418
#     4  10  24  45  64 103 135 187 226 289 347 405
#     4  11  27  45  68 107 138 183 231 288 350 411
#     4  12  24  43  74 102 137 180 230 291 346 413
#     4  11  25  44  68  98 145 170 232 286 349 413
#     4  11  25  45  69  97 146 186 230 287 341 409
#     4  12  24  43  71 102 133 183 231 281 349 412
#
# _framework density 21.205406
#
# number of rings (size 3 to 8) (size 9 to 14) (size 15 to 20)
#    0.000    0.750    5.000    1.125    3.500    5.000 
#    0.000    0.000    0.000    0.000    0.000    0.000 
#    0.000    0.000    0.000    0.000    0.000    0.000 
#
# Total GULP energy -198222.092256 kJ/mol
# GULP energy per Si atom -12388.880766 kJ/mol
# Density = 2.115714 g / cm^3
# Si number density = 21.205406 Si / 1000 Ang^3
#
#
#
# Elastic Constant Matrix: (Units=GPa)
#
#
# Indices 1 2 3 4 5 6 
#
# 1 110.7301 37.2647 44.3298 1.5996 8.4413 -0.2850
# 2 37.2647 109.5938 26.4775 13.6277 -3.8839 -6.0213
# 3 44.3298 26.4775 139.1937 -10.5825 -4.8252 -5.2367
# 4 1.5996 13.6277 -10.5825 39.7403 0.0712 -4.6004
# 5 8.4413 -3.8839 -4.8252 0.0712 37.1456 8.8652
# 6 -0.2850 -6.0213 -5.2367 -4.6004 8.8652 19.4192
#
#
#
# Elastic Compliance Matrix: (Units=1/GPa)
#
#
# Indices 1 2 3 4 5 6 
#
# 1 0.011698 -0.003299 -0.003241 -0.000224 -0.003366 -0.000242
# 2 -0.003299 0.011164 -0.001260 -0.003857 0.001398 0.001521
# 3 -0.003241 -0.001260 0.008819 0.003154 0.001238 0.002122
# 4 -0.000224 -0.003857 0.003154 0.028159 -0.001689 0.007093
# 5 -0.003366 0.001398 0.001238 -0.001689 0.031334 -0.013987
# 6 -0.000242 0.001521 0.002122 0.007093 -0.013987 0.060602
#
#
# Mechanical properties :
#
#
# Convention : Reuss Voigt Hill
#
# Bulk Modulus (GPa) = 62.19145 63.96240 63.07692
# Shear Modulus (GPa) = 28.94581 36.02405 32.48493
#
# Velocity S-wave (km/s) = 3.69863 4.12614 3.91822
# Velocity P-wave (km/s) = 6.90156 7.27522 7.09085
#
# Compressibility (1/GPa) = 0.01607938
#
# Stress axis : x y z
#
# Youngs Moduli (GPa) = 85.48511 89.57557 113.39606
#
# Poissons Ratio (x) = 0.29554 0.36749
# Poissons Ratio (y) = 0.28204 0.14293
# Poissons Ratio (z) = 0.27704 0.11290
#
# Static dielectric constant tensor:
#      x y z
#    x 4.157110 0.222410 0.262700 
#    y 0.222410 4.155410 0.032920 
#    z 0.262700 0.032920 4.681180 
# 
# 
# High freq. dielectric constant tensor:
#      x y z
#    x 1.829020 -0.005710 -0.003270 
#    y -0.005710 1.833040 -0.004150 
#    z -0.003270 -0.004150 1.857300 
# 
# From -- ./inp_files/566554.got.cif
#   From: 2010.06.25/outbox.cif.g09.slc.cpg/sg2_284_cif.got.tgz:566554.got - 2010.06.27 13:26:56.
