data_PCOD8027963
_publ_section_title
;
Structure prediction by ZEFSAII (Michael W. Deem and Ramdas Pophale) SiO2 
 PCOD8027963
Probable space group: P -1
;
_chemical_formula_sum "Si O2"
_cell_formula_units_Z 10
_cell_length_a 5.086206
_cell_length_b 11.854651
_cell_length_c 13.975020
_cell_angle_alpha 28.302186
_cell_angle_beta 63.628928
_cell_angle_gamma 67.097891
_cell_volume 357.929643
_symmetry_space_group_name_H-M "P -1"
_symmetry_group_IT_number 2
_symmetry_cell_setting 'triclinic'
loop_
_space_group_symop_operation_xyz
x,y,z
-x,-y,-z
loop_
_atom_site_type_symbol
_atom_site_label
_atom_site_fract_x
_atom_site_fract_y
_atom_site_fract_z
Si Si1 0.713716 0.711131 0.841217
Si Si2 0.717061 0.941690 0.867575
Si Si3 0.709474 0.224821 0.392185
Si Si4 0.788989 0.783952 0.178918
Si Si5 0.933744 0.683764 0.545418
O O1 0.635255 0.777384 0.913228
O O2 0.068874 0.660653 0.809788
O O3 0.668813 0.936284 0.606747
O O4 0.500000 0.500000 0.000000
O O5 0.495483 0.166697 0.747154
O O6 0.709729 0.771249 0.087908
O O7 0.033843 0.075518 0.704015
O O8 0.395822 0.351386 0.337610
O O9 0.839051 0.280352 0.432831
O O10 0.959724 0.546619 0.359109
O O11 0.000000 0.000000 0.000000
#
# Coordination Sequence:
#
# PCOD8027963 Si02
#       5
#     2   2   2   2   2
#     4  10  24  50  82 112 158 204 256 320 388 464
#     4  10  26  49  76 114 150 209 260 312 395 459
#     4  10  26  48  78 119 152 204 260 313 396 471
#     4  11  27  47  77 112 152 199 269 315 380 469
#     4  11  26  50  78 111 162 197 251 333 387 454
#
# _framework density 27.938452999999999
#
# number of rings (size 3 to 8) (size 9 to 14) (size 15 to 20)
#    0.000    1.600    0.000    0.600   14.000    8.000 
#    0.000    9.000    0.000    0.000    0.000    0.000 
#    0.000    0.000    0.000    0.000    0.000    0.000 
#
# Total GULP energy -124008.605938 kJ/mol
# GULP energy per Si atom -12400.860594 kJ/mol
# Density = 2.787486 g / cm^3
# Si number density = 27.938453 Si / 1000 Ang^3
#
#
#
# Elastic Constant Matrix: (Units=GPa)
#
#
# Indices 1 2 3 4 5 6 
#
# 1 104.4570 64.5709 52.0236 -11.3263 -30.2969 -19.5298
# 2 64.5709 180.4810 71.2542 5.4264 -13.7907 -9.5800
# 3 52.0236 71.2542 138.3367 -0.4506 -46.0267 5.1500
# 4 -11.3263 5.4264 -0.4506 51.1945 4.5487 1.1355
# 5 -30.2969 -13.7907 -46.0267 4.5487 35.8808 6.2830
# 6 -19.5298 -9.5800 5.1500 1.1355 6.2830 50.4119
#
#
#
# Elastic Compliance Matrix: (Units=1/GPa)
#
#
# Indices 1 2 3 4 5 6 
#
# 1 0.017213 -0.005037 -0.000396 0.003273 0.010920 0.004317
# 2 -0.005037 0.008977 -0.005344 -0.001457 -0.007700 0.001293
# 3 -0.000396 -0.005344 0.017280 -0.001102 0.020883 -0.005512
# 4 0.003273 -0.001457 -0.001102 0.020558 -0.001972 0.000886
# 5 0.010920 -0.007700 0.020883 -0.001972 0.062413 -0.007100
# 6 0.004317 0.001293 -0.005512 0.000886 -0.007100 0.023183
#
#
# Mechanical properties :
#
#
# Convention : Reuss Voigt Hill
#
# Bulk Modulus (GPa) = 45.62835 88.77469 67.20152
# Shear Modulus (GPa) = 28.01386 43.19251 35.60318
#
# Velocity S-wave (km/s) = 3.16998 3.93617 3.57367
# Velocity P-wave (km/s) = 5.45578 7.24583 6.41356
#
# Compressibility (1/GPa) = 0.02191620
#
# Stress axis : x y z
#
# Youngs Moduli (GPa) = 58.09430 111.39652 57.87041
#
# Poissons Ratio (x) = 0.56112 0.02289
# Poissons Ratio (y) = 0.29263 0.30928
# Poissons Ratio (z) = 0.02298 0.59535
#
# Static dielectric constant tensor:
#      x y z
#    x 5.156980 -0.354450 0.044750 
#    y -0.354450 5.815910 0.317570 
#    z 0.044750 0.317570 5.738480 
# 
# 
# High freq. dielectric constant tensor:
#      x y z
#    x 2.115720 -0.002450 -0.012390 
#    y -0.002450 2.146130 -0.002390 
#    z -0.012390 -0.002390 2.143750 
# 
# From -- ./inp_files/482482.got.cif
#   From: 2010.06.25/outbox.cif.g09.slc.cpg/sg2_242_cif.got.tgz:482482.got - 2010.06.27 13:26:56.
