data_PCOD8027486
_publ_section_title
;
Structure prediction by ZEFSAII (Michael W. Deem and Ramdas Pophale) SiO2 
 PCOD8027486
Probable space group: P -1
;
_chemical_formula_sum "Si O2"
_cell_formula_units_Z 16
_cell_length_a 11.853912
_cell_length_b 15.366258
_cell_length_c 8.569418
_cell_angle_alpha 110.308681
_cell_angle_beta 79.753149
_cell_angle_gamma 150.841774
_cell_volume 685.942282
_symmetry_space_group_name_H-M "P -1"
_symmetry_group_IT_number 2
_symmetry_cell_setting 'triclinic'
loop_
_space_group_symop_operation_xyz
x,y,z
-x,-y,-z
loop_
_atom_site_type_symbol
_atom_site_label
_atom_site_fract_x
_atom_site_fract_y
_atom_site_fract_z
Si Si1 0.544419 0.391766 0.586866
Si Si2 0.542652 0.969966 0.318767
Si Si3 0.219224 0.036730 0.622029
Si Si4 0.975977 0.167102 0.778727
Si Si5 0.486107 0.448644 0.142651
Si Si6 0.989023 0.396936 0.346029
Si Si7 0.756376 0.192627 0.978387
Si Si8 0.815942 0.865872 0.759668
O O1 0.608324 0.542789 0.704147
O O2 0.422401 0.297447 0.389719
O O3 0.772067 0.487335 0.596449
O O4 0.360343 0.231772 0.670624
O O5 0.607361 0.908827 0.293055
O O6 0.766113 0.174935 0.306114
O O7 0.500000 0.000000 0.500000
O O8 0.297596 0.795058 0.166016
O O9 0.170890 0.952436 0.417077
O O10 0.979241 0.894623 0.684647
O O11 0.862103 0.166096 0.908954
O O12 0.239821 0.386035 0.791088
O O13 0.967418 0.069164 0.831577
O O14 0.292509 0.227512 0.094001
O O15 0.500000 0.500000 0.000000
O O16 0.000000 0.500000 0.500000
O O17 0.947510 0.384403 0.161516
O O18 0.500000 0.000000 0.000000
#
# Coordination Sequence:
#
# PCOD8027486 Si02
#       8
#     2   2   2   2   2   2   2   2
#     4  11  22  43  67 100 138 181 239 296 350 427
#     4  11  22  41  70  97 138 192 235 290 360 422
#     4  11  21  42  71 104 136 188 242 284 356 434
#     4  11  22  44  70 101 144 180 242 294 354 427
#     4  12  25  42  65 104 146 179 233 297 358 423
#     4  11  25  43  68  99 135 185 244 300 359 421
#     4  10  24  45  69  99 140 189 239 295 358 430
#     4  11  24  42  74 102 136 194 234 286 363 429
#
# _framework density 23.325579000000001
#
# number of rings (size 3 to 8) (size 9 to 14) (size 15 to 20)
#    0.000    1.000    3.750    3.375    7.000    1.500 
#    4.500    2.500    0.000    0.000    0.000    0.000 
#    0.000    0.000    0.000    0.000    0.000    0.000 
#
# Total GULP energy -198303.712260 kJ/mol
# GULP energy per Si atom -12393.982016 kJ/mol
# Density = 2.327249 g / cm^3
# Si number density = 23.325579 Si / 1000 Ang^3
#
#
#
# Elastic Constant Matrix: (Units=GPa)
#
#
# Indices 1 2 3 4 5 6 
#
# 1 144.6513 26.8212 55.2970 -10.3234 1.2243 26.5026
# 2 26.8212 100.8619 2.3499 -23.6675 -9.7035 -0.0634
# 3 55.2970 2.3499 104.2044 -14.3118 2.3797 9.4442
# 4 -10.3234 -23.6675 -14.3118 25.7123 -4.2897 3.2340
# 5 1.2243 -9.7035 2.3797 -4.2897 42.0036 -5.6524
# 6 26.5026 -0.0634 9.4442 3.2340 -5.6524 40.6306
#
#
#
# Elastic Compliance Matrix: (Units=1/GPa)
#
#
# Indices 1 2 3 4 5 6 
#
# 1 0.010395 -0.003026 -0.005019 -0.000945 -0.001590 -0.005764
# 2 -0.003026 0.014545 0.003102 0.014613 0.004871 0.000790
# 3 -0.005019 0.003102 0.013368 0.008482 0.000921 -0.000375
# 4 -0.000945 0.014613 0.008482 0.058673 0.008262 -0.004853
# 5 -0.001590 0.004871 0.000921 0.008262 0.026286 0.003830
# 6 -0.005764 0.000790 -0.000375 -0.004853 0.003830 0.029380
#
#
# Mechanical properties :
#
#
# Convention : Reuss Voigt Hill
#
# Bulk Modulus (GPa) = 35.18393 57.62821 46.40607
# Shear Modulus (GPa) = 29.06861 39.35261 34.21061
#
# Velocity S-wave (km/s) = 3.53400 4.11189 3.83385
# Velocity P-wave (km/s) = 5.63638 6.87773 6.28777
#
# Compressibility (1/GPa) = 0.02842207
#
# Stress axis : x y z
#
# Youngs Moduli (GPa) = 96.19982 68.75171 74.80618
#
# Poissons Ratio (x) = 0.20802 0.37546
# Poissons Ratio (y) = 0.29108 -0.23204
# Poissons Ratio (z) = 0.48283 -0.21326
#
# Static dielectric constant tensor:
#      x y z
#    x 4.457740 0.234210 0.532590 
#    y 0.234210 4.570210 0.083570 
#    z 0.532590 0.083570 4.657850 
# 
# 
# High freq. dielectric constant tensor:
#      x y z
#    x 1.928110 0.011200 0.010840 
#    y 0.011200 1.923760 -0.004320 
#    z 0.010840 -0.004320 1.925280 
# 
# From -- ./inp_files/273713.got.cif
#   From: 2010.06.25/outbox.cif.g09.slc.cpg/sg2_137_cif.got.tgz:273713.got - 2010.06.27 13:26:56.
