data_PCOD8027989
_publ_section_title
;
Structure prediction by ZEFSAII (Michael W. Deem and Ramdas Pophale) SiO2 
 PCOD8027989
Probable space group: P -1
;
_chemical_formula_sum "Si O2"
_cell_formula_units_Z 12
_cell_length_a 14.334687
_cell_length_b 6.806050
_cell_length_c 11.735653
_cell_angle_alpha 94.791055
_cell_angle_beta 29.871349
_cell_angle_gamma 83.246427
_cell_volume 524.959086
_symmetry_space_group_name_H-M "P -1"
_symmetry_group_IT_number 2
_symmetry_cell_setting 'triclinic'
loop_
_space_group_symop_operation_xyz
x,y,z
-x,-y,-z
loop_
_atom_site_type_symbol
_atom_site_label
_atom_site_fract_x
_atom_site_fract_y
_atom_site_fract_z
Si Si1 0.384118 0.968600 0.252147
Si Si2 0.969772 0.239228 0.054821
Si Si3 0.986166 0.356322 0.613748
Si Si4 0.817773 0.544159 0.030961
Si Si5 0.406137 0.745105 0.996913
Si Si6 0.608069 0.364605 0.605750
O O1 0.462566 0.769351 0.070093
O O2 0.332832 0.874863 0.418263
O O3 0.195486 0.160185 0.405989
O O4 0.565590 0.053598 0.087728
O O5 0.783690 0.374409 0.340048
O O6 0.166681 0.255588 0.907553
O O7 0.937180 0.332585 0.967235
O O8 0.000000 0.000000 0.000000
O O9 0.923136 0.517275 0.794861
O O10 0.820186 0.249346 0.769657
O O11 0.000000 0.500000 0.500000
O O12 0.585922 0.576245 0.266778
O O13 0.569990 0.531131 0.757964
#
# Coordination Sequence:
#
# PCOD8027989 Si02
#       6
#     2   2   2   2   2   2
#     4  11  24  40  65  99 136 179 218 263 333 393
#     4  11  24  45  71  92 130 173 223 273 328 391
#     4  11  25  43  70  97 138 178 217 272 329 394
#     4  10  25  44  64 100 130 170 221 273 328 384
#     4  10  25  41  62  98 139 171 222 266 322 395
#     4  11  24  42  69  95 135 171 218 277 328 391
#
# _framework density 22.858923999999998
#
# number of rings (size 3 to 8) (size 9 to 14) (size 15 to 20)
#    0.000    1.333    0.000    3.500   14.000    6.000 
#    0.000    0.000    0.000    0.000    0.000    0.000 
#    0.000    0.000    0.000    0.000    0.000    0.000 
#
# Total GULP energy -148767.529101 kJ/mol
# GULP energy per Si atom -12397.294092 kJ/mol
# Density = 2.280690 g / cm^3
# Si number density = 22.858924 Si / 1000 Ang^3
#
#
#
# Elastic Constant Matrix: (Units=GPa)
#
#
# Indices 1 2 3 4 5 6 
#
# 1 101.1192 67.4210 17.1926 -5.2113 -3.3266 4.1957
# 2 67.4210 116.8876 15.8554 -11.4186 4.5657 23.6062
# 3 17.1926 15.8554 73.1214 -8.6510 -1.6627 6.1085
# 4 -5.2113 -11.4186 -8.6510 36.7079 -3.0654 5.5291
# 5 -3.3266 4.5657 -1.6627 -3.0654 24.5125 -12.4763
# 6 4.1957 23.6062 6.1085 5.5291 -12.4763 34.0780
#
#
#
# Elastic Compliance Matrix: (Units=1/GPa)
#
#
# Indices 1 2 3 4 5 6 
#
# 1 0.019410 -0.014073 -0.002675 -0.003200 0.010972 0.012375
# 2 -0.014073 0.021957 0.000699 0.006772 -0.015470 -0.020365
# 3 -0.002675 0.000699 0.014904 0.003843 -0.000931 -0.003790
# 4 -0.003200 0.006772 0.003843 0.031222 -0.003253 -0.011243
# 5 0.010972 -0.015470 -0.000931 -0.003253 0.061225 0.032475
# 6 0.012375 -0.020365 -0.003790 -0.011243 0.032475 0.056321
#
#
# Mechanical properties :
#
#
# Convention : Reuss Voigt Hill
#
# Bulk Modulus (GPa) = 41.37220 54.67402 48.02311
# Shear Modulus (GPa) = 20.39198 31.77028 26.08113
#
# Velocity S-wave (km/s) = 2.99001 3.73210 3.38148
# Velocity P-wave (km/s) = 5.48256 6.52238 6.02494
#
# Compressibility (1/GPa) = 0.02417082
#
# Stress axis : x y z
#
# Youngs Moduli (GPa) = 51.51983 45.54444 67.09829
#
# Poissons Ratio (x) = 0.64096 0.17949
# Poissons Ratio (y) = 0.72505 -0.04688
# Poissons Ratio (z) = 0.13782 -0.03182
#
# Static dielectric constant tensor:
#      x y z
#    x 4.185280 0.197170 0.075260 
#    y 0.197170 4.221170 -0.303020 
#    z 0.075260 -0.303020 4.257380 
# 
# 
# High freq. dielectric constant tensor:
#      x y z
#    x 1.903870 0.013440 0.004920 
#    y 0.013440 1.909230 -0.017890 
#    z 0.004920 -0.017890 1.904240 
# 
# From -- ./inp_files/70101.got.cif
#   From: 2010.06.25/outbox.cif.g09.slc.cpg/sg2_36_cif.got.tgz:70101.got - 2010.06.27 13:26:56.
