data_PCOD8027381
_publ_section_title
;
Structure prediction by ZEFSAII (Michael W. Deem and Ramdas Pophale) SiO2 
 PCOD8027381
Probable space group: P -1
;
_chemical_formula_sum "Si O2"
_cell_formula_units_Z 16
_cell_length_a 19.706343
_cell_length_b 22.062280
_cell_length_c 9.196651
_cell_angle_alpha 144.452228
_cell_angle_beta 144.468683
_cell_angle_gamma 19.453981
_cell_volume 751.432544
_symmetry_space_group_name_H-M "P -1"
_symmetry_group_IT_number 2
_symmetry_cell_setting 'triclinic'
loop_
_space_group_symop_operation_xyz
x,y,z
-x,-y,-z
loop_
_atom_site_type_symbol
_atom_site_label
_atom_site_fract_x
_atom_site_fract_y
_atom_site_fract_z
Si Si1 0.585527 0.551636 0.762936
Si Si2 0.904128 0.304506 0.087027
Si Si3 0.813462 0.056302 0.270960
Si Si4 0.006864 0.594445 0.334096
Si Si5 0.346184 0.204136 0.076640
Si Si6 0.265250 0.710491 0.987398
Si Si7 0.885764 0.328184 0.578694
Si Si8 0.291393 0.912699 0.537863
O O1 0.500000 0.500000 0.500000
O O2 0.375669 0.777462 0.844779
O O3 0.740022 0.464941 0.728790
O O4 0.701326 0.480931 0.980584
O O5 0.982010 0.352392 0.392083
O O6 0.865549 0.241955 0.014847
O O7 0.091843 0.125734 0.962172
O O8 0.705393 0.137937 0.396895
O O9 0.000000 0.000000 0.500000
O O10 0.143436 0.385468 0.178264
O O11 0.112257 0.581951 0.361322
O O12 0.761489 0.750520 0.176184
O O13 0.477712 0.212581 0.321662
O O14 0.500000 0.000000 0.000000
O O15 0.250971 0.847140 0.227495
O O16 0.500000 0.500000 0.000000
O O17 0.186221 0.727660 0.727883
O O18 0.123895 0.130314 0.658287
#
# Coordination Sequence:
#
# PCOD8027381 Si02
#       8
#     2   2   2   2   2   2   2   2
#     4  12  22  37  61  89 130 174 205 248 316 382
#     4  11  23  41  62  94 133 167 207 259 316 386
#     4  12  22  39  62  94 132 170 208 253 315 394
#     4  10  24  45  66  95 127 164 214 272 318 367
#     4  11  23  43  70  93 124 166 219 269 317 370
#     4  11  22  37  57  94 132 161 206 261 319 384
#     4  11  22  39  63  93 128 167 207 259 322 385
#     4  12  21  39  65  93 126 168 213 260 320 379
#
# _framework density 21.292662
#
# number of rings (size 3 to 8) (size 9 to 14) (size 15 to 20)
#    0.000    0.750    5.000    4.125    0.000    1.000 
#    4.500    0.625    0.000    7.500    0.000    0.000 
#    0.000    0.000    0.000    0.000    0.000    0.000 
#
# Total GULP energy -198335.047921 kJ/mol
# GULP energy per Si atom -12395.940495 kJ/mol
# Density = 2.124420 g / cm^3
# Si number density = 21.292662 Si / 1000 Ang^3
#
#
#
# Elastic Constant Matrix: (Units=GPa)
#
#
# Indices 1 2 3 4 5 6 
#
# 1 29.7043 -3.0387 3.5921 -4.8174 -5.1772 1.1589
# 2 -3.0387 159.0677 39.4598 -5.9038 -2.5444 18.1249
# 3 3.5921 39.4598 142.6257 -13.8178 -9.7969 5.8670
# 4 -4.8174 -5.9038 -13.8178 41.1128 3.2429 1.5226
# 5 -5.1772 -2.5444 -9.7969 3.2429 24.0722 -3.4215
# 6 1.1589 18.1249 5.8670 1.5226 -3.4215 29.9134
#
#
#
# Elastic Compliance Matrix: (Units=1/GPa)
#
#
# Indices 1 2 3 4 5 6 
#
# 1 0.035702 0.001175 -0.000324 0.003747 0.006963 -0.001426
# 2 0.001175 0.007258 -0.001821 0.000755 -0.000416 -0.004172
# 3 -0.000324 -0.001821 0.007924 0.002165 0.002636 -0.000247
# 4 0.003747 0.000755 0.002165 0.025858 -0.002084 -0.002582
# 5 0.006963 -0.000416 0.002636 -0.002084 0.045020 0.004721
# 6 -0.001426 -0.004172 -0.000247 -0.002582 0.004721 0.036733
#
#
# Mechanical properties :
#
#
# Convention : Reuss Voigt Hill
#
# Bulk Modulus (GPa) = 20.43201 45.71381 33.07291
# Shear Modulus (GPa) = 28.28862 38.44529 33.36696
#
# Velocity S-wave (km/s) = 3.64890 4.25380 3.96291
# Velocity P-wave (km/s) = 5.23156 6.75591 6.04200
#
# Compressibility (1/GPa) = 0.04894281
#
# Stress axis : x y z
#
# Youngs Moduli (GPa) = 28.01000 137.78596 126.19230
#
# Poissons Ratio (x) = -0.16195 0.04094
# Poissons Ratio (y) = -0.03292 0.22984
# Poissons Ratio (z) = 0.00909 0.25096
#
# Static dielectric constant tensor:
#      x y z
#    x 2.863840 -0.626350 -0.188130 
#    y -0.626350 3.248020 -0.132890 
#    z -0.188130 -0.132890 4.083740 
# 
# 
# High freq. dielectric constant tensor:
#      x y z
#    x 1.801360 0.003560 0.000250 
#    y 0.003560 1.860720 -0.006280 
#    z 0.000250 -0.006280 1.835020 
# 
# From -- ./inp_files/338212.got.cif
#   From: 2010.06.25/outbox.cif.g09.slc.cpg/sg2_170_cif.got.tgz:338212.got - 2010.06.27 13:26:56.
