data_PCOD8027004
_publ_section_title
;
Structure prediction by ZEFSAII (Michael W. Deem and Ramdas Pophale) SiO2 
 PCOD8027004
Probable space group: P -1
;
_chemical_formula_sum "Si O2"
_cell_formula_units_Z 16
_cell_length_a 11.068052
_cell_length_b 10.692101
_cell_length_c 18.994812
_cell_angle_alpha 33.182864
_cell_angle_beta 139.054155
_cell_angle_gamma 118.276904
_cell_volume 723.352702
_symmetry_space_group_name_H-M "P -1"
_symmetry_group_IT_number 2
_symmetry_cell_setting 'triclinic'
loop_
_space_group_symop_operation_xyz
x,y,z
-x,-y,-z
loop_
_atom_site_type_symbol
_atom_site_label
_atom_site_fract_x
_atom_site_fract_y
_atom_site_fract_z
Si Si1 0.616208 0.266400 0.108988
Si Si2 0.850753 0.966564 0.041201
Si Si3 0.700567 0.293726 0.607862
Si Si4 0.206108 0.570456 0.115142
Si Si5 0.334228 0.733393 0.552701
Si Si6 0.373408 0.251351 0.870725
Si Si7 0.508318 0.851230 0.302837
Si Si8 0.990423 0.237469 0.206046
O O1 0.839842 0.250746 0.197459
O O2 0.639020 0.013663 0.280417
O O3 0.500000 0.500000 0.000000
O O4 0.501817 0.288516 0.974362
O O5 0.824781 0.774395 0.175992
O O6 0.092801 0.848242 0.187426
O O7 0.758901 0.254979 0.893706
O O8 0.717771 0.977553 0.909197
O O9 0.743642 0.186488 0.598853
O O10 0.630015 0.594623 0.432993
O O11 0.524684 0.226265 0.596075
O O12 0.424727 0.334166 0.303386
O O13 0.050541 0.471205 0.126640
O O14 0.118507 0.741708 0.926706
O O15 0.296223 0.494199 0.671980
O O16 0.196849 0.973028 0.427909
O O17 0.500000 0.000000 0.000000
#
# Coordination Sequence:
#
# PCOD8027004 Si02
#       8
#     2   2   2   2   2   2   2   2
#     4  11  25  47  68  95 139 184 218 271 338 405
#     4  11  21  40  66  95 127 176 218 276 336 393
#     4  11  23  39  67 100 125 173 220 282 337 387
#     4  11  22  42  65  98 136 168 225 279 336 395
#     4  12  22  41  68 101 133 166 227 288 330 395
#     4  11  22  43  70  99 137 170 218 284 334 386
#     4  10  24  44  63  92 137 171 222 274 328 402
#     4  11  25  41  68  94 132 184 219 266 343 405
#
# _framework density 22.119225
#
# number of rings (size 3 to 8) (size 9 to 14) (size 15 to 20)
#    0.000    1.000    5.000    1.500    3.500    0.500 
#    2.250    0.625    0.000    0.000    0.000    0.000 
#    0.000    0.000    0.000    0.000    0.000    0.000 
#
# Total GULP energy -198405.288003 kJ/mol
# GULP energy per Si atom -12400.330500 kJ/mol
# Density = 2.206888 g / cm^3
# Si number density = 22.119225 Si / 1000 Ang^3
#
#
#
# Elastic Constant Matrix: (Units=GPa)
#
#
# Indices 1 2 3 4 5 6 
#
# 1 146.8143 47.9762 32.4095 -24.3994 1.8833 25.1554
# 2 47.9762 79.7499 15.6737 -12.3920 -5.1171 7.8504
# 3 32.4095 15.6737 88.3519 -8.7407 7.1237 5.3449
# 4 -24.3994 -12.3920 -8.7407 27.5785 11.1592 -5.1333
# 5 1.8833 -5.1171 7.1237 11.1592 36.5850 -2.5787
# 6 25.1554 7.8504 5.3449 -5.1333 -2.5787 38.7317
#
#
#
# Elastic Compliance Matrix: (Units=1/GPa)
#
#
# Indices 1 2 3 4 5 6 
#
# 1 0.010935 -0.004786 -0.001838 0.007400 -0.003493 -0.005130
# 2 -0.004786 0.016017 -0.001107 0.001804 0.002180 0.000399
# 3 -0.001838 -0.001107 0.012821 0.003367 -0.003594 -0.000144
# 4 0.007400 0.001804 0.003367 0.051351 -0.016442 0.000075
# 5 -0.003493 0.002180 -0.003594 -0.016442 0.033702 0.002387
# 6 -0.005130 0.000399 -0.000144 0.000075 0.002387 0.029258
#
#
# Mechanical properties :
#
#
# Convention : Reuss Voigt Hill
#
# Bulk Modulus (GPa) = 41.13640 56.33721 48.73680
# Shear Modulus (GPa) = 28.14530 35.16949 31.65740
#
# Velocity S-wave (km/s) = 3.57099 3.99180 3.78725
# Velocity P-wave (km/s) = 5.96997 6.83894 6.41918
#
# Compressibility (1/GPa) = 0.02430937
#
# Stress axis : x y z
#
# Youngs Moduli (GPa) = 91.45248 62.43368 77.99947
#
# Poissons Ratio (x) = 0.29882 0.14336
# Poissons Ratio (y) = 0.43771 0.08636
# Poissons Ratio (z) = 0.16809 0.06913
#
# Static dielectric constant tensor:
#      x y z
#    x 4.183660 0.277500 -0.102280 
#    y 0.277500 3.827400 -0.032580 
#    z -0.102280 -0.032580 3.928260 
# 
# 
# High freq. dielectric constant tensor:
#      x y z
#    x 1.882860 0.015730 -0.003300 
#    y 0.015730 1.853840 -0.011020 
#    z -0.003300 -0.011020 1.865950 
# 
# From -- ./inp_files/540944.got.cif
#   From: 2010.06.25/outbox.cif.g09.slc.cpg/sg2_271_cif.got.tgz:540944.got - 2010.06.27 13:26:56.
