data_PCOD8027047
_publ_section_title
;
Structure prediction by ZEFSAII (Michael W. Deem and Ramdas Pophale) SiO2 
 PCOD8027047
Probable space group: P -1
;
_chemical_formula_sum "Si O2"
_cell_formula_units_Z 16
_cell_length_a 21.255684
_cell_length_b 18.360451
_cell_length_c 11.650512
_cell_angle_alpha 33.072786
_cell_angle_beta 149.347874
_cell_angle_gamma 161.604362
_cell_volume 724.865395
_symmetry_space_group_name_H-M "P -1"
_symmetry_group_IT_number 2
_symmetry_cell_setting 'triclinic'
loop_
_space_group_symop_operation_xyz
x,y,z
-x,-y,-z
loop_
_atom_site_type_symbol
_atom_site_label
_atom_site_fract_x
_atom_site_fract_y
_atom_site_fract_z
Si Si1 0.670006 0.101819 0.543343
Si Si2 0.658660 0.736797 0.368873
Si Si3 0.433162 0.653587 0.658816
Si Si4 0.089612 0.047462 0.733687
Si Si5 0.198704 0.205196 0.958653
Si Si6 0.424844 0.801362 0.943753
Si Si7 0.217163 0.699610 0.146222
Si Si8 0.024189 0.681030 0.076207
O O1 0.680263 0.207927 0.311866
O O2 0.904643 0.301286 0.707475
O O3 0.500000 0.000000 0.500000
O O4 0.591590 0.883690 0.678501
O O5 0.500000 0.500000 0.500000
O O6 0.718505 0.732728 0.340749
O O7 0.545260 0.777931 0.117990
O O8 0.875750 0.945905 0.509413
O O9 0.256523 0.414521 0.772546
O O10 0.300865 0.623627 0.398541
O O11 0.592939 0.687754 0.804523
O O12 0.152555 0.116330 0.873657
O O13 0.038740 0.852829 0.867062
O O14 0.000000 0.000000 0.000000
O O15 0.220765 0.579731 0.994157
O O16 0.593721 0.046395 0.954628
O O17 0.182484 0.747421 0.148119
O O18 0.000000 0.500000 0.000000
#
# Coordination Sequence:
#
# PCOD8027047 Si02
#       8
#     2   2   2   2   2   2   2   2
#     4  11  20  42  71  98 134 171 222 291 337 404
#     4  11  23  41  66 102 134 180 230 283 343 408
#     4  10  24  44  66 100 135 186 229 279 352 409
#     4  11  24  42  70  98 139 181 229 289 345 412
#     4  11  26  46  68 102 141 183 231 288 353 414
#     4  11  24  40  66 106 130 175 231 276 351 405
#     4  11  26  46  69  95 145 183 225 284 344 419
#     4  12  22  43  71 105 131 174 228 292 347 404
#
# _framework density 22.073063999999999
#
# number of rings (size 3 to 8) (size 9 to 14) (size 15 to 20)
#    0.000    1.000    6.250    0.375    1.750    5.500 
#    2.250    0.000    0.000    0.000    0.000    0.000 
#    0.000    0.000    0.000    0.000    0.000    0.000 
#
# Total GULP energy -198301.783249 kJ/mol
# GULP energy per Si atom -12393.861453 kJ/mol
# Density = 2.202283 g / cm^3
# Si number density = 22.073064 Si / 1000 Ang^3
#
#
#
# Elastic Constant Matrix: (Units=GPa)
#
#
# Indices 1 2 3 4 5 6 
#
# 1 65.7854 33.9534 37.4585 -6.3866 -10.3005 12.6967
# 2 33.9534 149.6489 62.8714 -3.9100 -6.6716 12.6574
# 3 37.4585 62.8714 116.7224 -5.5249 8.0480 -3.3920
# 4 -6.3866 -3.9100 -5.5249 43.6659 -1.0430 -6.8109
# 5 -10.3005 -6.6716 8.0480 -1.0430 27.8692 0.9323
# 6 12.6967 12.6574 -3.3920 -6.8109 0.9323 40.6707
#
#
#
# Elastic Compliance Matrix: (Units=1/GPa)
#
#
# Indices 1 2 3 4 5 6 
#
# 1 0.023605 -0.000753 -0.008103 0.001406 0.011199 -0.007832
# 2 -0.000753 0.009477 -0.005223 -0.000350 0.003596 -0.003291
# 3 -0.008103 -0.005223 0.014789 0.000906 -0.008674 0.005739
# 4 0.001406 -0.000350 0.000906 0.023791 0.000940 0.003708
# 5 0.011199 0.003596 -0.008674 0.000940 0.043628 -0.006181
# 6 -0.007832 -0.003291 0.005739 0.003708 -0.006181 0.029298
#
#
# Mechanical properties :
#
#
# Convention : Reuss Voigt Hill
#
# Bulk Modulus (GPa) = 50.72881 66.74703 58.73792
# Shear Modulus (GPa) = 27.88350 35.63272 31.75811
#
# Velocity S-wave (km/s) = 3.55806 4.02220 3.79723
# Velocity P-wave (km/s) = 6.31758 7.20247 6.77449
#
# Compressibility (1/GPa) = 0.01971267
#
# Stress axis : x y z
#
# Youngs Moduli (GPa) = 42.36418 105.51781 67.61843
#
# Poissons Ratio (x) = 0.07946 0.54790
# Poissons Ratio (y) = 0.03190 0.35318
# Poissons Ratio (z) = 0.34327 0.55114
#
# Static dielectric constant tensor:
#      x y z
#    x 4.050100 -0.236170 -0.052390 
#    y -0.236170 4.493820 0.146390 
#    z -0.052390 0.146390 4.329230 
# 
# 
# High freq. dielectric constant tensor:
#      x y z
#    x 1.833710 0.010690 0.009640 
#    y 0.010690 1.884240 0.003670 
#    z 0.009640 0.003670 1.889730 
# 
# From -- ./inp_files/472371.got.cif
#   From: 2010.06.25/outbox.cif.g09.slc.cpg/sg2_237_cif.got.tgz:472371.got - 2010.06.27 13:26:56.
