data_PCOD8027816
_publ_section_title
;
Structure prediction by ZEFSAII (Michael W. Deem and Ramdas Pophale) SiO2 
 PCOD8027816
Probable space group: P -1
;
_chemical_formula_sum "Si O2"
_cell_formula_units_Z 16
_cell_length_a 11.331547
_cell_length_b 16.735553
_cell_length_c 5.082635
_cell_angle_alpha 90.606388
_cell_angle_beta 113.919374
_cell_angle_gamma 56.511852
_cell_volume 705.529303
_symmetry_space_group_name_H-M "P -1"
_symmetry_group_IT_number 2
_symmetry_cell_setting 'triclinic'
loop_
_space_group_symop_operation_xyz
x,y,z
-x,-y,-z
loop_
_atom_site_type_symbol
_atom_site_label
_atom_site_fract_x
_atom_site_fract_y
_atom_site_fract_z
Si Si1 0.873920 0.617262 0.397086
Si Si2 0.688772 0.449969 0.691369
Si Si3 0.925628 0.898549 0.492136
Si Si4 0.115187 0.669754 0.643750
Si Si5 0.828078 0.077481 0.084942
Si Si6 0.623616 0.169731 0.395747
Si Si7 0.309732 0.364282 0.263632
Si Si8 0.577089 0.010125 0.320503
O O1 0.737846 0.651463 0.494418
O O2 0.000000 0.500000 0.500000
O O3 0.963602 0.666822 0.538086
O O4 0.789529 0.650196 0.038659
O O5 0.500000 0.500000 0.500000
O O6 0.768235 0.400288 0.484984
O O7 0.723893 0.529422 0.789934
O O8 0.776559 0.366657 0.995712
O O9 0.045903 0.782834 0.518977
O O10 0.009701 0.930322 0.766465
O O11 0.865616 0.970712 0.184200
O O12 0.768684 0.922672 0.497936
O O13 0.705965 0.161529 0.192912
O O14 0.760741 0.108772 0.734676
O O15 0.499616 0.283317 0.379838
O O16 0.530818 0.120492 0.278799
O O17 0.500000 0.000000 0.500000
O O18 0.500000 0.000000 0.000000
#
# Coordination Sequence:
#
# PCOD8027816 Si02
#       8
#     2   2   2   2   2   2   2   2
#     4  12  23  45  66  96 135 180 228 280 328 400
#     4  12  27  46  67 105 139 178 223 285 335 406
#     4  10  26  45  72 100 135 180 228 285 335 403
#     4  12  27  43  73 100 136 182 229 278 343 396
#     4  10  24  47  70  99 133 173 232 279 334 400
#     4  11  25  43  71  98 130 181 221 275 339 403
#     4  12  25  43  71  95 136 179 223 276 339 400
#     4  11  25  43  64  97 138 170 217 276 332 395
#
# _framework density 22.678007000000001
#
# number of rings (size 3 to 8) (size 9 to 14) (size 15 to 20)
#    0.000    0.750    2.500    3.750    7.000    8.500 
#    0.000    0.000    0.000    0.000    0.000    0.000 
#    0.000    0.000    0.000    0.000    0.000    0.000 
#
# Total GULP energy -198471.029987 kJ/mol
# GULP energy per Si atom -12404.439374 kJ/mol
# Density = 2.262639 g / cm^3
# Si number density = 22.678007 Si / 1000 Ang^3
#
#
#
# Elastic Constant Matrix: (Units=GPa)
#
#
# Indices 1 2 3 4 5 6 
#
# 1 137.6660 29.3660 33.5234 9.8495 5.7475 -19.0880
# 2 29.3660 102.5555 14.6680 -14.3876 2.8676 -10.2474
# 3 33.5234 14.6680 97.4613 16.6588 8.3705 -1.4609
# 4 9.8495 -14.3876 16.6588 32.7874 -5.3137 3.6458
# 5 5.7475 2.8676 8.3705 -5.3137 38.1811 7.2643
# 6 -19.0880 -10.2474 -1.4609 3.6458 7.2643 32.8469
#
#
#
# Elastic Compliance Matrix: (Units=1/GPa)
#
#
# Indices 1 2 3 4 5 6 
#
# 1 0.009385 -0.002329 -0.001922 -0.003881 -0.002424 0.005609
# 2 -0.002329 0.011824 -0.002208 0.006972 0.000666 0.001316
# 3 -0.001922 -0.002208 0.012844 -0.007522 -0.003478 0.000370
# 4 -0.003881 0.006972 -0.007522 0.040715 0.008680 -0.006854
# 5 -0.002424 0.000666 -0.003478 0.008680 0.030188 -0.008995
# 6 0.005609 0.001316 0.000370 -0.006854 -0.008995 0.036881
#
#
# Mechanical properties :
#
#
# Convention : Reuss Voigt Hill
#
# Bulk Modulus (GPa) = 47.31195 54.75526 51.03361
# Shear Modulus (GPa) = 30.90242 38.10477 34.50360
#
# Velocity S-wave (km/s) = 3.69543 4.10353 3.90482
# Velocity P-wave (km/s) = 6.25428 6.83001 6.54848
#
# Compressibility (1/GPa) = 0.02113631
#
# Stress axis : x y z
#
# Youngs Moduli (GPa) = 106.54909 84.57125 77.85867
#
# Poissons Ratio (x) = 0.19695 0.14965
# Poissons Ratio (y) = 0.24813 0.17189
# Poissons Ratio (z) = 0.20480 0.18671
#
# Static dielectric constant tensor:
#      x y z
#    x 4.397940 0.085580 0.227850 
#    y 0.085580 4.300510 -0.002150 
#    z 0.227850 -0.002150 4.634140 
# 
# 
# High freq. dielectric constant tensor:
#      x y z
#    x 1.907700 -0.009310 0.005400 
#    y -0.009310 1.898820 0.006510 
#    z 0.005400 0.006510 1.901850 
# 
# From -- ./inp_files/77976.got.cif
#   From: 2010.06.25/outbox.cif.g09.slc.cpg/sg2_39_cif.got.tgz:77976.got - 2010.06.27 13:26:56.
