data_PCOD8027757
_publ_section_title
;
Structure prediction by ZEFSAII (Michael W. Deem and Ramdas Pophale) SiO2 
 PCOD8027757
Probable space group: P -1
;
_chemical_formula_sum "Si O2"
_cell_formula_units_Z 14
_cell_length_a 11.898205
_cell_length_b 7.293303
_cell_length_c 14.122457
_cell_angle_alpha 40.851171
_cell_angle_beta 129.965520
_cell_angle_gamma 127.412830
_cell_volume 595.996117
_symmetry_space_group_name_H-M "P -1"
_symmetry_group_IT_number 2
_symmetry_cell_setting 'triclinic'
loop_
_space_group_symop_operation_xyz
x,y,z
-x,-y,-z
loop_
_atom_site_type_symbol
_atom_site_label
_atom_site_fract_x
_atom_site_fract_y
_atom_site_fract_z
Si Si1 0.144516 0.926085 0.651322
Si Si2 0.001168 0.762989 0.829004
Si Si3 0.319945 0.442337 0.223320
Si Si4 0.652019 0.454557 0.438222
Si Si5 0.328973 0.034806 0.223538
Si Si6 0.344046 0.660807 0.729197
Si Si7 0.749319 0.960745 0.024394
O O1 0.089102 0.741655 0.787916
O O2 0.207979 0.732296 0.686926
O O3 0.268683 0.212839 0.634264
O O4 0.000000 0.000000 0.500000
O O5 0.823596 0.747293 0.719996
O O6 0.094251 0.036330 0.834825
O O7 0.000000 0.500000 0.000000
O O8 0.471287 0.409122 0.370294
O O9 0.308222 0.308365 0.164671
O O10 0.321360 0.778405 0.079632
O O11 0.690172 0.341850 0.400379
O O12 0.710878 0.261658 0.622971
O O13 0.502736 0.102274 0.255793
O O14 0.220290 0.995647 0.088725
O O15 0.364673 0.345565 0.894853
#
# Coordination Sequence:
#
# PCOD8027757 Si02
#       7
#     2   2   2   2   2   2   2
#     4  12  29  46  75 104 145 186 235 294 353 421
#     4  10  25  48  68 105 141 187 231 292 351 416
#     4  10  24  46  74  99 147 179 242 284 352 411
#     4  11  26  48  73 105 142 189 233 296 347 417
#     4  11  26  42  76 106 141 190 235 289 350 426
#     4  11  25  47  69 110 141 181 246 287 351 420
#     4  11  24  44  71 103 144 186 232 292 350 414
#
# _framework density 23.490085000000001
#
# number of rings (size 3 to 8) (size 9 to 14) (size 15 to 20)
#    0.000    1.143    1.429    3.000   12.000    5.714 
#    0.000    0.000    0.000    0.000    0.000    0.000 
#    0.000    0.000    0.000    0.000    0.000    0.000 
#
# Total GULP energy -173577.385665 kJ/mol
# GULP energy per Si atom -12398.384690 kJ/mol
# Density = 2.343662 g / cm^3
# Si number density = 23.490085 Si / 1000 Ang^3
#
#
#
# Elastic Constant Matrix: (Units=GPa)
#
#
# Indices 1 2 3 4 5 6 
#
# 1 138.2936 54.3433 40.7822 0.1004 -12.8002 -7.7460
# 2 54.3433 93.4093 28.4778 0.5273 1.6415 -8.3649
# 3 40.7822 28.4778 101.3238 -2.9293 -28.0160 -5.8915
# 4 0.1004 0.5273 -2.9293 38.5548 -0.3976 5.0124
# 5 -12.8002 1.6415 -28.0160 -0.3976 34.8724 -3.5224
# 6 -7.7460 -8.3649 -5.8915 5.0124 -3.5224 28.7027
#
#
#
# Elastic Compliance Matrix: (Units=1/GPa)
#
#
# Indices 1 2 3 4 5 6 
#
# 1 0.010156 -0.005297 -0.001805 -0.000218 0.002645 0.001189
# 2 -0.005297 0.015107 -0.003500 -0.000739 -0.005301 0.001733
# 3 -0.001805 -0.003500 0.015067 0.000945 0.011909 0.002882
# 4 -0.000218 -0.000739 0.000945 0.026632 0.000547 -0.004664
# 5 0.002645 -0.005301 0.011909 0.000547 0.040121 0.006441
# 6 0.001189 0.001733 0.002882 -0.004664 0.006441 0.037863
#
#
# Mechanical properties :
#
#
# Convention : Reuss Voigt Hill
#
# Bulk Modulus (GPa) = 52.28416 64.47038 58.37727
# Shear Modulus (GPa) = 28.98128 34.38754 31.68441
#
# Velocity S-wave (km/s) = 3.51631 3.83027 3.67664
# Velocity P-wave (km/s) = 6.22834 6.86051 6.55206
#
# Compressibility (1/GPa) = 0.01912625
#
# Stress axis : x y z
#
# Youngs Moduli (GPa) = 98.45980 66.19456 66.36918
#
# Poissons Ratio (x) = 0.35065 0.11979
# Poissons Ratio (y) = 0.52157 0.23230
# Poissons Ratio (z) = 0.17771 0.23169
#
# Static dielectric constant tensor:
#      x y z
#    x 4.815570 0.444070 -0.016490 
#    y 0.444070 4.740530 0.186250 
#    z -0.016490 0.186250 4.140990 
# 
# 
# High freq. dielectric constant tensor:
#      x y z
#    x 1.924350 0.007070 -0.012040 
#    y 0.007070 1.943420 0.004500 
#    z -0.012040 0.004500 1.925530 
# 
# From -- ./inp_files/409772.got.cif
#   From: 2010.06.25/outbox.cif.g09.slc.cpg/sg2_205_cif.got.tgz:409772.got - 2010.06.27 13:26:56.
