data_PCOD8027465
_publ_section_title
;
Structure prediction by ZEFSAII (Michael W. Deem and Ramdas Pophale) SiO2 
 PCOD8027465
Probable space group: P -1
;
_chemical_formula_sum "Si O2"
_cell_formula_units_Z 16
_cell_length_a 13.314989
_cell_length_b 11.303719
_cell_length_c 9.852551
_cell_angle_alpha 66.239271
_cell_angle_beta 77.274347
_cell_angle_gamma 33.546961
_cell_volume 730.190626
_symmetry_space_group_name_H-M "P -1"
_symmetry_group_IT_number 2
_symmetry_cell_setting 'triclinic'
loop_
_space_group_symop_operation_xyz
x,y,z
-x,-y,-z
loop_
_atom_site_type_symbol
_atom_site_label
_atom_site_fract_x
_atom_site_fract_y
_atom_site_fract_z
Si Si1 0.173775 0.624673 0.686346
Si Si2 0.183623 0.337658 0.410516
Si Si3 0.503108 0.908948 0.171101
Si Si4 0.362710 0.511928 0.154276
Si Si5 0.087099 0.321069 0.172876
Si Si6 0.932754 0.279304 0.633949
Si Si7 0.735056 0.252941 0.193858
Si Si8 0.449427 0.938114 0.690450
O O1 0.370916 0.347258 0.769042
O O2 0.123622 0.701954 0.509552
O O3 0.187632 0.745052 0.704501
O O4 0.017401 0.704824 0.773241
O O5 0.068611 0.417486 0.275308
O O6 0.057699 0.572179 0.425436
O O7 0.371098 0.219905 0.380818
O O8 0.258505 0.134188 0.567012
O O9 0.300780 0.066699 0.195684
O O10 0.587868 0.910662 0.260550
O O11 0.500000 0.000000 0.000000
O O12 0.218465 0.623249 0.262736
O O13 0.516547 0.450814 0.195658
O O14 0.494879 0.258117 0.172063
O O15 0.246421 0.690375 0.980422
O O16 0.000000 0.500000 0.000000
O O17 0.136364 0.009501 0.732804
#
# Coordination Sequence:
#
# PCOD8027465 Si02
#       8
#     2   2   2   2   2   2   2   2
#     4  12  26  42  64 100 133 173 220 270 329 388
#     4   9  20  38  66  98 128 166 212 267 327 393
#     4  11  21  40  64  94 134 169 207 261 331 396
#     4  10  24  45  69  93 126 179 221 270 330 385
#     4  11  25  41  64 102 138 171 210 270 339 392
#     4  11  24  44  70  96 131 171 225 272 322 390
#     4  11  26  46  65  94 133 175 229 270 320 386
#     4   9  18  38  67  94 128 162 211 272 324 384
#
# _framework density 21.912087
#
# number of rings (size 3 to 8) (size 9 to 14) (size 15 to 20)
#    0.000    1.500    2.500    1.500    7.000    3.000 
#    4.500    0.000    0.000    0.000    0.000    0.000 
#    0.000    0.000    0.000    0.000    0.000    0.000 
#
# Total GULP energy -198365.010108 kJ/mol
# GULP energy per Si atom -12397.813132 kJ/mol
# Density = 2.186221 g / cm^3
# Si number density = 21.912087 Si / 1000 Ang^3
#
#
#
# Elastic Constant Matrix: (Units=GPa)
#
#
# Indices 1 2 3 4 5 6 
#
# 1 24.4362 27.2379 -30.3479 -17.8366 19.2966 1.9745
# 2 27.2379 91.3717 40.4495 -11.0939 2.9305 6.6046
# 3 -30.3479 40.4495 80.7737 -36.4222 15.1318 3.5230
# 4 -17.8366 -11.0939 -36.4222 34.5092 3.3093 -10.5636
# 5 19.2966 2.9305 15.1318 3.3093 33.9772 1.0278
# 6 1.9745 6.6046 3.5230 -10.5636 1.0278 39.1623
#
#
#
# Elastic Compliance Matrix: (Units=1/GPa)
#
#
# Indices 1 2 3 4 5 6 
#
# 1 -0.004554 0.005555 -0.014508 -0.018298 0.010490 -0.004613
# 2 0.005555 0.009293 0.003043 0.009892 -0.006297 0.000712
# 3 -0.014508 0.003043 0.000608 -0.007314 0.008480 -0.002032
# 4 -0.018298 0.009892 -0.007314 0.015028 0.011221 0.003672
# 5 0.010490 -0.006297 0.008480 0.011221 0.019078 0.002296
# 6 -0.004613 0.000712 -0.002032 0.003672 0.002296 0.026760
#
#
# Mechanical properties :
#
#
# Convention : Reuss Voigt Hill
#
# Bulk Modulus (GPa) = -154.48694 30.14007 -62.17344
# Shear Modulus (GPa) = 65.89779 32.14588 49.02184
#
# Velocity S-wave (km/s) = 5.48990 3.83435 4.73504
# Velocity P-wave (km/s) = 5.52003 5.77822 1.20769
#
# Compressibility (1/GPa) = -0.00647304
#
# Stress axis : x y z
#
# Youngs Moduli (GPa) = -219.59003 107.61015 1645.42099
#
# Poissons Ratio (x) = -0.59781 23.87137
# Poissons Ratio (y) = 1.21991 -5.00629
# Poissons Ratio (z) = -3.18576 -0.32741
#
# Static dielectric constant tensor:
#      x y z
#    x 3.927070 0.012710 -0.124680 
#    y 0.012710 4.141130 -0.172510 
#    z -0.124680 -0.172510 4.085690 
# 
# 
# High freq. dielectric constant tensor:
#      x y z
#    x 1.859420 -0.013440 -0.002260 
#    y -0.013440 1.869990 -0.009910 
#    z -0.002260 -0.009910 1.873430 
# 
# From -- ./inp_files/307016.got.cif
#   From: 2010.06.25/outbox.cif.g09.slc.cpg/sg2_154_cif.got.tgz:307016.got - 2010.06.27 13:26:56.
