data_PCOD8027815
_publ_section_title
;
Structure prediction by ZEFSAII (Michael W. Deem and Ramdas Pophale) SiO2 
 PCOD8027815
Probable space group: P -1
;
_chemical_formula_sum "Si O2"
_cell_formula_units_Z 16
_cell_length_a 11.577145
_cell_length_b 10.271492
_cell_length_c 14.995309
_cell_angle_alpha 26.115441
_cell_angle_beta 64.228439
_cell_angle_gamma 62.100501
_cell_volume 693.192020
_symmetry_space_group_name_H-M "P -1"
_symmetry_group_IT_number 2
_symmetry_cell_setting 'triclinic'
loop_
_space_group_symop_operation_xyz
x,y,z
-x,-y,-z
loop_
_atom_site_type_symbol
_atom_site_label
_atom_site_fract_x
_atom_site_fract_y
_atom_site_fract_z
Si Si1 0.080747 0.293852 0.407471
Si Si2 0.552107 0.780074 0.197093
Si Si3 0.449023 0.894520 0.823257
Si Si4 0.683556 0.521019 0.543673
Si Si5 0.817249 0.594164 0.274719
Si Si6 0.118397 0.839848 0.172904
Si Si7 0.287843 0.415842 0.125813
Si Si8 0.063477 0.756514 0.868578
O O1 0.054208 0.580254 0.308834
O O2 0.206800 0.287812 0.307977
O O3 0.949378 0.351254 0.354044
O O4 0.101569 0.976805 0.645395
O O5 0.444794 0.593150 0.376128
O O6 0.697976 0.571919 0.258596
O O7 0.590194 0.962197 0.156137
O O8 0.500000 0.000000 0.000000
O O9 0.607031 0.852332 0.789389
O O10 0.373185 0.126034 0.631186
O O11 0.387926 0.598477 0.025527
O O12 0.788336 0.494909 0.445512
O O13 0.746510 0.334185 0.721861
O O14 0.848791 0.933075 0.053068
O O15 0.029386 0.040072 0.153890
O O16 0.196093 0.596432 0.970479
O O17 0.000000 0.500000 0.000000
#
# Coordination Sequence:
#
# PCOD8027815 Si02
#       8
#     2   2   2   2   2   2   2   2
#     4  12  25  45  76 105 134 192 239 285 354 421
#     4  11  23  40  68 102 135 178 229 292 344 407
#     4  10  24  47  70  98 142 189 227 291 350 421
#     4  11  23  42  68 104 138 177 236 287 351 408
#     4  11  22  39  69 103 136 175 238 289 347 403
#     4  12  24  43  75 107 138 178 241 298 344 418
#     4  11  26  49  69  98 146 184 235 285 353 427
#     4  12  29  46  68 108 149 185 228 295 361 419
#
# _framework density 23.081627999999998
#
# number of rings (size 3 to 8) (size 9 to 14) (size 15 to 20)
#    0.000    0.750    3.750    4.500    5.250    1.500 
#    6.750    1.875    0.000    0.000    0.000    0.000 
#    0.000    0.000    0.000    0.000    0.000    0.000 
#
# Total GULP energy -198296.984935 kJ/mol
# GULP energy per Si atom -12393.561558 kJ/mol
# Density = 2.302909 g / cm^3
# Si number density = 23.081628 Si / 1000 Ang^3
#
#
#
# Elastic Constant Matrix: (Units=GPa)
#
#
# Indices 1 2 3 4 5 6 
#
# 1 124.8929 35.4041 34.4465 13.1980 10.9736 -27.7506
# 2 35.4041 68.7847 34.0872 11.9845 -1.5321 -23.0794
# 3 34.4465 34.0872 137.4285 27.6447 2.8150 -10.9925
# 4 13.1980 11.9845 27.6447 27.6774 -7.3119 -1.5925
# 5 10.9736 -1.5321 2.8150 -7.3119 47.9006 -0.5274
# 6 -27.7506 -23.0794 -10.9925 -1.5925 -0.5274 41.6796
#
#
#
# Elastic Compliance Matrix: (Units=1/GPa)
#
#
# Indices 1 2 3 4 5 6 
#
# 1 0.010857 -0.002863 -0.000796 -0.003640 -0.003030 0.005256
# 2 -0.002863 0.021232 -0.003051 -0.004003 0.001001 0.008905
# 3 -0.000796 -0.003051 0.010052 -0.008824 -0.001852 0.000070
# 4 -0.003640 -0.004003 -0.008824 0.050474 0.008875 -0.004927
# 5 -0.003030 0.001001 -0.001852 0.008875 0.023052 -0.001320
# 6 0.005256 0.008905 0.000070 -0.004927 -0.001320 0.032237
#
#
# Mechanical properties :
#
#
# Convention : Reuss Voigt Hill
#
# Bulk Modulus (GPa) = 34.82164 59.88684 47.35424
# Shear Modulus (GPa) = 29.25726 38.59610 33.92668
#
# Velocity S-wave (km/s) = 3.56414 4.09364 3.83803
# Velocity P-wave (km/s) = 5.66185 6.95312 6.34044
#
# Compressibility (1/GPa) = 0.02871778
#
# Stress axis : x y z
#
# Youngs Moduli (GPa) = 92.10822 47.09886 99.48707
#
# Poissons Ratio (x) = 0.13486 0.07924
# Poissons Ratio (y) = 0.26373 0.30358
# Poissons Ratio (z) = 0.07336 0.14372
#
# Static dielectric constant tensor:
#      x y z
#    x 4.778520 -0.493770 0.316560 
#    y -0.493770 4.083900 -0.188060 
#    z 0.316560 -0.188060 4.579540 
# 
# 
# High freq. dielectric constant tensor:
#      x y z
#    x 1.932980 -0.027080 0.006380 
#    y -0.027080 1.885550 0.009310 
#    z 0.006380 0.009310 1.928870 
# 
# From -- ./inp_files/569078.got.cif
#   From: 2010.06.25/outbox.cif.g09.slc.cpg/sg2_285_cif.got.tgz:569078.got - 2010.06.27 13:26:56.
