data_PCOD8027293
_publ_section_title
;
Structure prediction by ZEFSAII (Michael W. Deem and Ramdas Pophale) SiO2 
 PCOD8027293
Probable space group: P -1
;
_chemical_formula_sum "Si O2"
_cell_formula_units_Z 16
_cell_length_a 11.047023
_cell_length_b 9.283278
_cell_length_c 15.929672
_cell_angle_alpha 153.893395
_cell_angle_beta 107.741458
_cell_angle_gamma 80.279690
_cell_volume 662.929950
_symmetry_space_group_name_H-M "P -1"
_symmetry_group_IT_number 2
_symmetry_cell_setting 'triclinic'
loop_
_space_group_symop_operation_xyz
x,y,z
-x,-y,-z
loop_
_atom_site_type_symbol
_atom_site_label
_atom_site_fract_x
_atom_site_fract_y
_atom_site_fract_z
Si Si1 0.567548 0.539511 0.790208
Si Si2 0.606465 0.403516 0.911689
Si Si3 0.317038 0.692067 0.748262
Si Si4 0.222007 0.897627 0.678693
Si Si5 0.004778 0.685523 0.276833
Si Si6 0.792657 0.062694 0.854447
Si Si7 0.930225 0.839393 0.608926
Si Si8 0.233930 0.517666 0.324409
O O1 0.551268 0.347729 0.775846
O O2 0.422722 0.503584 0.704884
O O3 0.643453 0.355741 0.645655
O O4 0.653434 0.928980 0.011288
O O5 0.655974 0.087623 0.793542
O O6 0.500000 0.500000 0.000000
O O7 0.738564 0.703386 0.090374
O O8 0.316647 0.721723 0.661753
O O9 0.171696 0.465859 0.621805
O O10 0.242784 0.833884 0.552835
O O11 0.071199 0.747273 0.598156
O O12 0.099120 0.462056 0.215187
O O13 0.055157 0.827792 0.270480
O O14 0.000000 0.000000 0.500000
O O15 0.863590 0.426242 0.098969
O O16 0.881184 0.917531 0.731417
O O17 0.757820 0.812242 0.794664
#
# Coordination Sequence:
#
# PCOD8027293 Si02
#       8
#     2   2   2   2   2   2   2   2
#     4  10  26  46  73 103 147 185 243 297 356 427
#     4  11  26  50  75 101 144 194 239 291 365 432
#     4  10  24  44  72 105 139 196 231 301 358 423
#     4  11  24  46  72 107 146 190 235 297 362 428
#     4  12  26  44  67 108 148 183 233 300 358 422
#     4  12  27  44  73 108 140 197 240 292 357 433
#     4  12  24  45  74 101 146 189 243 286 367 421
#     4  12  26  44  72 109 140 187 241 300 356 423
#
# _framework density 24.135280999999999
#
# number of rings (size 3 to 8) (size 9 to 14) (size 15 to 20)
#    0.000    0.750    3.750    1.875   10.500    2.500 
#    0.000    1.875    0.000    0.000    0.000    0.000 
#    0.000    0.000    0.000    0.000    0.000    0.000 
#
# Total GULP energy -198391.815086 kJ/mol
# GULP energy per Si atom -12399.488443 kJ/mol
# Density = 2.408035 g / cm^3
# Si number density = 24.135281 Si / 1000 Ang^3
#
#
#
# Elastic Constant Matrix: (Units=GPa)
#
#
# Indices 1 2 3 4 5 6 
#
# 1 137.0427 57.5440 28.8525 -22.5813 -10.8505 -14.3522
# 2 57.5440 173.6778 10.4966 -20.6988 -1.4555 -28.2034
# 3 28.8525 10.4966 66.1882 -11.1492 7.3576 -4.7852
# 4 -22.5813 -20.6988 -11.1492 38.3162 6.1482 -1.1439
# 5 -10.8505 -1.4555 7.3576 6.1482 42.2932 -8.7965
# 6 -14.3522 -28.2034 -4.7852 -1.1439 -8.7965 54.5595
#
#
#
# Elastic Compliance Matrix: (Units=1/GPa)
#
#
# Indices 1 2 3 4 5 6 
#
# 1 0.010009 -0.002443 -0.003677 0.003074 0.003009 0.001597
# 2 -0.002443 0.007399 0.000637 0.002876 -0.000222 0.003263
# 3 -0.003677 0.000637 0.017829 0.004105 -0.004562 0.000276
# 4 0.003074 0.002876 0.004105 0.031352 -0.003824 0.002696
# 5 0.003009 -0.000222 -0.004562 -0.003824 0.026694 0.004500
# 6 0.001597 0.003263 0.000276 0.002696 0.004500 0.021242
#
#
# Mechanical properties :
#
#
# Convention : Reuss Voigt Hill
#
# Bulk Modulus (GPa) = 41.20225 63.41055 52.30640
# Shear Modulus (GPa) = 37.43012 45.70146 41.56579
#
# Velocity S-wave (km/s) = 3.94235 4.35622 4.15444
# Velocity P-wave (km/s) = 6.15071 7.18556 6.68818
#
# Compressibility (1/GPa) = 0.02427052
#
# Stress axis : x y z
#
# Youngs Moduli (GPa) = 99.91079 135.14497 56.08874
#
# Poissons Ratio (x) = 0.33017 0.20623
# Poissons Ratio (y) = 0.24409 -0.03570
# Poissons Ratio (z) = 0.36735 -0.08602
#
# Static dielectric constant tensor:
#      x y z
#    x 4.092870 -0.125350 0.203520 
#    y -0.125350 4.709990 -0.078610 
#    z 0.203520 -0.078610 4.360820 
# 
# 
# High freq. dielectric constant tensor:
#      x y z
#    x 1.943920 -0.010480 0.008940 
#    y -0.010480 1.983710 -0.004940 
#    z 0.008940 -0.004940 1.955310 
# 
# From -- ./inp_files/516492.got.cif
#   From: 2010.06.25/outbox.cif.g09.slc.cpg/sg2_259_cif.got.tgz:516492.got - 2010.06.27 13:26:56.
