data_PCOD8027772
_publ_section_title
;
Structure prediction by ZEFSAII (Michael W. Deem and Ramdas Pophale) SiO2 
 PCOD8027772
Probable space group: P -1
;
_chemical_formula_sum "Si O2"
_cell_formula_units_Z 16
_cell_length_a 8.125516
_cell_length_b 5.640229
_cell_length_c 19.402075
_cell_angle_alpha 126.302676
_cell_angle_beta 100.293292
_cell_angle_gamma 62.928417
_cell_volume 632.965364
_symmetry_space_group_name_H-M "P -1"
_symmetry_group_IT_number 2
_symmetry_cell_setting 'triclinic'
loop_
_space_group_symop_operation_xyz
x,y,z
-x,-y,-z
loop_
_atom_site_type_symbol
_atom_site_label
_atom_site_fract_x
_atom_site_fract_y
_atom_site_fract_z
Si Si1 0.003754 0.188513 0.412039
Si Si2 0.917780 0.830168 0.736120
Si Si3 0.720897 0.609498 0.233449
Si Si4 0.321746 0.523152 0.329001
Si Si5 0.380832 0.465264 0.168396
Si Si6 0.617317 0.247225 0.406487
Si Si7 0.183693 0.465742 0.918287
Si Si8 0.762629 0.892141 0.996775
O O1 0.970412 0.188486 0.328246
O O2 0.830254 0.146014 0.421995
O O3 0.000000 0.500000 0.500000
O O4 0.203479 0.907221 0.398673
O O5 0.072297 0.657878 0.776172
O O6 0.788715 0.655472 0.673494
O O7 0.779425 0.192920 0.814208
O O8 0.586382 0.441188 0.179710
O O9 0.757151 0.744700 0.185386
O O10 0.619698 0.890082 0.332837
O O11 0.329546 0.412679 0.232327
O O12 0.524401 0.434985 0.360929
O O13 0.390477 0.171227 0.070107
O O14 0.500000 0.500000 0.500000
O O15 0.962644 0.642507 0.939657
O O16 0.262581 0.205996 0.942604
O O17 0.263268 0.740011 0.959656
#
# Coordination Sequence:
#
# PCOD8027772 Si02
#       8
#     2   2   2   2   2   2   2   2
#     4  11  26  43  70 101 136 191 243 305 372 437
#     4  11  24  45  70 101 140 192 240 296 372 437
#     4  12  26  46  73 107 144 193 243 304 370 448
#     4  11  24  46  72  99 146 187 241 302 368 440
#     4  11  26  44  74 108 142 191 241 302 367 439
#     4  12  27  45  72 105 145 190 245 303 365 440
#     4  10  25  45  76 111 149 199 247 307 380 444
#     4  10  24  46  77 110 151 194 249 311 371 453
#
# _framework density 25.277846
#
# number of rings (size 3 to 8) (size 9 to 14) (size 15 to 20)
#    0.000    1.000    2.500    2.250   12.250    3.500 
#    0.000    0.000    0.000    0.000    0.000    0.000 
#    0.000    0.000    0.000    0.000    0.000    0.000 
#
# Total GULP energy -198228.821787 kJ/mol
# GULP energy per Si atom -12389.301362 kJ/mol
# Density = 2.522031 g / cm^3
# Si number density = 25.277846 Si / 1000 Ang^3
#
#
#
# Elastic Constant Matrix: (Units=GPa)
#
#
# Indices 1 2 3 4 5 6 
#
# 1 81.2592 25.9209 30.1271 -0.8856 16.5165 -4.2628
# 2 25.9209 118.1616 40.1226 -2.4048 6.5918 -5.5874
# 3 30.1271 40.1226 118.4032 22.1323 5.0248 -1.9967
# 4 -0.8856 -2.4048 22.1323 21.4088 -5.1156 5.4863
# 5 16.5165 6.5918 5.0248 -5.1156 43.2194 -1.6438
# 6 -4.2628 -5.5874 -1.9967 5.4863 -1.6438 44.9456
#
#
#
# Elastic Compliance Matrix: (Units=1/GPa)
#
#
# Indices 1 2 3 4 5 6 
#
# 1 0.015236 -0.001768 -0.003604 0.002879 -0.004773 0.000539
# 2 -0.001768 0.010329 -0.004029 0.005221 0.000199 0.000307
# 3 -0.003604 -0.004029 0.013715 -0.015523 -0.001379 0.001611
# 4 0.002879 0.005221 -0.015523 0.067246 0.007575 -0.007699
# 5 -0.004773 0.000199 -0.001379 0.007575 0.025971 -0.000464
# 6 0.000539 0.000307 0.001611 -0.007699 -0.000464 0.023333
#
#
# Mechanical properties :
#
#
# Convention : Reuss Voigt Hill
#
# Bulk Modulus (GPa) = 48.83502 56.68505 52.76003
# Shear Modulus (GPa) = 27.55443 36.69165 32.12304
#
# Velocity S-wave (km/s) = 3.30519 3.81403 3.56869
# Velocity P-wave (km/s) = 5.82468 6.47065 6.15614
#
# Compressibility (1/GPa) = 0.02047711
#
# Stress axis : x y z
#
# Youngs Moduli (GPa) = 65.63268 96.81666 72.91037
#
# Poissons Ratio (x) = 0.17119 0.26278
# Poissons Ratio (y) = 0.11605 0.29378
# Poissons Ratio (z) = 0.23655 0.39011
#
# Static dielectric constant tensor:
#      x y z
#    x 5.040080 -0.156650 -0.050510 
#    y -0.156650 4.639220 0.013100 
#    z -0.050510 0.013100 4.762690 
# 
# 
# High freq. dielectric constant tensor:
#      x y z
#    x 2.018940 -0.015300 -0.005620 
#    y -0.015300 2.006140 0.009170 
#    z -0.005620 0.009170 2.021790 
# 
# From -- ./inp_files/553858.got.cif
#   From: 2010.06.25/outbox.cif.g09.slc.cpg/sg2_277_cif.got.tgz:553858.got - 2010.06.27 13:26:56.
