data_PCOD8027587
_publ_section_title
;
Structure prediction by ZEFSAII (Michael W. Deem and Ramdas Pophale) SiO2 
 PCOD8027587
Probable space group: P -1
;
_chemical_formula_sum "Si O2"
_cell_formula_units_Z 14
_cell_length_a 9.652359
_cell_length_b 11.957735
_cell_length_c 9.475622
_cell_angle_alpha 64.470296
_cell_angle_beta 119.659840
_cell_angle_gamma 69.749732
_cell_volume 600.973052
_symmetry_space_group_name_H-M "P -1"
_symmetry_group_IT_number 2
_symmetry_cell_setting 'triclinic'
loop_
_space_group_symop_operation_xyz
x,y,z
-x,-y,-z
loop_
_atom_site_type_symbol
_atom_site_label
_atom_site_fract_x
_atom_site_fract_y
_atom_site_fract_z
Si Si1 0.519186 0.292952 0.860952
Si Si2 0.495655 0.079436 0.313816
Si Si3 0.244538 0.672370 0.240099
Si Si4 0.875886 0.301218 0.542128
Si Si5 0.246935 0.835290 0.658997
Si Si6 0.003749 0.559251 0.121297
Si Si7 0.273074 0.218473 0.637506
O O1 0.735242 0.223073 0.915437
O O2 0.285897 0.495698 0.608585
O O3 0.460825 0.184183 0.847182
O O4 0.580583 0.272919 0.065656
O O5 0.665369 0.098265 0.424535
O O6 0.500000 0.000000 0.500000
O O7 0.587372 0.946544 0.305269
O O8 0.248687 0.269433 0.045106
O O9 0.500000 0.500000 0.500000
O O10 0.100137 0.785946 0.248206
O O11 0.139348 0.611977 0.141698
O O12 0.753489 0.286604 0.370127
O O13 0.117716 0.217265 0.657973
O O14 0.000000 0.000000 0.500000
O O15 0.118047 0.402456 0.374921
O O16 0.000000 0.500000 0.000000
#
# Coordination Sequence:
#
# PCOD8027587 Si02
#       7
#     2   2   2   2   2   2   2
#     4  11  26  46  77 106 145 193 247 301 370 435
#     4  12  29  46  74 110 148 192 249 299 364 435
#     4  10  24  45  74 111 140 188 249 298 366 437
#     4  11  24  46  77 103 146 189 247 299 371 438
#     4  12  28  48  69 108 149 189 244 307 365 434
#     4  12  26  45  79 106 148 196 246 298 365 434
#     4  12  25  50  74 109 148 193 244 306 369 438
#
# _framework density 23.295553000000002
#
# number of rings (size 3 to 8) (size 9 to 14) (size 15 to 20)
#    0.000    0.571    5.714    1.714   12.000    1.714 
#    0.000    1.429    0.000    0.000    0.000    0.000 
#    0.000    0.000    0.000    0.000    0.000    0.000 
#
# Total GULP energy -173609.209116 kJ/mol
# GULP energy per Si atom -12400.657794 kJ/mol
# Density = 2.324253 g / cm^3
# Si number density = 23.295553 Si / 1000 Ang^3
#
#
#
# Elastic Constant Matrix: (Units=GPa)
#
#
# Indices 1 2 3 4 5 6 
#
# 1 212.1335 78.1047 42.7809 29.0419 12.0039 1.0293
# 2 78.1047 151.8680 40.4425 26.6481 19.0758 -6.7537
# 3 42.7809 40.4425 69.2336 16.1141 6.9963 -0.4916
# 4 29.0419 26.6481 16.1141 56.8029 -3.3611 12.1690
# 5 12.0039 19.0758 6.9963 -3.3611 42.4577 12.0644
# 6 1.0293 -6.7537 -0.4916 12.1690 12.0644 44.3055
#
#
#
# Elastic Compliance Matrix: (Units=1/GPa)
#
#
# Indices 1 2 3 4 5 6 
#
# 1 0.006225 -0.002308 -0.002086 -0.001549 -0.000515 0.000046
# 2 -0.002308 0.010008 -0.003038 -0.003763 -0.004741 0.003870
# 3 -0.002086 -0.003038 0.018388 -0.003050 -0.001620 0.001068
# 4 -0.001549 -0.003763 -0.003050 0.023347 0.007006 -0.008892
# 5 -0.000515 -0.004741 -0.001620 0.007006 0.029703 -0.010741
# 6 0.000046 0.003870 0.001068 -0.008892 -0.010741 0.028538
#
#
# Mechanical properties :
#
#
# Convention : Reuss Voigt Hill
#
# Bulk Modulus (GPa) = 50.60873 83.98791 67.29832
# Shear Modulus (GPa) = 36.32159 46.84034 41.58096
#
# Velocity S-wave (km/s) = 3.95291 4.48895 4.22943
# Velocity P-wave (km/s) = 6.52731 7.93719 7.26652
#
# Compressibility (1/GPa) = 0.01975944
#
# Stress axis : x y z
#
# Youngs Moduli (GPa) = 160.63544 99.91543 54.38187
#
# Poissons Ratio (x) = 0.23056 0.11343
# Poissons Ratio (y) = 0.37068 0.16521
# Poissons Ratio (z) = 0.33506 0.30354
#
# Static dielectric constant tensor:
#      x y z
#    x 5.320800 -0.103920 -0.211320 
#    y -0.103920 4.547970 0.455330 
#    z -0.211320 0.455330 4.555830 
# 
# 
# High freq. dielectric constant tensor:
#      x y z
#    x 1.946360 -0.001990 0.003750 
#    y -0.001990 1.927430 0.013550 
#    z 0.003750 0.013550 1.918450 
# 
# From -- ./inp_files/159066.got.cif
#   From: 2010.06.25/outbox.cif.g09.slc.cpg/sg2_80_cif.got.tgz:159066.got - 2010.06.27 13:26:56.
