data_PCOD8027399
_publ_section_title
;
Structure prediction by ZEFSAII (Michael W. Deem and Ramdas Pophale) SiO2 
 PCOD8027399
Probable space group: P -1
;
_chemical_formula_sum "Si O2"
_cell_formula_units_Z 12
_cell_length_a 12.144157
_cell_length_b 7.521943
_cell_length_c 11.745368
_cell_angle_alpha 106.220701
_cell_angle_beta 147.838333
_cell_angle_gamma 65.240397
_cell_volume 512.304574
_symmetry_space_group_name_H-M "P -1"
_symmetry_group_IT_number 2
_symmetry_cell_setting 'triclinic'
loop_
_space_group_symop_operation_xyz
x,y,z
-x,-y,-z
loop_
_atom_site_type_symbol
_atom_site_label
_atom_site_fract_x
_atom_site_fract_y
_atom_site_fract_z
Si Si1 0.928857 0.534223 0.245731
Si Si2 0.618923 0.857514 0.180535
Si Si3 0.717582 0.233744 0.978032
Si Si4 0.584730 0.201094 0.605230
Si Si5 0.806445 0.893125 0.571710
Si Si6 0.152139 0.554792 0.230897
O O1 0.839393 0.685863 0.297567
O O2 0.144980 0.344241 0.437476
O O3 0.001877 0.645547 0.226714
O O4 0.735583 0.451845 0.020433
O O5 0.450049 0.762176 0.067385
O O6 0.694474 0.979709 0.367312
O O7 0.500000 0.000000 0.000000
O O8 0.636282 0.168099 0.778017
O O9 0.961353 0.075035 0.196113
O O10 0.340815 0.349745 0.394429
O O11 0.757945 0.284015 0.711108
O O12 0.635727 0.989282 0.545079
O O13 0.000000 0.500000 0.000000
#
# Coordination Sequence:
#
# PCOD8027399 Si02
#       6
#     2   2   2   2   2   2
#     4  10  24  45  67  96 136 179 224 273 333 396
#     4  12  27  44  68  98 135 184 228 274 332 396
#     4  10  24  45  69  96 134 178 224 279 330 400
#     4  11  24  42  72 104 132 176 223 276 345 392
#     4  10  25  44  69  99 134 180 219 281 328 406
#     4  11  23  42  68 104 139 170 220 283 334 398
#
# _framework density 23.423566999999998
#
# number of rings (size 3 to 8) (size 9 to 14) (size 15 to 20)
#    1.000    0.333    1.667    2.500    4.667    3.333 
#    0.000    0.000    0.000    0.000    0.000    0.000 
#    0.000    0.000    0.000    0.000    0.000    0.000 
#
# Total GULP energy -148765.637287 kJ/mol
# GULP energy per Si atom -12397.136441 kJ/mol
# Density = 2.337025 g / cm^3
# Si number density = 23.423567 Si / 1000 Ang^3
#
#
#
# Elastic Constant Matrix: (Units=GPa)
#
#
# Indices 1 2 3 4 5 6 
#
# 1 192.6159 33.6373 43.6162 -8.5015 -10.3821 -19.2793
# 2 33.6373 68.3159 13.1104 -7.5848 -11.5591 -18.0962
# 3 43.6162 13.1104 139.6198 -1.0407 -20.4755 -7.8664
# 4 -8.5015 -7.5848 -1.0407 27.3996 -2.3236 -0.1806
# 5 -10.3821 -11.5591 -20.4755 -2.3236 43.6011 2.7905
# 6 -19.2793 -18.0962 -7.8664 -0.1806 2.7905 47.0339
#
#
#
# Elastic Compliance Matrix: (Units=1/GPa)
#
#
# Indices 1 2 3 4 5 6 
#
# 1 0.006139 -0.002185 -0.001609 0.001257 0.000104 0.001406
# 2 -0.002185 0.018576 -0.000064 0.004862 0.004249 0.006007
# 3 -0.001609 -0.000064 0.008201 0.000088 0.003425 0.000485
# 4 0.001257 0.004862 0.000088 0.038551 0.003534 0.002339
# 5 0.000104 0.004249 0.003425 0.003534 0.025836 0.000731
# 6 0.001406 0.006007 0.000485 0.002339 0.000731 0.024195
#
#
# Mechanical properties :
#
#
# Convention : Reuss Voigt Hill
#
# Bulk Modulus (GPa) = 39.68039 64.58661 52.13350
# Shear Modulus (GPa) = 36.33328 44.28610 40.30969
#
# Velocity S-wave (km/s) = 3.94273 4.35289 4.15288
# Velocity P-wave (km/s) = 6.14035 7.27302 6.73055
#
# Compressibility (1/GPa) = 0.02520136
#
# Stress axis : x y z
#
# Youngs Moduli (GPa) = 162.88526 53.83334 121.93388
#
# Poissons Ratio (x) = 0.11760 0.19618
# Poissons Ratio (y) = 0.35583 0.00780
# Poissons Ratio (z) = 0.26207 0.00345
#
# Static dielectric constant tensor:
#      x y z
#    x 4.538960 0.117000 0.070550 
#    y 0.117000 4.305780 -0.006450 
#    z 0.070550 -0.006450 4.173160 
# 
# 
# High freq. dielectric constant tensor:
#      x y z
#    x 1.955020 -0.003680 0.008860 
#    y -0.003680 1.904310 0.002310 
#    z 0.008860 0.002310 1.931590 
# 
# From -- ./inp_files/413027.got.cif
#   From: 2010.06.25/outbox.cif.g09.slc.cpg/sg2_207_cif.got.tgz:413027.got - 2010.06.27 13:26:56.
