data_PCOD8027779
_publ_section_title
;
Structure prediction by ZEFSAII (Michael W. Deem and Ramdas Pophale) SiO2 
 PCOD8027779
Probable space group: P -1
;
_chemical_formula_sum "Si O2"
_cell_formula_units_Z 12
_cell_length_a 8.361102
_cell_length_b 8.835908
_cell_length_c 18.968237
_cell_angle_alpha 138.783832
_cell_angle_beta 35.100851
_cell_angle_gamma 133.692843
_cell_volume 520.328218
_symmetry_space_group_name_H-M "P -1"
_symmetry_group_IT_number 2
_symmetry_cell_setting 'triclinic'
loop_
_space_group_symop_operation_xyz
x,y,z
-x,-y,-z
loop_
_atom_site_type_symbol
_atom_site_label
_atom_site_fract_x
_atom_site_fract_y
_atom_site_fract_z
Si Si1 0.454096 0.259529 0.025985
Si Si2 0.307037 0.184096 0.205756
Si Si3 0.339681 0.922330 0.603721
Si Si4 0.871752 0.445786 0.829896
Si Si5 0.691893 0.019219 0.642901
Si Si6 0.474735 0.443597 0.372142
O O1 0.412489 0.320534 0.143842
O O2 0.179906 0.311648 0.101000
O O3 0.736044 0.423546 0.949282
O O4 0.478355 0.988980 0.914374
O O5 0.326956 0.373484 0.326177
O O6 0.983061 0.037690 0.267031
O O7 0.505365 0.068266 0.660097
O O8 0.326028 0.646307 0.527373
O O9 0.500000 0.000000 0.500000
O O10 0.198146 0.440598 0.716975
O O11 0.706939 0.227850 0.766282
O O12 0.552743 0.771890 0.640787
O O13 0.000000 0.000000 0.500000
#
# Coordination Sequence:
#
# PCOD8027779 Si02
#       6
#     2   2   2   2   2   2
#     4  10  24  47  65  97 141 180 229 274 322 418
#     4  11  24  45  68 101 139 179 224 273 349 395
#     4  12  26  44  71 105 138 175 225 287 346 400
#     4  11  24  47  71 101 132 180 235 271 339 398
#     4  12  25  45  72 102 138 175 229 281 342 404
#     4  12  25  45  74 101 137 176 226 288 339 400
#
# _framework density 23.062365
#
# number of rings (size 3 to 8) (size 9 to 14) (size 15 to 20)
#    0.000    0.667    3.333    4.000    4.667    1.333 
#   12.000    0.000    0.000    0.000    0.000    0.000 
#    0.000    0.000    0.000    0.000    0.000    0.000 
#
# Total GULP energy -148835.895434 kJ/mol
# GULP energy per Si atom -12402.991286 kJ/mol
# Density = 2.300987 g / cm^3
# Si number density = 23.062365 Si / 1000 Ang^3
#
#
#
# Elastic Constant Matrix: (Units=GPa)
#
#
# Indices 1 2 3 4 5 6 
#
# 1 122.7920 41.1435 27.3092 -18.8194 13.3704 1.5113
# 2 41.1435 80.8232 20.9157 -12.4230 4.8672 -9.5630
# 3 27.3092 20.9157 85.8589 -10.1366 0.9998 -1.9356
# 4 -18.8194 -12.4230 -10.1366 22.9072 -17.0499 4.0355
# 5 13.3704 4.8672 0.9998 -17.0499 36.1364 -6.1428
# 6 1.5113 -9.5630 -1.9356 4.0355 -6.1428 45.6853
#
#
#
# Elastic Compliance Matrix: (Units=1/GPa)
#
#
# Indices 1 2 3 4 5 6 
#
# 1 0.011021 -0.004501 -0.001828 0.005176 -0.001322 -0.002019
# 2 -0.004501 0.016252 -0.001793 0.005863 0.002860 0.003342
# 3 -0.001828 -0.001793 0.013326 0.005891 0.003359 0.000181
# 4 0.005176 0.005863 0.005891 0.079548 0.034480 -0.001085
# 5 -0.001322 0.002860 0.003359 0.034480 0.044587 0.003734
# 6 -0.002019 0.003342 0.000181 -0.001085 0.003734 0.023261
#
#
# Mechanical properties :
#
#
# Convention : Reuss Voigt Hill
#
# Bulk Modulus (GPa) = 41.06033 52.02343 46.54188
# Shear Modulus (GPa) = 23.54529 34.28616 28.91573
#
# Velocity S-wave (km/s) = 3.19868 3.85992 3.54475
# Velocity P-wave (km/s) = 5.61113 6.51706 6.08099
#
# Compressibility (1/GPa) = 0.02435441
#
# Stress axis : x y z
#
# Youngs Moduli (GPa) = 90.73986 61.53017 75.04268
#
# Poissons Ratio (x) = 0.27693 0.13717
# Poissons Ratio (y) = 0.40839 0.13458
# Poissons Ratio (z) = 0.16587 0.11035
#
# Static dielectric constant tensor:
#      x y z
#    x 4.303760 -0.250720 0.064130 
#    y -0.250720 4.126110 -0.055390 
#    z 0.064130 -0.055390 4.346310 
# 
# 
# High freq. dielectric constant tensor:
#      x y z
#    x 1.917240 -0.021580 0.000550 
#    y -0.021580 1.900210 -0.005240 
#    z 0.000550 -0.005240 1.924380 
# 
# From -- ./inp_files/23718.got.cif
#   From: 2010.06.25/outbox.cif.g09.slc.cpg/sg2_12_cif.got.tgz:23718.got - 2010.06.27 13:26:56.
