data_PCOD8027332
_publ_section_title
;
Structure prediction by ZEFSAII (Michael W. Deem and Ramdas Pophale) SiO2 
 PCOD8027332
Probable space group: P -1
;
_chemical_formula_sum "Si O2"
_cell_formula_units_Z 12
_cell_length_a 4.912862
_cell_length_b 9.001334
_cell_length_c 14.298108
_cell_angle_alpha 63.362001
_cell_angle_beta 74.706367
_cell_angle_gamma 53.365063
_cell_volume 453.525923
_symmetry_space_group_name_H-M "P -1"
_symmetry_group_IT_number 2
_symmetry_cell_setting 'triclinic'
loop_
_space_group_symop_operation_xyz
x,y,z
-x,-y,-z
loop_
_atom_site_type_symbol
_atom_site_label
_atom_site_fract_x
_atom_site_fract_y
_atom_site_fract_z
Si Si1 0.312645 0.925559 0.731405
Si Si2 0.072407 0.830227 0.469810
Si Si3 0.821698 0.279437 0.783585
Si Si4 0.868121 0.379063 0.953882
Si Si5 0.284320 0.423714 0.645763
Si Si6 0.967127 0.721399 0.838209
O O1 0.658133 0.883626 0.755387
O O2 0.297066 0.727084 0.776222
O O3 0.238895 0.052935 0.608253
O O4 0.009602 0.050189 0.798686
O O5 0.061663 0.657011 0.571710
O O6 0.433805 0.721874 0.414613
O O7 0.000000 0.000000 0.500000
O O8 0.840074 0.272987 0.895667
O O9 0.442710 0.403187 0.740374
O O10 0.012371 0.368066 0.690806
O O11 0.015682 0.510223 0.873211
O O12 0.500000 0.500000 0.000000
O O13 0.112280 0.229791 0.056742
#
# Coordination Sequence:
#
# PCOD8027332 Si02
#       6
#     2   2   2   2   2   2
#     4  11  24  45  66 104 133 179 231 285 342 419
#     4  10  24  44  75 104 143 185 237 284 355 414
#     4  11  26  45  73  96 146 184 226 289 356 401
#     4  11  26  46  70 102 136 187 230 281 359 414
#     4  10  25  48  67 107 145 186 231 290 346 425
#     4  11  25  44  68  98 141 168 238 281 338 425
#
# _framework density 26.459346
#
# number of rings (size 3 to 8) (size 9 to 14) (size 15 to 20)
#    0.000    1.333    1.667    2.000    9.333    8.667 
#    0.000    8.333    0.000    0.000    0.000    0.000 
#    0.000    0.000    0.000    0.000    0.000    0.000 
#
# Total GULP energy -148741.108577 kJ/mol
# GULP energy per Si atom -12395.092381 kJ/mol
# Density = 2.639912 g / cm^3
# Si number density = 26.459346 Si / 1000 Ang^3
#
#
#
# Elastic Constant Matrix: (Units=GPa)
#
#
# Indices 1 2 3 4 5 6 
#
# 1 103.3231 9.1745 30.1466 -6.6370 11.9340 12.4710
# 2 9.1745 84.4305 37.6108 14.1021 13.5247 15.6624
# 3 30.1466 37.6108 104.4011 6.9217 51.0276 -2.9418
# 4 -6.6370 14.1021 6.9217 45.5156 7.3174 4.1404
# 5 11.9340 13.5247 51.0276 7.3174 57.5429 -1.0824
# 6 12.4710 15.6624 -2.9418 4.1404 -1.0824 28.0170
#
#
#
# Elastic Compliance Matrix: (Units=1/GPa)
#
#
# Indices 1 2 3 4 5 6 
#
# 1 0.011835 0.001604 -0.004861 0.002438 0.001038 -0.006995
# 2 0.001604 0.017466 -0.008429 -0.003446 0.003273 -0.010727
# 3 -0.004861 -0.008429 0.022447 0.000416 -0.016808 0.008522
# 4 0.002438 -0.003446 0.000416 0.024096 -0.003182 -0.002799
# 5 0.001038 0.003273 -0.016808 -0.003182 0.031659 -0.002363
# 6 -0.006995 -0.010727 0.008522 -0.002799 -0.002363 0.046020
#
#
# Mechanical properties :
#
#
# Convention : Reuss Voigt Hill
#
# Bulk Modulus (GPa) = 35.24218 49.55760 42.39989
# Shear Modulus (GPa) = 26.83055 40.56328 33.69691
#
# Velocity S-wave (km/s) = 3.18784 3.91966 3.57253
# Velocity P-wave (km/s) = 5.18633 6.26541 5.75123
#
# Compressibility (1/GPa) = 0.02837509
#
# Stress axis : x y z
#
# Youngs Moduli (GPa) = 84.49223 57.25498 44.55018
#
# Poissons Ratio (x) = -0.09182 0.21657
# Poissons Ratio (y) = -0.13550 0.37550
# Poissons Ratio (z) = 0.41074 0.48259
#
# Static dielectric constant tensor:
#      x y z
#    x 4.739770 0.212330 0.482940 
#    y 0.212330 4.843730 0.019990 
#    z 0.482940 0.019990 5.347920 
# 
# 
# High freq. dielectric constant tensor:
#      x y z
#    x 2.062830 0.019580 0.011870 
#    y 0.019580 2.050390 0.001200 
#    z 0.011870 0.001200 2.079990 
# 
# From -- ./inp_files/313381.got.cif
#   From: 2010.06.25/outbox.cif.g09.slc.cpg/sg2_157_cif.got.tgz:313381.got - 2010.06.27 13:26:56.
