data_PCOD8027509
_publ_section_title
;
Structure prediction by ZEFSAII (Michael W. Deem and Ramdas Pophale) SiO2 
 PCOD8027509
Probable space group: P -1
;
_chemical_formula_sum "Si O2"
_cell_formula_units_Z 12
_cell_length_a 14.195374
_cell_length_b 14.376931
_cell_length_c 5.328281
_cell_angle_alpha 82.782016
_cell_angle_beta 111.013837
_cell_angle_gamma 150.205140
_cell_volume 462.289405
_symmetry_space_group_name_H-M "P -1"
_symmetry_group_IT_number 2
_symmetry_cell_setting 'triclinic'
loop_
_space_group_symop_operation_xyz
x,y,z
-x,-y,-z
loop_
_atom_site_type_symbol
_atom_site_label
_atom_site_fract_x
_atom_site_fract_y
_atom_site_fract_z
Si Si1 0.472731 0.108568 0.643158
Si Si2 0.142083 0.176212 0.390577
Si Si3 0.706001 0.515780 0.349765
Si Si4 0.840472 0.530251 0.990631
Si Si5 0.258409 0.104350 0.211517
Si Si6 0.200099 0.713963 0.469975
O O1 0.643995 0.292200 0.947954
O O2 0.289799 0.035309 0.423089
O O3 0.629107 0.216799 0.512939
O O4 0.346624 0.912493 0.695483
O O5 0.284036 0.364971 0.627021
O O6 0.292883 0.226432 0.371736
O O7 0.000000 0.000000 0.500000
O O8 0.980454 0.099102 0.073073
O O9 0.797913 0.540651 0.677458
O O10 0.454526 0.277376 0.137984
O O11 0.843998 0.605771 0.201879
O O12 0.075165 0.671581 0.148756
O O13 0.000000 0.500000 0.500000
#
# Coordination Sequence:
#
# PCOD8027509 Si02
#       6
#     2   2   2   2   2   2
#     4  10  24  45  70 105 147 187 240 299 359 430
#     4  11  26  42  72 102 140 188 237 295 353 423
#     4  11  26  45  75 103 145 187 235 290 355 426
#     4  11  25  46  74 108 144 191 235 294 358 425
#     4  10  24  46  66 103 141 186 235 294 358 419
#     4  11  23  44  76 107 144 189 241 296 363 432
#
# _framework density 25.957765999999999
#
# number of rings (size 3 to 8) (size 9 to 14) (size 15 to 20)
#    0.000    1.333    0.000    4.000   11.667    1.333 
#    0.000    5.000    0.000    0.000    0.000    0.000 
#    0.000    0.000    0.000    0.000    0.000    0.000 
#
# Total GULP energy -148722.146611 kJ/mol
# GULP energy per Si atom -12393.512218 kJ/mol
# Density = 2.589869 g / cm^3
# Si number density = 25.957766 Si / 1000 Ang^3
#
#
#
# Elastic Constant Matrix: (Units=GPa)
#
#
# Indices 1 2 3 4 5 6 
#
# 1 144.2091 16.9992 41.2227 14.8984 2.0887 -5.8521
# 2 16.9992 110.0609 7.4909 13.1227 -5.2281 -17.2109
# 3 41.2227 7.4909 65.9252 2.0045 -10.9860 5.9558
# 4 14.8984 13.1227 2.0045 17.9550 3.4488 -9.2169
# 5 2.0887 -5.2281 -10.9860 3.4488 35.6509 13.1187
# 6 -5.8521 -17.2109 5.9558 -9.2169 13.1187 42.3385
#
#
#
# Elastic Compliance Matrix: (Units=1/GPa)
#
#
# Indices 1 2 3 4 5 6 
#
# 1 0.009446 -0.000222 -0.006298 -0.005606 -0.002606 0.001688
# 2 -0.000222 0.010375 -0.000973 -0.006025 0.000800 0.002764
# 3 -0.006298 -0.000973 0.021700 -0.002533 0.010102 -0.008000
# 4 -0.005606 -0.006025 -0.002533 0.077822 -0.015850 0.018985
# 5 -0.002606 0.000800 0.010102 -0.015850 0.039246 -0.017067
# 6 0.001688 0.002764 -0.008000 0.018985 -0.017067 0.035523
#
#
# Mechanical properties :
#
#
# Convention : Reuss Voigt Hill
#
# Bulk Modulus (GPa) = 37.68490 50.18007 43.93248
# Shear Modulus (GPa) = 22.94168 36.15441 29.54804
#
# Velocity S-wave (km/s) = 2.97612 3.73609 3.37755
# Velocity P-wave (km/s) = 5.13410 6.16316 5.67202
#
# Compressibility (1/GPa) = 0.02653583
#
# Stress axis : x y z
#
# Youngs Moduli (GPa) = 105.86351 96.38560 46.08190
#
# Poissons Ratio (x) = 0.02137 0.29021
# Poissons Ratio (y) = 0.02347 0.04486
# Poissons Ratio (z) = 0.66670 0.09383
#
# Static dielectric constant tensor:
#      x y z
#    x 0.931710 -0.879200 -0.440890 
#    y -0.879200 4.696790 0.447670 
#    z -0.440890 0.447670 4.791440 
# 
# 
# High freq. dielectric constant tensor:
#      x y z
#    x 2.055390 -0.013250 0.011390 
#    y -0.013250 2.046920 0.018810 
#    z 0.011390 0.018810 2.017770 
# 
# From -- ./inp_files/97992.got.cif
#   From: 2010.06.25/outbox.cif.g09.slc.cpg/sg2_49_cif.got.tgz:97992.got - 2010.06.27 13:26:56.
