data_PCOD8027069
_publ_section_title
;
Structure prediction by ZEFSAII (Michael W. Deem and Ramdas Pophale) SiO2 
 PCOD8027069
Probable space group: P -1
;
_chemical_formula_sum "Si O2"
_cell_formula_units_Z 14
_cell_length_a 14.731659
_cell_length_b 8.750601
_cell_length_c 14.415924
_cell_angle_alpha 104.912235
_cell_angle_beta 29.294467
_cell_angle_gamma 124.841606
_cell_volume 597.090055
_symmetry_space_group_name_H-M "P -1"
_symmetry_group_IT_number 2
_symmetry_cell_setting 'triclinic'
loop_
_space_group_symop_operation_xyz
x,y,z
-x,-y,-z
loop_
_atom_site_type_symbol
_atom_site_label
_atom_site_fract_x
_atom_site_fract_y
_atom_site_fract_z
Si Si1 0.738249 0.050390 0.749652
Si Si2 0.215953 0.931677 0.496703
Si Si3 0.602931 0.268639 0.371278
Si Si4 0.250008 0.590423 0.404717
Si Si5 0.646134 0.762766 0.229295
Si Si6 0.321044 0.239552 0.091388
Si Si7 0.006044 0.259842 0.000237
O O1 0.665292 0.957972 0.694812
O O2 0.007338 0.327600 0.545354
O O3 0.782997 0.920218 0.750159
O O4 0.500000 0.000000 0.000000
O O5 0.145205 0.701261 0.536029
O O6 0.941193 0.861079 0.747140
O O7 0.442397 0.124950 0.398456
O O8 0.403054 0.209725 0.617403
O O9 0.772815 0.222974 0.249959
O O10 0.825372 0.542234 0.196051
O O11 0.368781 0.582096 0.390238
O O12 0.492527 0.755049 0.138685
O O13 0.790741 0.681481 0.092012
O O14 0.858010 0.023738 0.039943
O O15 0.500000 0.500000 0.000000
#
# Coordination Sequence:
#
# PCOD8027069 Si02
#       7
#     2   2   2   2   2   2   2
#     4  12  26  49  74 103 142 183 232 291 358 411
#     4  12  26  46  72 105 144 185 236 286 351 419
#     4  11  25  44  69 103 142 182 231 285 342 412
#     4  12  27  47  72 107 141 188 231 292 349 415
#     4  11  25  44  71 101 141 182 233 281 347 407
#     4  12  27  47  73 101 144 184 237 289 346 421
#     4  10  24  44  66  98 141 183 233 280 340 409
#
# _framework density 23.447049
#
# number of rings (size 3 to 8) (size 9 to 14) (size 15 to 20)
#    0.000    0.571    4.286    2.571    6.000    3.429 
#    0.000    0.000    0.000    0.000    0.000    0.000 
#    0.000    0.000    0.000    0.000    0.000    0.000 
#
# Total GULP energy -173638.214474 kJ/mol
# GULP energy per Si atom -12402.729605 kJ/mol
# Density = 2.339368 g / cm^3
# Si number density = 23.447049 Si / 1000 Ang^3
#
#
#
# Elastic Constant Matrix: (Units=GPa)
#
#
# Indices 1 2 3 4 5 6 
#
# 1 134.9548 41.4955 50.0350 6.7114 -18.9246 4.7208
# 2 41.4955 72.6979 36.6851 0.0567 -1.1032 -3.1105
# 3 50.0350 36.6851 120.8712 2.9948 -12.5762 0.1391
# 4 6.7114 0.0567 2.9948 20.6135 -8.0531 -0.5082
# 5 -18.9246 -1.1032 -12.5762 -8.0531 39.0175 9.6827
# 6 4.7208 -3.1105 0.1391 -0.5082 9.6827 45.1216
#
#
#
# Elastic Compliance Matrix: (Units=1/GPa)
#
#
# Indices 1 2 3 4 5 6 
#
# 1 0.010584 -0.004867 -0.002395 -0.001370 0.004544 -0.002426
# 2 -0.004867 0.018626 -0.004037 0.000770 -0.003619 0.002591
# 3 -0.002395 -0.004037 0.010732 0.000136 0.002352 -0.000564
# 4 -0.001370 0.000770 0.000136 0.053092 0.010734 -0.001510
# 5 0.004544 -0.003619 0.002352 0.010734 0.032592 -0.007605
# 6 -0.002426 0.002591 -0.000564 -0.001510 -0.007605 0.024211
#
#
# Mechanical properties :
#
#
# Convention : Reuss Voigt Hill
#
# Bulk Modulus (GPa) = 57.65434 64.99500 61.32467
# Shear Modulus (GPa) = 28.05575 34.30440 31.18008
#
# Velocity S-wave (km/s) = 3.46288 3.82914 3.65061
# Velocity P-wave (km/s) = 6.37427 6.87967 6.63179
#
# Compressibility (1/GPa) = 0.01734475
#
# Stress axis : x y z
#
# Youngs Moduli (GPa) = 94.47957 53.68833 93.18054
#
# Poissons Ratio (x) = 0.26129 0.22315
# Poissons Ratio (y) = 0.45981 0.37618
# Poissons Ratio (z) = 0.22627 0.21675
#
# Static dielectric constant tensor:
#      x y z
#    x 4.355130 -0.289570 -0.150450 
#    y -0.289570 4.169030 0.108420 
#    z -0.150450 0.108420 4.444510 
# 
# 
# High freq. dielectric constant tensor:
#      x y z
#    x 1.932400 -0.019200 -0.013730 
#    y -0.019200 1.924150 0.004020 
#    z -0.013730 0.004020 1.940540 
# 
# From -- ./inp_files/529594.got.cif
#   From: 2010.06.25/outbox.cif.g09.slc.cpg/sg2_265_cif.got.tgz:529594.got - 2010.06.27 13:26:56.
