data_PCOD8027764
_publ_section_title
;
Structure prediction by ZEFSAII (Michael W. Deem and Ramdas Pophale) SiO2 
 PCOD8027764
Probable space group: P -1
;
_chemical_formula_sum "Si O2"
_cell_formula_units_Z 14
_cell_length_a 21.970975
_cell_length_b 5.140969
_cell_length_c 5.402061
_cell_angle_alpha 93.894804
_cell_angle_beta 73.386799
_cell_angle_gamma 82.968197
_cell_volume 576.897167
_symmetry_space_group_name_H-M "P -1"
_symmetry_group_IT_number 2
_symmetry_cell_setting 'triclinic'
loop_
_space_group_symop_operation_xyz
x,y,z
-x,-y,-z
loop_
_atom_site_type_symbol
_atom_site_label
_atom_site_fract_x
_atom_site_fract_y
_atom_site_fract_z
Si Si1 0.466501 0.334344 0.336928
Si Si2 0.069881 0.923441 0.522964
Si Si3 0.405003 0.732680 0.045552
Si Si4 0.694114 0.335702 0.223011
Si Si5 0.174322 0.582520 0.115882
Si Si6 0.874665 0.583155 0.349888
Si Si7 0.653390 0.866947 0.517247
O O1 0.500000 0.500000 0.500000
O O2 0.414419 0.531324 0.251369
O O3 0.421695 0.131135 0.491337
O O4 0.525410 0.187767 0.096396
O O5 0.090148 0.162474 0.671709
O O6 0.071799 0.677426 0.694912
O O7 0.000000 0.000000 0.500000
O O8 0.119655 0.838477 0.233356
O O9 0.356956 0.002178 0.189079
O O10 0.370824 0.591022 0.858037
O O11 0.757257 0.317496 0.980358
O O12 0.693355 0.050352 0.323785
O O13 0.693295 0.572699 0.440477
O O14 0.160662 0.424634 0.872955
O O15 0.174697 0.405247 0.355746
#
# Coordination Sequence:
#
# PCOD8027764 Si02
#       7
#     2   2   2   2   2   2   2
#     4  11  23  47  68 100 134 170 229 291 359 424
#     4  10  24  46  75 112 148 192 241 295 355 420
#     4  11  25  44  71  97 133 178 224 291 357 419
#     4  12  29  44  70  97 139 178 237 284 350 425
#     4  10  28  46  72 106 147 194 241 297 354 423
#     4  10  25  43  73 105 149 189 240 292 357 416
#     4  12  26  46  66 101 129 178 227 286 352 423
#
# _framework density 24.267758000000001
#
# number of rings (size 3 to 8) (size 9 to 14) (size 15 to 20)
#    0.857    0.286    2.857    0.857    8.000    4.571 
#    0.000    0.000    0.000    0.000    0.000    0.000 
#    0.000    0.000    0.000    0.000    0.000    0.000 
#
# Total GULP energy -173459.015110 kJ/mol
# GULP energy per Si atom -12389.929651 kJ/mol
# Density = 2.421252 g / cm^3
# Si number density = 24.267758 Si / 1000 Ang^3
#
#
#
# Elastic Constant Matrix: (Units=GPa)
#
#
# Indices 1 2 3 4 5 6 
#
# 1 62.6048 22.4413 6.1711 11.6289 -17.1761 11.3702
# 2 22.4413 123.0522 31.9928 15.3918 -3.5672 18.9571
# 3 6.1711 31.9928 72.7515 11.8218 3.8249 -1.0900
# 4 11.6289 15.3918 11.8218 22.7261 2.2577 1.5071
# 5 -17.1761 -3.5672 3.8249 2.2577 46.3775 6.5131
# 6 11.3702 18.9571 -1.0900 1.5071 6.5131 27.3355
#
#
#
# Elastic Compliance Matrix: (Units=1/GPa)
#
#
# Indices 1 2 3 4 5 6 
#
# 1 0.023422 -0.000624 -0.000566 -0.011596 0.010821 -0.011271
# 2 -0.000624 0.011279 -0.004381 -0.004742 0.002357 -0.008037
# 3 -0.000566 -0.004381 0.016822 -0.005580 -0.002338 0.004809
# 4 -0.011596 -0.004742 -0.005580 0.056392 -0.007879 0.006658
# 5 0.010821 0.002357 -0.002338 -0.007879 0.028081 -0.012485
# 6 -0.011271 -0.008037 0.004809 0.006658 -0.012485 0.049644
#
#
# Mechanical properties :
#
#
# Convention : Reuss Voigt Hill
#
# Bulk Modulus (GPa) = 24.76368 42.17987 33.47177
# Shear Modulus (GPa) = 23.78213 32.47471 28.12842
#
# Velocity S-wave (km/s) = 3.13387 3.66209 3.40823
# Velocity P-wave (km/s) = 4.82922 5.94138 5.41393
#
# Compressibility (1/GPa) = 0.04038172
#
# Stress axis : x y z
#
# Youngs Moduli (GPa) = 42.69423 88.65902 59.44700
#
# Poissons Ratio (x) = 0.05531 0.03364
# Poissons Ratio (y) = 0.02664 0.26043
# Poissons Ratio (z) = 0.02416 0.38841
#
# Static dielectric constant tensor:
#      x y z
#    x 4.172510 0.236050 -0.225610 
#    y 0.236050 4.251470 0.094140 
#    z -0.225610 0.094140 4.444850 
# 
# 
# High freq. dielectric constant tensor:
#      x y z
#    x 1.943320 0.018840 -0.012870 
#    y 0.018840 1.962580 0.014000 
#    z -0.012870 0.014000 1.965980 
# 
# From -- ./inp_files/114177.got.cif
#   From: 2010.06.25/outbox.cif.g09.slc.cpg/sg2_58_cif.got.tgz:114177.got - 2010.06.27 13:26:56.
