data_PCOD8027714
_publ_section_title
;
Structure prediction by ZEFSAII (Michael W. Deem and Ramdas Pophale) SiO2 
 PCOD8027714
Probable space group: P -1
;
_chemical_formula_sum "Si O2"
_cell_formula_units_Z 14
_cell_length_a 11.894003
_cell_length_b 13.007779
_cell_length_c 17.445673
_cell_angle_alpha 26.471813
_cell_angle_beta 28.699762
_cell_angle_gamma 35.205171
_cell_volume 571.317821
_symmetry_space_group_name_H-M "P -1"
_symmetry_group_IT_number 2
_symmetry_cell_setting 'triclinic'
loop_
_space_group_symop_operation_xyz
x,y,z
-x,-y,-z
loop_
_atom_site_type_symbol
_atom_site_label
_atom_site_fract_x
_atom_site_fract_y
_atom_site_fract_z
Si Si1 0.046641 0.376834 0.283434
Si Si2 0.451477 0.890303 0.869435
Si Si3 0.442489 0.731911 0.331298
Si Si4 0.109858 0.533307 0.299284
Si Si5 0.113736 0.362935 0.950938
Si Si6 0.198419 0.991374 0.644195
Si Si7 0.327856 0.130866 0.628369
O O1 0.279465 0.189369 0.262570
O O2 0.087875 0.562945 0.200254
O O3 0.841178 0.229057 0.535903
O O4 0.986771 0.501689 0.155520
O O5 0.456813 0.055405 0.829472
O O6 0.311491 0.029181 0.790756
O O7 0.312063 0.675403 0.115983
O O8 0.500000 0.500000 0.500000
O O9 0.597584 0.679780 0.194695
O O10 0.185185 0.262779 0.452489
O O11 0.856542 0.628182 0.426395
O O12 0.000000 0.500000 0.000000
O O13 0.041447 0.105367 0.167792
O O14 0.253400 0.952707 0.727696
O O15 0.404544 0.833875 0.576362
#
# Coordination Sequence:
#
# PCOD8027714 Si02
#       7
#     2   2   2   2   2   2   2
#     4  11  25  45  75 104 141 191 244 291 355 433
#     4  12  24  45  75 104 140 189 246 293 351 429
#     4  10  24  46  72 101 138 190 242 286 355 429
#     4  12  25  45  76 106 143 190 244 290 359 427
#     4  11  26  47  72 102 146 189 239 299 361 421
#     4  11  26  44  69 108 147 183 238 297 367 415
#     4  11  24  42  71 101 150 184 230 298 358 418
#
# _framework density 24.504749
#
# number of rings (size 3 to 8) (size 9 to 14) (size 15 to 20)
#    0.000    0.857    1.429    5.143   10.000    1.143 
#    0.000    1.429    0.000    0.000    0.000    0.000 
#    0.000    0.000    0.000    0.000    0.000    0.000 
#
# Total GULP energy -173549.669354 kJ/mol
# GULP energy per Si atom -12396.404954 kJ/mol
# Density = 2.444897 g / cm^3
# Si number density = 24.504749 Si / 1000 Ang^3
#
#
#
# Elastic Constant Matrix: (Units=GPa)
#
#
# Indices 1 2 3 4 5 6 
#
# 1 60.6020 34.3884 33.6046 2.2589 -7.2871 6.9220
# 2 34.3884 178.1017 73.9168 33.8698 -12.3303 3.7661
# 3 33.6046 73.9168 150.3562 8.6645 -27.5794 -0.6166
# 4 2.2589 33.8698 8.6645 45.0719 3.4962 -5.7883
# 5 -7.2871 -12.3303 -27.5794 3.4962 25.4125 5.2606
# 6 6.9220 3.7661 -0.6166 -5.7883 5.2606 47.1606
#
#
#
# Elastic Compliance Matrix: (Units=1/GPa)
#
#
# Indices 1 2 3 4 5 6 
#
# 1 0.020152 -0.002700 -0.002935 0.001085 0.001722 -0.002839
# 2 -0.002700 0.008679 -0.003112 -0.006031 0.001139 -0.001205
# 3 -0.002935 -0.003112 0.010534 -0.000282 0.009169 -0.000240
# 4 0.001085 -0.006031 -0.000282 0.027909 -0.007714 0.004605
# 5 0.001722 0.001139 0.009169 -0.007714 0.052872 -0.007068
# 6 -0.002839 -0.001205 -0.000240 0.004605 -0.007068 0.023068
#
#
# Mechanical properties :
#
#
# Convention : Reuss Voigt Hill
#
# Bulk Modulus (GPa) = 45.72239 74.76439 60.24339
# Shear Modulus (GPa) = 29.76269 40.00569 34.88419
#
# Velocity S-wave (km/s) = 3.48885 4.04489 3.77711
# Velocity P-wave (km/s) = 5.91003 7.23818 6.60756
#
# Compressibility (1/GPa) = 0.02187112
#
# Stress axis : x y z
#
# Youngs Moduli (GPa) = 49.62406 115.22325 94.93435
#
# Poissons Ratio (x) = 0.31110 0.27862
# Poissons Ratio (y) = 0.13398 0.29540
# Poissons Ratio (z) = 0.14564 0.35853
#
# Static dielectric constant tensor:
#      x y z
#    x 4.937370 0.159740 -0.512890 
#    y 0.159740 4.672690 0.403280 
#    z -0.512890 0.403280 4.698130 
# 
# 
# High freq. dielectric constant tensor:
#      x y z
#    x 1.966830 0.006040 -0.007490 
#    y 0.006040 1.991480 0.018350 
#    z -0.007490 0.018350 1.968970 
# 
# From -- ./inp_files/569086.got.cif
#   From: 2010.06.25/outbox.cif.g09.slc.cpg/sg2_285_cif.got.tgz:569086.got - 2010.06.27 13:26:56.
