data_PCOD8027482
_publ_section_title
;
Structure prediction by ZEFSAII (Michael W. Deem and Ramdas Pophale) SiO2 
 PCOD8027482
Probable space group: P -1
;
_chemical_formula_sum "Si O2"
_cell_formula_units_Z 16
_cell_length_a 11.371143
_cell_length_b 15.648417
_cell_length_c 14.485740
_cell_angle_alpha 151.566931
_cell_angle_beta 39.850185
_cell_angle_gamma 130.703196
_cell_volume 784.184360
_symmetry_space_group_name_H-M "P -1"
_symmetry_group_IT_number 2
_symmetry_cell_setting 'triclinic'
loop_
_space_group_symop_operation_xyz
x,y,z
-x,-y,-z
loop_
_atom_site_type_symbol
_atom_site_label
_atom_site_fract_x
_atom_site_fract_y
_atom_site_fract_z
Si Si1 0.391223 0.313397 0.287784
Si Si2 0.441478 0.044444 0.841211
Si Si3 0.615280 0.275608 0.294081
Si Si4 0.984701 0.839399 0.050879
Si Si5 0.602241 0.903543 0.434292
Si Si6 0.375142 0.590448 0.238745
Si Si7 0.156755 0.305770 0.181259
Si Si8 0.002808 0.247352 0.401841
O O1 0.480252 0.233398 0.251945
O O2 0.428907 0.521543 0.450548
O O3 0.171109 0.293864 0.410203
O O4 0.481199 0.199537 0.039059
O O5 0.418690 0.856024 0.726094
O O6 0.595349 0.020233 0.644091
O O7 0.253312 0.109229 0.962955
O O8 0.824351 0.242539 0.097225
O O9 0.816392 0.847059 0.231829
O O10 0.947771 0.703812 0.861260
O O11 0.013743 0.034609 0.178420
O O12 0.489032 0.730667 0.359395
O O13 0.500000 0.000000 0.500000
O O14 0.315197 0.444665 0.210010
O O15 0.199784 0.684849 0.376892
O O16 0.500000 0.500000 0.000000
O O17 0.018195 0.354869 0.396565
#
# Coordination Sequence:
#
# PCOD8027482 Si02
#       8
#     2   2   2   2   2   2   2   2
#     4  10  24  45  69  99 119 171 226 279 325 368
#     4  11  23  41  67  95 131 170 215 267 325 390
#     4  11  24  44  73  91 130 165 227 281 319 375
#     4  12  22  40  63  94 133 176 206 265 329 389
#     4  12  24  41  59  93 144 176 208 250 331 402
#     4  12  23  38  60  94 141 177 207 261 322 406
#     4  11  22  37  59  98 130 164 218 262 324 386
#     4  11  23  37  65  93 130 168 215 272 323 383
#
# _framework density 20.403365000000001
#
# number of rings (size 3 to 8) (size 9 to 14) (size 15 to 20)
#    0.000    0.750    6.250    1.875    5.250    0.000 
#    0.000    0.625    0.000    1.500    0.000    0.000 
#    0.000    0.000    0.000    0.000    0.000    0.000 
#
# Total GULP energy -198351.688784 kJ/mol
# GULP energy per Si atom -12396.980549 kJ/mol
# Density = 2.035693 g / cm^3
# Si number density = 20.403365 Si / 1000 Ang^3
#
#
#
# Elastic Constant Matrix: (Units=GPa)
#
#
# Indices 1 2 3 4 5 6 
#
# 1 102.5540 35.5123 41.9245 -16.7023 -0.3287 7.2391
# 2 35.5123 100.1341 40.6114 -0.2569 -0.6722 4.3024
# 3 41.9245 40.6114 104.6701 -19.2841 9.6155 0.2374
# 4 -16.7023 -0.2569 -19.2841 43.4848 1.6724 -1.7699
# 5 -0.3287 -0.6722 9.6155 1.6724 33.1524 3.0913
# 6 7.2391 4.3024 0.2374 -1.7699 3.0913 24.0611
#
#
#
# Elastic Compliance Matrix: (Units=1/GPa)
#
#
# Indices 1 2 3 4 5 6 
#
# 1 0.013006 -0.003015 -0.003553 0.003222 0.001240 -0.003261
# 2 -0.003015 0.013013 -0.004616 -0.003278 0.001912 -0.001861
# 3 -0.003553 -0.004616 0.014152 0.005179 -0.004751 0.002746
# 4 0.003222 -0.003278 0.005179 0.026707 -0.003063 0.001924
# 5 0.001240 0.001912 -0.004751 -0.003063 0.032216 -0.005032
# 6 -0.003261 -0.001861 0.002746 0.001924 -0.005032 0.043636
#
#
# Mechanical properties :
#
#
# Convention : Reuss Voigt Hill
#
# Bulk Modulus (GPa) = 56.17066 60.38383 58.27724
# Shear Modulus (GPa) = 29.23410 32.76032 30.99721
#
# Velocity S-wave (km/s) = 3.78935 4.01138 3.90195
# Velocity P-wave (km/s) = 6.83633 7.14942 6.99463
#
# Compressibility (1/GPa) = 0.01780289
#
# Stress axis : x y z
#
# Youngs Moduli (GPa) = 76.88613 76.84880 70.66026
#
# Poissons Ratio (x) = 0.23171 0.25102
# Poissons Ratio (y) = 0.23182 0.32620
# Poissons Ratio (z) = 0.27314 0.35476
#
# Static dielectric constant tensor:
#      x y z
#    x 3.679330 0.207990 -0.009470 
#    y 0.207990 4.091130 0.167540 
#    z -0.009470 0.167540 3.980590 
# 
# 
# High freq. dielectric constant tensor:
#      x y z
#    x 1.770650 0.007820 -0.002030 
#    y 0.007820 1.796240 0.015490 
#    z -0.002030 0.015490 1.818080 
# 
# From -- ./inp_files/308777.got.cif
#   From: 2010.06.25/outbox.cif.g09.slc.cpg/sg2_155_cif.got.tgz:308777.got - 2010.06.27 13:26:56.
