data_PCOD8027931
_publ_section_title
;
Structure prediction by ZEFSAII (Michael W. Deem and Ramdas Pophale) SiO2 
 PCOD8027931
Probable space group: P -1
;
_chemical_formula_sum "Si O2"
_cell_formula_units_Z 16
_cell_length_a 16.135727
_cell_length_b 8.012864
_cell_length_c 8.238329
_cell_angle_alpha 53.773998
_cell_angle_beta 103.831869
_cell_angle_gamma 79.961903
_cell_volume 763.626092
_symmetry_space_group_name_H-M "P -1"
_symmetry_group_IT_number 2
_symmetry_cell_setting 'triclinic'
loop_
_space_group_symop_operation_xyz
x,y,z
-x,-y,-z
loop_
_atom_site_type_symbol
_atom_site_label
_atom_site_fract_x
_atom_site_fract_y
_atom_site_fract_z
Si Si1 0.490619 0.797159 0.208450
Si Si2 0.295857 0.430829 0.998548
Si Si3 0.291819 0.968406 0.130043
Si Si4 0.481175 0.248061 0.376621
Si Si5 0.360181 0.636685 0.630040
Si Si6 0.903033 0.871501 0.219266
Si Si7 0.977161 0.520858 0.726228
Si Si8 0.899872 0.329370 0.076201
O O1 0.380986 0.849726 0.124497
O O2 0.527546 0.727732 0.447656
O O3 0.551649 0.580661 0.262653
O O4 0.500000 0.000000 0.000000
O O5 0.386542 0.411428 0.152041
O O6 0.294147 0.192941 0.083896
O O7 0.293660 0.577038 0.753814
O O8 0.207920 0.576496 0.982063
O O9 0.291305 0.793286 0.369896
O O10 0.203174 0.017937 0.948968
O O11 0.575454 0.244551 0.336080
O O12 0.500000 0.000000 0.500000
O O13 0.910077 0.695829 0.465587
O O14 0.965346 0.726420 0.182713
O O15 0.934802 0.068042 0.184052
O O16 0.042434 0.639363 0.761147
O O17 0.910495 0.486922 0.848655
#
# Coordination Sequence:
#
# PCOD8027931 Si02
#       8
#     2   2   2   2   2   2   2   2
#     4  11  22  40  65  90 131 180 220 268 322 385
#     4  12  24  42  62  97 132 173 224 275 324 393
#     4  11  23  42  62  97 133 168 226 272 324 394
#     4  11  21  40  63  90 130 174 222 267 320 382
#     4  11  24  42  64  90 136 183 215 268 329 381
#     4  11  24  45  73 100 130 177 220 272 343 405
#     4  10  24  49  71  96 135 173 218 278 342 401
#     4  11  25  44  71 101 133 172 221 278 336 404
#
# _framework density 20.952663000000001
#
# number of rings (size 3 to 8) (size 9 to 14) (size 15 to 20)
#    0.000    1.000    5.000    2.625    3.500    3.000 
#    2.250    0.000    0.000    0.000    0.000    0.000 
#    0.000    0.000    0.000    0.000    0.000    0.000 
#
# Total GULP energy -198265.646665 kJ/mol
# GULP energy per Si atom -12391.602917 kJ/mol
# Density = 2.090497 g / cm^3
# Si number density = 20.952663 Si / 1000 Ang^3
#
#
#
# Elastic Constant Matrix: (Units=GPa)
#
#
# Indices 1 2 3 4 5 6 
#
# 1 102.3336 32.6730 60.4749 1.9248 3.1400 -15.1727
# 2 32.6730 106.7736 19.5005 -11.8122 6.9614 5.5077
# 3 60.4749 19.5005 134.5379 -1.8349 2.3318 -3.6290
# 4 1.9248 -11.8122 -1.8349 29.2993 2.8529 -6.1958
# 5 3.1400 6.9614 2.3318 2.8529 38.3747 3.6716
# 6 -15.1727 5.5077 -3.6290 -6.1958 3.6716 23.7740
#
#
#
# Elastic Compliance Matrix: (Units=1/GPa)
#
#
# Indices 1 2 3 4 5 6 
#
# 1 0.016719 -0.004500 -0.006571 -0.000970 -0.001097 0.010626
# 2 -0.004500 0.011470 0.000336 0.004230 -0.001653 -0.004120
# 3 -0.006571 0.000336 0.010278 0.000670 0.000045 -0.002535
# 4 -0.000970 0.004230 0.000670 0.038316 -0.004455 0.009177
# 5 -0.001097 -0.001653 0.000045 -0.004455 0.027321 -0.005691
# 6 0.010626 -0.004120 -0.002535 0.009177 -0.005691 0.052683
#
#
# Mechanical properties :
#
#
# Convention : Reuss Voigt Hill
#
# Bulk Modulus (GPa) = 58.83635 63.21576 61.02606
# Shear Modulus (GPa) = 27.18539 33.68938 30.43738
#
# Velocity S-wave (km/s) = 3.60594 4.01419 3.81553
# Velocity P-wave (km/s) = 6.74379 7.19175 6.97137
#
# Compressibility (1/GPa) = 0.01699630
#
# Stress axis : x y z
#
# Youngs Moduli (GPa) = 59.81171 87.18639 97.29801
#
# Poissons Ratio (x) = 0.39234 0.63931
# Poissons Ratio (y) = 0.26915 -0.03264
# Poissons Ratio (z) = 0.39300 -0.02925
#
# Static dielectric constant tensor:
#      x y z
#    x 3.643040 0.030000 -0.104800 
#    y 0.030000 4.015620 -0.271090 
#    z -0.104800 -0.271090 4.272790 
# 
# 
# High freq. dielectric constant tensor:
#      x y z
#    x 1.817100 0.005280 -0.006660 
#    y 0.005280 1.830420 -0.009040 
#    z -0.006660 -0.009040 1.834300 
# 
# From -- ./inp_files/297499.got.cif
#   From: 2010.06.25/outbox.cif.g09.slc.cpg/sg2_149_cif.got.tgz:297499.got - 2010.06.27 13:26:56.
