data_PCOD8027290
_publ_section_title
;
Structure prediction by ZEFSAII (Michael W. Deem and Ramdas Pophale) SiO2 
 PCOD8027290
Probable space group: P -1
;
_chemical_formula_sum "Si O2"
_cell_formula_units_Z 16
_cell_length_a 11.776279
_cell_length_b 14.271696
_cell_length_c 5.409210
_cell_angle_alpha 78.448268
_cell_angle_beta 48.874579
_cell_angle_gamma 93.350003
_cell_volume 648.286670
_symmetry_space_group_name_H-M "P -1"
_symmetry_group_IT_number 2
_symmetry_cell_setting 'triclinic'
loop_
_space_group_symop_operation_xyz
x,y,z
-x,-y,-z
loop_
_atom_site_type_symbol
_atom_site_label
_atom_site_fract_x
_atom_site_fract_y
_atom_site_fract_z
Si Si1 0.636636 0.146040 0.233897
Si Si2 0.887960 0.911519 0.356498
Si Si3 0.342847 0.221692 0.605983
Si Si4 0.887654 0.530486 0.331577
Si Si5 0.036263 0.208460 0.292209
Si Si6 0.110904 0.656478 0.299919
Si Si7 0.429479 0.445268 0.376738
Si Si8 0.249379 0.926614 0.402118
O O1 0.457456 0.151016 0.511075
O O2 0.656706 0.079837 0.475769
O O3 0.663688 0.099728 0.953456
O O4 0.744488 0.257254 0.044293
O O5 0.775916 0.819186 0.424158
O O6 0.006323 0.866535 0.372732
O O7 0.773031 0.962821 0.652718
O O8 0.000000 0.000000 0.000000
O O9 0.448196 0.334355 0.375744
O O10 0.222449 0.223692 0.000423
O O11 0.983535 0.628327 0.281027
O O12 0.752295 0.558727 0.357603
O O13 0.826308 0.438082 0.658430
O O14 0.000000 0.500000 0.000000
O O15 0.984357 0.309035 0.358225
O O16 0.923222 0.149886 0.269648
O O17 0.500000 0.500000 0.500000
O O18 0.500000 0.500000 0.000000
#
# Coordination Sequence:
#
# PCOD8027290 Si02
#       8
#     2   2   2   2   2   2   2   2
#     4  11  28  47  72 106 153 195 245 304 376 438
#     4  12  25  47  78 113 150 194 256 310 373 447
#     4  12  29  46  79 109 149 202 248 312 378 444
#     4  11  25  43  75 103 138 195 251 310 374 441
#     4  11  25  45  77 107 147 194 254 302 371 448
#     4  10  24  44  72 103 143 191 251 307 367 449
#     4  12  31  51  75 111 157 196 249 312 376 442
#     4  11  26  48  75 106 149 198 240 309 367 445
#
# _framework density 24.680441999999999
#
# number of rings (size 3 to 8) (size 9 to 14) (size 15 to 20)
#    0.000    0.750    1.250    4.125   17.500    1.000 
#    0.000    0.000    0.000    0.000    0.000    0.000 
#    0.000    0.000    0.000    0.000    0.000    0.000 
#
# Total GULP energy -198322.574424 kJ/mol
# GULP energy per Si atom -12395.160901 kJ/mol
# Density = 2.462427 g / cm^3
# Si number density = 24.680442 Si / 1000 Ang^3
#
#
#
# Elastic Constant Matrix: (Units=GPa)
#
#
# Indices 1 2 3 4 5 6 
#
# 1 104.5938 15.8695 15.5462 14.6984 0.9803 0.1825
# 2 15.8695 122.4822 6.9067 3.5644 4.8594 14.5796
# 3 15.5462 6.9067 60.6740 10.5939 -2.2755 12.3211
# 4 14.6984 3.5644 10.5939 26.9692 -0.5815 -1.4341
# 5 0.9803 4.8594 -2.2755 -0.5815 41.0821 6.7550
# 6 0.1825 14.5796 12.3211 -1.4341 6.7550 42.7390
#
#
#
# Elastic Compliance Matrix: (Units=1/GPa)
#
#
# Indices 1 2 3 4 5 6 
#
# 1 0.010723 -0.001220 -0.001941 -0.004886 -0.000425 0.000833
# 2 -0.001220 0.008708 0.000005 -0.000654 -0.000532 -0.002905
# 3 -0.001941 0.000005 0.019512 -0.006892 0.002044 -0.006173
# 4 -0.004886 -0.000654 -0.006892 0.042728 -0.000190 0.003695
# 5 -0.000425 -0.000532 0.002044 -0.000190 0.025249 -0.004403
# 6 0.000833 -0.002905 -0.006173 0.003695 -0.004403 0.026985
#
#
# Mechanical properties :
#
#
# Convention : Reuss Voigt Hill
#
# Bulk Modulus (GPa) = 30.64443 40.48831 35.56637
# Shear Modulus (GPa) = 33.09213 38.78656 35.93935
#
# Velocity S-wave (km/s) = 3.66570 3.96858 3.82014
# Velocity P-wave (km/s) = 5.50998 6.11883 5.82237
#
# Compressibility (1/GPa) = 0.03263236
#
# Stress axis : x y z
#
# Youngs Moduli (GPa) = 93.25322 114.83500 51.25138
#
# Poissons Ratio (x) = 0.14011 0.09947
# Poissons Ratio (y) = 0.11378 -0.00028
# Poissons Ratio (z) = 0.18099 -0.00063
#
# Static dielectric constant tensor:
#      x y z
#    x 5.098680 0.039890 -0.313730 
#    y 0.039890 5.295960 -0.046210 
#    z -0.313730 -0.046210 4.436500 
# 
# 
# High freq. dielectric constant tensor:
#      x y z
#    x 1.985750 -0.003300 -0.007330 
#    y -0.003300 2.002570 0.004460 
#    z -0.007330 0.004460 1.977910 
# 
# From -- ./inp_files/77547.got.cif
#   From: 2010.06.25/outbox.cif.g09.slc.cpg/sg2_39_cif.got.tgz:77547.got - 2010.06.27 13:26:56.
