data_PCOD8027775
_publ_section_title
;
Structure prediction by ZEFSAII (Michael W. Deem and Ramdas Pophale) SiO2 
 PCOD8027775
Probable space group: P -1
;
_chemical_formula_sum "Si O2"
_cell_formula_units_Z 10
_cell_length_a 16.069256
_cell_length_b 4.732469
_cell_length_c 12.414266
_cell_angle_alpha 110.219520
_cell_angle_beta 154.868826
_cell_angle_gamma 82.608859
_cell_volume 333.602321
_symmetry_space_group_name_H-M "P -1"
_symmetry_group_IT_number 2
_symmetry_cell_setting 'triclinic'
loop_
_space_group_symop_operation_xyz
x,y,z
-x,-y,-z
loop_
_atom_site_type_symbol
_atom_site_label
_atom_site_fract_x
_atom_site_fract_y
_atom_site_fract_z
Si Si1 0.991195 0.591512 0.379933
Si Si2 0.821613 0.446419 0.645634
Si Si3 0.479913 0.655575 0.287923
Si Si4 0.718716 0.399086 0.748909
Si Si5 0.735142 0.778122 0.355385
O O1 0.874904 0.013146 0.447582
O O2 0.000000 0.500000 0.500000
O O3 0.119834 0.399552 0.444940
O O4 0.732977 0.453778 0.047367
O O5 0.649668 0.565683 0.406268
O O6 0.831206 0.607915 0.799618
O O7 0.708910 0.033195 0.446106
O O8 0.080553 0.590019 0.936064
O O9 0.409341 0.462274 0.300011
O O10 0.562899 0.035055 0.471257
O O11 0.500000 0.500000 0.000000
#
# Coordination Sequence:
#
# PCOD8027775 Si02
#       5
#     2   2   2   2   2
#     4  12  30  55  82 118 170 223 285 346 415 496
#     4  11  25  47  81 122 165 215 274 342 420 500
#     4  11  25  47  81 122 165 215 274 342 420 500
#     4  10  24  46  80 120 170 206 276 332 434 490
#     4  12  30  55  82 118 170 223 285 346 415 496
#
# _framework density 29.975812999999999
#
# number of rings (size 3 to 8) (size 9 to 14) (size 15 to 20)
#    0.000    0.800    2.000    2.400    8.400    8.000 
#    0.000    0.000    0.000    0.000    0.000    0.000 
#    0.000    0.000    0.000    0.000    0.000    0.000 
#
# Total GULP energy -123888.471933 kJ/mol
# GULP energy per Si atom -12388.847193 kJ/mol
# Density = 2.990759 g / cm^3
# Si number density = 29.975813 Si / 1000 Ang^3
#
#
#
# Elastic Constant Matrix: (Units=GPa)
#
#
# Indices 1 2 3 4 5 6 
#
# 1 100.9684 -6.1224 24.2895 -1.1077 18.6356 -26.1055
# 2 -6.1224 131.7210 54.5061 17.4930 1.1913 12.9429
# 3 24.2895 54.5061 196.3465 26.1552 0.9425 -0.7081
# 4 -1.1077 17.4930 26.1552 26.9560 -4.9068 2.1462
# 5 18.6356 1.1913 0.9425 -4.9068 51.5049 -11.3032
# 6 -26.1055 12.9429 -0.7081 2.1462 -11.3032 47.7125
#
#
#
# Elastic Compliance Matrix: (Units=1/GPa)
#
#
# Indices 1 2 3 4 5 6 
#
# 1 0.012475 0.000675 -0.001799 0.000784 -0.003141 0.005837
# 2 0.000675 0.009271 -0.002130 -0.003976 -0.001305 -0.002307
# 3 -0.001799 -0.002130 0.006580 -0.005056 0.000085 -0.000061
# 4 0.000784 -0.003976 -0.005056 0.045368 0.004314 0.000414
# 5 -0.003141 -0.001305 0.000085 0.004314 0.021782 0.003603
# 6 0.005837 -0.002307 -0.000061 0.000414 0.003603 0.025612
#
#
# Mechanical properties :
#
#
# Convention : Reuss Voigt Hill
#
# Bulk Modulus (GPa) = 45.83178 63.82028 54.82603
# Shear Modulus (GPa) = 37.07325 48.99218 43.03271
#
# Velocity S-wave (km/s) = 3.52059 4.04715 3.79302
# Velocity P-wave (km/s) = 5.64348 6.57084 6.12474
#
# Compressibility (1/GPa) = 0.02181892
#
# Stress axis : x y z
#
# Youngs Moduli (GPa) = 80.15944 107.86364 151.98498
#
# Poissons Ratio (x) = -0.07282 0.27341
# Poissons Ratio (y) = -0.05411 0.32366
# Poissons Ratio (z) = 0.14420 0.22970
#
# Static dielectric constant tensor:
#      x y z
#    x 9.743920 -0.665550 0.981260 
#    y -0.665550 5.890730 -0.878250 
#    z 0.981260 -0.878250 6.143280 
# 
# 
# High freq. dielectric constant tensor:
#      x y z
#    x 2.310920 0.001770 0.004300 
#    y 0.001770 2.216700 -0.035370 
#    z 0.004300 -0.035370 2.242620 
# 
# From -- ./inp_files/18678.got.cif
#   From: 2010.06.25/outbox.cif.g09.slc.cpg/sg2_10_cif.got.tgz:18678.got - 2010.06.27 13:26:56.
