data_PCOD8027151
_publ_section_title
;
Structure prediction by ZEFSAII (Michael W. Deem and Ramdas Pophale) SiO2 
 PCOD8027151
Probable space group: P -1
;
_chemical_formula_sum "Si O2"
_cell_formula_units_Z 10
_cell_length_a 8.351182
_cell_length_b 8.332604
_cell_length_c 12.469689
_cell_angle_alpha 122.246694
_cell_angle_beta 33.012812
_cell_angle_gamma 110.043835
_cell_volume 389.387939
_symmetry_space_group_name_H-M "P -1"
_symmetry_group_IT_number 2
_symmetry_cell_setting 'triclinic'
loop_
_space_group_symop_operation_xyz
x,y,z
-x,-y,-z
loop_
_atom_site_type_symbol
_atom_site_label
_atom_site_fract_x
_atom_site_fract_y
_atom_site_fract_z
Si Si1 0.602513 0.408406 0.268694
Si Si2 0.869934 0.084789 0.419611
Si Si3 0.098492 0.560011 0.325321
Si Si4 0.430684 0.810739 0.589283
Si Si5 0.323452 0.715777 0.047123
O O1 0.665190 0.613966 0.345527
O O2 0.716304 0.240711 0.234608
O O3 0.241468 0.449460 0.469714
O O4 0.768949 0.343794 0.040776
O O5 0.619289 0.972590 0.562212
O O6 0.203627 0.949954 0.208615
O O7 0.812673 0.281381 0.589251
O O8 0.831510 0.120436 0.326541
O O9 0.155824 0.605574 0.186617
O O10 0.314572 0.349637 0.161113
#
# Coordination Sequence:
#
# PCOD8027151 Si02
#       5
#     2   2   2   2   2
#     4  11  23  47  69  99 137 175 222 281 326 399
#     4  11  23  47  69  99 137 175 222 281 326 399
#     4  11  24  47  68 100 136 175 224 281 320 402
#     4  10  24  44  68  98 144 170 214 290 332 380
#     4  11  24  41  74  99 129 183 222 268 345 384
#
# _framework density 25.681332999999999
#
# number of rings (size 3 to 8) (size 9 to 14) (size 15 to 20)
#    0.000    1.200    4.000    1.200    0.000    2.400 
#    0.000    0.000    0.000    0.000    0.000    0.000 
#    0.000    0.000    0.000    0.000    0.000    0.000 
#
# Total GULP energy -123999.606984 kJ/mol
# GULP energy per Si atom -12399.960698 kJ/mol
# Density = 2.562288 g / cm^3
# Si number density = 25.681333 Si / 1000 Ang^3
#
#
#
# Elastic Constant Matrix: (Units=GPa)
#
#
# Indices 1 2 3 4 5 6 
#
# 1 119.1021 45.7997 47.1491 1.0394 2.2113 -34.6942
# 2 45.7997 69.6002 26.7462 7.8981 -6.5986 -24.6286
# 3 47.1491 26.7462 100.8327 -2.1423 10.6156 -19.9261
# 4 1.0394 7.8981 -2.1423 35.5158 -22.2767 4.5085
# 5 2.2113 -6.5986 10.6156 -22.2767 47.3698 0.0362
# 6 -34.6942 -24.6286 -19.9261 4.5085 0.0362 62.2923
#
#
#
# Elastic Compliance Matrix: (Units=1/GPa)
#
#
# Indices 1 2 3 4 5 6 
#
# 1 0.013354 -0.005994 -0.003821 -0.000224 -0.000710 0.003862
# 2 -0.005994 0.021503 -0.002240 -0.004224 0.001787 0.004751
# 3 -0.003821 -0.002240 0.012874 -0.000931 -0.003458 0.001174
# 4 -0.000224 -0.004224 -0.000931 0.041797 0.019291 -0.005129
# 5 -0.000710 0.001787 -0.003458 0.019291 0.031241 -0.002209
# 6 0.003862 0.004751 0.001174 -0.005129 -0.002209 0.020831
#
#
# Mechanical properties :
#
#
# Convention : Reuss Voigt Hill
#
# Bulk Modulus (GPa) = 42.33508 58.76945 50.55226
# Shear Modulus (GPa) = 28.80435 40.35824 34.58130
#
# Velocity S-wave (km/s) = 3.35267 3.96852 3.67352
# Velocity P-wave (km/s) = 5.61318 6.62817 6.14168
#
# Compressibility (1/GPa) = 0.02362107
#
# Stress axis : x y z
#
# Youngs Moduli (GPa) = 74.88366 46.50500 77.67316
#
# Poissons Ratio (x) = 0.27877 0.29679
# Poissons Ratio (y) = 0.44889 0.17397
# Poissons Ratio (z) = 0.28613 0.10416
#
# Static dielectric constant tensor:
#      x y z
#    x 4.889310 -0.457130 0.152460 
#    y -0.457130 4.751810 0.157060 
#    z 0.152460 0.157060 4.511270 
# 
# 
# High freq. dielectric constant tensor:
#      x y z
#    x 2.041490 -0.025460 0.010850 
#    y -0.025460 2.029410 0.001850 
#    z 0.010850 0.001850 2.007190 
# 
# From -- ./inp_files/60264.got.cif
#   From: 2010.06.25/outbox.cif.g09.slc.cpg/sg2_31_cif.got.tgz:60264.got - 2010.06.27 13:26:56.
