data_PCOD8027742
_publ_section_title
;
Structure prediction by ZEFSAII (Michael W. Deem and Ramdas Pophale) SiO2 
 PCOD8027742
Probable space group: P -1
;
_chemical_formula_sum "Si O2"
_cell_formula_units_Z 16
_cell_length_a 9.035984
_cell_length_b 10.184173
_cell_length_c 13.849575
_cell_angle_alpha 136.227392
_cell_angle_beta 134.451704
_cell_angle_gamma 58.606261
_cell_volume 629.088641
_symmetry_space_group_name_H-M "P -1"
_symmetry_group_IT_number 2
_symmetry_cell_setting 'triclinic'
loop_
_space_group_symop_operation_xyz
x,y,z
-x,-y,-z
loop_
_atom_site_type_symbol
_atom_site_label
_atom_site_fract_x
_atom_site_fract_y
_atom_site_fract_z
Si Si1 0.566031 0.413205 0.685632
Si Si2 0.836948 0.411979 0.449934
Si Si3 0.070288 0.872843 0.312336
Si Si4 0.333283 0.238034 0.830080
Si Si5 0.926800 0.443785 0.202555
Si Si6 0.292564 0.830584 0.905124
Si Si7 0.831794 0.750253 0.959863
Si Si8 0.610282 0.855507 0.399555
O O1 0.366580 0.451982 0.546119
O O2 0.727329 0.256743 0.630682
O O3 0.673453 0.610495 0.864947
O O4 0.450658 0.351392 0.700572
O O5 0.748972 0.225381 0.256171
O O6 0.000000 0.500000 0.500000
O O7 0.955578 0.392380 0.596139
O O8 0.881071 0.863694 0.295043
O O9 0.144107 0.091819 0.453176
O O10 0.016321 0.793798 0.140375
O O11 0.274638 0.454023 0.884408
O O12 0.445836 0.130136 0.732827
O O13 0.477696 0.231069 0.986155
O O14 0.869726 0.267157 0.150065
O O15 0.079586 0.364467 0.150211
O O16 0.719960 0.942724 0.974306
O O17 0.500000 0.000000 0.500000
#
# Coordination Sequence:
#
# PCOD8027742 Si02
#       8
#     2   2   2   2   2   2   2   2
#     4  11  24  48  74 108 151 210 247 314 389 465
#     4  10  24  46  73 107 152 203 256 314 383 454
#     4  11  26  45  78 112 159 198 260 321 387 460
#     4  12  25  49  78 116 149 203 264 317 386 457
#     4  11  26  47  79 109 158 205 258 317 390 467
#     4  11  27  46  75 114 155 201 260 322 389 456
#     4  12  27  46  76 115 159 199 260 325 387 454
#     4  10  25  45  76 112 153 198 255 317 383 460
#
# _framework density 25.433617999999999
#
# number of rings (size 3 to 8) (size 9 to 14) (size 15 to 20)
#    0.000    1.000    1.250    3.750   10.500    4.500 
#    2.250    0.000    0.000    0.000    0.000    0.000 
#    0.000    0.000    0.000    0.000    0.000    0.000 
#
# Total GULP energy -198249.845449 kJ/mol
# GULP energy per Si atom -12390.615341 kJ/mol
# Density = 2.537573 g / cm^3
# Si number density = 25.433618 Si / 1000 Ang^3
#
#
#
# Elastic Constant Matrix: (Units=GPa)
#
#
# Indices 1 2 3 4 5 6 
#
# 1 127.5738 38.8808 50.1365 15.8911 -4.2252 3.1697
# 2 38.8808 116.0558 56.6973 11.0874 0.3012 -0.0895
# 3 50.1365 56.6973 136.0364 8.5140 2.1248 3.7232
# 4 15.8911 11.0874 8.5140 35.3177 -1.7093 12.9014
# 5 -4.2252 0.3012 2.1248 -1.7093 48.5470 6.7723
# 6 3.1697 -0.0895 3.7232 12.9014 6.7723 44.9064
#
#
#
# Elastic Compliance Matrix: (Units=1/GPa)
#
#
# Indices 1 2 3 4 5 6 
#
# 1 0.009859 -0.001633 -0.002766 -0.003352 0.000820 0.000370
# 2 -0.001633 0.011344 -0.004010 -0.002302 -0.000282 0.001174
# 3 -0.002766 -0.004010 0.010050 0.000290 -0.000555 -0.000645
# 4 -0.003352 -0.002302 0.000290 0.034231 0.002307 -0.009974
# 5 0.000820 -0.000282 -0.000555 0.002307 0.021320 -0.003890
# 6 0.000370 0.001174 -0.000645 -0.009974 -0.003890 0.025751
#
#
# Mechanical properties :
#
#
# Convention : Reuss Voigt Hill
#
# Bulk Modulus (GPa) = 69.27628 74.56615 71.92121
# Shear Modulus (GPa) = 37.26240 41.35098 39.30669
#
# Velocity S-wave (km/s) = 3.83179 4.03654 3.93550
# Velocity P-wave (km/s) = 6.84646 7.14888 6.99931
#
# Compressibility (1/GPa) = 0.01443496
#
# Stress axis : x y z
#
# Youngs Moduli (GPa) = 101.43157 88.15065 99.50488
#
# Poissons Ratio (x) = 0.14397 0.27522
# Poissons Ratio (y) = 0.16567 0.39899
# Poissons Ratio (z) = 0.28055 0.35346
#
# Static dielectric constant tensor:
#      x y z
#    x 4.792180 0.233240 0.273790 
#    y 0.233240 4.695670 0.097550 
#    z 0.273790 0.097550 4.953350 
# 
# 
# High freq. dielectric constant tensor:
#      x y z
#    x 2.030060 -0.002320 0.010120 
#    y -0.002320 2.001610 0.006840 
#    z 0.010120 0.006840 2.020360 
# 
# From -- ./inp_files/504540.got.cif
#   From: 2010.06.25/outbox.cif.g09.slc.cpg/sg2_253_cif.got.tgz:504540.got - 2010.06.27 13:26:56.
