data_PCOD8027475
_publ_section_title
;
Structure prediction by ZEFSAII (Michael W. Deem and Ramdas Pophale) SiO2 
 PCOD8027475
Probable space group: P -1
;
_chemical_formula_sum "Si O2"
_cell_formula_units_Z 16
_cell_length_a 19.505150
_cell_length_b 9.733018
_cell_length_c 8.883033
_cell_angle_alpha 87.850363
_cell_angle_beta 89.433729
_cell_angle_gamma 152.965878
_cell_volume 762.472875
_symmetry_space_group_name_H-M "P -1"
_symmetry_group_IT_number 2
_symmetry_cell_setting 'triclinic'
loop_
_space_group_symop_operation_xyz
x,y,z
-x,-y,-z
loop_
_atom_site_type_symbol
_atom_site_label
_atom_site_fract_x
_atom_site_fract_y
_atom_site_fract_z
Si Si1 0.171517 0.843300 0.162145
Si Si2 0.397765 0.043845 0.300034
Si Si3 0.739243 0.706745 0.206035
Si Si4 0.076267 0.188458 0.641824
Si Si5 0.685718 0.160557 0.364470
Si Si6 0.554519 0.143343 0.830378
Si Si7 0.193318 0.196146 0.140023
Si Si8 0.824264 0.160958 0.186873
O O1 0.998248 0.496498 0.208258
O O2 0.272980 0.932093 0.263942
O O3 0.201340 0.053520 0.200663
O O4 0.214155 0.891804 0.986262
O O5 0.558435 0.372826 0.211855
O O6 0.410442 0.055750 0.479200
O O7 0.348079 0.807375 0.243779
O O8 0.803283 0.711987 0.321098
O O9 0.781303 0.933109 0.254817
O O10 0.816738 0.816156 0.039204
O O11 0.163642 0.488532 0.601996
O O12 0.000000 0.000000 0.500000
O O13 0.953418 0.989981 0.783887
O O14 0.723147 0.089813 0.277417
O O15 0.590252 0.089798 0.261900
O O16 0.655885 0.460393 0.818413
O O17 0.500000 0.000000 0.000000
#
# Coordination Sequence:
#
# PCOD8027475 Si02
#       8
#     2   2   2   2   2   2   2   2
#     4  10  24  45  69  97 133 176 228 274 329 391
#     4  12  26  43  65 100 142 174 215 276 340 401
#     4  11  26  44  68 101 134 175 226 274 332 397
#     4  12  26  45  68  98 135 178 222 280 335 393
#     4  12  26  45  67  99 140 174 221 276 335 404
#     4  12  24  44  71 101 132 177 222 275 331 395
#     4  11  24  45  72  98 130 177 228 277 324 396
#     4  10  24  45  69  97 130 178 229 277 321 395
#
# _framework density 20.984351
#
# number of rings (size 3 to 8) (size 9 to 14) (size 15 to 20)
#    0.000    0.750    3.750    2.250    7.000    3.000 
#    0.000    0.000    0.000    0.000    0.000    0.000 
#    0.000    0.000    0.000    0.000    0.000    0.000 
#
# Total GULP energy -198516.081814 kJ/mol
# GULP energy per Si atom -12407.255113 kJ/mol
# Density = 2.093659 g / cm^3
# Si number density = 20.984351 Si / 1000 Ang^3
#
#
#
# Elastic Constant Matrix: (Units=GPa)
#
#
# Indices 1 2 3 4 5 6 
#
# 1 115.5836 40.0907 40.4951 6.0631 7.0695 -13.3849
# 2 40.0907 120.7566 22.6743 7.5267 -0.2250 -21.2122
# 3 40.4951 22.6743 83.9397 -3.7320 11.7188 2.4816
# 4 6.0631 7.5267 -3.7320 30.4197 4.5567 -5.3450
# 5 7.0695 -0.2250 11.7188 4.5567 27.4640 6.7668
# 6 -13.3849 -21.2122 2.4816 -5.3450 6.7668 38.8462
#
#
#
# Elastic Compliance Matrix: (Units=1/GPa)
#
#
# Indices 1 2 3 4 5 6 
#
# 1 0.011741 -0.002310 -0.005009 -0.001623 -0.001405 0.003125
# 2 -0.002310 0.010336 -0.001978 -0.001622 0.000649 0.004638
# 3 -0.005009 -0.001978 0.015882 0.003864 -0.005574 -0.002318
# 4 -0.001623 -0.001622 0.003864 0.036168 -0.008415 0.004750
# 5 -0.001405 0.000649 -0.005574 -0.008415 0.042611 -0.008354
# 6 0.003125 0.004638 -0.002318 0.004750 -0.008354 0.031609
#
#
# Mechanical properties :
#
#
# Convention : Reuss Voigt Hill
#
# Bulk Modulus (GPa) = 51.63381 58.53334 55.08357
# Shear Modulus (GPa) = 28.83586 33.81398 31.32492
#
# Velocity S-wave (km/s) = 3.71099 4.01857 3.86784
# Velocity P-wave (km/s) = 6.55905 7.03464 6.80101
#
# Compressibility (1/GPa) = 0.01936716
#
# Stress axis : x y z
#
# Youngs Moduli (GPa) = 85.17384 96.74515 62.96304
#
# Poissons Ratio (x) = 0.22346 0.31536
# Poissons Ratio (y) = 0.19674 0.12452
# Poissons Ratio (z) = 0.42660 0.19134
#
# Static dielectric constant tensor:
#      x y z
#    x 3.855340 -0.188580 -0.148930 
#    y -0.188580 3.904110 -0.029530 
#    z -0.148930 -0.029530 3.762970 
# 
# 
# High freq. dielectric constant tensor:
#      x y z
#    x 1.833520 -0.009720 -0.008610 
#    y -0.009720 1.832050 -0.001210 
#    z -0.008610 -0.001210 1.822130 
# 
# From -- ./inp_files/186700.got.cif
#   From: 2010.06.25/outbox.cif.g09.slc.cpg/sg2_94_cif.got.tgz:186700.got - 2010.06.27 13:26:56.
