data_PCOD8027176
_publ_section_title
;
Structure prediction by ZEFSAII (Michael W. Deem and Ramdas Pophale) SiO2 
 PCOD8027176
Probable space group: P -1
;
_chemical_formula_sum "Si O2"
_cell_formula_units_Z 16
_cell_length_a 8.167606
_cell_length_b 8.833567
_cell_length_c 11.926155
_cell_angle_alpha 97.066995
_cell_angle_beta 89.821127
_cell_angle_gamma 53.398329
_cell_volume 682.364719
_symmetry_space_group_name_H-M "P -1"
_symmetry_group_IT_number 2
_symmetry_cell_setting 'triclinic'
loop_
_space_group_symop_operation_xyz
x,y,z
-x,-y,-z
loop_
_atom_site_type_symbol
_atom_site_label
_atom_site_fract_x
_atom_site_fract_y
_atom_site_fract_z
Si Si1 0.169236 0.684490 0.013204
Si Si2 0.689177 0.391110 0.755324
Si Si3 0.816354 0.653614 0.437669
Si Si4 0.302918 0.398303 0.794554
Si Si5 0.915788 0.936703 0.399061
Si Si6 0.732995 0.043329 0.014472
Si Si7 0.534744 0.987080 0.828317
Si Si8 0.524764 0.751950 0.634682
O O1 0.266901 0.564133 0.116721
O O2 0.298254 0.757850 0.976879
O O3 0.171249 0.557443 0.904166
O O4 0.942688 0.873929 0.055992
O O5 0.513444 0.363575 0.760273
O O6 0.624797 0.553981 0.680799
O O7 0.899614 0.193368 0.699077
O O8 0.832860 0.551503 0.311701
O O9 0.826480 0.829259 0.438291
O O10 0.605401 0.719495 0.504328
O O11 0.000000 0.500000 0.500000
O O12 0.348841 0.205499 0.824305
O O13 0.722882 0.125506 0.353517
O O14 0.000000 0.000000 0.500000
O O15 0.721706 0.973944 0.883934
O O16 0.542450 0.100337 0.095092
O O17 0.602700 0.864439 0.703920
#
# Coordination Sequence:
#
# PCOD8027176 Si02
#       8
#     2   2   2   2   2   2   2   2
#     4  11  25  46  72 107 147 190 238 300 361 433
#     4  12  27  48  73 113 149 193 243 297 366 436
#     4  12  28  51  73 110 145 190 249 300 368 432
#     4  12  27  46  73 104 150 190 245 302 356 435
#     4  12  28  49  77 108 145 193 246 305 364 430
#     4  10  24  44  69 105 146 189 240 288 365 437
#     4  11  24  44  70 104 142 191 238 295 362 426
#     4  12  27  49  77 104 151 192 241 304 364 433
#
# _framework density 23.447870999999999
#
# number of rings (size 3 to 8) (size 9 to 14) (size 15 to 20)
#    0.000    0.500    3.750    3.000    8.750    2.500 
#    0.000    0.000    0.000    0.000    0.000    0.000 
#    0.000    0.000    0.000    0.000    0.000    0.000 
#
# Total GULP energy -198444.321212 kJ/mol
# GULP energy per Si atom -12402.770076 kJ/mol
# Density = 2.339450 g / cm^3
# Si number density = 23.447871 Si / 1000 Ang^3
#
#
#
# Elastic Constant Matrix: (Units=GPa)
#
#
# Indices 1 2 3 4 5 6 
#
# 1 60.1967 20.5881 37.9804 -1.4809 13.2823 -5.5093
# 2 20.5881 86.8239 45.7028 -1.9622 5.5982 -6.5919
# 3 37.9804 45.7028 144.1929 0.1664 28.8914 4.4723
# 4 -1.4809 -1.9622 0.1664 38.8119 -3.4771 4.8686
# 5 13.2823 5.5982 28.8914 -3.4771 47.7127 -1.5651
# 6 -5.5093 -6.5919 4.4723 4.8686 -1.5651 39.0177
#
#
#
# Elastic Compliance Matrix: (Units=1/GPa)
#
#
# Indices 1 2 3 4 5 6 
#
# 1 0.021034 -0.002298 -0.004331 0.000078 -0.002861 0.002954
# 2 -0.002298 0.014487 -0.004417 0.000488 0.001736 0.002638
# 3 -0.004331 -0.004417 0.010515 -0.000524 -0.004770 -0.002689
# 4 0.000078 0.000488 -0.000524 0.026363 0.002059 -0.003053
# 5 -0.002861 0.001736 -0.004770 0.002059 0.024628 0.001167
# 6 0.002954 0.002638 -0.002689 -0.003053 0.001167 0.027228
#
#
# Mechanical properties :
#
#
# Convention : Reuss Voigt Hill
#
# Bulk Modulus (GPa) = 41.76032 55.52846 48.64439
# Shear Modulus (GPa) = 32.39875 37.57127 34.98501
#
# Velocity S-wave (km/s) = 3.72120 4.00726 3.86688
# Velocity P-wave (km/s) = 6.02592 6.71892 6.38183
#
# Compressibility (1/GPa) = 0.02394617
#
# Stress axis : x y z
#
# Youngs Moduli (GPa) = 47.54245 69.02905 95.09782
#
# Poissons Ratio (x) = 0.15860 0.41182
# Poissons Ratio (y) = 0.10924 0.42002
# Poissons Ratio (z) = 0.20588 0.30488
#
# Static dielectric constant tensor:
#      x y z
#    x 4.301630 0.022460 0.151110 
#    y 0.022460 4.264460 -0.099260 
#    z 0.151110 -0.099260 4.539030 
# 
# 
# High freq. dielectric constant tensor:
#      x y z
#    x 1.929010 0.000030 0.009540 
#    y 0.000030 1.933260 -0.007270 
#    z 0.009540 -0.007270 1.937300 
# 
# From -- ./inp_files/382642.got.cif
#   From: 2010.06.25/outbox.cif.g09.slc.cpg/sg2_192_cif.got.tgz:382642.got - 2010.06.27 13:26:56.
