data_PCOD8027558
_publ_section_title
;
Structure prediction by ZEFSAII (Michael W. Deem and Ramdas Pophale) SiO2 
 PCOD8027558
Probable space group: P -1
;
_chemical_formula_sum "Si O2"
_cell_formula_units_Z 14
_cell_length_a 8.699673
_cell_length_b 15.875084
_cell_length_c 8.887744
_cell_angle_alpha 57.753283
_cell_angle_beta 145.636567
_cell_angle_gamma 121.311665
_cell_volume 577.838718
_symmetry_space_group_name_H-M "P -1"
_symmetry_group_IT_number 2
_symmetry_cell_setting 'triclinic'
loop_
_space_group_symop_operation_xyz
x,y,z
-x,-y,-z
loop_
_atom_site_type_symbol
_atom_site_label
_atom_site_fract_x
_atom_site_fract_y
_atom_site_fract_z
Si Si1 0.901001 0.745322 0.794428
Si Si2 0.110289 0.443971 0.860080
Si Si3 0.528130 0.170966 0.477844
Si Si4 0.908864 0.882932 0.073826
Si Si5 0.680822 0.570716 0.284951
Si Si6 0.615048 0.100454 0.912177
Si Si7 0.720997 0.770401 0.308948
O O1 0.587967 0.736137 0.621881
O O2 0.919851 0.743871 0.629400
O O3 0.054653 0.857692 0.870387
O O4 0.019409 0.650800 0.050270
O O5 0.182539 0.405894 0.790105
O O6 0.881103 0.515982 0.600742
O O7 0.382880 0.502910 0.102314
O O8 0.858684 0.188538 0.701601
O O9 0.483426 0.083066 0.655129
O O10 0.372919 0.148260 0.216996
O O11 0.850557 0.867171 0.219753
O O12 0.000000 0.000000 0.000000
O O13 0.637796 0.675848 0.223075
O O14 0.538383 0.197241 0.846904
O O15 0.500000 0.000000 0.000000
#
# Coordination Sequence:
#
# PCOD8027558 Si02
#       7
#     2   2   2   2   2   2   2
#     4  11  26  46  74 106 144 198 237 297 362 437
#     4  10  24  46  75 101 144 186 240 285 375 432
#     4  11  25  45  71  97 137 192 238 294 348 431
#     4  12  26  45  71 104 140 188 244 302 356 416
#     4  10  24  45  72 108 138 186 235 305 352 435
#     4  11  26  48  72 104 150 198 243 291 366 431
#     4  11  28  42  72 111 149 185 245 303 361 422
#
# _framework density 24.228213
#
# number of rings (size 3 to 8) (size 9 to 14) (size 15 to 20)
#    0.000    1.143    1.429    2.143   10.000    4.571 
#    0.000    0.000    0.000    0.000    0.000    0.000 
#    0.000    0.000    0.000    0.000    0.000    0.000 
#
# Total GULP energy -173453.231601 kJ/mol
# GULP energy per Si atom -12389.516543 kJ/mol
# Density = 2.417307 g / cm^3
# Si number density = 24.228213 Si / 1000 Ang^3
#
#
#
# Elastic Constant Matrix: (Units=GPa)
#
#
# Indices 1 2 3 4 5 6 
#
# 1 83.2645 14.6206 43.0765 -4.7571 -20.3810 4.6135
# 2 14.6206 93.0862 33.4357 -1.4866 -15.4229 12.7404
# 3 43.0765 33.4357 146.3703 -1.0225 -12.7318 14.0653
# 4 -4.7571 -1.4866 -1.0225 28.1981 7.7132 -10.2274
# 5 -20.3810 -15.4229 -12.7318 7.7132 48.5685 -11.1986
# 6 4.6135 12.7404 14.0653 -10.2274 -11.1986 42.0960
#
#
#
# Elastic Compliance Matrix: (Units=1/GPa)
#
#
# Indices 1 2 3 4 5 6 
#
# 1 0.015561 -0.000223 -0.004194 0.001540 0.005483 0.001596
# 2 -0.000223 0.012393 -0.002287 -0.001148 0.002852 -0.002482
# 3 -0.004194 -0.002287 0.008746 -0.001165 -0.000513 -0.002190
# 4 0.001540 -0.001148 -0.001165 0.040119 -0.004279 0.009177
# 5 0.005483 0.002852 -0.000513 -0.004279 0.025359 0.004414
# 6 0.001596 -0.002482 -0.002190 0.009177 0.004414 0.028467
#
#
# Mechanical properties :
#
#
# Convention : Reuss Voigt Hill
#
# Bulk Modulus (GPa) = 42.93280 56.10963 49.52121
# Shear Modulus (GPa) = 32.93436 39.21172 36.07304
#
# Velocity S-wave (km/s) = 3.69092 4.02734 3.86279
# Velocity P-wave (km/s) = 5.99354 6.69590 6.35443
#
# Compressibility (1/GPa) = 0.02329222
#
# Stress axis : x y z
#
# Youngs Moduli (GPa) = 64.26495 80.68983 114.33299
#
# Poissons Ratio (x) = 0.01799 0.47954
# Poissons Ratio (y) = 0.01433 0.26145
# Poissons Ratio (z) = 0.26954 0.18452
#
# Static dielectric constant tensor:
#      x y z
#    x 4.671020 -0.077590 -0.031400 
#    y -0.077590 3.962700 -0.230080 
#    z -0.031400 -0.230080 4.687160 
# 
# 
# High freq. dielectric constant tensor:
#      x y z
#    x 1.973020 0.002140 -0.008930 
#    y 0.002140 1.937330 -0.012230 
#    z -0.008930 -0.012230 1.979140 
# 
# From -- ./inp_files/46937.got.cif
#   From: 2010.06.25/outbox.cif.g09.slc.cpg/sg2_24_cif.got.tgz:46937.got - 2010.06.27 13:26:56.
