data_PCOD8027195
_publ_section_title
;
Structure prediction by ZEFSAII (Michael W. Deem and Ramdas Pophale) SiO2 
 PCOD8027195
Probable space group: P -1
;
_chemical_formula_sum "Si O2"
_cell_formula_units_Z 14
_cell_length_a 9.074778
_cell_length_b 4.898214
_cell_length_c 14.688596
_cell_angle_alpha 94.254373
_cell_angle_beta 65.263871
_cell_angle_gamma 106.924631
_cell_volume 566.466145
_symmetry_space_group_name_H-M "P -1"
_symmetry_group_IT_number 2
_symmetry_cell_setting 'triclinic'
loop_
_space_group_symop_operation_xyz
x,y,z
-x,-y,-z
loop_
_atom_site_type_symbol
_atom_site_label
_atom_site_fract_x
_atom_site_fract_y
_atom_site_fract_z
Si Si1 0.748700 0.688354 0.046094
Si Si2 0.153339 0.483932 0.396156
Si Si3 0.535160 0.074637 0.137288
Si Si4 0.033699 0.940423 0.843249
Si Si5 0.505909 0.667674 0.409756
Si Si6 0.834997 0.042689 0.734458
Si Si7 0.338499 0.778384 0.702955
O O1 0.673824 0.354382 0.072819
O O2 0.857063 0.824682 0.109965
O O3 0.409297 0.184198 0.929688
O O4 0.870213 0.731030 0.928718
O O5 0.320221 0.604218 0.415563
O O6 0.140310 0.165344 0.358097
O O7 0.000000 0.500000 0.500000
O O8 0.154778 0.657499 0.307438
O O9 0.342942 0.069315 0.167088
O O10 0.546199 0.039938 0.242188
O O11 0.141583 0.735890 0.772369
O O12 0.980509 0.094225 0.773712
O O13 0.500000 0.500000 0.500000
O O14 0.628897 0.530728 0.314723
O O15 0.595902 0.012868 0.397763
#
# Coordination Sequence:
#
# PCOD8027195 Si02
#       7
#     2   2   2   2   2   2   2
#     4  10  24  44  69  99 140 178 229 277 332 396
#     4  12  27  47  69 100 138 177 223 288 342 397
#     4  11  21  43  70  93 135 185 217 279 333 403
#     4  10  26  43  69 107 136 180 227 281 335 400
#     4  12  25  43  69  97 127 176 226 275 335 406
#     4  12  26  44  72 101 140 178 227 277 349 404
#     4  11  23  42  68  94 134 174 225 269 329 403
#
# _framework density 24.714625999999999
#
# number of rings (size 3 to 8) (size 9 to 14) (size 15 to 20)
#    0.000    0.857    2.857    3.429    4.000   10.857 
#    0.000    0.000    0.000    0.000    0.000    0.000 
#    0.000    0.000    0.000    0.000    0.000    0.000 
#
# Total GULP energy -173620.476990 kJ/mol
# GULP energy per Si atom -12401.462642 kJ/mol
# Density = 2.465837 g / cm^3
# Si number density = 24.714626 Si / 1000 Ang^3
#
#
#
# Elastic Constant Matrix: (Units=GPa)
#
#
# Indices 1 2 3 4 5 6 
#
# 1 155.1405 8.9748 41.6490 7.0435 -17.3522 -18.3361
# 2 8.9748 61.3389 -2.5318 -19.7005 1.4876 -17.9061
# 3 41.6490 -2.5318 85.9409 -14.2987 -16.3769 -2.2164
# 4 7.0435 -19.7005 -14.2987 23.7421 -7.0852 3.0089
# 5 -17.3522 1.4876 -16.3769 -7.0852 40.2327 -0.0322
# 6 -18.3361 -17.9061 -2.2164 3.0089 -0.0322 27.0624
#
#
#
# Elastic Compliance Matrix: (Units=1/GPa)
#
#
# Indices 1 2 3 4 5 6 
#
# 1 0.009283 -0.003468 -0.006165 -0.009966 -0.000129 0.004598
# 2 -0.003468 0.033082 0.010346 0.034901 0.007652 0.016515
# 3 -0.006165 0.010346 0.021247 0.026060 0.010198 0.001523
# 4 -0.009966 0.034901 0.026060 0.095232 0.021796 0.007912
# 5 -0.000129 0.007652 0.010198 0.021796 0.032509 0.003426
# 6 0.004598 0.016515 0.001523 0.007912 0.003426 0.050244
#
#
# Mechanical properties :
#
#
# Convention : Reuss Voigt Hill
#
# Bulk Modulus (GPa) = 15.37555 44.28937 29.83246
# Shear Modulus (GPa) = 19.09489 35.16265 27.12877
#
# Velocity S-wave (km/s) = 2.78261 3.77602 3.31672
# Velocity P-wave (km/s) = 4.06923 6.08032 5.17344
#
# Compressibility (1/GPa) = 0.06503834
#
# Stress axis : x y z
#
# Youngs Moduli (GPa) = 107.72508 30.22762 47.06604
#
# Poissons Ratio (x) = 0.10483 0.29016
# Poissons Ratio (y) = 0.37360 -0.48695
# Poissons Ratio (z) = 0.66412 -0.31274
#
# Static dielectric constant tensor:
#      x y z
#    x 5.284600 -0.845840 -0.325200 
#    y -0.845840 4.742420 0.193110 
#    z -0.325200 0.193110 4.653480 
# 
# 
# High freq. dielectric constant tensor:
#      x y z
#    x 1.995390 -0.019260 -0.010950 
#    y -0.019260 1.973770 -0.008700 
#    z -0.010950 -0.008700 1.993330 
# 
# From -- ./inp_files/487761.got.cif
#   From: 2010.06.25/outbox.cif.g09.slc.cpg/sg2_244_cif.got.tgz:487761.got - 2010.06.27 13:26:56.
