data_PCOD8027311
_publ_section_title
;
Structure prediction by ZEFSAII (Michael W. Deem and Ramdas Pophale) SiO2 
 PCOD8027311
Probable space group: P -1
;
_chemical_formula_sum "Si O2"
_cell_formula_units_Z 16
_cell_length_a 5.586992
_cell_length_b 17.221313
_cell_length_c 15.269966
_cell_angle_alpha 147.693745
_cell_angle_beta 117.787173
_cell_angle_gamma 71.964301
_cell_volume 683.501704
_symmetry_space_group_name_H-M "P -1"
_symmetry_group_IT_number 2
_symmetry_cell_setting 'triclinic'
loop_
_space_group_symop_operation_xyz
x,y,z
-x,-y,-z
loop_
_atom_site_type_symbol
_atom_site_label
_atom_site_fract_x
_atom_site_fract_y
_atom_site_fract_z
Si Si1 0.467040 0.236441 0.893089
Si Si2 0.596155 0.381441 0.225159
Si Si3 0.751230 0.418735 0.981027
Si Si4 0.236126 0.958606 0.854919
Si Si5 0.760682 0.724356 0.594579
Si Si6 0.616145 0.077025 0.351743
Si Si7 0.162486 0.255836 0.179595
Si Si8 0.965207 0.283961 0.736269
O O1 0.237158 0.243649 0.788061
O O2 0.512057 0.070603 0.758718
O O3 0.405825 0.314795 0.047790
O O4 0.744887 0.333673 0.991987
O O5 0.696473 0.554820 0.396209
O O6 0.399674 0.345745 0.242519
O O7 0.883877 0.319409 0.211967
O O8 0.009044 0.553631 0.150187
O O9 0.500000 0.500000 0.000000
O O10 0.751188 0.292781 0.786714
O O11 0.296457 0.966347 0.770217
O O12 0.080093 0.796673 0.702539
O O13 0.500000 0.000000 0.000000
O O14 0.060118 0.088678 0.968297
O O15 0.598971 0.813181 0.585422
O O16 0.679942 0.745999 0.702285
O O17 0.873511 0.159051 0.529708
#
# Coordination Sequence:
#
# PCOD8027311 Si02
#       8
#     2   2   2   2   2   2   2   2
#     4  11  25  45  70 108 149 197 244 314 374 454
#     4  12  29  47  81 115 153 202 259 316 387 449
#     4   9  22  43  71  99 144 189 245 310 381 435
#     4  12  26  49  75 106 155 199 254 314 387 456
#     4  12  29  44  77 110 150 199 259 315 380 461
#     4  12  27  45  73 109 148 198 253 310 381 458
#     4  12  26  52  76 109 156 204 256 319 382 452
#     4  10  24  44  73 104 146 193 249 311 376 451
#
# _framework density 23.408864000000001
#
# number of rings (size 3 to 8) (size 9 to 14) (size 15 to 20)
#    0.000    0.750    2.500    3.000   10.500    2.500 
#    0.000    0.000    0.000    0.000    0.000    0.000 
#    0.000    0.000    0.000    0.000    0.000    0.000 
#
# Total GULP energy -198310.758008 kJ/mol
# GULP energy per Si atom -12394.422375 kJ/mol
# Density = 2.335558 g / cm^3
# Si number density = 23.408864 Si / 1000 Ang^3
#
#
#
# Elastic Constant Matrix: (Units=GPa)
#
#
# Indices 1 2 3 4 5 6 
#
# 1 98.0317 46.9907 11.4709 5.3655 1.7225 13.9885
# 2 46.9907 150.7108 60.3103 9.9399 8.9236 24.4616
# 3 11.4709 60.3103 126.0949 2.2013 7.9339 7.1467
# 4 5.3655 9.9399 2.2013 42.1046 -0.6452 5.8664
# 5 1.7225 8.9236 7.9339 -0.6452 35.9591 4.6689
# 6 13.9885 24.4616 7.1467 5.8664 4.6689 38.1936
#
#
#
# Elastic Compliance Matrix: (Units=1/GPa)
#
#
# Indices 1 2 3 4 5 6 
#
# 1 0.012248 -0.003780 0.000797 -0.000395 0.000455 -0.002209
# 2 -0.003780 0.010332 -0.004285 -0.001171 -0.000921 -0.004139
# 3 0.000797 -0.004285 0.009942 0.000273 -0.001255 0.000703
# 4 -0.000395 -0.001171 0.000273 0.024505 0.001085 -0.003053
# 5 0.000455 -0.000921 -0.001255 0.001085 0.028704 -0.003018
# 6 -0.002209 -0.004139 0.000703 -0.003053 -0.003018 0.030348
#
#
# Mechanical properties :
#
#
# Convention : Reuss Voigt Hill
#
# Bulk Modulus (GPa) = 55.59766 68.04234 61.82000
# Shear Modulus (GPa) = 36.60027 40.32250 38.46139
#
# Velocity S-wave (km/s) = 3.95843 4.15484 4.05782
# Velocity P-wave (km/s) = 6.68539 7.22129 6.95850
#
# Compressibility (1/GPa) = 0.01798637
#
# Stress axis : x y z
#
# Youngs Moduli (GPa) = 81.64307 96.78544 100.58578
#
# Poissons Ratio (x) = 0.36589 -0.08020
# Poissons Ratio (y) = 0.30865 0.43100
# Poissons Ratio (z) = -0.06510 0.41472
#
# Static dielectric constant tensor:
#      x y z
#    x 4.317760 0.344660 0.073620 
#    y 0.344660 4.668110 0.242420 
#    z 0.073620 0.242420 4.444870 
# 
# 
# High freq. dielectric constant tensor:
#      x y z
#    x 1.922950 0.008510 -0.004090 
#    y 0.008510 1.942100 0.006690 
#    z -0.004090 0.006690 1.931080 
# 
# From -- ./inp_files/323570.got.cif
#   From: 2010.06.25/outbox.cif.g09.slc.cpg/sg2_162_cif.got.tgz:323570.got - 2010.06.27 13:26:56.
