data_PCOD8027940
_publ_section_title
;
Structure prediction by ZEFSAII (Michael W. Deem and Ramdas Pophale) SiO2 
 PCOD8027940
Probable space group: P -1
;
_chemical_formula_sum "Si O2"
_cell_formula_units_Z 14
_cell_length_a 11.537654
_cell_length_b 10.623668
_cell_length_c 10.871081
_cell_angle_alpha 40.345167
_cell_angle_beta 52.295472
_cell_angle_gamma 41.831575
_cell_volume 572.379893
_symmetry_space_group_name_H-M "P -1"
_symmetry_group_IT_number 2
_symmetry_cell_setting 'triclinic'
loop_
_space_group_symop_operation_xyz
x,y,z
-x,-y,-z
loop_
_atom_site_type_symbol
_atom_site_label
_atom_site_fract_x
_atom_site_fract_y
_atom_site_fract_z
Si Si1 0.249250 0.722851 0.743005
Si Si2 0.433169 0.859427 0.221376
Si Si3 0.066817 0.065365 0.023155
Si Si4 0.454028 0.788604 0.996684
Si Si5 0.331036 0.084107 0.354810
Si Si6 0.739870 0.410069 0.442391
Si Si7 0.010042 0.515491 0.627938
O O1 0.392978 0.483110 0.893709
O O2 0.199805 0.689494 0.662010
O O3 0.064856 0.863957 0.829616
O O4 0.339091 0.872526 0.577471
O O5 0.464627 0.921631 0.014918
O O6 0.608097 0.687714 0.314128
O O7 0.355340 0.703818 0.348417
O O8 0.293756 0.069236 0.243872
O O9 0.261208 0.836801 0.085793
O O10 0.095416 0.269502 0.820839
O O11 0.000000 0.000000 0.000000
O O12 0.492460 0.907655 0.767727
O O13 0.188842 0.329775 0.317519
O O14 0.895064 0.360091 0.472450
O O15 0.000000 0.500000 0.500000
#
# Coordination Sequence:
#
# PCOD8027940 Si02
#       7
#     2   2   2   2   2   2   2
#     4  10  24  49  75 111 145 189 243 305 369 429
#     4   9  20  40  73 109 143 185 240 302 373 422
#     4  12  28  49  72 107 147 199 250 298 367 438
#     4  11  24  46  75 108 151 189 240 309 358 440
#     4  11  23  45  71 111 146 187 242 295 373 434
#     4   9  21  42  72 109 143 188 245 299 361 440
#     4  12  27  46  71 106 152 195 250 298 361 442
#
# _framework density 24.459281000000001
#
# number of rings (size 3 to 8) (size 9 to 14) (size 15 to 20)
#    0.000    1.429    1.429    3.000    6.000    3.429 
#    0.000    3.571    0.000    0.000    0.000    0.000 
#    0.000    0.000    0.000    0.000    0.000    0.000 
#
# Total GULP energy -173466.852994 kJ/mol
# GULP energy per Si atom -12390.489500 kJ/mol
# Density = 2.440361 g / cm^3
# Si number density = 24.459281 Si / 1000 Ang^3
#
#
#
# Elastic Constant Matrix: (Units=GPa)
#
#
# Indices 1 2 3 4 5 6 
#
# 1 118.4860 59.6944 32.2658 15.0677 3.7801 -7.8711
# 2 59.6944 150.4727 44.9494 26.9749 -3.9380 -10.9325
# 3 32.2658 44.9494 131.1333 18.0861 -14.5945 -12.4915
# 4 15.0677 26.9749 18.0861 37.8334 4.5985 -4.5219
# 5 3.7801 -3.9380 -14.5945 4.5985 27.1988 8.0196
# 6 -7.8711 -10.9325 -12.4915 -4.5219 8.0196 31.6070
#
#
#
# Elastic Compliance Matrix: (Units=1/GPa)
#
#
# Indices 1 2 3 4 5 6 
#
# 1 0.011053 -0.003826 -0.001586 -0.000315 -0.003363 0.001611
# 2 -0.003826 0.009527 -0.001414 -0.004728 0.001757 0.000662
# 3 -0.001586 -0.001414 0.009702 -0.003544 0.005513 0.001045
# 4 -0.000315 -0.004728 -0.003544 0.033238 -0.009345 0.004012
# 5 -0.003363 0.001757 0.005513 -0.009345 0.045229 -0.010864
# 6 0.001611 0.000662 0.001045 0.004012 -0.010864 0.036012
#
#
# Mechanical properties :
#
#
# Convention : Reuss Voigt Hill
#
# Bulk Modulus (GPa) = 60.12230 74.87901 67.50065
# Shear Modulus (GPa) = 30.49577 36.87332 33.68455
#
# Velocity S-wave (km/s) = 3.53483 3.88692 3.71505
# Velocity P-wave (km/s) = 6.42604 7.12912 6.78669
#
# Compressibility (1/GPa) = 0.01663276
#
# Stress axis : x y z
#
# Youngs Moduli (GPa) = 90.46913 104.96014 103.06633
#
# Poissons Ratio (x) = 0.40156 0.16343
# Poissons Ratio (y) = 0.34612 0.14571
# Poissons Ratio (z) = 0.14346 0.14839
#
# Static dielectric constant tensor:
#      x y z
#    x 4.111000 0.068300 -0.272050 
#    y 0.068300 4.741110 0.020820 
#    z -0.272050 0.020820 4.625690 
# 
# 
# High freq. dielectric constant tensor:
#      x y z
#    x 1.949530 0.014420 -0.024340 
#    y 0.014420 1.984310 0.008020 
#    z -0.024340 0.008020 2.000370 
# 
# From -- ./inp_files/424887.got.cif
#   From: 2010.06.25/outbox.cif.g09.slc.cpg/sg2_213_cif.got.tgz:424887.got - 2010.06.27 13:26:56.
