data_PCOD8027240
_publ_section_title
;
Structure prediction by ZEFSAII (Michael W. Deem and Ramdas Pophale) SiO2 
 PCOD8027240
Probable space group: P -1
;
_chemical_formula_sum "Si O2"
_cell_formula_units_Z 16
_cell_length_a 8.829520
_cell_length_b 14.412011
_cell_length_c 12.114806
_cell_angle_alpha 37.709778
_cell_angle_beta 128.069101
_cell_angle_gamma 108.216169
_cell_volume 691.472232
_symmetry_space_group_name_H-M "P -1"
_symmetry_group_IT_number 2
_symmetry_cell_setting 'triclinic'
loop_
_space_group_symop_operation_xyz
x,y,z
-x,-y,-z
loop_
_atom_site_type_symbol
_atom_site_label
_atom_site_fract_x
_atom_site_fract_y
_atom_site_fract_z
Si Si1 0.784083 0.735709 0.696235
Si Si2 0.648404 0.601990 0.968251
Si Si3 0.663302 0.625943 0.519158
Si Si4 0.864993 0.155294 0.223925
Si Si5 0.490517 0.891170 0.778201
Si Si6 0.228570 0.731815 0.149312
Si Si7 0.065636 0.151916 0.899805
Si Si8 0.989270 0.591459 0.523918
O O1 0.731614 0.614162 0.871328
O O2 0.754219 0.690870 0.600803
O O3 0.027361 0.710362 0.838230
O O4 0.647874 0.923145 0.486395
O O5 0.542138 0.788375 0.785135
O O6 0.500000 0.500000 0.000000
O O7 0.834571 0.508878 0.219866
O O8 0.422836 0.742931 0.293030
O O9 0.693123 0.437126 0.725663
O O10 0.769768 0.641076 0.438100
O O11 0.630454 0.202665 0.116108
O O12 0.858963 0.125800 0.116239
O O13 0.000000 0.000000 0.500000
O O14 0.691395 0.890277 0.935374
O O15 0.048742 0.740361 0.146835
O O16 0.988449 0.241924 0.663769
O O17 0.000000 0.000000 0.000000
O O18 0.000000 0.500000 0.500000
#
# Coordination Sequence:
#
# PCOD8027240 Si02
#       8
#     2   2   2   2   2   2   2   2
#     4  11  26  48  71 109 146 193 244 295 369 427
#     4  12  29  44  76 108 146 194 241 300 360 436
#     4  11  25  43  77 101 144 186 239 303 349 434
#     4  10  24  44  71 100 146 191 236 291 365 425
#     4  11  24  48  73 104 148 191 238 304 354 434
#     4  11  24  43  70 106 140 189 234 300 365 413
#     4  12  26  45  76 104 144 189 245 300 361 434
#     4  12  25  49  71 104 145 188 244 293 363 426
#
# _framework density 23.139035
#
# number of rings (size 3 to 8) (size 9 to 14) (size 15 to 20)
#    0.000    0.750    2.500    3.375    7.000    4.000 
#    0.000    4.375    0.000    0.000    0.000    0.000 
#    0.000    0.000    0.000    0.000    0.000    0.000 
#
# Total GULP energy -198348.134793 kJ/mol
# GULP energy per Si atom -12396.758425 kJ/mol
# Density = 2.308637 g / cm^3
# Si number density = 23.139035 Si / 1000 Ang^3
#
#
#
# Elastic Constant Matrix: (Units=GPa)
#
#
# Indices 1 2 3 4 5 6 
#
# 1 170.2478 46.6766 60.3429 20.3800 -12.0142 26.2622
# 2 46.6766 118.5000 35.1685 10.5130 2.0534 18.1018
# 3 60.3429 35.1685 122.5727 15.6481 -11.5197 3.8770
# 4 20.3800 10.5130 15.6481 38.0213 2.3185 0.7695
# 5 -12.0142 2.0534 -11.5197 2.3185 46.2565 5.4730
# 6 26.2622 18.1018 3.8770 0.7695 5.4730 41.2225
#
#
#
# Elastic Compliance Matrix: (Units=1/GPa)
#
#
# Indices 1 2 3 4 5 6 
#
# 1 0.008637 -0.001536 -0.003066 -0.002984 0.002263 -0.004784
# 2 -0.001536 0.010244 -0.002036 -0.001050 -0.000931 -0.003185
# 3 -0.003066 -0.002036 0.010675 -0.002334 0.001876 0.001638
# 4 -0.002984 -0.001050 -0.002334 0.029289 -0.003067 0.002442
# 5 0.002263 -0.000931 0.001876 -0.003067 0.023372 -0.004255
# 6 -0.004784 -0.003185 0.001638 0.002442 -0.004255 0.029071
#
#
# Mechanical properties :
#
#
# Convention : Reuss Voigt Hill
#
# Bulk Modulus (GPa) = 61.42670 77.29961 69.36316
# Shear Modulus (GPa) = 38.46493 43.04222 40.75357
#
# Velocity S-wave (km/s) = 4.08160 4.31763 4.20128
# Velocity P-wave (km/s) = 6.98692 7.63774 7.31957
#
# Compressibility (1/GPa) = 0.01627957
#
# Stress axis : x y z
#
# Youngs Moduli (GPa) = 115.78698 97.62049 93.68105
#
# Poissons Ratio (x) = 0.14990 0.28725
# Poissons Ratio (y) = 0.17780 0.19072
# Poissons Ratio (z) = 0.35503 0.19874
#
# Static dielectric constant tensor:
#      x y z
#    x 4.990180 0.074210 -0.380340 
#    y 0.074210 4.089470 0.038780 
#    z -0.380340 0.038780 4.563280 
# 
# 
# High freq. dielectric constant tensor:
#      x y z
#    x 1.933680 0.010850 -0.005370 
#    y 0.010850 1.907850 0.007810 
#    z -0.005370 0.007810 1.922150 
# 
# From -- ./inp_files/398465.got.cif
#   From: 2010.06.25/outbox.cif.g09.slc.cpg/sg2_200_cif.got.tgz:398465.got - 2010.06.27 13:26:56.
