data_PCOD8027876
_publ_section_title
;
Structure prediction by ZEFSAII (Michael W. Deem and Ramdas Pophale) SiO2 
 PCOD8027876
Probable space group: P -1
;
_chemical_formula_sum "Si O2"
_cell_formula_units_Z 16
_cell_length_a 8.452537
_cell_length_b 13.808431
_cell_length_c 6.645751
_cell_angle_alpha 63.961605
_cell_angle_beta 88.221386
_cell_angle_gamma 84.031380
_cell_volume 693.066405
_symmetry_space_group_name_H-M "P -1"
_symmetry_group_IT_number 2
_symmetry_cell_setting 'triclinic'
loop_
_space_group_symop_operation_xyz
x,y,z
-x,-y,-z
loop_
_atom_site_type_symbol
_atom_site_label
_atom_site_fract_x
_atom_site_fract_y
_atom_site_fract_z
Si Si1 0.026969 0.646829 0.468888
Si Si2 0.888149 0.791237 0.019584
Si Si3 0.758341 0.173184 0.601584
Si Si4 0.689621 0.982376 0.040835
Si Si5 0.701111 0.523413 0.299790
Si Si6 0.870357 0.071412 0.304004
Si Si7 0.475255 0.343474 0.490191
Si Si8 0.215840 0.345116 0.188873
O O1 0.094627 0.759212 0.421381
O O2 0.159273 0.546150 0.515905
O O3 0.932178 0.675870 0.238623
O O4 0.919557 0.612651 0.686700
O O5 0.750361 0.859691 0.089721
O O6 0.824269 0.761955 0.830080
O O7 0.042240 0.856220 0.924351
O O8 0.758087 0.149497 0.384350
O O9 0.597086 0.239341 0.626231
O O10 0.778503 0.059827 0.820162
O O11 0.749958 0.001735 0.248625
O O12 0.500000 0.000000 0.000000
O O13 0.561417 0.448270 0.331817
O O14 0.635141 0.628818 0.335103
O O15 0.762711 0.556071 0.051411
O O16 0.000000 0.000000 0.500000
O O17 0.377035 0.310704 0.332642
#
# Coordination Sequence:
#
# PCOD8027876 Si02
#       8
#     2   2   2   2   2   2   2   2
#     4  11  24  45  71 100 134 180 233 285 345 414
#     4  12  26  44  70 103 140 182 227 289 352 413
#     4  11  24  46  70 101 135 185 231 281 349 418
#     4  12  29  44  73 104 145 185 233 288 352 420
#     4  10  24  48  69  98 138 185 227 286 352 409
#     4  12  24  47  74 100 140 190 237 289 346 418
#     4  10  25  45  71  99 143 179 228 286 350 419
#     4  12  25  41  71 104 136 176 235 288 343 409
#
# _framework density 23.085809999999999
#
# number of rings (size 3 to 8) (size 9 to 14) (size 15 to 20)
#    0.000    0.750    3.750    2.625    5.250    3.500 
#    2.250    0.000    0.000    0.000    0.000    0.000 
#    0.000    0.000    0.000    0.000    0.000    0.000 
#
# Total GULP energy -198479.805601 kJ/mol
# GULP energy per Si atom -12404.987850 kJ/mol
# Density = 2.303327 g / cm^3
# Si number density = 23.085810 Si / 1000 Ang^3
#
#
#
# Elastic Constant Matrix: (Units=GPa)
#
#
# Indices 1 2 3 4 5 6 
#
# 1 108.5764 22.4625 42.3754 15.1083 8.3486 -9.3405
# 2 22.4625 92.5867 24.9569 17.6639 4.8812 -22.1645
# 3 42.3754 24.9569 112.4664 7.6791 -3.7955 -7.8373
# 4 15.1083 17.6639 7.6791 41.1987 8.4148 0.5382
# 5 8.3486 4.8812 -3.7955 8.4148 41.8406 8.6210
# 6 -9.3405 -22.1645 -7.8373 0.5382 8.6210 33.7921
#
#
#
# Elastic Compliance Matrix: (Units=1/GPa)
#
#
# Indices 1 2 3 4 5 6 
#
# 1 0.011702 -0.000411 -0.004020 -0.002862 -0.002643 0.002753
# 2 -0.000411 0.015109 -0.002218 -0.005461 -0.002865 0.010100
# 3 -0.004020 -0.002218 0.010935 -0.000051 0.002184 -0.000586
# 4 -0.002862 -0.005461 -0.000051 0.028484 -0.003724 -0.003888
# 5 -0.002643 -0.002865 0.002184 -0.003724 0.027580 -0.009080
# 6 0.002753 0.010100 -0.000586 -0.003888 -0.009080 0.039221
#
#
# Mechanical properties :
#
#
# Convention : Reuss Voigt Hill
#
# Bulk Modulus (GPa) = 40.90329 54.80213 47.85271
# Shear Modulus (GPa) = 32.36707 38.28859 35.32783
#
# Velocity S-wave (km/s) = 3.74844 4.07693 3.91613
# Velocity P-wave (km/s) = 6.04076 6.77877 6.42038
#
# Compressibility (1/GPa) = 0.02444791
#
# Stress axis : x y z
#
# Youngs Moduli (GPa) = 85.45273 66.18625 91.45183
#
# Poissons Ratio (x) = 0.02722 0.36763
# Poissons Ratio (y) = 0.03514 0.20282
# Poissons Ratio (z) = 0.34352 0.14679
#
# Static dielectric constant tensor:
#      x y z
#    x 4.245940 0.158250 -0.063760 
#    y 0.158250 4.118200 0.082510 
#    z -0.063760 0.082510 4.074090 
# 
# 
# High freq. dielectric constant tensor:
#      x y z
#    x 1.923890 0.011360 -0.004590 
#    y 0.011360 1.919810 0.003040 
#    z -0.004590 0.003040 1.910000 
# 
# From -- ./inp_files/37390.got.cif
#   From: 2010.06.25/outbox.cif.g09.slc.cpg/sg2_19_cif.got.tgz:37390.got - 2010.06.27 13:26:56.
