data_PCOD8027900
_publ_section_title
;
Structure prediction by ZEFSAII (Michael W. Deem and Ramdas Pophale) SiO2 
 PCOD8027900
Probable space group: P -1
;
_chemical_formula_sum "Si O2"
_cell_formula_units_Z 14
_cell_length_a 19.409104
_cell_length_b 11.675126
_cell_length_c 13.836802
_cell_angle_alpha 148.830195
_cell_angle_beta 157.581007
_cell_angle_gamma 31.120106
_cell_volume 584.267710
_symmetry_space_group_name_H-M "P -1"
_symmetry_group_IT_number 2
_symmetry_cell_setting 'triclinic'
loop_
_space_group_symop_operation_xyz
x,y,z
-x,-y,-z
loop_
_atom_site_type_symbol
_atom_site_label
_atom_site_fract_x
_atom_site_fract_y
_atom_site_fract_z
Si Si1 0.338028 0.356329 0.517524
Si Si2 0.300371 0.164037 0.814094
Si Si3 0.807490 0.708112 0.911681
Si Si4 0.160814 0.010450 0.342779
Si Si5 0.300950 0.505216 0.205835
Si Si6 0.075650 0.872411 0.604543
Si Si7 0.250978 0.930166 0.183715
O O1 0.333887 0.345680 0.387750
O O2 0.230109 0.614625 0.605257
O O3 0.566022 0.266357 0.769355
O O4 0.233386 0.185842 0.304128
O O5 0.108403 0.119598 0.567402
O O6 0.282463 0.141622 0.658380
O O7 0.295458 0.422826 0.027545
O O8 0.500000 0.000000 0.000000
O O9 0.753604 0.685127 0.937043
O O10 0.000000 0.500000 0.000000
O O11 0.818031 0.965704 0.088300
O O12 0.164425 0.771100 0.228774
O O13 0.267555 0.953189 0.337548
O O14 0.933630 0.149028 0.137821
O O15 0.500000 0.500000 0.500000
O O16 0.000000 0.000000 0.500000
#
# Coordination Sequence:
#
# PCOD8027900 Si02
#       7
#     2   2   2   2   2   2   2
#     4  11  24  46  72 102 144 192 248 287 361 430
#     4  12  25  42  69 107 147 184 235 305 372 427
#     4  12  23  41  72 106 146 182 230 308 370 420
#     4  11  24  47  71 102 147 191 247 287 359 430
#     4  12  24  41  68 109 143 183 232 303 370 426
#     4  12  24  42  69 110 146 183 236 307 368 426
#     4  10  24  48  73  98 145 211 237 287 344 444
#
# _framework density 23.961618000000001
#
# number of rings (size 3 to 8) (size 9 to 14) (size 15 to 20)
#    0.000    0.571    4.286    4.286    0.000    1.143 
#    0.000   15.714    0.000    0.000    0.000    0.000 
#    0.000    0.000    0.000    0.000    0.000    0.000 
#
# Total GULP energy -173489.525609 kJ/mol
# GULP energy per Si atom -12392.108972 kJ/mol
# Density = 2.390708 g / cm^3
# Si number density = 23.961618 Si / 1000 Ang^3
#
#
#
# Elastic Constant Matrix: (Units=GPa)
#
#
# Indices 1 2 3 4 5 6 
#
# 1 82.6451 31.0839 39.2175 -3.4234 -13.2599 -6.7261
# 2 31.0839 140.1490 43.4684 3.7853 1.3017 -23.6839
# 3 39.2175 43.4684 125.2373 -1.0427 -24.9386 -19.9536
# 4 -3.4234 3.7853 -1.0427 39.5279 -6.6611 1.3416
# 5 -13.2599 1.3017 -24.9386 -6.6611 46.0398 -3.1425
# 6 -6.7261 -23.6839 -19.9536 1.3416 -3.1425 36.8836
#
#
#
# Elastic Compliance Matrix: (Units=1/GPa)
#
#
# Indices 1 2 3 4 5 6 
#
# 1 0.015128 -0.002470 -0.003373 0.001954 0.002850 -0.000480
# 2 -0.002470 0.009113 -0.002166 -0.001637 -0.002099 0.004110
# 3 -0.003373 -0.002166 0.011752 0.001063 0.005938 0.004819
# 4 0.001954 -0.001637 0.001063 0.026514 0.004976 -0.000660
# 5 0.002850 -0.002099 0.005938 0.004976 0.026844 0.004491
# 6 -0.000480 0.004110 0.004819 -0.000660 0.004491 0.032678
#
#
# Mechanical properties :
#
#
# Convention : Reuss Voigt Hill
#
# Bulk Modulus (GPa) = 50.06032 63.95233 57.00633
# Shear Modulus (GPa) = 34.55304 40.10769 37.33036
#
# Velocity S-wave (km/s) = 3.80151 4.09569 3.95134
# Velocity P-wave (km/s) = 6.34081 7.00811 6.68279
#
# Compressibility (1/GPa) = 0.01997590
#
# Stress axis : x y z
#
# Youngs Moduli (GPa) = 66.10050 109.73057 85.09109
#
# Poissons Ratio (x) = 0.27099 0.28701
# Poissons Ratio (y) = 0.16324 0.18435
# Poissons Ratio (z) = 0.22295 0.23773
#
# Static dielectric constant tensor:
#      x y z
#    x 4.306850 -0.127730 0.026780 
#    y -0.127730 4.456630 -0.278590 
#    z 0.026780 -0.278590 5.621910 
# 
# 
# High freq. dielectric constant tensor:
#      x y z
#    x 1.952860 -0.008120 -0.004370 
#    y -0.008120 1.946270 -0.011450 
#    z -0.004370 -0.011450 1.956510 
# 
# From -- ./inp_files/541197.got.cif
#   From: 2010.06.25/outbox.cif.g09.slc.cpg/sg2_271_cif.got.tgz:541197.got - 2010.06.27 13:26:56.
