data_PCOD8027477
_publ_section_title
;
Structure prediction by ZEFSAII (Michael W. Deem and Ramdas Pophale) SiO2 
 PCOD8027477
Probable space group: P -1
;
_chemical_formula_sum "Si O2"
_cell_formula_units_Z 16
_cell_length_a 8.949287
_cell_length_b 11.851624
_cell_length_c 15.194076
_cell_angle_alpha 152.570262
_cell_angle_beta 89.700382
_cell_angle_gamma 79.973805
_cell_volume 684.200722
_symmetry_space_group_name_H-M "P -1"
_symmetry_group_IT_number 2
_symmetry_cell_setting 'triclinic'
loop_
_space_group_symop_operation_xyz
x,y,z
-x,-y,-z
loop_
_atom_site_type_symbol
_atom_site_label
_atom_site_fract_x
_atom_site_fract_y
_atom_site_fract_z
Si Si1 0.878090 0.296601 0.225585
Si Si2 0.454602 0.750776 0.110600
Si Si3 0.774256 0.653246 0.957814
Si Si4 0.308896 0.734887 0.433056
Si Si5 0.105800 0.239051 0.680348
Si Si6 0.116717 0.158382 0.433195
Si Si7 0.653906 0.506488 0.218839
Si Si8 0.152129 0.857705 0.695405
O O1 0.946744 0.523509 0.360874
O O2 0.725682 0.348518 0.198823
O O3 0.830463 0.334987 0.355491
O O4 0.000000 0.000000 0.000000
O O5 0.313909 0.017813 0.333437
O O6 0.500000 0.500000 0.000000
O O7 0.624788 0.783005 0.116570
O O8 0.378534 0.702332 0.987576
O O9 0.720110 0.512476 0.781221
O O10 0.934394 0.445138 0.861908
O O11 0.824793 0.888485 0.086297
O O12 0.481850 0.735997 0.405181
O O13 0.290129 0.708645 0.519802
O O14 0.178895 0.019687 0.602033
O O15 0.067905 0.113758 0.502545
O O16 0.230685 0.375167 0.748668
O O17 0.025363 0.047348 0.285343
#
# Coordination Sequence:
#
# PCOD8027477 Si02
#       8
#     2   2   2   2   2   2   2   2
#     4  11  25  47  74  98 135 186 246 292 344 410
#     4  11  25  43  69 107 148 181 230 285 356 431
#     4  11  25  44  63 109 142 178 233 292 350 413
#     4  11  25  43  66 106 141 182 230 292 361 414
#     4  11  22  43  72  98 146 180 230 295 349 424
#     4  11  23  45  73 104 134 189 238 279 356 426
#     4  10  24  45  69  97 140 185 230 289 359 408
#     4  12  26  42  74  98 141 182 243 287 344 412
#
# _framework density 23.384951000000001
#
# number of rings (size 3 to 8) (size 9 to 14) (size 15 to 20)
#    0.000    1.000    1.250    5.625    7.000    1.000 
#    0.000    1.250    0.000    0.000    0.000    0.000 
#    0.000    0.000    0.000    0.000    0.000    0.000 
#
# Total GULP energy -198349.781435 kJ/mol
# GULP energy per Si atom -12396.861340 kJ/mol
# Density = 2.333173 g / cm^3
# Si number density = 23.384951 Si / 1000 Ang^3
#
#
#
# Elastic Constant Matrix: (Units=GPa)
#
#
# Indices 1 2 3 4 5 6 
#
# 1 136.9888 3.5546 31.1264 2.3239 -12.7620 -8.5490
# 2 3.5546 87.7263 5.0972 -14.3700 5.6547 -13.3446
# 3 31.1264 5.0972 74.4981 10.4223 -12.2828 -2.9685
# 4 2.3239 -14.3700 10.4223 29.9555 -0.9587 -3.7917
# 5 -12.7620 5.6547 -12.2828 -0.9587 40.9171 -6.0042
# 6 -8.5490 -13.3446 -2.9685 -3.7917 -6.0042 25.7768
#
#
#
# Elastic Compliance Matrix: (Units=1/GPa)
#
#
# Indices 1 2 3 4 5 6 
#
# 1 0.008403 0.000397 -0.003219 0.001141 0.002108 0.003280
# 2 0.000397 0.014241 -0.002190 0.008573 -0.001089 0.008259
# 3 -0.003219 -0.002190 0.016474 -0.006442 0.004048 -0.000309
# 4 0.001141 0.008573 -0.006442 0.040905 -0.000335 0.010014
# 5 0.002108 -0.001089 0.004048 -0.000335 0.027475 0.006952
# 6 0.003280 0.008259 -0.000309 0.010014 0.006952 0.047215
#
#
# Mechanical properties :
#
#
# Convention : Reuss Voigt Hill
#
# Bulk Modulus (GPa) = 34.37255 42.08550 38.22903
# Shear Modulus (GPa) = 28.66365 36.62555 32.64460
#
# Velocity S-wave (km/s) = 3.50484 3.96182 3.74032
# Velocity P-wave (km/s) = 5.57755 6.24211 5.91916
#
# Compressibility (1/GPa) = 0.02909298
#
# Stress axis : x y z
#
# Youngs Moduli (GPa) = 119.00829 70.21863 60.70014
#
# Poissons Ratio (x) = -0.02785 0.19542
# Poissons Ratio (y) = -0.04720 0.13293
# Poissons Ratio (z) = 0.38313 0.15378
#
# Static dielectric constant tensor:
#      x y z
#    x 4.672750 -0.100520 -0.073700 
#    y -0.100520 4.211040 -0.181720 
#    z -0.073700 -0.181720 4.191800 
# 
# 
# High freq. dielectric constant tensor:
#      x y z
#    x 1.944540 0.001780 0.001650 
#    y 0.001780 1.910460 -0.013150 
#    z 0.001650 -0.013150 1.926980 
# 
# From -- ./inp_files/501178.got.cif
#   From: 2010.06.25/outbox.cif.g09.slc.cpg/sg2_251_cif.got.tgz:501178.got - 2010.06.27 13:26:56.
