data_PCOD8027807
_publ_section_title
;
Structure prediction by ZEFSAII (Michael W. Deem and Ramdas Pophale) SiO2 
 PCOD8027807
Probable space group: P -1
;
_chemical_formula_sum "Si O2"
_cell_formula_units_Z 16
_cell_length_a 5.619725
_cell_length_b 12.467949
_cell_length_c 14.842512
_cell_angle_alpha 131.983930
_cell_angle_beta 110.156022
_cell_angle_gamma 91.346595
_cell_volume 675.914218
_symmetry_space_group_name_H-M "P -1"
_symmetry_group_IT_number 2
_symmetry_cell_setting 'triclinic'
loop_
_space_group_symop_operation_xyz
x,y,z
-x,-y,-z
loop_
_atom_site_type_symbol
_atom_site_label
_atom_site_fract_x
_atom_site_fract_y
_atom_site_fract_z
Si Si1 0.364151 0.030525 0.140268
Si Si2 0.700804 0.512172 0.615060
Si Si3 0.910507 0.261605 0.564010
Si Si4 0.403128 0.066358 0.720969
Si Si5 0.317382 0.353809 0.951069
Si Si6 0.494701 0.501773 0.230393
Si Si7 0.900968 0.171346 0.174674
Si Si8 0.779728 0.274325 0.751902
O O1 0.675480 0.123382 0.198199
O O2 0.174010 0.128970 0.195236
O O3 0.374638 0.949706 0.190311
O O4 0.230100 0.896569 0.975371
O O5 0.500000 0.500000 0.500000
O O6 0.708256 0.343416 0.544735
O O7 0.606683 0.574668 0.729173
O O8 0.997208 0.641038 0.704921
O O9 0.889947 0.226657 0.647860
O O10 0.208185 0.376702 0.645102
O O11 0.844562 0.098091 0.414210
O O12 0.290303 0.191347 0.813658
O O13 0.542515 0.122910 0.674259
O O14 0.006616 0.343818 0.898318
O O15 0.500000 0.500000 0.000000
O O16 0.449786 0.363759 0.074297
O O17 0.316302 0.586685 0.207227
#
# Coordination Sequence:
#
# PCOD8027807 Si02
#       8
#     2   2   2   2   2   2   2   2
#     4  10  25  44  72 105 146 190 248 309 374 440
#     4  11  27  45  77 101 144 193 248 305 370 440
#     4  11  26  47  68 107 143 192 241 296 373 448
#     4  12  27  41  74 102 147 190 240 301 368 441
#     4  12  25  44  71 106 143 189 239 301 368 439
#     4  11  26  45  73 105 144 186 245 301 368 447
#     4  10  24  47  70 105 145 191 249 311 371 436
#     4  11  24  45  72 100 148 184 243 294 371 441
#
# _framework density 23.671643
#
# number of rings (size 3 to 8) (size 9 to 14) (size 15 to 20)
#    0.000    1.000    2.500    1.500    8.750    5.500 
#    0.000    0.000    0.000    0.000    0.000    0.000 
#    0.000    0.000    0.000    0.000    0.000    0.000 
#
# Total GULP energy -198328.856739 kJ/mol
# GULP energy per Si atom -12395.553546 kJ/mol
# Density = 2.361777 g / cm^3
# Si number density = 23.671643 Si / 1000 Ang^3
#
#
#
# Elastic Constant Matrix: (Units=GPa)
#
#
# Indices 1 2 3 4 5 6 
#
# 1 110.0619 33.0795 33.5813 -1.3448 10.4039 7.7722
# 2 33.0795 109.6683 56.1187 -11.0920 2.9111 11.3730
# 3 33.5813 56.1187 127.4823 5.3085 10.4293 2.9289
# 4 -1.3448 -11.0920 5.3085 42.9148 -1.5100 -3.3420
# 5 10.4039 2.9111 10.4293 -1.5100 35.5871 -0.3706
# 6 7.7722 11.3730 2.9289 -3.3420 -0.3706 26.7849
#
#
#
# Elastic Compliance Matrix: (Units=1/GPa)
#
#
# Indices 1 2 3 4 5 6 
#
# 1 0.010588 -0.002127 -0.001591 -0.000269 -0.002488 -0.002063
# 2 -0.002127 0.013320 -0.005473 0.003790 0.001256 -0.003950
# 3 -0.001591 -0.005473 0.010959 -0.002811 -0.002406 0.001203
# 4 -0.000269 0.003790 -0.002811 0.024827 0.001666 0.001897
# 5 -0.002488 0.001256 -0.002406 0.001666 0.029512 0.001068
# 6 -0.002063 -0.003950 0.001203 0.001897 0.001068 0.039730
#
#
# Mechanical properties :
#
#
# Convention : Reuss Voigt Hill
#
# Bulk Modulus (GPa) = 60.65935 65.86350 63.26142
# Shear Modulus (GPa) = 32.71977 36.01956 34.36967
#
# Velocity S-wave (km/s) = 3.72188 3.90504 3.81456
# Velocity P-wave (km/s) = 6.64460 6.94382 6.79586
#
# Compressibility (1/GPa) = 0.01648551
#
# Stress axis : x y z
#
# Youngs Moduli (GPa) = 94.44663 75.07345 91.25100
#
# Poissons Ratio (x) = 0.15968 0.14514
# Poissons Ratio (y) = 0.20089 0.49944
# Poissons Ratio (z) = 0.15022 0.41089
#
# Static dielectric constant tensor:
#      x y z
#    x 4.517830 -0.229070 -0.415020 
#    y -0.229070 4.766250 0.345330 
#    z -0.415020 0.345330 5.199400 
# 
# 
# High freq. dielectric constant tensor:
#      x y z
#    x 1.934160 0.000370 0.006370 
#    y 0.000370 1.943890 -0.006350 
#    z 0.006370 -0.006350 1.946690 
# 
# From -- ./inp_files/483066.got.cif
#   From: 2010.06.25/outbox.cif.g09.slc.cpg/sg2_242_cif.got.tgz:483066.got - 2010.06.27 13:26:56.
