data_PCOD8027589
_publ_section_title
;
Structure prediction by ZEFSAII (Michael W. Deem and Ramdas Pophale) SiO2 
 PCOD8027589
Probable space group: P -1
;
_chemical_formula_sum "Si O2"
_cell_formula_units_Z 14
_cell_length_a 9.181053
_cell_length_b 20.640669
_cell_length_c 5.020669
_cell_angle_alpha 110.901226
_cell_angle_beta 77.998909
_cell_angle_gamma 143.673515
_cell_volume 521.066763
_symmetry_space_group_name_H-M "P -1"
_symmetry_group_IT_number 2
_symmetry_cell_setting 'triclinic'
loop_
_space_group_symop_operation_xyz
x,y,z
-x,-y,-z
loop_
_atom_site_type_symbol
_atom_site_label
_atom_site_fract_x
_atom_site_fract_y
_atom_site_fract_z
Si Si1 0.239077 0.901700 0.816252
Si Si2 0.499046 0.604863 0.198824
Si Si3 0.348289 0.185975 0.571071
Si Si4 0.231429 0.680974 0.774864
Si Si5 0.799719 0.482382 0.293683
Si Si6 0.967504 0.248564 0.839590
Si Si7 0.846242 0.986968 0.237196
O O1 0.192682 0.837538 0.478099
O O2 0.244057 0.982015 0.844308
O O3 0.047945 0.807439 0.979102
O O4 0.500000 0.000000 0.000000
O O5 0.560617 0.704902 0.218182
O O6 0.397918 0.569274 0.482180
O O7 0.734006 0.640069 0.164109
O O8 0.281167 0.505179 0.923053
O O9 0.483825 0.208494 0.281854
O O10 0.050789 0.086506 0.522856
O O11 0.384712 0.141606 0.726328
O O12 0.191610 0.598928 0.861696
O O13 0.071375 0.609980 0.460950
O O14 0.140488 0.716187 0.004797
O O15 0.000000 0.000000 0.000000
#
# Coordination Sequence:
#
# PCOD8027589 Si02
#       7
#     2   2   2   2   2   2   2
#     4  12  29  49  70 108 153 194 245 307 365 434
#     4  11  23  46  76 103 145 194 243 301 365 442
#     4  10  24  45  75 104 147 193 252 301 357 438
#     4  10  26  47  73 111 146 188 244 309 372 430
#     4  10  25  47  75 108 145 189 246 308 364 435
#     4  12  27  48  73 106 150 197 240 304 375 436
#     4  11  25  46  75 104 140 200 253 294 358 439
#
# _framework density 26.86796
#
# number of rings (size 3 to 8) (size 9 to 14) (size 15 to 20)
#    0.000    1.143    1.429    2.143   10.000   10.857 
#    0.000    0.000    0.000    0.000    0.000    0.000 
#    0.000    0.000    0.000    0.000    0.000    0.000 
#
# Total GULP energy -173522.670680 kJ/mol
# GULP energy per Si atom -12394.476477 kJ/mol
# Density = 2.680681 g / cm^3
# Si number density = 26.867960 Si / 1000 Ang^3
#
#
#
# Elastic Constant Matrix: (Units=GPa)
#
#
# Indices 1 2 3 4 5 6 
#
# 1 156.4016 15.2732 49.3264 -3.2090 -7.3564 6.3829
# 2 15.2732 52.7263 -16.5182 -0.2837 -4.1955 -2.5632
# 3 49.3264 -16.5182 111.1532 -9.3107 3.6150 -7.0270
# 4 -3.2090 -0.2837 -9.3107 13.6727 4.2885 5.8407
# 5 -7.3564 -4.1955 3.6150 4.2885 41.7488 -6.9912
# 6 6.3829 -2.5632 -7.0270 5.8407 -6.9912 34.4644
#
#
#
# Elastic Compliance Matrix: (Units=1/GPa)
#
#
# Indices 1 2 3 4 5 6 
#
# 1 0.008332 -0.003857 -0.004503 -0.000499 0.001114 -0.002438
# 2 -0.003857 0.022032 0.005253 0.001124 0.001558 0.003550
# 3 -0.004503 0.005253 0.012576 0.007209 -0.001724 0.002217
# 4 -0.000499 0.001124 0.007209 0.088615 -0.012361 -0.015879
# 5 0.001114 0.001558 -0.001724 -0.012361 0.026916 0.007113
# 6 -0.002438 0.003550 0.002217 -0.015879 0.007113 0.034317
#
#
# Mechanical properties :
#
#
# Convention : Reuss Voigt Hill
#
# Bulk Modulus (GPa) = 27.22789 46.27154 36.74972
# Shear Modulus (GPa) = 23.66962 36.12381 29.89672
#
# Velocity S-wave (km/s) = 2.97132 3.67071 3.33938
# Velocity P-wave (km/s) = 4.68269 5.93504 5.34567
#
# Compressibility (1/GPa) = 0.03672704
#
# Stress axis : x y z
#
# Youngs Moduli (GPa) = 120.01687 45.38954 79.51885
#
# Poissons Ratio (x) = 0.17506 0.35806
# Poissons Ratio (y) = 0.46288 -0.41775
# Poissons Ratio (z) = 0.54041 -0.23845
#
# Static dielectric constant tensor:
#      x y z
#    x 6.582950 1.858550 1.750470 
#    y 1.858550 5.896560 1.476920 
#    z 1.750470 1.476920 6.243600 
# 
# 
# High freq. dielectric constant tensor:
#      x y z
#    x 2.086500 0.004200 0.010980 
#    y 0.004200 2.091950 0.003650 
#    z 0.010980 0.003650 2.089000 
# 
# From -- ./inp_files/53701.got.cif
#   From: 2010.06.25/outbox.cif.g09.slc.cpg/sg2_27_cif.got.tgz:53701.got - 2010.06.27 13:26:56.
