data_PCOD8027581
_publ_section_title
;
Structure prediction by ZEFSAII (Michael W. Deem and Ramdas Pophale) SiO2 
 PCOD8027581
Probable space group: P -1
;
_chemical_formula_sum "Si O2"
_cell_formula_units_Z 12
_cell_length_a 10.371866
_cell_length_b 13.106985
_cell_length_c 9.146101
_cell_angle_alpha 55.814531
_cell_angle_beta 110.436082
_cell_angle_gamma 148.668877
_cell_volume 509.502580
_symmetry_space_group_name_H-M "P -1"
_symmetry_group_IT_number 2
_symmetry_cell_setting 'triclinic'
loop_
_space_group_symop_operation_xyz
x,y,z
-x,-y,-z
loop_
_atom_site_type_symbol
_atom_site_label
_atom_site_fract_x
_atom_site_fract_y
_atom_site_fract_z
Si Si1 0.434245 0.346598 0.484411
Si Si2 0.382153 0.483480 0.097907
Si Si3 0.806413 0.065292 0.182075
Si Si4 0.963107 0.606943 0.468566
Si Si5 0.392638 0.092742 0.084782
Si Si6 0.287526 0.834521 0.676925
O O1 0.500000 0.500000 0.500000
O O2 0.326615 0.335660 0.311927
O O3 0.675106 0.439191 0.467534
O O4 0.205793 0.090489 0.669444
O O5 0.105972 0.333786 0.063737
O O6 0.500000 0.500000 0.000000
O O7 0.587096 0.743616 0.023589
O O8 0.681581 0.030492 0.305552
O O9 0.642556 0.973413 0.045121
O O10 0.012810 0.629917 0.646233
O O11 0.000000 0.500000 0.500000
O O12 0.155145 0.854478 0.274764
O O13 0.664655 0.249276 0.135017
O O14 0.500000 0.000000 0.500000
#
# Coordination Sequence:
#
# PCOD8027581 Si02
#       6
#     2   2   2   2   2   2
#     4  12  25  46  72 108 147 190 246 299 370 430
#     4  12  29  45  75 107 148 196 241 299 363 440
#     4  12  26  48  73 107 149 192 243 306 362 436
#     4  11  26  47  78 104 146 196 244 305 367 434
#     4  11  26  48  73 109 148 190 246 298 367 434
#     4  10  24  45  74 104 141 190 244 297 363 430
#
# _framework density 23.552382999999999
#
# number of rings (size 3 to 8) (size 9 to 14) (size 15 to 20)
#    0.000    0.667    1.667    5.000   11.667    2.000 
#    0.000    0.000    0.000    0.000    0.000    0.000 
#    0.000    0.000    0.000    0.000    0.000    0.000 
#
# Total GULP energy -148739.419150 kJ/mol
# GULP energy per Si atom -12394.951596 kJ/mol
# Density = 2.349878 g / cm^3
# Si number density = 23.552383 Si / 1000 Ang^3
#
#
#
# Elastic Constant Matrix: (Units=GPa)
#
#
# Indices 1 2 3 4 5 6 
#
# 1 116.2988 44.0658 25.3199 3.8339 -8.3040 -18.5235
# 2 44.0658 120.0728 54.0466 18.6636 0.6487 -14.8793
# 3 25.3199 54.0466 114.2646 23.2191 8.3251 -12.5797
# 4 3.8339 18.6636 23.2191 58.5601 -3.5503 -2.5265
# 5 -8.3040 0.6487 8.3251 -3.5503 41.2219 9.3697
# 6 -18.5235 -14.8793 -12.5797 -2.5265 9.3697 43.4243
#
#
#
# Elastic Compliance Matrix: (Units=1/GPa)
#
#
# Indices 1 2 3 4 5 6 
#
# 1 0.010575 -0.003337 -0.000769 0.000905 0.001776 0.002815
# 2 -0.003337 0.011980 -0.004366 -0.001836 -0.000457 0.001409
# 3 -0.000769 -0.004366 0.012187 -0.003498 -0.003355 0.002227
# 4 0.000905 -0.001836 -0.003498 0.019123 0.002731 -0.000733
# 5 0.001776 -0.000457 -0.003355 0.002731 0.026904 -0.006017
# 6 0.002815 0.001409 0.002227 -0.000733 -0.006017 0.026613
#
#
# Mechanical properties :
#
#
# Convention : Reuss Voigt Hill
#
# Bulk Modulus (GPa) = 56.17683 66.38897 61.28290
# Shear Modulus (GPa) = 38.38497 43.78818 41.08657
#
# Velocity S-wave (km/s) = 4.04142 4.31650 4.18122
# Velocity P-wave (km/s) = 6.75878 7.28642 7.02755
#
# Compressibility (1/GPa) = 0.01780093
#
# Stress axis : x y z
#
# Youngs Moduli (GPa) = 94.55899 83.47049 82.05213
#
# Poissons Ratio (x) = 0.27851 0.06307
# Poissons Ratio (y) = 0.31550 0.35823
# Poissons Ratio (z) = 0.07268 0.36442
#
# Static dielectric constant tensor:
#      x y z
#    x 4.230160 0.064290 0.178160 
#    y 0.064290 4.589830 0.266030 
#    z 0.178160 0.266030 4.280310 
# 
# 
# High freq. dielectric constant tensor:
#      x y z
#    x 1.930520 -0.008340 0.008430 
#    y -0.008340 1.944670 0.012630 
#    z 0.008430 0.012630 1.941350 
# 
# From -- ./inp_files/61202.got.cif
#   From: 2010.06.25/outbox.cif.g09.slc.cpg/sg2_31_cif.got.tgz:61202.got - 2010.06.27 13:26:56.
