data_PCOD8027690
_publ_section_title
;
Structure prediction by ZEFSAII (Michael W. Deem and Ramdas Pophale) SiO2 
 PCOD8027690
Probable space group: P -1
;
_chemical_formula_sum "Si O2"
_cell_formula_units_Z 16
_cell_length_a 8.489078
_cell_length_b 11.740005
_cell_length_c 17.549804
_cell_angle_alpha 139.911316
_cell_angle_beta 42.039266
_cell_angle_gamma 135.837040
_cell_volume 707.676867
_symmetry_space_group_name_H-M "P -1"
_symmetry_group_IT_number 2
_symmetry_cell_setting 'triclinic'
loop_
_space_group_symop_operation_xyz
x,y,z
-x,-y,-z
loop_
_atom_site_type_symbol
_atom_site_label
_atom_site_fract_x
_atom_site_fract_y
_atom_site_fract_z
Si Si1 0.941448 0.596930 0.380716
Si Si2 0.299810 0.090529 0.089882
Si Si3 0.089147 0.542529 0.134471
Si Si4 0.526509 0.896985 0.127055
Si Si5 0.571714 0.218407 0.609437
Si Si6 0.476490 0.280600 0.363371
Si Si7 0.470439 0.530598 0.718727
Si Si8 0.775033 0.812670 0.140340
O O1 0.752830 0.380431 0.353802
O O2 0.756494 0.719678 0.500164
O O3 0.096054 0.603624 0.251469
O O4 0.135393 0.687531 0.425264
O O5 0.358935 0.304070 0.203891
O O6 0.281684 0.085976 0.002159
O O7 0.031156 0.966843 0.156317
O O8 0.500000 0.000000 0.000000
O O9 0.284714 0.712714 0.105353
O O10 0.817536 0.498013 0.172513
O O11 0.177712 0.364699 0.005039
O O12 0.654233 0.902709 0.165062
O O13 0.430333 0.071842 0.246475
O O14 0.524321 0.337733 0.616636
O O15 0.406313 0.245558 0.752507
O O16 0.500000 0.000000 0.500000
O O17 0.469700 0.411398 0.360300
#
# Coordination Sequence:
#
# PCOD8027690 Si02
#       8
#     2   2   2   2   2   2   2   2
#     4  10  24  48  69 100 139 181 238 280 348 420
#     4  12  24  43  70 107 144 184 232 285 352 417
#     4  11  24  46  72 104 142 184 232 284 357 414
#     4  12  25  42  75 102 141 184 234 290 342 424
#     4  12  30  47  71 105 142 184 235 292 352 412
#     4  10  24  46  71 101 137 188 232 284 348 420
#     4  11  26  45  70 104 144 185 231 291 349 419
#     4  12  27  47  70 106 143 183 236 286 352 413
#
# _framework density 22.609188
#
# number of rings (size 3 to 8) (size 9 to 14) (size 15 to 20)
#    0.000    0.750    3.750    2.250    8.750    5.000 
#    0.000    0.000    0.000    0.000    0.000    0.000 
#    0.000    0.000    0.000    0.000    0.000    0.000 
#
# Total GULP energy -198427.740357 kJ/mol
# GULP energy per Si atom -12401.733772 kJ/mol
# Density = 2.255773 g / cm^3
# Si number density = 22.609188 Si / 1000 Ang^3
#
#
#
# Elastic Constant Matrix: (Units=GPa)
#
#
# Indices 1 2 3 4 5 6 
#
# 1 100.6841 50.1818 23.1402 6.5987 -1.5502 4.4282
# 2 50.1818 115.6807 33.0471 18.3808 -13.4088 5.0033
# 3 23.1402 33.0471 105.8516 17.5211 -4.1729 -0.6981
# 4 6.5987 18.3808 17.5211 43.0057 4.6849 -6.3613
# 5 -1.5502 -13.4088 -4.1729 4.6849 24.4159 2.4105
# 6 4.4282 5.0033 -0.6981 -6.3613 2.4105 40.4047
#
#
#
# Elastic Compliance Matrix: (Units=1/GPa)
#
#
# Indices 1 2 3 4 5 6 
#
# 1 0.013007 -0.005760 -0.001368 0.001271 -0.002778 -0.000370
# 2 -0.005760 0.013547 -0.001772 -0.005418 0.008049 -0.002410
# 3 -0.001368 -0.001772 0.010969 -0.003685 0.001533 -0.000113
# 4 0.001271 -0.005418 -0.003685 0.028743 -0.009589 0.005565
# 5 -0.002778 0.008049 0.001533 -0.009589 0.047799 -0.005027
# 6 -0.000370 -0.002410 -0.000113 0.005565 -0.005027 0.026263
#
#
# Mechanical properties :
#
#
# Convention : Reuss Voigt Hill
#
# Bulk Modulus (GPa) = 50.69838 59.43942 55.06890
# Shear Modulus (GPa) = 30.35774 35.95506 33.15640
#
# Velocity S-wave (km/s) = 3.66829 3.99216 3.83365
# Velocity P-wave (km/s) = 6.35722 6.89905 6.63367
#
# Compressibility (1/GPa) = 0.01972450
#
# Stress axis : x y z
#
# Youngs Moduli (GPa) = 76.87975 73.81486 91.16470
#
# Poissons Ratio (x) = 0.42516 0.12468
# Poissons Ratio (y) = 0.44282 0.16156
# Poissons Ratio (z) = 0.10515 0.13081
#
# Static dielectric constant tensor:
#      x y z
#    x 3.962060 0.186400 0.001660 
#    y 0.186400 4.210540 -0.037280 
#    z 0.001660 -0.037280 4.085490 
# 
# 
# High freq. dielectric constant tensor:
#      x y z
#    x 1.885750 0.015780 0.002150 
#    y 0.015780 1.900620 0.001070 
#    z 0.002150 0.001070 1.899050 
# 
# From -- ./inp_files/398685.got.cif
#   From: 2010.06.25/outbox.cif.g09.slc.cpg/sg2_200_cif.got.tgz:398685.got - 2010.06.27 13:26:56.
