data_PCOD8027946
_publ_section_title
;
Structure prediction by ZEFSAII (Michael W. Deem and Ramdas Pophale) SiO2 
 PCOD8027946
Probable space group: P -1
;
_chemical_formula_sum "Si O2"
_cell_formula_units_Z 16
_cell_length_a 9.230382
_cell_length_b 18.006883
_cell_length_c 5.027003
_cell_angle_alpha 121.716118
_cell_angle_beta 84.787597
_cell_angle_gamma 112.564350
_cell_volume 649.782734
_symmetry_space_group_name_H-M "P -1"
_symmetry_group_IT_number 2
_symmetry_cell_setting 'triclinic'
loop_
_space_group_symop_operation_xyz
x,y,z
-x,-y,-z
loop_
_atom_site_type_symbol
_atom_site_label
_atom_site_fract_x
_atom_site_fract_y
_atom_site_fract_z
Si Si1 0.023544 0.315674 0.953893
Si Si2 0.491325 0.341562 0.327827
Si Si3 0.162619 0.564498 0.737388
Si Si4 0.397442 0.213840 0.599961
Si Si5 0.779150 0.597899 0.406628
Si Si6 0.890200 0.972791 0.715092
Si Si7 0.213126 0.873513 0.168199
Si Si8 0.397935 0.898265 0.706781
O O1 0.122625 0.324360 0.682627
O O2 0.954051 0.208063 0.870013
O O3 0.144334 0.378806 0.271274
O O4 0.875325 0.347263 0.977144
O O5 0.681689 0.398019 0.407389
O O6 0.442497 0.255996 0.379841
O O7 0.401523 0.410395 0.557330
O O8 0.427011 0.296999 0.965648
O O9 0.208068 0.504092 0.848505
O O10 0.000000 0.500000 0.500000
O O11 0.215648 0.139633 0.483079
O O12 0.502951 0.155623 0.543631
O O13 0.791768 0.038401 0.835819
O O14 0.000000 0.000000 0.500000
O O15 0.000000 0.000000 0.000000
O O16 0.302668 0.914265 0.503563
O O17 0.296400 0.833386 0.850662
O O18 0.500000 0.000000 0.000000
#
# Coordination Sequence:
#
# PCOD8027946 Si02
#       8
#     2   2   2   2   2   2   2   2
#     4  11  24  44  73 107 141 187 240 302 356 430
#     4  12  27  46  73 107 147 193 241 301 366 440
#     4  10  24  49  77 107 144 186 241 300 372 441
#     4  12  27  46  72 104 149 188 243 300 360 425
#     4  11  25  45  72 106 145 185 235 298 365 438
#     4  12  28  45  70 102 149 198 244 293 355 429
#     4  12  26  44  73 104 142 189 245 298 361 423
#     4  12  24  44  69  99 135 186 246 300 360 412
#
# _framework density 24.623615000000001
#
# number of rings (size 3 to 8) (size 9 to 14) (size 15 to 20)
#    0.000    0.500    1.250    6.375    7.000    5.000 
#    0.000    4.375    0.000    0.000    0.000    0.000 
#    0.000    0.000    0.000    0.000    0.000    0.000 
#
# Total GULP energy -198329.740831 kJ/mol
# GULP energy per Si atom -12395.608802 kJ/mol
# Density = 2.456757 g / cm^3
# Si number density = 24.623615 Si / 1000 Ang^3
#
#
#
# Elastic Constant Matrix: (Units=GPa)
#
#
# Indices 1 2 3 4 5 6 
#
# 1 137.5990 49.3938 44.0537 -8.5858 -1.9468 21.3253
# 2 49.3938 137.6555 28.7738 -19.8312 12.5854 24.2775
# 3 44.0537 28.7738 92.4580 -26.2403 10.9846 5.2535
# 4 -8.5858 -19.8312 -26.2403 42.4718 1.4954 -3.6441
# 5 -1.9468 12.5854 10.9846 1.4954 40.5951 -2.7734
# 6 21.3253 24.2775 5.2535 -3.6441 -2.7734 47.7044
#
#
#
# Elastic Compliance Matrix: (Units=1/GPa)
#
#
# Indices 1 2 3 4 5 6 
#
# 1 0.010082 -0.002746 -0.004825 -0.002540 0.002555 -0.002624
# 2 -0.002746 0.009772 -0.000024 0.003804 -0.003545 -0.003659
# 3 -0.004825 -0.000024 0.016311 0.009333 -0.004926 0.000799
# 4 -0.002540 0.003804 0.009333 0.030768 -0.004944 0.000235
# 5 0.002555 -0.003545 -0.004926 -0.004944 0.027536 0.002428
# 6 -0.002624 -0.003659 0.000799 0.000235 0.002428 0.024068
#
#
# Mechanical properties :
#
#
# Convention : Reuss Voigt Hill
#
# Bulk Modulus (GPa) = 47.67503 68.01723 57.84613
# Shear Modulus (GPa) = 35.53203 42.52036 39.02619
#
# Velocity S-wave (km/s) = 3.80281 4.16000 3.98541
# Velocity P-wave (km/s) = 6.21976 7.12439 6.68739
#
# Compressibility (1/GPa) = 0.02097534
#
# Stress axis : x y z
#
# Youngs Moduli (GPa) = 99.18552 102.33119 61.31002
#
# Poissons Ratio (x) = 0.28100 0.29579
# Poissons Ratio (y) = 0.27236 0.00149
# Poissons Ratio (z) = 0.47852 0.00249
#
# Static dielectric constant tensor:
#      x y z
#    x 5.652820 -0.068330 -1.177610 
#    y -0.068330 4.616740 0.056980 
#    z -1.177610 0.056980 5.159080 
# 
# 
# High freq. dielectric constant tensor:
#      x y z
#    x 1.994440 0.001980 -0.010890 
#    y 0.001980 1.994080 -0.006860 
#    z -0.010890 -0.006860 1.967720 
# 
# From -- ./inp_files/48936.got.cif
#   From: 2010.06.25/outbox.cif.g09.slc.cpg/sg2_25_cif.got.tgz:48936.got - 2010.06.27 13:26:56.
