data_PCOD8027512
_publ_section_title
;
Structure prediction by ZEFSAII (Michael W. Deem and Ramdas Pophale) SiO2 
 PCOD8027512
Probable space group: P -1
;
_chemical_formula_sum "Si O2"
_cell_formula_units_Z 16
_cell_length_a 20.801090
_cell_length_b 11.527786
_cell_length_c 17.919339
_cell_angle_alpha 30.447022
_cell_angle_beta 159.961221
_cell_angle_gamma 141.920424
_cell_volume 739.670074
_symmetry_space_group_name_H-M "P -1"
_symmetry_group_IT_number 2
_symmetry_cell_setting 'triclinic'
loop_
_space_group_symop_operation_xyz
x,y,z
-x,-y,-z
loop_
_atom_site_type_symbol
_atom_site_label
_atom_site_fract_x
_atom_site_fract_y
_atom_site_fract_z
Si Si1 0.384251 0.439543 0.075703
Si Si2 0.864720 0.306841 0.455869
Si Si3 0.107095 0.316153 0.954680
Si Si4 0.334833 0.453656 0.402099
Si Si5 0.570665 0.732715 0.234416
Si Si6 0.997987 0.180976 0.181639
Si Si7 0.989184 0.761610 0.661488
Si Si8 0.242034 0.827935 0.423469
O O1 0.215041 0.312748 0.994872
O O2 0.450680 0.588883 0.131810
O O3 0.543473 0.243370 0.328546
O O4 0.312710 0.613149 0.835089
O O5 0.780560 0.262309 0.468501
O O6 0.000000 0.500000 0.500000
O O7 0.989594 0.082906 0.682054
O O8 0.199809 0.105256 0.223957
O O9 0.127374 0.552590 0.890425
O O10 0.891933 0.284091 0.718600
O O11 0.500000 0.500000 0.500000
O O12 0.448135 0.347202 0.656589
O O13 0.191908 0.277728 0.313238
O O14 0.191477 0.685717 0.137515
O O15 0.785500 0.685133 0.469456
O O16 0.500000 0.000000 0.000000
O O17 0.964048 0.209816 0.217005
O O18 0.000000 0.000000 0.500000
#
# Coordination Sequence:
#
# PCOD8027512 Si02
#       8
#     2   2   2   2   2   2   2   2
#     4  12  24  47  68 103 138 183 241 283 353 417
#     4  12  26  49  70  98 144 191 238 291 351 420
#     4  11  24  45  72 104 137 182 234 285 356 413
#     4  10  24  45  70 107 139 179 226 286 359 422
#     4  11  24  42  68 106 141 176 232 288 342 428
#     4  10  25  45  70 101 142 181 233 286 352 418
#     4  11  23  43  74 102 143 184 223 290 352 418
#     4  11  26  45  72  99 142 184 234 292 342 416
#
# _framework density 21.631266
#
# number of rings (size 3 to 8) (size 9 to 14) (size 15 to 20)
#    0.000    1.000    2.500    3.750    8.750    0.000 
#    6.750    0.000    0.000    0.000    0.000    0.000 
#    0.000    0.000    0.000    0.000    0.000    0.000 
#
# Total GULP energy -198444.060135 kJ/mol
# GULP energy per Si atom -12402.753758 kJ/mol
# Density = 2.158203 g / cm^3
# Si number density = 21.631266 Si / 1000 Ang^3
#
#
#
# Elastic Constant Matrix: (Units=GPa)
#
#
# Indices 1 2 3 4 5 6 
#
# 1 132.3285 51.2493 57.5279 -13.9785 2.0548 18.9025
# 2 51.2493 107.9015 50.6739 -27.9900 4.9785 -1.1998
# 3 57.5279 50.6739 132.7453 -16.9445 -5.6628 -0.4112
# 4 -13.9785 -27.9900 -16.9445 34.2431 1.7965 0.9237
# 5 2.0548 4.9785 -5.6628 1.7965 41.1942 -5.5746
# 6 18.9025 -1.1998 -0.4112 0.9237 -5.5746 37.5624
#
#
#
# Elastic Compliance Matrix: (Units=1/GPa)
#
#
# Indices 1 2 3 4 5 6 
#
# 1 0.011490 -0.003734 -0.003624 0.000088 -0.001457 -0.006160
# 2 -0.003734 0.014988 -0.003004 0.009308 -0.002205 0.001769
# 3 -0.003624 -0.003004 0.010490 0.001081 0.002229 0.002147
# 4 0.000088 0.009308 0.001081 0.037556 -0.002763 -0.001069
# 5 -0.001457 -0.002205 0.002229 -0.002763 0.025659 0.004563
# 6 -0.006160 0.001769 0.002147 -0.001069 0.004563 0.030506
#
#
# Mechanical properties :
#
#
# Convention : Reuss Voigt Hill
#
# Bulk Modulus (GPa) = 61.55837 76.87530 69.21683
# Shear Modulus (GPa) = 31.88209 36.83490 34.35850
#
# Velocity S-wave (km/s) = 3.84329 4.13104 3.98976
# Velocity P-wave (km/s) = 6.94366 7.64004 7.30015
#
# Compressibility (1/GPa) = 0.01624475
#
# Stress axis : x y z
#
# Youngs Moduli (GPa) = 87.02868 66.72099 95.32653
#
# Poissons Ratio (x) = 0.24914 0.34549
# Poissons Ratio (y) = 0.32496 0.28632
# Poissons Ratio (z) = 0.31542 0.20040
#
# Static dielectric constant tensor:
#      x y z
#    x 4.030630 0.266270 -0.133470 
#    y 0.266270 3.852430 -0.074130 
#    z -0.133470 -0.074130 4.183650 
# 
# 
# High freq. dielectric constant tensor:
#      x y z
#    x 1.856720 0.010060 -0.004060 
#    y 0.010060 1.847800 -0.005110 
#    z -0.004060 -0.005110 1.865550 
# 
# From -- ./inp_files/577927.got.cif
#   From: 2010.06.25/outbox.cif.g09.slc.cpg/sg2_289_cif.got.tgz:577927.got - 2010.06.27 13:26:56.
