data_PCOD8027805
_publ_section_title
;
Structure prediction by ZEFSAII (Michael W. Deem and Ramdas Pophale) SiO2 
 PCOD8027805
Probable space group: P -1
;
_chemical_formula_sum "Si O2"
_cell_formula_units_Z 16
_cell_length_a 8.460123
_cell_length_b 11.184120
_cell_length_c 9.258063
_cell_angle_alpha 92.371931
_cell_angle_beta 49.054326
_cell_angle_gamma 87.123562
_cell_volume 657.617566
_symmetry_space_group_name_H-M "P -1"
_symmetry_group_IT_number 2
_symmetry_cell_setting 'triclinic'
loop_
_space_group_symop_operation_xyz
x,y,z
-x,-y,-z
loop_
_atom_site_type_symbol
_atom_site_label
_atom_site_fract_x
_atom_site_fract_y
_atom_site_fract_z
Si Si1 0.160558 0.795377 0.983941
Si Si2 0.784837 0.563856 0.575692
Si Si3 0.258496 0.256852 0.631667
Si Si4 0.481164 0.640435 0.980273
Si Si5 0.650324 0.962855 0.036560
Si Si6 0.392699 0.674653 0.351699
Si Si7 0.070989 0.827125 0.717219
Si Si8 0.348002 0.011595 0.461694
O O1 0.288946 0.688633 0.992167
O O2 0.185902 0.779987 0.795030
O O3 0.221790 0.927090 0.989539
O O4 0.916130 0.788898 0.162345
O O5 0.823653 0.624649 0.402186
O O6 0.690256 0.657763 0.761533
O O7 0.613432 0.468827 0.646349
O O8 0.000000 0.500000 0.500000
O O9 0.452345 0.280139 0.619292
O O10 0.307954 0.155855 0.470381
O O11 0.500000 0.500000 0.000000
O O12 0.459024 0.712335 0.150073
O O13 0.479336 0.934048 0.256969
O O14 0.817526 0.847795 0.891674
O O15 0.500000 0.000000 0.000000
O O16 0.154185 0.731786 0.538170
O O17 0.134886 0.954869 0.626278
O O18 0.500000 0.000000 0.500000
#
# Coordination Sequence:
#
# PCOD8027805 Si02
#       8
#     2   2   2   2   2   2   2   2
#     4  12  25  45  74 102 143 195 236 295 368 423
#     4  11  25  49  71 101 146 188 239 302 365 431
#     4  12  24  44  76 105 141 194 241 296 366 427
#     4  10  24  47  70 102 140 185 236 297 364 423
#     4  12  28  44  70 107 147 192 243 294 357 431
#     4  11  25  44  75 105 144 184 244 302 355 431
#     4  12  26  48  71 108 149 189 246 294 357 436
#     4  12  23  46  73 103 149 194 232 299 360 423
#
# _framework density 24.330249999999999
#
# number of rings (size 3 to 8) (size 9 to 14) (size 15 to 20)
#    0.000    0.500    3.750    4.500    1.750    5.500 
#    0.000    3.750    0.000    0.000    0.000    0.000 
#    0.000    0.000    0.000    0.000    0.000    0.000 
#
# Total GULP energy -198249.752276 kJ/mol
# GULP energy per Si atom -12390.609517 kJ/mol
# Density = 2.427487 g / cm^3
# Si number density = 24.330250 Si / 1000 Ang^3
#
#
#
# Elastic Constant Matrix: (Units=GPa)
#
#
# Indices 1 2 3 4 5 6 
#
# 1 79.2732 19.4132 57.1160 5.9639 5.5141 -24.8771
# 2 19.4132 69.5209 25.9776 6.1781 9.9811 -12.9250
# 3 57.1160 25.9776 192.5308 14.6299 7.8036 -6.4779
# 4 5.9639 6.1781 14.6299 44.6501 -1.9375 -2.2144
# 5 5.5141 9.9811 7.8036 -1.9375 41.4729 -1.1015
# 6 -24.8771 -12.9250 -6.4779 -2.2144 -1.1015 38.6763
#
#
#
# Elastic Compliance Matrix: (Units=1/GPa)
#
#
# Indices 1 2 3 4 5 6 
#
# 1 0.020752 -0.001339 -0.005512 -0.000236 -0.001094 0.011933
# 2 -0.001339 0.016751 -0.001453 -0.001603 -0.003541 0.004301
# 3 -0.005512 -0.001453 0.007059 -0.001539 -0.000396 -0.002948
# 4 -0.000236 -0.001603 -0.001539 0.023254 0.001805 0.000437
# 5 -0.001094 -0.003541 -0.000396 0.001805 0.025238 -0.001131
# 6 0.011933 0.004301 -0.002948 0.000437 -0.001131 0.034467
#
#
# Mechanical properties :
#
#
# Convention : Reuss Voigt Hill
#
# Bulk Modulus (GPa) = 35.77134 60.70427 48.23780
# Shear Modulus (GPa) = 32.58421 40.88106 36.73263
#
# Velocity S-wave (km/s) = 3.66354 4.10354 3.88977
# Velocity P-wave (km/s) = 5.71224 6.88886 6.32796
#
# Compressibility (1/GPa) = 0.02795534
#
# Stress axis : x y z
#
# Youngs Moduli (GPa) = 48.18725 59.69654 141.66316
#
# Poissons Ratio (x) = 0.07992 0.78084
# Poissons Ratio (y) = 0.06451 0.20584
# Poissons Ratio (z) = 0.26561 0.08674
#
# Static dielectric constant tensor:
#      x y z
#    x 3.995320 -0.226100 0.053870 
#    y -0.226100 3.652040 0.019060 
#    z 0.053870 0.019060 4.849880 
# 
# 
# High freq. dielectric constant tensor:
#      x y z
#    x 1.953740 -0.004760 0.000200 
#    y -0.004760 1.969790 -0.001280 
#    z 0.000200 -0.001280 1.994490 
# 
# From -- ./inp_files/187252.got.cif
#   From: 2010.06.25/outbox.cif.g09.slc.cpg/sg2_94_cif.got.tgz:187252.got - 2010.06.27 13:26:56.
