data_PCOD8027178
_publ_section_title
;
Structure prediction by ZEFSAII (Michael W. Deem and Ramdas Pophale) SiO2 
 PCOD8027178
Probable space group: P -1
;
_chemical_formula_sum "Si O2"
_cell_formula_units_Z 16
_cell_length_a 12.363256
_cell_length_b 5.229230
_cell_length_c 23.978531
_cell_angle_alpha 78.857455
_cell_angle_beta 145.492131
_cell_angle_gamma 80.011707
_cell_volume 690.278655
_symmetry_space_group_name_H-M "P -1"
_symmetry_group_IT_number 2
_symmetry_cell_setting 'triclinic'
loop_
_space_group_symop_operation_xyz
x,y,z
-x,-y,-z
loop_
_atom_site_type_symbol
_atom_site_label
_atom_site_fract_x
_atom_site_fract_y
_atom_site_fract_z
Si Si1 0.713068 0.630980 0.097117
Si Si2 0.896446 0.266769 0.397327
Si Si3 0.801505 0.628501 0.735577
Si Si4 0.993117 0.737033 0.377328
Si Si5 0.480485 0.613164 0.425453
Si Si6 0.571384 0.310968 0.126754
Si Si7 0.965299 0.370438 0.934557
Si Si8 0.377747 0.681011 0.141101
O O1 0.726411 0.430238 0.164920
O O2 0.968175 0.560788 0.199198
O O3 0.645911 0.541596 0.014758
O O4 0.500000 0.000000 0.000000
O O5 0.622274 0.565967 0.279430
O O6 0.019294 0.450568 0.436942
O O7 0.000000 0.000000 0.500000
O O8 0.922797 0.067139 0.362807
O O9 0.656412 0.480701 0.668383
O O10 0.865818 0.604494 0.829264
O O11 0.645468 0.006904 0.641194
O O12 0.249479 0.569124 0.469152
O O13 0.766366 0.909566 0.230276
O O14 0.500000 0.500000 0.500000
O O15 0.436182 0.452519 0.122560
O O16 0.771145 0.314710 0.871073
O O17 0.000000 0.500000 0.000000
O O18 0.222098 0.050590 0.037265
#
# Coordination Sequence:
#
# PCOD8027178 Si02
#       8
#     2   2   2   2   2   2   2   2
#     4  11  25  41  75 104 150 183 249 304 370 440
#     4  11  26  45  73 105 137 187 243 299 360 432
#     4  12  29  46  78 110 149 198 250 305 378 450
#     4  11  26  46  74  99 143 187 240 302 360 429
#     4  12  29  51  75 106 150 197 254 308 372 445
#     4  10  24  44  69 108 140 193 239 308 369 441
#     4  11  26  44  72 104 152 195 238 303 375 453
#     4  10  25  43  69 102 147 184 241 297 372 441
#
# _framework density 23.179046
#
# number of rings (size 3 to 8) (size 9 to 14) (size 15 to 20)
#    0.000    1.000    0.000    3.750   22.750    0.000 
#    0.000    0.000    0.000    0.000    0.000    0.000 
#    0.000    0.000    0.000    0.000    0.000    0.000 
#
# Total GULP energy -198283.003204 kJ/mol
# GULP energy per Si atom -12392.687700 kJ/mol
# Density = 2.312629 g / cm^3
# Si number density = 23.179046 Si / 1000 Ang^3
#
#
#
# Elastic Constant Matrix: (Units=GPa)
#
#
# Indices 1 2 3 4 5 6 
#
# 1 112.9625 25.1948 66.5710 -17.2558 11.8701 4.3264
# 2 25.1948 87.9591 29.6424 -18.9999 15.5696 5.6965
# 3 66.5710 29.6424 139.5153 -26.0670 18.0868 1.3575
# 4 -17.2558 -18.9999 -26.0670 40.4807 -1.0671 -0.9324
# 5 11.8701 15.5696 18.0868 -1.0671 52.2479 -5.3488
# 6 4.3264 5.6965 1.3575 -0.9324 -5.3488 30.7826
#
#
#
# Elastic Compliance Matrix: (Units=1/GPa)
#
#
# Indices 1 2 3 4 5 6 
#
# 1 0.012659 -0.001314 -0.005423 0.001237 -0.000724 -0.001385
# 2 -0.001314 0.014032 -0.000844 0.005317 -0.003776 -0.002870
# 3 -0.005423 -0.000844 0.011033 0.004342 -0.002229 0.000176
# 4 0.001237 0.005317 0.004342 0.030426 -0.002842 -0.000921
# 5 -0.000724 -0.003776 -0.002229 -0.002842 0.021611 0.004568
# 6 -0.001385 -0.002870 0.000176 -0.000921 0.004568 0.033970
#
#
# Mechanical properties :
#
#
# Convention : Reuss Voigt Hill
#
# Bulk Modulus (GPa) = 44.31757 64.80593 54.56175
# Shear Modulus (GPa) = 34.14984 39.30414 36.72699
#
# Velocity S-wave (km/s) = 3.84253 4.12233 3.98488
# Velocity P-wave (km/s) = 6.23281 7.11882 6.69050
#
# Compressibility (1/GPa) = 0.02256441
#
# Stress axis : x y z
#
# Youngs Moduli (GPa) = 78.99240 71.26362 90.63559
#
# Poissons Ratio (x) = 0.09361 0.49153
# Poissons Ratio (y) = 0.10376 0.07647
# Poissons Ratio (z) = 0.42838 0.06012
#
# Static dielectric constant tensor:
#      x y z
#    x 3.867670 -0.055240 -0.707240 
#    y -0.055240 4.401070 0.074270 
#    z -0.707240 0.074270 4.432700 
# 
# 
# High freq. dielectric constant tensor:
#      x y z
#    x 1.930400 0.004450 0.002930 
#    y 0.004450 1.907840 -0.008170 
#    z 0.002930 -0.008170 1.936740 
# 
# From -- ./inp_files/609165.got.cif
#   From: 2010.06.25/outbox.cif.g09.slc.cpg/sg2_305_cif.got.tgz:609165.got - 2010.06.27 13:26:56.
