data_PCOD8027170
_publ_section_title
;
Structure prediction by ZEFSAII (Michael W. Deem and Ramdas Pophale) SiO2 
 PCOD8027170
Probable space group: P -1
;
_chemical_formula_sum "Si O2"
_cell_formula_units_Z 12
_cell_length_a 9.336482
_cell_length_b 9.174553
_cell_length_c 12.753523
_cell_angle_alpha 69.276879
_cell_angle_beta 46.625267
_cell_angle_gamma 45.127780
_cell_volume 544.334637
_symmetry_space_group_name_H-M "P -1"
_symmetry_group_IT_number 2
_symmetry_cell_setting 'triclinic'
loop_
_space_group_symop_operation_xyz
x,y,z
-x,-y,-z
loop_
_atom_site_type_symbol
_atom_site_label
_atom_site_fract_x
_atom_site_fract_y
_atom_site_fract_z
Si Si1 0.178447 0.966978 0.324852
Si Si2 0.307655 0.572341 0.302804
Si Si3 0.778639 0.421934 0.414982
Si Si4 0.553328 0.012181 0.089409
Si Si5 0.136708 0.504966 0.202568
Si Si6 0.100163 0.778598 0.971327
O O1 0.271945 0.778046 0.249432
O O2 0.436693 0.931175 0.239747
O O3 0.000000 0.000000 0.500000
O O4 0.989347 0.196834 0.305293
O O5 0.193820 0.594241 0.468959
O O6 0.129383 0.581335 0.303449
O O7 0.620880 0.357783 0.196558
O O8 0.500000 0.500000 0.500000
O O9 0.862087 0.553143 0.307294
O O10 0.407305 0.254558 0.127164
O O11 0.870586 0.839323 0.994243
O O12 0.500000 0.000000 0.000000
O O13 0.150354 0.637716 0.079988
O O14 0.000000 0.000000 0.000000
#
# Coordination Sequence:
#
# PCOD8027170 Si02
#       6
#     2   2   2   2   2   2
#     4   9  22  41  67  93 134 169 223 276 334 386
#     4  11  23  44  71  96 141 181 221 280 342 397
#     4  10  24  44  69 103 133 175 233 278 335 406
#     4  11  25  43  68  99 136 178 226 279 339 399
#     4  11  25  46  69  98 141 179 224 282 339 398
#     4  12  27  43  69 103 138 176 234 274 338 411
#
# _framework density 22.045264
#
# number of rings (size 3 to 8) (size 9 to 14) (size 15 to 20)
#    0.000    1.333    1.667    2.000   11.667    1.333 
#    0.000    1.667    0.000    0.000    0.000    0.000 
#    0.000    0.000    0.000    0.000    0.000    0.000 
#
# Total GULP energy -148670.212285 kJ/mol
# GULP energy per Si atom -12389.184357 kJ/mol
# Density = 2.199509 g / cm^3
# Si number density = 22.045264 Si / 1000 Ang^3
#
#
#
# Elastic Constant Matrix: (Units=GPa)
#
#
# Indices 1 2 3 4 5 6 
#
# 1 110.5371 37.4786 15.8144 8.9711 -10.8411 -0.8111
# 2 37.4786 121.3571 29.0077 11.8585 -0.0827 29.8712
# 3 15.8144 29.0077 70.6892 3.7406 -10.3985 4.6822
# 4 8.9711 11.8585 3.7406 41.9841 1.1334 1.4736
# 5 -10.8411 -0.0827 -10.3985 1.1334 48.3115 0.9310
# 6 -0.8111 29.8712 4.6822 1.4736 0.9310 35.5118
#
#
#
# Elastic Compliance Matrix: (Units=1/GPa)
#
#
# Indices 1 2 3 4 5 6 
#
# 1 0.010838 -0.003964 -0.000639 -0.001328 0.002248 0.003663
# 2 -0.003964 0.013211 -0.003937 -0.002124 -0.001461 -0.010557
# 3 -0.000639 -0.003937 0.016346 -0.000336 0.003355 0.001068
# 4 -0.001328 -0.002124 -0.000336 0.024730 -0.000970 0.000799
# 5 0.002248 -0.001461 0.003355 -0.000970 0.021940 0.000303
# 6 0.003663 -0.010557 0.001068 0.000799 0.000303 0.036942
#
#
# Mechanical properties :
#
#
# Convention : Reuss Voigt Hill
#
# Bulk Modulus (GPa) = 42.89691 51.90941 47.40316
# Shear Modulus (GPa) = 33.58880 39.84698 36.71789
#
# Velocity S-wave (km/s) = 3.90760 4.25609 4.08556
# Velocity P-wave (km/s) = 6.31347 6.91016 6.61854
#
# Compressibility (1/GPa) = 0.02331170
#
# Stress axis : x y z
#
# Youngs Moduli (GPa) = 92.27205 75.69597 61.17766
#
# Poissons Ratio (x) = 0.30008 0.03912
# Poissons Ratio (y) = 0.36580 0.24089
# Poissons Ratio (z) = 0.05900 0.29805
#
# Static dielectric constant tensor:
#      x y z
#    x 4.297860 0.417050 -0.466700 
#    y 0.417050 4.608250 0.054880 
#    z -0.466700 0.054880 4.370210 
# 
# 
# High freq. dielectric constant tensor:
#      x y z
#    x 1.865010 0.020980 -0.015230 
#    y 0.020980 1.874030 0.004700 
#    z -0.015230 0.004700 1.878580 
# 
# From -- ./inp_files/37208.got.cif
#   From: 2010.06.25/outbox.cif.g09.slc.cpg/sg2_19_cif.got.tgz:37208.got - 2010.06.27 13:26:56.
