data_PCOD8027434
_publ_section_title
;
Structure prediction by ZEFSAII (Michael W. Deem and Ramdas Pophale) SiO2 
 PCOD8027434
Probable space group: P -1
;
_chemical_formula_sum "Si O2"
_cell_formula_units_Z 16
_cell_length_a 15.026389
_cell_length_b 17.758120
_cell_length_c 8.696904
_cell_angle_alpha 115.771459
_cell_angle_beta 51.389912
_cell_angle_gamma 156.156880
_cell_volume 661.641112
_symmetry_space_group_name_H-M "P -1"
_symmetry_group_IT_number 2
_symmetry_cell_setting 'triclinic'
loop_
_space_group_symop_operation_xyz
x,y,z
-x,-y,-z
loop_
_atom_site_type_symbol
_atom_site_label
_atom_site_fract_x
_atom_site_fract_y
_atom_site_fract_z
Si Si1 0.714783 0.746139 0.232390
Si Si2 0.182067 0.999145 0.737938
Si Si3 0.215541 0.576909 0.405860
Si Si4 0.197599 0.833416 0.040347
Si Si5 0.127756 0.295503 0.449896
Si Si6 0.726942 0.762834 0.577161
Si Si7 0.778723 0.285832 0.852493
Si Si8 0.777289 0.476362 0.972131
O O1 0.813640 0.908335 0.268042
O O2 0.398912 0.531338 0.308511
O O3 0.694838 0.699476 0.387210
O O4 0.940103 0.838589 0.986125
O O5 0.489892 0.185612 0.642965
O O6 0.097150 0.870842 0.592075
O O7 0.000000 0.500000 0.500000
O O8 0.038894 0.416343 0.594387
O O9 0.275678 0.553254 0.180416
O O10 0.251467 0.777405 0.005117
O O11 0.028938 0.774167 0.294170
O O12 0.036060 0.710337 0.945607
O O13 0.483176 0.071626 0.893903
O O14 0.272637 0.305542 0.351085
O O15 0.484789 0.667125 0.779023
O O16 0.000000 0.000000 0.500000
O O17 0.836640 0.422900 0.923965
#
# Coordination Sequence:
#
# PCOD8027434 Si02
#       8
#     2   2   2   2   2   2   2   2
#     4  11  24  44  69 104 140 186 226 278 347 418
#     4  11  25  46  70  99 142 183 232 279 349 415
#     4  10  24  46  68  97 132 182 230 285 342 397
#     4  11  24  42  70 104 128 182 226 285 345 405
#     4  12  25  44  69 108 142 178 228 284 346 415
#     4  12  23  42  68 103 141 180 220 279 345 411
#     4  10  24  45  68  96 135 175 240 281 340 402
#     4  11  24  44  68  95 136 179 227 282 341 403
#
# _framework density 24.182295
#
# number of rings (size 3 to 8) (size 9 to 14) (size 15 to 20)
#    0.000    1.000    2.500    3.375    1.750    5.500 
#    2.250    0.000    0.000    0.000    0.000    0.000 
#    0.000    0.000    0.000    0.000    0.000    0.000 
#
# Total GULP energy -198404.408575 kJ/mol
# GULP energy per Si atom -12400.275536 kJ/mol
# Density = 2.412725 g / cm^3
# Si number density = 24.182295 Si / 1000 Ang^3
#
#
#
# Elastic Constant Matrix: (Units=GPa)
#
#
# Indices 1 2 3 4 5 6 
#
# 1 32.2604 2.3178 16.9496 5.3236 -3.3850 17.5843
# 2 2.3178 192.7234 76.1342 -3.3491 -2.9812 41.0956
# 3 16.9496 76.1342 134.9884 -10.4467 -1.1663 14.8722
# 4 5.3236 -3.3491 -10.4467 47.1756 8.4392 -1.4553
# 5 -3.3850 -2.9812 -1.1663 8.4392 30.8517 -0.2665
# 6 17.5843 41.0956 14.8722 -1.4553 -0.2665 41.7235
#
#
#
# Elastic Compliance Matrix: (Units=1/GPa)
#
#
# Indices 1 2 3 4 5 6 
#
# 1 0.053271 0.009067 -0.009371 -0.009896 0.008829 -0.028330
# 2 0.009067 0.009695 -0.005501 -0.002311 0.002257 -0.011475
# 3 -0.009371 -0.005501 0.011359 0.003726 -0.002103 0.005436
# 4 -0.009896 -0.002311 0.003726 0.024560 -0.007835 0.005925
# 5 0.008829 0.002257 -0.002103 -0.007835 0.035618 -0.005240
# 6 -0.028330 -0.011475 0.005436 0.005925 -0.005240 0.045445
#
#
# Mechanical properties :
#
#
# Convention : Reuss Voigt Hill
#
# Bulk Modulus (GPa) = 15.94544 61.19729 38.57137
# Shear Modulus (GPa) = 23.53338 41.58821 32.56080
#
# Velocity S-wave (km/s) = 3.12294 4.15152 3.67341
# Velocity P-wave (km/s) = 4.42853 6.95282 5.82896
#
# Compressibility (1/GPa) = 0.06271386
#
# Stress axis : x y z
#
# Youngs Moduli (GPa) = 18.77178 103.14854 88.03689
#
# Poissons Ratio (x) = -0.93524 0.82501
# Poissons Ratio (y) = -0.17020 0.48433
# Poissons Ratio (z) = 0.17591 0.56747
#
# Static dielectric constant tensor:
#      x y z
#    x 4.479650 0.111590 0.063620 
#    y 0.111590 4.628840 -0.091530 
#    z 0.063620 -0.091530 4.650870 
# 
# 
# High freq. dielectric constant tensor:
#      x y z
#    x 1.950870 0.007970 -0.004140 
#    y 0.007970 1.973470 -0.009160 
#    z -0.004140 -0.009160 1.962620 
# 
# From -- ./inp_files/337752.got.cif
#   From: 2010.06.25/outbox.cif.g09.slc.cpg/sg2_169_cif.got.tgz:337752.got - 2010.06.27 13:26:56.
