data_PCOD8027286
_publ_section_title
;
Structure prediction by ZEFSAII (Michael W. Deem and Ramdas Pophale) SiO2 
 PCOD8027286
Probable space group: P -1
;
_chemical_formula_sum "Si O2"
_cell_formula_units_Z 14
_cell_length_a 16.176401
_cell_length_b 8.936617
_cell_length_c 11.964898
_cell_angle_alpha 125.838407
_cell_angle_beta 34.733671
_cell_angle_gamma 145.610351
_cell_volume 533.052507
_symmetry_space_group_name_H-M "P -1"
_symmetry_group_IT_number 2
_symmetry_cell_setting 'triclinic'
loop_
_space_group_symop_operation_xyz
x,y,z
-x,-y,-z
loop_
_atom_site_type_symbol
_atom_site_label
_atom_site_fract_x
_atom_site_fract_y
_atom_site_fract_z
Si Si1 0.821492 0.920478 0.584343
Si Si2 0.101697 0.085117 0.751247
Si Si3 0.266745 0.754348 0.201090
Si Si4 0.485463 0.083068 0.793616
Si Si5 0.403788 0.341559 0.862001
Si Si6 0.318453 0.997852 0.624468
Si Si7 0.129015 0.479363 0.019558
O O1 0.581870 0.674127 0.800626
O O2 0.834742 0.830915 0.411444
O O3 0.868222 0.181780 0.627889
O O4 0.000000 0.000000 0.500000
O O5 0.218224 0.015819 0.639784
O O6 0.198165 0.353383 0.829303
O O7 0.842266 0.819402 0.939924
O O8 0.153932 0.493288 0.134073
O O9 0.301344 0.724972 0.278671
O O10 0.500000 0.000000 0.000000
O O11 0.439374 0.254792 0.897442
O O12 0.538225 0.032641 0.595769
O O13 0.267324 0.783200 0.954188
O O14 0.461757 0.269237 0.659161
O O15 0.129802 0.737812 0.803751
#
# Coordination Sequence:
#
# PCOD8027286 Si02
#       7
#     2   2   2   2   2   2   2
#     4  12  29  50  74 106 146 188 239 297 357 427
#     4  11  26  47  76 106 141 194 236 297 354 423
#     4  10  25  46  72 104 143 191 233 293 358 420
#     4  11  24  44  70 109 144 191 230 302 355 417
#     4  11  27  45  72 110 146 183 244 294 356 425
#     4  11  24  43  76 107 142 189 244 291 352 429
#     4  10  24  44  72 101 147 181 242 284 360 414
#
# _framework density 26.263828
#
# number of rings (size 3 to 8) (size 9 to 14) (size 15 to 20)
#    0.000    1.143    1.429    3.000   14.000    5.714 
#    0.000    0.000    0.000    0.000    0.000    0.000 
#    0.000    0.000    0.000    0.000    0.000    0.000 
#
# Total GULP energy -173563.638127 kJ/mol
# GULP energy per Si atom -12397.402723 kJ/mol
# Density = 2.620405 g / cm^3
# Si number density = 26.263828 Si / 1000 Ang^3
#
#
#
# Elastic Constant Matrix: (Units=GPa)
#
#
# Indices 1 2 3 4 5 6 
#
# 1 120.4434 33.9771 10.5625 10.5772 -9.4390 -11.4351
# 2 33.9771 96.5533 17.9767 -5.9306 3.4902 -7.9571
# 3 10.5625 17.9767 65.4196 7.6642 12.6608 -2.7749
# 4 10.5772 -5.9306 7.6642 38.4189 -0.7197 2.8905
# 5 -9.4390 3.4902 12.6608 -0.7197 42.9273 1.7958
# 6 -11.4351 -7.9571 -2.7749 2.8905 1.7958 30.6897
#
#
#
# Elastic Compliance Matrix: (Units=1/GPa)
#
#
# Indices 1 2 3 4 5 6 
#
# 1 0.010121 -0.003496 -0.000639 -0.003376 0.002517 0.002978
# 2 -0.003496 0.012507 -0.003036 0.003377 -0.000892 0.001400
# 3 -0.000639 -0.003036 0.017766 -0.004031 -0.005254 0.001268
# 4 -0.003376 0.003377 -0.004031 0.028560 0.000797 -0.003483
# 5 0.002517 -0.000892 -0.005254 0.000797 0.025540 -0.001338
# 6 0.002978 0.001400 0.001268 -0.003483 -0.001338 0.034578
#
#
# Mechanical properties :
#
#
# Convention : Reuss Voigt Hill
#
# Bulk Modulus (GPa) = 38.38248 45.27211 41.82730
# Shear Modulus (GPa) = 32.87331 37.06718 34.97025
#
# Velocity S-wave (km/s) = 3.54172 3.76086 3.65293
# Velocity P-wave (km/s) = 5.60097 6.01112 5.80967
#
# Compressibility (1/GPa) = 0.02605355
#
# Stress axis : x y z
#
# Youngs Moduli (GPa) = 98.80255 79.95281 56.28649
#
# Poissons Ratio (x) = 0.27948 0.03596
# Poissons Ratio (y) = 0.34537 0.17089
# Poissons Ratio (z) = 0.06313 0.24274
#
# Static dielectric constant tensor:
#      x y z
#    x 9.614160 8.073180 1.225820 
#    y 8.073180 18.745990 1.953120 
#    z 1.225820 1.953120 4.870740 
# 
# 
# High freq. dielectric constant tensor:
#      x y z
#    x 2.059450 0.007160 0.007210 
#    y 0.007160 2.053500 0.007000 
#    z 0.007210 0.007000 2.049990 
# 
# From -- ./inp_files/444991.got.cif
#   From: 2010.06.25/outbox.cif.g09.slc.cpg/sg2_223_cif.got.tgz:444991.got - 2010.06.27 13:26:56.
