data_PCOD8027595
_publ_section_title
;
Structure prediction by ZEFSAII (Michael W. Deem and Ramdas Pophale) SiO2 
 PCOD8027595
Probable space group: P -1
;
_chemical_formula_sum "Si O2"
_cell_formula_units_Z 16
_cell_length_a 17.199190
_cell_length_b 9.593318
_cell_length_c 5.915482
_cell_angle_alpha 80.878285
_cell_angle_beta 91.720874
_cell_angle_gamma 131.208787
_cell_volume 721.354383
_symmetry_space_group_name_H-M "P -1"
_symmetry_group_IT_number 2
_symmetry_cell_setting 'triclinic'
loop_
_space_group_symop_operation_xyz
x,y,z
-x,-y,-z
loop_
_atom_site_type_symbol
_atom_site_label
_atom_site_fract_x
_atom_site_fract_y
_atom_site_fract_z
Si Si1 0.721026 0.269848 0.876810
Si Si2 0.712751 0.003038 0.221034
Si Si3 0.634913 0.385323 0.167505
Si Si4 0.378747 0.328737 0.034019
Si Si5 0.784527 0.870419 0.578574
Si Si6 0.991940 0.068155 0.734452
Si Si7 0.194850 0.420810 0.518782
Si Si8 0.430721 0.045737 0.407259
O O1 0.811231 0.472390 0.713455
O O2 0.654924 0.099118 0.742312
O O3 0.644179 0.288064 0.986338
O O4 0.770215 0.209031 0.062004
O O5 0.798178 0.006107 0.350617
O O6 0.622559 0.952411 0.383059
O O7 0.649104 0.832559 0.085845
O O8 0.708287 0.411207 0.364831
O O9 0.513307 0.256184 0.254834
O O10 0.677737 0.592607 0.061897
O O11 0.328317 0.231317 0.297649
O O12 0.500000 0.500000 0.000000
O O13 0.783171 0.711161 0.525451
O O14 0.878233 0.003449 0.734667
O O15 0.086441 0.294233 0.681453
O O16 0.000000 0.000000 0.500000
O O17 0.000000 0.000000 0.000000
O O18 0.500000 0.000000 0.500000
#
# Coordination Sequence:
#
# PCOD8027595 Si02
#       8
#     2   2   2   2   2   2   2   2
#     4  12  24  43  66  96 142 185 238 287 359 433
#     4  12  26  43  65  99 145 190 235 294 369 429
#     4  12  23  40  68  97 137 182 241 294 351 430
#     4  12  26  39  67 102 141 183 235 298 363 429
#     4  11  24  45  68 103 145 183 233 305 363 429
#     4  10  24  45  77 110 144 188 243 303 370 436
#     4  11  23  42  72 105 132 184 242 295 356 435
#     4  12  25  41  63  96 140 197 240 287 356 435
#
# _framework density 22.180496999999999
#
# number of rings (size 3 to 8) (size 9 to 14) (size 15 to 20)
#    0.000    0.500    5.000    3.375    7.000    1.000 
#    0.000    0.625    0.000    5.250    0.000    0.000 
#    0.000    0.000    0.000    0.000    0.000    0.000 
#
# Total GULP energy -198250.264184 kJ/mol
# GULP energy per Si atom -12390.641512 kJ/mol
# Density = 2.213001 g / cm^3
# Si number density = 22.180497 Si / 1000 Ang^3
#
#
#
# Elastic Constant Matrix: (Units=GPa)
#
#
# Indices 1 2 3 4 5 6 
#
# 1 75.7394 49.2338 38.3971 -17.8484 10.9557 -0.2253
# 2 49.2338 105.3898 55.2524 -30.7524 3.6649 -11.0505
# 3 38.3971 55.2524 112.6212 -31.6692 7.2336 -9.0060
# 4 -17.8484 -30.7524 -31.6692 44.7539 -13.5288 0.1058
# 5 10.9557 3.6649 7.2336 -13.5288 39.2603 -6.2080
# 6 -0.2253 -11.0505 -9.0060 0.1058 -6.2080 52.0214
#
#
#
# Elastic Compliance Matrix: (Units=1/GPa)
#
#
# Indices 1 2 3 4 5 6 
#
# 1 0.020844 -0.008624 -0.003183 -0.001492 -0.005403 -0.002934
# 2 -0.008624 0.017911 -0.003703 0.007638 0.004628 0.003663
# 3 -0.003183 -0.003703 0.013563 0.006113 0.001105 0.001667
# 4 -0.001492 0.007638 0.006113 0.034685 0.011151 0.003935
# 5 -0.005403 0.004628 0.001105 0.011151 0.030948 0.004822
# 6 -0.002934 0.003663 0.001667 0.003935 0.004822 0.020844
#
#
# Mechanical properties :
#
#
# Convention : Reuss Voigt Hill
#
# Bulk Modulus (GPa) = 46.95424 64.39075 55.67249
# Shear Modulus (GPa) = 28.26228 37.26492 32.76360
#
# Velocity S-wave (km/s) = 3.57346 4.10332 3.84752
# Velocity P-wave (km/s) = 6.18395 7.17935 6.70016
#
# Compressibility (1/GPa) = 0.02129733
#
# Stress axis : x y z
#
# Youngs Moduli (GPa) = 47.97574 55.83271 73.73116
#
# Poissons Ratio (x) = 0.48149 0.23466
# Poissons Ratio (y) = 0.41374 0.27306
# Poissons Ratio (z) = 0.15269 0.20677
#
# Static dielectric constant tensor:
#      x y z
#    x 5.239450 1.090050 -0.673500 
#    y 1.090050 5.512550 -1.109080 
#    z -0.673500 -1.109080 5.042030 
# 
# 
# High freq. dielectric constant tensor:
#      x y z
#    x 1.856860 -0.013790 0.006470 
#    y -0.013790 1.873520 -0.013350 
#    z 0.006470 -0.013350 1.890160 
# 
# From -- ./inp_files/106946.got.cif
#   From: 2010.06.25/outbox.cif.g09.slc.cpg/sg2_54_cif.got.tgz:106946.got - 2010.06.27 13:26:56.
