data_PCOD8027270
_publ_section_title
;
Structure prediction by ZEFSAII (Michael W. Deem and Ramdas Pophale) SiO2 
 PCOD8027270
Probable space group: P -1
;
_chemical_formula_sum "Si O2"
_cell_formula_units_Z 14
_cell_length_a 11.343857
_cell_length_b 9.164448
_cell_length_c 8.719249
_cell_angle_alpha 52.190151
_cell_angle_beta 119.862527
_cell_angle_gamma 115.671584
_cell_volume 610.128135
_symmetry_space_group_name_H-M "P -1"
_symmetry_group_IT_number 2
_symmetry_cell_setting 'triclinic'
loop_
_space_group_symop_operation_xyz
x,y,z
-x,-y,-z
loop_
_atom_site_type_symbol
_atom_site_label
_atom_site_fract_x
_atom_site_fract_y
_atom_site_fract_z
Si Si1 0.416149 0.488913 0.178749
Si Si2 0.815019 0.558341 0.710759
Si Si3 0.746407 0.266343 0.277703
Si Si4 0.851299 0.954712 0.010532
Si Si5 0.257447 0.437313 0.678395
Si Si6 0.930761 0.238996 0.128435
Si Si7 0.648211 0.947480 0.627456
O O1 0.339504 0.509572 0.277784
O O2 0.579670 0.534447 0.269559
O O3 0.362033 0.275094 0.231633
O O4 0.377365 0.639034 0.934376
O O5 0.815983 0.606341 0.503054
O O6 0.903289 0.736996 0.748252
O O7 0.903227 0.393597 0.889187
O O8 0.788157 0.382714 0.386782
O O9 0.866617 0.275231 0.227328
O O10 0.708530 0.047325 0.443238
O O11 0.796732 0.734110 0.133778
O O12 0.863994 0.041855 0.134317
O O13 0.740777 0.032503 0.779722
O O14 0.000000 0.000000 0.000000
O O15 0.500000 0.000000 0.500000
#
# Coordination Sequence:
#
# PCOD8027270 Si02
#       7
#     2   2   2   2   2   2   2
#     4  11  23  47  68 107 145 182 234 299 350 422
#     4  10  24  44  71  96 141 186 233 295 349 423
#     4  11  24  44  72 102 143 187 229 295 353 419
#     4  12  28  46  70 107 145 187 239 298 351 430
#     4  12  24  43  71 100 140 186 233 287 360 411
#     4  10  25  46  67 101 139 181 243 286 352 426
#     4  12  24  44  76 104 143 187 243 289 354 424
#
# _framework density 22.945999
#
# number of rings (size 3 to 8) (size 9 to 14) (size 15 to 20)
#    0.000    0.857    2.857    3.429    8.000    1.143 
#    0.000    2.143    0.000    0.000    0.000    0.000 
#    0.000    0.000    0.000    0.000    0.000    0.000 
#
# Total GULP energy -173531.353794 kJ/mol
# GULP energy per Si atom -12395.096700 kJ/mol
# Density = 2.289377 g / cm^3
# Si number density = 22.945999 Si / 1000 Ang^3
#
#
#
# Elastic Constant Matrix: (Units=GPa)
#
#
# Indices 1 2 3 4 5 6 
#
# 1 122.2189 44.1341 48.2380 11.7321 -0.8336 13.7031
# 2 44.1341 91.6095 44.2816 12.2329 3.4674 12.3034
# 3 48.2380 44.2816 123.7687 11.0233 -17.7704 13.9076
# 4 11.7321 12.2329 11.0233 36.6185 5.6800 -6.8905
# 5 -0.8336 3.4674 -17.7704 5.6800 26.6055 1.5721
# 6 13.7031 12.3034 13.9076 -6.8905 1.5721 34.9513
#
#
#
# Elastic Compliance Matrix: (Units=1/GPa)
#
#
# Indices 1 2 3 4 5 6 
#
# 1 0.010902 -0.003365 -0.002666 -0.001947 -0.000444 -0.002393
# 2 -0.003365 0.015504 -0.004301 -0.002664 -0.004267 -0.002760
# 3 -0.002666 -0.004301 0.012882 -0.003871 0.010131 -0.003786
# 4 -0.001947 -0.002664 -0.003871 0.033485 -0.010056 0.010295
# 5 -0.000444 -0.004267 0.010131 -0.010056 0.047425 -0.006471
# 6 -0.002393 -0.002760 -0.003786 0.010295 -0.006471 0.034348
#
#
# Mechanical properties :
#
#
# Convention : Reuss Voigt Hill
#
# Bulk Modulus (GPa) = 53.69467 67.87827 60.78647
# Shear Modulus (GPa) = 27.56081 33.03128 30.29604
#
# Velocity S-wave (km/s) = 3.46947 3.79822 3.63756
# Velocity P-wave (km/s) = 6.28497 6.99151 6.64764
#
# Compressibility (1/GPa) = 0.01862382
#
# Stress axis : x y z
#
# Youngs Moduli (GPa) = 91.72874 64.50046 77.62669
#
# Poissons Ratio (x) = 0.21705 0.20698
# Poissons Ratio (y) = 0.30867 0.33384
# Poissons Ratio (z) = 0.24458 0.27739
#
# Static dielectric constant tensor:
#      x y z
#    x 5.202760 -0.678110 0.544460 
#    y -0.678110 4.971300 -0.678470 
#    z 0.544460 -0.678470 4.957370 
# 
# 
# High freq. dielectric constant tensor:
#      x y z
#    x 1.909090 0.009670 -0.007400 
#    y 0.009670 1.897800 0.000480 
#    z -0.007400 0.000480 1.920830 
# 
# From -- ./inp_files/242301.got.cif
#   From: 2010.06.25/outbox.cif.g09.slc.cpg/sg2_122_cif.got.tgz:242301.got - 2010.06.27 13:26:56.
