data_PCOD8027410
_publ_section_title
;
Structure prediction by ZEFSAII (Michael W. Deem and Ramdas Pophale) SiO2 
 PCOD8027410
Probable space group: P -1
;
_chemical_formula_sum "Si O2"
_cell_formula_units_Z 10
_cell_length_a 4.892827
_cell_length_b 18.246347
_cell_length_c 5.969450
_cell_angle_alpha 130.868189
_cell_angle_beta 89.999774
_cell_angle_gamma 102.323518
_cell_volume 386.626645
_symmetry_space_group_name_H-M "P -1"
_symmetry_group_IT_number 2
_symmetry_cell_setting 'triclinic'
loop_
_space_group_symop_operation_xyz
x,y,z
-x,-y,-z
loop_
_atom_site_type_symbol
_atom_site_label
_atom_site_fract_x
_atom_site_fract_y
_atom_site_fract_z
Si Si1 0.688947 0.881581 0.138650
Si Si2 0.186559 0.892729 0.458833
Si Si3 0.686563 0.392728 0.112085
Si Si4 0.811053 0.618421 0.612326
Si Si5 0.250002 0.750001 0.543398
O O1 0.490777 0.888107 0.361409
O O2 0.951611 0.845648 0.170844
O O3 0.813794 0.993302 0.254910
O O4 0.523369 0.806859 0.800794
O O5 0.128376 0.827350 0.553458
O O6 0.686226 0.506697 0.281700
O O7 0.451621 0.345650 0.211764
O O8 0.990780 0.388099 0.191001
O O9 0.628365 0.327346 0.755938
O O10 0.976627 0.693140 0.573350
#
# Coordination Sequence:
#
# PCOD8027410 Si02
#       5
#     2   2   2   2   2
#     4  10  24  45  67  99 142 181 225 285 347 409
#     4  10  24  45  67  99 142 181 225 285 347 409
#     4  10  24  45  67  99 142 181 225 285 347 409
#     4  10  24  45  67  99 142 181 225 285 347 409
#     4  12  24  42  76 106 132 186 240 282 340 414
#
# _framework density 25.864744000000002
#
# number of rings (size 3 to 8) (size 9 to 14) (size 15 to 20)
#    0.000    1.600    0.000    2.400    0.000   12.800 
#    0.000   12.000    0.000    7.200    0.000    0.000 
#    0.000    0.000    0.000    0.000    0.000    0.000 
#
# Total GULP energy -124077.715394 kJ/mol
# GULP energy per Si atom -12407.771539 kJ/mol
# Density = 2.580587 g / cm^3
# Si number density = 25.864744 Si / 1000 Ang^3
#
#
#
# Elastic Constant Matrix: (Units=GPa)
#
#
# Indices 1 2 3 4 5 6 
#
# 1 117.1760 43.4263 41.4336 8.5200 8.6452 9.7113
# 2 43.4263 157.2612 62.1914 -4.2439 19.3075 24.2919
# 3 41.4336 62.1914 157.4768 3.4424 21.5849 21.6957
# 4 8.5200 -4.2439 3.4424 15.1686 1.3241 1.1941
# 5 8.6452 19.3075 21.5849 1.3241 37.7507 -0.9092
# 6 9.7113 24.2919 21.6957 1.1941 -0.9092 37.5539
#
#
#
# Elastic Compliance Matrix: (Units=1/GPa)
#
#
# Indices 1 2 3 4 5 6 
#
# 1 0.010461 -0.002395 -0.001673 -0.006167 0.000002 0.000007
# 2 -0.002395 0.008998 -0.002006 0.004932 -0.003183 -0.004276
# 3 -0.001673 -0.002006 0.008534 -0.000995 -0.003514 -0.003254
# 4 -0.006167 0.004932 -0.000995 0.071534 -0.003131 -0.003371
# 5 0.000002 -0.003183 -0.003514 -0.003131 0.030354 0.004923
# 6 0.000007 -0.004276 -0.003254 -0.003371 0.004923 0.031499
#
#
# Mechanical properties :
#
#
# Convention : Reuss Voigt Hill
#
# Bulk Modulus (GPa) = 63.10902 80.66851 71.88877
# Shear Modulus (GPa) = 27.96278 37.08550 32.52414
#
# Velocity S-wave (km/s) = 3.29160 3.79070 3.54993
# Velocity P-wave (km/s) = 6.23689 7.10038 6.68260
#
# Compressibility (1/GPa) = 0.01584559
#
# Stress axis : x y z
#
# Youngs Moduli (GPa) = 95.59350 111.13929 117.17617
#
# Poissons Ratio (x) = 0.26616 0.19604
# Poissons Ratio (y) = 0.22893 0.23503
# Poissons Ratio (z) = 0.15993 0.22292
#
# Static dielectric constant tensor:
#      x y z
#    x 4.636070 0.123520 0.110080 
#    y 0.123520 4.783180 0.379790 
#    z 0.110080 0.379790 4.694490 
# 
# 
# High freq. dielectric constant tensor:
#      x y z
#    x 2.042570 0.003910 0.003490 
#    y 0.003910 2.043000 0.020290 
#    z 0.003490 0.020290 2.038260 
# 
# From -- ./inp_files/5568.got.cif
#   From: 2010.06.25/outbox.cif.g09.slc.cpg/sg2_3_cif.got.tgz:5568.got - 2010.06.27 13:26:56.
