data_PCOD8027136
_publ_section_title
;
Structure prediction by ZEFSAII (Michael W. Deem and Ramdas Pophale) SiO2 
 PCOD8027136
Probable space group: P -1
;
_chemical_formula_sum "Si O2"
_cell_formula_units_Z 16
_cell_length_a 8.821016
_cell_length_b 7.536865
_cell_length_c 18.777809
_cell_angle_alpha 137.683024
_cell_angle_beta 121.309600
_cell_angle_gamma 55.234922
_cell_volume 679.505704
_symmetry_space_group_name_H-M "P -1"
_symmetry_group_IT_number 2
_symmetry_cell_setting 'triclinic'
loop_
_space_group_symop_operation_xyz
x,y,z
-x,-y,-z
loop_
_atom_site_type_symbol
_atom_site_label
_atom_site_fract_x
_atom_site_fract_y
_atom_site_fract_z
Si Si1 0.659252 0.130820 0.988313
Si Si2 0.020634 0.558659 0.712443
Si Si3 0.873033 0.403195 0.495035
Si Si4 0.745660 0.491445 0.997702
Si Si5 0.076419 0.100198 0.881794
Si Si6 0.696150 0.974381 0.343025
Si Si7 0.472266 0.775965 0.479715
Si Si8 0.360190 0.265863 0.253308
O O1 0.467024 0.358949 0.036519
O O2 0.608471 0.885926 0.860458
O O3 0.760953 0.301087 0.014477
O O4 0.794319 0.981469 0.040441
O O5 0.968559 0.368155 0.584704
O O6 0.855562 0.684006 0.765480
O O7 0.067500 0.813350 0.760677
O O8 0.207170 0.358590 0.737402
O O9 0.838280 0.114051 0.380452
O O10 0.669764 0.630004 0.522159
O O11 0.000000 0.500000 0.500000
O O12 0.836487 0.738782 0.106621
O O13 0.865840 0.296712 0.906881
O O14 0.671925 0.081329 0.450786
O O15 0.496874 0.049851 0.277811
O O16 0.402897 0.557751 0.351828
O O17 0.500000 0.000000 0.500000
#
# Coordination Sequence:
#
# PCOD8027136 Si02
#       8
#     2   2   2   2   2   2   2   2
#     4  11  24  45  71  96 136 179 224 271 341 396
#     4  12  24  41  71  97 131 178 219 267 344 387
#     4  11  23  43  66  98 135 171 222 278 327 400
#     4  10  24  44  68  93 138 173 220 284 334 379
#     4  11  25  45  67 103 137 170 229 280 327 403
#     4  11  24  43  68  91 138 171 219 277 327 397
#     4  11  23  44  65  98 135 173 221 276 326 400
#     4  11  24  44  67  99 130 178 221 268 335 398
#
# _framework density 23.546524999999999
#
# number of rings (size 3 to 8) (size 9 to 14) (size 15 to 20)
#    0.000    1.000    3.750    2.625    5.250    3.000 
#    6.750    0.000    0.000    0.000    0.000    0.000 
#    0.000    0.000    0.000    0.000    0.000    0.000 
#
# Total GULP energy -198374.353047 kJ/mol
# GULP energy per Si atom -12398.397065 kJ/mol
# Density = 2.349293 g / cm^3
# Si number density = 23.546525 Si / 1000 Ang^3
#
#
#
# Elastic Constant Matrix: (Units=GPa)
#
#
# Indices 1 2 3 4 5 6 
#
# 1 104.1711 21.8899 17.7696 13.9678 22.9277 -6.8362
# 2 21.8899 92.4634 37.0772 18.9455 3.6381 -15.8998
# 3 17.7696 37.0772 85.3955 11.1895 14.0721 -5.2649
# 4 13.9678 18.9455 11.1895 40.7207 13.6062 1.6725
# 5 22.9277 3.6381 14.0721 13.6062 29.5372 7.6115
# 6 -6.8362 -15.8998 -5.2649 1.6725 7.6115 36.7335
#
#
#
# Elastic Compliance Matrix: (Units=1/GPa)
#
#
# Indices 1 2 3 4 5 6 
#
# 1 0.012547 -0.001999 0.000227 -0.000073 -0.010517 0.003685
# 2 -0.001999 0.015713 -0.005922 -0.006603 0.004187 0.005014
# 3 0.000227 -0.005922 0.015431 0.000902 -0.007525 0.001209
# 4 -0.000073 -0.006603 0.000902 0.032150 -0.014035 -0.001298
# 5 -0.010517 0.004187 -0.007525 -0.014035 0.054621 -0.011902
# 6 0.003685 0.005014 0.001209 -0.001298 -0.011902 0.032778
#
#
# Mechanical properties :
#
#
# Convention : Reuss Voigt Hill
#
# Bulk Modulus (GPa) = 35.33199 48.38924 41.86061
# Shear Modulus (GPa) = 26.58686 35.08451 30.83569
#
# Velocity S-wave (km/s) = 3.36388 3.86425 3.62272
# Velocity P-wave (km/s) = 5.48866 6.36435 5.94266
#
# Compressibility (1/GPa) = 0.02830296
#
# Stress axis : x y z
#
# Youngs Moduli (GPa) = 79.69747 63.64010 64.80583
#
# Poissons Ratio (x) = 0.12721 -0.01471
# Poissons Ratio (y) = 0.15931 0.38380
# Poissons Ratio (z) = -0.01808 0.37689
#
# Static dielectric constant tensor:
#      x y z
#    x 4.428340 -0.178740 0.290070 
#    y -0.178740 4.097500 0.204280 
#    z 0.290070 0.204280 4.206500 
# 
# 
# High freq. dielectric constant tensor:
#      x y z
#    x 1.931020 -0.015910 0.018410 
#    y -0.015910 1.937980 0.020310 
#    z 0.018410 0.020310 1.925900 
# 
# From -- ./inp_files/606939.got.cif
#   From: 2010.06.25/outbox.cif.g09.slc.cpg/sg2_304_cif.got.tgz:606939.got - 2010.06.27 13:26:56.
