data_PCOD8027144
_publ_section_title
;
Structure prediction by ZEFSAII (Michael W. Deem and Ramdas Pophale) SiO2 
 PCOD8027144
Probable space group: P -1
;
_chemical_formula_sum "Si O2"
_cell_formula_units_Z 16
_cell_length_a 8.967000
_cell_length_b 12.150181
_cell_length_c 13.929007
_cell_angle_alpha 109.412778
_cell_angle_beta 30.942404
_cell_angle_gamma 99.998954
_cell_volume 716.244387
_symmetry_space_group_name_H-M "P -1"
_symmetry_group_IT_number 2
_symmetry_cell_setting 'triclinic'
loop_
_space_group_symop_operation_xyz
x,y,z
-x,-y,-z
loop_
_atom_site_type_symbol
_atom_site_label
_atom_site_fract_x
_atom_site_fract_y
_atom_site_fract_z
Si Si1 0.240628 0.335092 0.297182
Si Si2 0.301417 0.907616 0.826824
Si Si3 0.505919 0.355280 0.355249
Si Si4 0.617538 0.281650 0.624877
Si Si5 0.211431 0.431059 0.738498
Si Si6 0.311470 0.996471 0.508439
Si Si7 0.460537 0.486470 0.905568
Si Si8 0.665416 0.098110 0.968416
O O1 0.282952 0.332435 0.388102
O O2 0.279129 0.462425 0.273635
O O3 0.922060 0.316117 0.434900
O O4 0.489195 0.232058 0.077160
O O5 0.280676 0.772722 0.770142
O O6 0.570296 0.941544 0.629268
O O7 0.341479 0.913971 0.918267
O O8 0.000000 0.000000 0.000000
O O9 0.306102 0.409652 0.570490
O O10 0.708860 0.444982 0.234291
O O11 0.372941 0.323698 0.688139
O O12 0.678621 0.140059 0.565526
O O13 0.506935 0.347936 0.806142
O O14 0.858416 0.442275 0.938924
O O15 0.500000 0.000000 0.500000
O O16 0.983909 0.073710 0.734553
O O17 0.500000 0.500000 0.000000
O O18 0.500000 0.000000 0.000000
#
# Coordination Sequence:
#
# PCOD8027144 Si02
#       8
#     2   2   2   2   2   2   2   2
#     4  11  25  47  70  97 149 183 231 298 358 426
#     4  11  25  43  73 101 141 185 240 293 354 422
#     4  10  24  44  68  97 141 182 233 289 358 411
#     4  12  26  46  73 102 143 188 238 290 362 428
#     4  11  25  43  73 101 137 184 237 288 351 426
#     4  12  26  46  75 108 146 189 245 298 359 432
#     4  12  28  44  70 107 142 183 239 290 358 426
#     4  11  25  48  69 104 140 190 238 295 362 416
#
# _framework density 22.338743000000001
#
# number of rings (size 3 to 8) (size 9 to 14) (size 15 to 20)
#    0.000    0.750    3.750    2.250    8.750    1.500 
#    0.000    0.000    0.000    0.000    0.000    0.000 
#    0.000    0.000    0.000    0.000    0.000    0.000 
#
# Total GULP energy -198429.724656 kJ/mol
# GULP energy per Si atom -12401.857791 kJ/mol
# Density = 2.228790 g / cm^3
# Si number density = 22.338743 Si / 1000 Ang^3
#
#
#
# Elastic Constant Matrix: (Units=GPa)
#
#
# Indices 1 2 3 4 5 6 
#
# 1 73.8338 14.6092 42.5997 2.8060 2.5214 6.9797
# 2 14.6092 85.8232 13.3464 11.6663 10.8848 4.4080
# 3 42.5997 13.3464 121.6077 2.9006 3.1168 0.4144
# 4 2.8060 11.6663 2.9006 43.1146 0.5188 4.9870
# 5 2.5214 10.8848 3.1168 0.5188 41.8649 -1.0891
# 6 6.9797 4.4080 0.4144 4.9870 -1.0891 33.8643
#
#
#
# Elastic Compliance Matrix: (Units=1/GPa)
#
#
# Indices 1 2 3 4 5 6 
#
# 1 0.017685 -0.001903 -0.005973 0.000156 -0.000215 -0.003354
# 2 -0.001903 0.012955 -0.000594 -0.003197 -0.003194 -0.000919
# 3 -0.005973 -0.000594 0.010389 -0.000288 -0.000224 0.001216
# 4 0.000156 -0.003197 -0.000288 0.024432 0.000457 -0.003196
# 5 -0.000215 -0.003194 -0.000224 0.000457 0.024772 0.001192
# 6 -0.003354 -0.000919 0.001216 -0.003196 0.001192 0.030835
#
#
# Mechanical properties :
#
#
# Convention : Reuss Voigt Hill
#
# Bulk Modulus (GPa) = 41.51285 46.93060 44.22173
# Shear Modulus (GPa) = 34.23755 37.81606 36.02681
#
# Velocity S-wave (km/s) = 3.91916 4.11889 4.02026
# Velocity P-wave (km/s) = 6.25327 6.60867 6.43343
#
# Compressibility (1/GPa) = 0.02408892
#
# Stress axis : x y z
#
# Youngs Moduli (GPa) = 56.54406 77.19023 96.25374
#
# Poissons Ratio (x) = 0.14692 0.57494
# Poissons Ratio (y) = 0.10762 0.05716
# Poissons Ratio (z) = 0.33775 0.04584
#
# Static dielectric constant tensor:
#      x y z
#    x 4.298310 -0.635970 -1.135320 
#    y -0.635970 6.404020 3.361820 
#    z -1.135320 3.361820 8.775810 
# 
# 
# High freq. dielectric constant tensor:
#      x y z
#    x 1.881460 0.010410 0.005270 
#    y 0.010410 1.885710 0.013040 
#    z 0.005270 0.013040 1.896220 
# 
# From -- ./inp_files/206732.got.cif
#   From: 2010.06.25/outbox.cif.g09.slc.cpg/sg2_104_cif.got.tgz:206732.got - 2010.06.27 13:26:56.
