data_PCOD8027104
_publ_section_title
;
Structure prediction by ZEFSAII (Michael W. Deem and Ramdas Pophale) SiO2 
 PCOD8027104
Probable space group: P -1
;
_chemical_formula_sum "Si O2"
_cell_formula_units_Z 16
_cell_length_a 18.026011
_cell_length_b 7.956183
_cell_length_c 8.286572
_cell_angle_alpha 51.326980
_cell_angle_beta 116.325092
_cell_angle_gamma 86.171810
_cell_volume 724.280471
_symmetry_space_group_name_H-M "P -1"
_symmetry_group_IT_number 2
_symmetry_cell_setting 'triclinic'
loop_
_space_group_symop_operation_xyz
x,y,z
-x,-y,-z
loop_
_atom_site_type_symbol
_atom_site_label
_atom_site_fract_x
_atom_site_fract_y
_atom_site_fract_z
Si Si1 0.588478 0.403618 0.262174
Si Si2 0.235352 0.439805 0.941556
Si Si3 0.047805 0.671193 0.415759
Si Si4 0.849201 0.716893 0.778581
Si Si5 0.424326 0.999331 0.307408
Si Si6 0.023072 0.784272 0.963667
Si Si7 0.522965 0.282303 0.774505
Si Si8 0.707058 0.185276 0.207908
O O1 0.603373 0.192617 0.529334
O O2 0.560945 0.636979 0.219135
O O3 0.680350 0.295159 0.301095
O O4 0.500000 0.500000 0.000000
O O5 0.148401 0.548408 0.671139
O O6 0.245425 0.658094 0.911559
O O7 0.222332 0.266398 0.161742
O O8 0.333180 0.269113 0.043369
O O9 0.069045 0.690372 0.238638
O O10 0.000000 0.500000 0.500000
O O11 0.982184 0.955008 0.246180
O O12 0.910552 0.426886 0.970102
O O13 0.785110 0.894284 0.465296
O O14 0.917433 0.819895 0.843602
O O15 0.466338 0.937175 0.201484
O O16 0.500000 0.000000 0.500000
O O17 0.500000 0.500000 0.500000
O O18 0.621633 0.211546 0.001479
#
# Coordination Sequence:
#
# PCOD8027104 Si02
#       8
#     2   2   2   2   2   2   2   2
#     4   9  18  38  63  86 129 175 213 274 334 389
#     4  12  24  40  66  99 131 179 222 276 340 396
#     4  11  23  43  68  98 135 177 220 277 341 405
#     4  11  23  43  67  99 131 174 224 283 336 405
#     4  11  22  40  65  97 135 170 228 278 333 405
#     4  10  24  44  67  97 135 171 225 276 343 409
#     4   9  20  39  65  93 127 179 222 276 336 398
#     4  11  22  42  65  95 136 174 225 279 335 403
#
# _framework density 22.090888
#
# number of rings (size 3 to 8) (size 9 to 14) (size 15 to 20)
#    0.000    1.500    3.750    2.250    1.750    1.500 
#    0.000    8.125    2.750    0.000    0.000    0.000 
#    0.000    0.000    0.000    0.000    0.000    0.000 
#
# Total GULP energy -198230.600740 kJ/mol
# GULP energy per Si atom -12389.412546 kJ/mol
# Density = 2.204061 g / cm^3
# Si number density = 22.090888 Si / 1000 Ang^3
#
#
#
# Elastic Constant Matrix: (Units=GPa)
#
#
# Indices 1 2 3 4 5 6 
#
# 1 52.5055 42.1216 11.2715 -7.9432 7.3926 2.5849
# 2 42.1216 134.2101 46.1004 -3.2009 3.8702 0.6504
# 3 11.2715 46.1004 122.7222 -10.2409 9.1004 9.0629
# 4 -7.9432 -3.2009 -10.2409 42.5293 6.1500 -5.1110
# 5 7.3926 3.8702 9.1004 6.1500 32.5086 -1.9367
# 6 2.5849 0.6504 9.0629 -5.1110 -1.9367 34.6487
#
#
#
# Elastic Compliance Matrix: (Units=1/GPa)
#
#
# Indices 1 2 3 4 5 6 
#
# 1 0.027863 -0.009082 0.002002 0.005782 -0.007027 -0.001972
# 2 -0.009082 0.011532 -0.003923 -0.001937 0.002236 0.001327
# 3 0.002002 -0.003923 0.010109 0.002714 -0.003481 -0.002514
# 4 0.005782 -0.001937 0.002714 0.026357 -0.006687 0.002409
# 5 -0.007027 0.002236 -0.003481 -0.006687 0.034471 0.002333
# 6 -0.001972 0.001327 -0.002514 0.002409 0.002333 0.030127
#
#
# Mechanical properties :
#
#
# Convention : Reuss Voigt Hill
#
# Bulk Modulus (GPa) = 36.36872 56.49165 46.43019
# Shear Modulus (GPa) = 29.13216 35.93361 32.53288
#
# Velocity S-wave (km/s) = 3.63539 4.03752 3.84172
# Velocity P-wave (km/s) = 5.84126 6.88210 6.38293
#
# Compressibility (1/GPa) = 0.02749616
#
# Stress axis : x y z
#
# Youngs Moduli (GPa) = 35.88986 86.71563 98.92507
#
# Poissons Ratio (x) = 0.78758 -0.19802
# Poissons Ratio (y) = 0.32596 0.38810
# Poissons Ratio (z) = -0.07184 0.34020
#
# Static dielectric constant tensor:
#      x y z
#    x 3.993540 -0.123380 -0.127040 
#    y -0.123380 4.208430 -0.108900 
#    z -0.127040 -0.108900 4.033990 
# 
# 
# High freq. dielectric constant tensor:
#      x y z
#    x 1.850520 -0.002760 -0.006600 
#    y -0.002760 1.869540 -0.015070 
#    z -0.006600 -0.015070 1.889580 
# 
# From -- ./inp_files/328483.got.cif
#   From: 2010.06.25/outbox.cif.g09.slc.cpg/sg2_165_cif.got.tgz:328483.got - 2010.06.27 13:26:56.
