data_PCOD8027117
_publ_section_title
;
Structure prediction by ZEFSAII (Michael W. Deem and Ramdas Pophale) SiO2 
 PCOD8027117
Probable space group: P -1
;
_chemical_formula_sum "Si O2"
_cell_formula_units_Z 16
_cell_length_a 13.607388
_cell_length_b 8.713200
_cell_length_c 9.612129
_cell_angle_alpha 50.801407
_cell_angle_beta 58.219836
_cell_angle_gamma 88.383242
_cell_volume 665.674485
_symmetry_space_group_name_H-M "P -1"
_symmetry_group_IT_number 2
_symmetry_cell_setting 'triclinic'
loop_
_space_group_symop_operation_xyz
x,y,z
-x,-y,-z
loop_
_atom_site_type_symbol
_atom_site_label
_atom_site_fract_x
_atom_site_fract_y
_atom_site_fract_z
Si Si1 0.853665 0.969275 0.144937
Si Si2 0.196979 0.732433 0.389231
Si Si3 0.391618 0.943065 0.353033
Si Si4 0.628218 0.703071 0.654170
Si Si5 0.335439 0.690646 0.051721
Si Si6 0.643953 0.413153 0.198739
Si Si7 0.822624 0.871451 0.926142
Si Si8 0.982250 0.639923 0.052575
O O1 0.758051 0.766734 0.429339
O O2 0.779804 0.929489 0.074937
O O3 0.000000 0.000000 0.000000
O O4 0.879543 0.202644 0.065564
O O5 0.336598 0.874000 0.278114
O O6 0.219672 0.653082 0.265569
O O7 0.112793 0.515441 0.667713
O O8 0.129349 0.896985 0.329780
O O9 0.333823 0.717007 0.615651
O O10 0.340268 0.109053 0.359842
O O11 0.548786 0.056310 0.168098
O O12 0.594565 0.465304 0.881902
O O13 0.509765 0.684632 0.657743
O O14 0.284986 0.628192 0.966067
O O15 0.704467 0.673228 0.046083
O O16 0.933699 0.798840 0.917136
O O17 0.000000 0.500000 0.000000
#
# Coordination Sequence:
#
# PCOD8027117 Si02
#       8
#     2   2   2   2   2   2   2   2
#     4  10  24  44  68 100 140 183 232 293 346 403
#     4  12  25  44  71 105 140 181 233 293 354 411
#     4  11  23  42  65 105 146 185 230 286 359 427
#     4  11  22  41  72  97 143 187 232 291 353 417
#     4  11  23  40  65 105 143 181 231 285 348 437
#     4  11  24  42  69 105 141 187 233 280 367 423
#     4  11  25  44  71 104 143 180 234 289 358 416
#     4  11  25  49  74 100 140 187 240 291 346 416
#
# _framework density 24.035771
#
# number of rings (size 3 to 8) (size 9 to 14) (size 15 to 20)
#    0.000    1.000    1.250    7.125    3.500    1.500 
#    0.000    1.250    0.000    0.000    0.000    0.000 
#    0.000    0.000    0.000    0.000    0.000    0.000 
#
# Total GULP energy -198312.049207 kJ/mol
# GULP energy per Si atom -12394.503075 kJ/mol
# Density = 2.398106 g / cm^3
# Si number density = 24.035771 Si / 1000 Ang^3
#
#
#
# Elastic Constant Matrix: (Units=GPa)
#
#
# Indices 1 2 3 4 5 6 
#
# 1 58.6940 37.1528 30.3183 -0.1432 15.1138 -3.7185
# 2 37.1528 138.2589 24.8201 7.7540 0.2121 26.0045
# 3 30.3183 24.8201 72.8389 12.6509 12.2098 -1.8058
# 4 -0.1432 7.7540 12.6509 41.5701 -7.5150 0.6919
# 5 15.1138 0.2121 12.2098 -7.5150 39.2684 -9.6092
# 6 -3.7185 26.0045 -1.8058 0.6919 -9.6092 47.4061
#
#
#
# Elastic Compliance Matrix: (Units=1/GPa)
#
#
# Indices 1 2 3 4 5 6 
#
# 1 0.027694 -0.006867 -0.008479 0.002725 -0.006418 0.004276
# 2 -0.006867 0.010435 -0.000777 -0.001439 0.001071 -0.006054
# 3 -0.008479 -0.000777 0.019322 -0.006490 -0.004038 -0.000226
# 4 0.002725 -0.001439 -0.006490 0.027483 0.006653 0.001704
# 5 -0.006418 0.001071 -0.004038 0.006653 0.031703 0.005084
# 6 0.004276 -0.006054 -0.000226 0.001704 0.005084 0.025748
#
#
# Mechanical properties :
#
#
# Convention : Reuss Voigt Hill
#
# Bulk Modulus (GPa) = 39.67535 50.48605 45.08070
# Shear Modulus (GPa) = 27.31744 37.48230 32.39987
#
# Velocity S-wave (km/s) = 3.37491 3.95326 3.67548
# Velocity P-wave (km/s) = 5.63288 6.47208 6.06700
#
# Compressibility (1/GPa) = 0.02520457
#
# Stress axis : x y z
#
# Youngs Moduli (GPa) = 36.10872 95.82706 51.75572
#
# Poissons Ratio (x) = 0.65804 0.43883
# Poissons Ratio (y) = 0.24796 0.04023
# Poissons Ratio (z) = 0.30616 0.07449
#
# Static dielectric constant tensor:
#      x y z
#    x 4.044240 0.362530 0.112290 
#    y 0.362530 5.426990 -0.367020 
#    z 0.112290 -0.367020 4.507190 
# 
# 
# High freq. dielectric constant tensor:
#      x y z
#    x 1.936970 0.009650 0.014790 
#    y 0.009650 1.974230 -0.005790 
#    z 0.014790 -0.005790 1.954250 
# 
# From -- ./inp_files/297383.got.cif
#   From: 2010.06.25/outbox.cif.g09.slc.cpg/sg2_149_cif.got.tgz:297383.got - 2010.06.27 13:26:56.
