data_PCOD8027424
_publ_section_title
;
Structure prediction by ZEFSAII (Michael W. Deem and Ramdas Pophale) SiO2 
 PCOD8027424
Probable space group: P -1
;
_chemical_formula_sum "Si O2"
_cell_formula_units_Z 14
_cell_length_a 12.028417
_cell_length_b 11.303815
_cell_length_c 8.798100
_cell_angle_alpha 106.401902
_cell_angle_beta 87.611137
_cell_angle_gamma 38.564830
_cell_volume 642.810774
_symmetry_space_group_name_H-M "P -1"
_symmetry_group_IT_number 2
_symmetry_cell_setting 'triclinic'
loop_
_space_group_symop_operation_xyz
x,y,z
-x,-y,-z
loop_
_atom_site_type_symbol
_atom_site_label
_atom_site_fract_x
_atom_site_fract_y
_atom_site_fract_z
Si Si1 0.578918 0.504269 0.731582
Si Si2 0.778647 0.729457 0.261728
Si Si3 0.744618 0.092029 0.898126
Si Si4 0.384987 0.965189 0.379129
Si Si5 0.954231 0.735063 0.001172
Si Si6 0.053452 0.859633 0.224102
Si Si7 0.410826 0.744029 0.533350
O O1 0.810666 0.282944 0.685246
O O2 0.538574 0.635365 0.642495
O O3 0.506109 0.439135 0.648791
O O4 0.454636 0.656310 0.943461
O O5 0.573315 0.860540 0.258386
O O6 0.939368 0.473467 0.167246
O O7 0.767594 0.792270 0.457684
O O8 0.828142 0.794292 0.167722
O O9 0.712978 0.039446 0.731917
O O10 0.904605 0.049651 0.830503
O O11 0.813050 0.937071 0.968237
O O12 0.455284 0.830252 0.478363
O O13 0.104437 0.698285 0.050405
O O14 0.821804 0.068046 0.353973
#
# Coordination Sequence:
#
# PCOD8027424 Si02
#       7
#     2   2   2   2   2   2   2
#     4  11  24  40  66 100 136 180 209 266 348 396
#     4  10  24  45  68  90 132 186 224 281 321 387
#     4  12  25  41  69 103 134 174 220 278 344 395
#     4  11  23  45  66  96 135 174 229 278 325 397
#     4  11  24  44  68  98 134 178 227 273 333 396
#     4  12  23  43  69 102 142 170 215 284 331 409
#     4  11  24  42  64  99 140 172 220 267 333 404
#
# _framework density 21.779347000000001
#
# number of rings (size 3 to 8) (size 9 to 14) (size 15 to 20)
#    0.000    0.857    4.286    2.143    2.000    2.286 
#    0.000    5.714    0.000    0.000    0.000    0.000 
#    0.000    0.000    0.000    0.000    0.000    0.000 
#
# Total GULP energy -173567.205510 kJ/mol
# GULP energy per Si atom -12397.657536 kJ/mol
# Density = 2.172978 g / cm^3
# Si number density = 21.779347 Si / 1000 Ang^3
#
#
#
# Elastic Constant Matrix: (Units=GPa)
#
#
# Indices 1 2 3 4 5 6 
#
# 1 114.4214 24.9275 38.6149 4.8125 5.1252 15.0606
# 2 24.9275 112.6757 26.7063 -4.7623 -1.5975 2.9961
# 3 38.6149 26.7063 98.8330 9.4438 13.8963 1.5272
# 4 4.8125 -4.7623 9.4438 19.4222 -7.3250 2.6560
# 5 5.1252 -1.5975 13.8963 -7.3250 25.9718 4.3788
# 6 15.0606 2.9961 1.5272 2.6560 4.3788 20.7581
#
#
#
# Elastic Compliance Matrix: (Units=1/GPa)
#
#
# Indices 1 2 3 4 5 6 
#
# 1 0.011442 -0.001250 -0.004280 0.000634 0.001518 -0.008207
# 2 -0.001250 0.010459 -0.003702 0.006963 0.005227 -0.002324
# 3 -0.004280 -0.003702 0.015731 -0.013216 -0.012682 0.006848
# 4 0.000634 0.006963 -0.013216 0.073325 0.030815 -0.016375
# 5 0.001518 0.005227 -0.012682 0.030815 0.056844 -0.016856
# 6 -0.008207 -0.002324 0.006848 -0.016375 -0.016856 0.059611
#
#
# Mechanical properties :
#
#
# Convention : Reuss Voigt Hill
#
# Bulk Modulus (GPa) = 52.17173 56.26974 54.22073
# Shear Modulus (GPa) = 19.82040 28.94251 24.38145
#
# Velocity S-wave (km/s) = 3.01998 3.64936 3.34949
# Velocity P-wave (km/s) = 6.01391 6.60677 6.31730
#
# Compressibility (1/GPa) = 0.01916747
#
# Stress axis : x y z
#
# Youngs Moduli (GPa) = 87.39720 95.60842 63.57015
#
# Poissons Ratio (x) = 0.11955 0.27206
# Poissons Ratio (y) = 0.10928 0.23534
# Poissons Ratio (z) = 0.37404 0.35395
#
# Static dielectric constant tensor:
#      x y z
#    x 3.964390 0.241590 0.209620 
#    y 0.241590 3.866290 0.041560 
#    z 0.209620 0.041560 4.317290 
# 
# 
# High freq. dielectric constant tensor:
#      x y z
#    x 1.855700 0.019160 0.012740 
#    y 0.019160 1.846090 0.007930 
#    z 0.012740 0.007930 1.873930 
# 
# From -- ./inp_files/170900.got.cif
#   From: 2010.06.25/outbox.cif.g09.slc.cpg/sg2_86_cif.got.tgz:170900.got - 2010.06.27 13:26:56.
