data_PCOD8027704
_publ_section_title
;
Structure prediction by ZEFSAII (Michael W. Deem and Ramdas Pophale) SiO2 
 PCOD8027704
Probable space group: P -1
;
_chemical_formula_sum "Si O2"
_cell_formula_units_Z 14
_cell_length_a 9.305794
_cell_length_b 13.338474
_cell_length_c 16.338279
_cell_angle_alpha 21.781456
_cell_angle_beta 113.121653
_cell_angle_gamma 100.744896
_cell_volume 590.207949
_symmetry_space_group_name_H-M "P -1"
_symmetry_group_IT_number 2
_symmetry_cell_setting 'triclinic'
loop_
_space_group_symop_operation_xyz
x,y,z
-x,-y,-z
loop_
_atom_site_type_symbol
_atom_site_label
_atom_site_fract_x
_atom_site_fract_y
_atom_site_fract_z
Si Si1 0.892012 0.375080 0.925419
Si Si2 0.851645 0.953356 0.550487
Si Si3 0.426704 0.006346 0.650955
Si Si4 0.266713 0.883420 0.417767
Si Si5 0.102581 0.177455 0.868089
Si Si6 0.806864 0.875245 0.259647
Si Si7 0.575231 0.819268 0.998870
O O1 0.810096 0.156192 0.097778
O O2 0.904719 0.583505 0.844256
O O3 0.748381 0.643002 0.625446
O O4 0.104094 0.125655 0.134604
O O5 0.658017 0.153060 0.305056
O O6 0.825632 0.072581 0.546871
O O7 0.000000 0.000000 0.500000
O O8 0.568903 0.051622 0.594130
O O9 0.530093 0.795451 0.912211
O O10 0.341438 0.523633 0.679570
O O11 0.163878 0.100252 0.847411
O O12 0.966326 0.544088 0.580661
O O13 0.282549 0.061749 0.051800
O O14 0.000000 0.000000 0.000000
O O15 0.608417 0.921432 0.192572
#
# Coordination Sequence:
#
# PCOD8027704 Si02
#       7
#     2   2   2   2   2   2   2
#     4  10  24  46  71  98 148 182 233 285 348 403
#     4  10  25  44  70 104 142 189 234 286 339 407
#     4  10  27  42  69 105 139 183 230 286 341 408
#     4  12  24  45  74  98 143 189 236 279 344 408
#     4  11  28  46  75 103 138 179 230 288 353 420
#     4  11  25  48  72 103 139 181 233 284 348 416
#     4  12  26  45  75 104 140 182 230 288 348 416
#
# _framework density 23.720452999999999
#
# number of rings (size 3 to 8) (size 9 to 14) (size 15 to 20)
#    0.857    0.286    2.857    1.286    8.000    1.143 
#    0.000    0.000    0.000    0.000    0.000    0.000 
#    0.000    0.000    0.000    0.000    0.000    0.000 
#
# Total GULP energy -173449.411151 kJ/mol
# GULP energy per Si atom -12389.243654 kJ/mol
# Density = 2.366646 g / cm^3
# Si number density = 23.720453 Si / 1000 Ang^3
#
#
#
# Elastic Constant Matrix: (Units=GPa)
#
#
# Indices 1 2 3 4 5 6 
#
# 1 155.9991 40.0153 18.1245 7.0884 19.8928 16.4977
# 2 40.0153 50.5957 19.8854 -4.1684 8.0743 15.6006
# 3 18.1245 19.8854 77.9159 6.8376 18.8878 7.1977
# 4 7.0884 -4.1684 6.8376 29.0527 13.6596 5.7551
# 5 19.8928 8.0743 18.8878 13.6596 34.6453 2.5542
# 6 16.4977 15.6006 7.1977 5.7551 2.5542 48.3379
#
#
#
# Elastic Compliance Matrix: (Units=1/GPa)
#
#
# Indices 1 2 3 4 5 6 
#
# 1 0.008513 -0.006438 0.000592 -0.001600 -0.003038 -0.000565
# 2 -0.006438 0.031143 -0.005645 0.010948 -0.004204 -0.008095
# 3 0.000592 -0.005645 0.016026 -0.001275 -0.007241 -0.000232
# 4 -0.001600 0.010948 -0.001275 0.047054 -0.018944 -0.007399
# 5 -0.003038 -0.004204 -0.007241 -0.018944 0.042749 0.003468
# 6 -0.000565 -0.008095 -0.000232 -0.007399 0.003468 0.024225
#
#
# Mechanical properties :
#
#
# Convention : Reuss Voigt Hill
#
# Bulk Modulus (GPa) = 30.58061 48.95122 39.76592
# Shear Modulus (GPa) = 24.55892 36.17288 30.36590
#
# Velocity S-wave (km/s) = 3.22117 3.90932 3.58181
# Velocity P-wave (km/s) = 5.17249 6.40769 5.82294
#
# Compressibility (1/GPa) = 0.03270046
#
# Stress axis : x y z
#
# Youngs Moduli (GPa) = 117.47077 32.10945 62.39841
#
# Poissons Ratio (x) = 0.20672 -0.03693
# Poissons Ratio (y) = 0.75629 0.35222
# Poissons Ratio (z) = -0.06953 0.18125
#
# Static dielectric constant tensor:
#      x y z
#    x 4.428270 0.246030 0.344280 
#    y 0.246030 3.989370 0.011870 
#    z 0.344280 0.011870 4.399350 
# 
# 
# High freq. dielectric constant tensor:
#      x y z
#    x 1.947860 0.023520 0.019300 
#    y 0.023520 1.919430 0.000110 
#    z 0.019300 0.000110 1.941910 
# 
# From -- ./inp_files/561090.got.cif
#   From: 2010.06.25/outbox.cif.g09.slc.cpg/sg2_281_cif.got.tgz:561090.got - 2010.06.27 13:26:56.
