data_PCOD8027948
_publ_section_title
;
Structure prediction by ZEFSAII (Michael W. Deem and Ramdas Pophale) SiO2 
 PCOD8027948
Probable space group: P -1
;
_chemical_formula_sum "Si O2"
_cell_formula_units_Z 12
_cell_length_a 11.521968
_cell_length_b 9.914430
_cell_length_c 12.802142
_cell_angle_alpha 145.285163
_cell_angle_beta 53.049468
_cell_angle_gamma 141.523474
_cell_volume 514.471329
_symmetry_space_group_name_H-M "P -1"
_symmetry_group_IT_number 2
_symmetry_cell_setting 'triclinic'
loop_
_space_group_symop_operation_xyz
x,y,z
-x,-y,-z
loop_
_atom_site_type_symbol
_atom_site_label
_atom_site_fract_x
_atom_site_fract_y
_atom_site_fract_z
Si Si1 0.013091 0.335751 0.652829
Si Si2 0.561107 0.316247 0.397726
Si Si3 0.636497 0.352515 0.985383
Si Si4 0.675495 0.642222 0.748803
Si Si5 0.015374 0.166812 0.762158
Si Si6 0.844023 0.641687 0.859777
O O1 0.237738 0.555704 0.671646
O O2 0.948530 0.265041 0.764445
O O3 0.942448 0.494221 0.733834
O O4 0.923012 0.022097 0.439831
O O5 0.500000 0.500000 0.500000
O O6 0.568527 0.359501 0.546236
O O7 0.408484 0.963299 0.224588
O O8 0.456019 0.288781 0.091525
O O9 0.805714 0.526742 0.086984
O O10 0.698243 0.554324 0.975404
O O11 0.740739 0.533033 0.735326
O O12 0.848773 0.960295 0.803972
O O13 0.000000 0.000000 0.000000
#
# Coordination Sequence:
#
# PCOD8027948 Si02
#       6
#     2   2   2   2   2   2
#     4  10  25  48  77 108 154 190 248 307 367 436
#     4  11  27  48  75 114 148 190 249 307 368 435
#     4  12  27  47  79 106 149 195 249 305 361 442
#     4  11  26  50  74 109 152 192 247 299 370 438
#     4  10  24  49  78 107 146 198 247 304 371 425
#     4  12  26  48  75 111 147 198 249 298 370 441
#
# _framework density 23.324915000000001
#
# number of rings (size 3 to 8) (size 9 to 14) (size 15 to 20)
#    0.000    1.000    1.667    2.500    9.333    8.000 
#    3.000    0.000    0.000    0.000    0.000    0.000 
#    0.000    0.000    0.000    0.000    0.000    0.000 
#
# Total GULP energy -148845.118255 kJ/mol
# GULP energy per Si atom -12403.759855 kJ/mol
# Density = 2.327183 g / cm^3
# Si number density = 23.324915 Si / 1000 Ang^3
#
#
#
# Elastic Constant Matrix: (Units=GPa)
#
#
# Indices 1 2 3 4 5 6 
#
# 1 127.4496 82.0010 120.8148 -6.1122 2.6303 6.7869
# 2 82.0010 139.0510 71.0413 -13.2196 4.3831 -16.8430
# 3 120.8148 71.0413 160.0179 15.6929 23.8866 -21.2413
# 4 -6.1122 -13.2196 15.6929 49.4421 0.9170 3.1619
# 5 2.6303 4.3831 23.8866 0.9170 42.9998 -0.6911
# 6 6.7869 -16.8430 -21.2413 3.1619 -0.6911 29.2882
#
#
#
# Elastic Compliance Matrix: (Units=1/GPa)
#
#
# Indices 1 2 3 4 5 6 
#
# 1 -0.120301 0.028301 0.107569 -0.048548 -0.052218 0.126176
# 2 0.028301 0.003657 -0.030290 0.015609 0.013943 -0.027779
# 3 0.107569 -0.030290 -0.085819 0.038558 0.041626 -0.107767
# 4 -0.048548 0.015609 0.038558 0.003490 -0.019354 0.047357
# 5 -0.052218 0.013943 0.041626 -0.019354 0.003161 0.052472
# 6 0.126176 -0.027779 -0.107767 0.047357 0.052472 -0.093103
#
#
# Mechanical properties :
#
#
# Convention : Reuss Voigt Hill
#
# Bulk Modulus (GPa) = 115.00243 108.24806 111.62525
# Shear Modulus (GPa) = -10.05685 34.52344 12.23329
#
# Velocity S-wave (km/s) = -2.07870 3.85139 2.29262
# Velocity P-wave (km/s) = 6.60683 8.14169 7.41409
#
# Compressibility (1/GPa) = 0.00869547
#
# Stress axis : x y z
#
# Youngs Moduli (GPa) = -8.31249 273.43513 -11.65248
#
# Poissons Ratio (x) = -7.73839 1.25344
# Poissons Ratio (y) = 0.23525 -0.35296
# Poissons Ratio (z) = 0.89416 8.28248
#
# Static dielectric constant tensor:
#      x y z
#    x 4.628230 -0.304750 0.242860 
#    y -0.304750 4.785440 -0.137870 
#    z 0.242860 -0.137870 4.315320 
# 
# 
# High freq. dielectric constant tensor:
#      x y z
#    x 1.929660 0.004630 0.008300 
#    y 0.004630 1.936800 -0.006830 
#    z 0.008300 -0.006830 1.935210 
# 
# From -- ./inp_files/392773.got.cif
#   From: 2010.06.25/outbox.cif.g09.slc.cpg/sg2_197_cif.got.tgz:392773.got - 2010.06.27 13:26:56.
