data_PCOD8027278
_publ_section_title
;
Structure prediction by ZEFSAII (Michael W. Deem and Ramdas Pophale) SiO2 
 PCOD8027278
Probable space group: P -1
;
_chemical_formula_sum "Si O2"
_cell_formula_units_Z 16
_cell_length_a 8.261392
_cell_length_b 9.519290
_cell_length_c 14.288054
_cell_angle_alpha 109.203000
_cell_angle_beta 40.933084
_cell_angle_gamma 104.295440
_cell_volume 695.225056
_symmetry_space_group_name_H-M "P -1"
_symmetry_group_IT_number 2
_symmetry_cell_setting 'triclinic'
loop_
_space_group_symop_operation_xyz
x,y,z
-x,-y,-z
loop_
_atom_site_type_symbol
_atom_site_label
_atom_site_fract_x
_atom_site_fract_y
_atom_site_fract_z
Si Si1 0.148119 0.600739 0.032745
Si Si2 0.566375 0.897548 0.611893
Si Si3 0.416084 0.662350 0.759814
Si Si4 0.873267 0.677478 0.917790
Si Si5 0.242887 0.596623 0.426832
Si Si6 0.589422 0.204817 0.763312
Si Si7 0.010543 0.854402 0.273296
Si Si8 0.082948 0.834400 0.696262
O O1 0.226290 0.492523 0.061867
O O2 0.985573 0.738259 0.172448
O O3 0.384901 0.668590 0.888277
O O4 0.000000 0.500000 0.000000
O O5 0.583497 0.796135 0.676008
O O6 0.298536 0.894797 0.681954
O O7 0.764615 0.839062 0.438306
O O8 0.634455 0.063212 0.647289
O O9 0.544481 0.506099 0.642059
O O10 0.151980 0.679736 0.831909
O O11 0.883503 0.734560 0.818680
O O12 0.697229 0.786191 0.078637
O O13 0.332586 0.650786 0.297910
O O14 0.198927 0.736974 0.542447
O O15 0.000000 0.500000 0.500000
O O16 0.750704 0.194379 0.783759
O O17 0.052892 0.021428 0.254595
#
# Coordination Sequence:
#
# PCOD8027278 Si02
#       8
#     2   2   2   2   2   2   2   2
#     4  10  24  44  71  99 141 186 237 286 350 416
#     4  11  26  45  75 106 145 183 246 289 360 423
#     4  10  24  44  73 102 142 186 235 298 350 416
#     4  10  25  45  70 104 141 185 245 282 357 420
#     4  12  27  46  73 105 146 187 240 297 362 418
#     4  12  27  47  73 104 149 190 232 301 355 427
#     4  12  27  45  71 106 148 186 237 297 359 415
#     4  11  28  44  74 107 141 191 241 291 354 430
#
# _framework density 23.014132
#
# number of rings (size 3 to 8) (size 9 to 14) (size 15 to 20)
#    0.000    1.000    2.500    1.500   14.000    4.000 
#    0.000    0.000    0.000    0.000    0.000    0.000 
#    0.000    0.000    0.000    0.000    0.000    0.000 
#
# Total GULP energy -198374.599045 kJ/mol
# GULP energy per Si atom -12398.412440 kJ/mol
# Density = 2.296175 g / cm^3
# Si number density = 23.014132 Si / 1000 Ang^3
#
#
#
# Elastic Constant Matrix: (Units=GPa)
#
#
# Indices 1 2 3 4 5 6 
#
# 1 75.5955 37.9417 28.3507 4.0281 -4.4956 -10.2324
# 2 37.9417 148.8303 68.4456 -13.4731 3.8269 -35.4157
# 3 28.3507 68.4456 154.8981 5.2288 13.2596 -15.8139
# 4 4.0281 -13.4731 5.2288 54.9193 -10.4023 14.7364
# 5 -4.4956 3.8269 13.2596 -10.4023 18.8550 3.2091
# 6 -10.2324 -35.4157 -15.8139 14.7364 3.2091 36.9406
#
#
#
# Elastic Compliance Matrix: (Units=1/GPa)
#
#
# Indices 1 2 3 4 5 6 
#
# 1 0.016014 -0.003388 -0.001815 -0.000935 0.005209 0.000332
# 2 -0.003388 0.011197 -0.003381 0.000814 -0.001644 0.008167
# 3 -0.001815 -0.003381 0.009476 -0.004055 -0.009111 0.002722
# 4 -0.000935 0.000814 -0.004055 0.026035 0.019083 -0.013258
# 5 0.005209 -0.001644 -0.009111 0.019083 0.074633 -0.018129
# 6 0.000332 0.008167 0.002722 -0.013258 -0.018129 0.043021
#
#
# Mechanical properties :
#
#
# Convention : Reuss Voigt Hill
#
# Bulk Modulus (GPa) = 51.22590 72.08889 61.65739
# Shear Modulus (GPa) = 24.50407 38.44871 31.47639
#
# Velocity S-wave (km/s) = 3.26658 4.09180 3.70225
# Velocity P-wave (km/s) = 6.04435 7.32909 6.71750
#
# Compressibility (1/GPa) = 0.01952137
#
# Stress axis : x y z
#
# Youngs Moduli (GPa) = 62.44707 89.31167 105.52470
#
# Poissons Ratio (x) = 0.30255 0.19148
# Poissons Ratio (y) = 0.21154 0.35673
# Poissons Ratio (z) = 0.11331 0.30192
#
# Static dielectric constant tensor:
#      x y z
#    x 3.978450 -0.501450 0.207230 
#    y -0.501450 4.933830 -0.500020 
#    z 0.207230 -0.500020 4.557650 
# 
# 
# High freq. dielectric constant tensor:
#      x y z
#    x 1.885480 -0.023930 0.000620 
#    y -0.023930 1.927310 -0.008930 
#    z 0.000620 -0.008930 1.925250 
# 
# From -- ./inp_files/227759.got.cif
#   From: 2010.06.25/outbox.cif.g09.slc.cpg/sg2_114_cif.got.tgz:227759.got - 2010.06.27 13:26:56.
