data_PCOD8027962
_publ_section_title
;
Structure prediction by ZEFSAII (Michael W. Deem and Ramdas Pophale) SiO2 
 PCOD8027962
Probable space group: P -1
;
_chemical_formula_sum "Si O2"
_cell_formula_units_Z 10
_cell_length_a 15.660977
_cell_length_b 4.616809
_cell_length_c 13.893215
_cell_angle_alpha 68.464662
_cell_angle_beta 21.780510
_cell_angle_gamma 73.736177
_cell_volume 341.289819
_symmetry_space_group_name_H-M "P -1"
_symmetry_group_IT_number 2
_symmetry_cell_setting 'triclinic'
loop_
_space_group_symop_operation_xyz
x,y,z
-x,-y,-z
loop_
_atom_site_type_symbol
_atom_site_label
_atom_site_fract_x
_atom_site_fract_y
_atom_site_fract_z
Si Si1 0.844913 0.747101 0.423137
Si Si2 0.532336 0.120363 0.061376
Si Si3 0.746068 0.950164 0.157419
Si Si4 0.846712 0.703430 0.748340
Si Si5 0.553892 0.556062 0.574935
O O1 0.997121 0.506304 0.335827
O O2 0.650214 0.546473 0.583002
O O3 0.715788 0.913788 0.621041
O O4 0.007419 0.022072 0.159088
O O5 0.679803 0.480807 0.871972
O O6 0.689874 0.867379 0.969453
O O7 0.500000 0.000000 0.000000
O O8 0.754138 0.751894 0.271501
O O9 0.524841 0.795859 0.340784
O O10 0.683708 0.294804 0.200998
O O11 0.000000 0.000000 0.500000
#
# Coordination Sequence:
#
# PCOD8027962 Si02
#       5
#     2   2   2   2   2
#     4  12  29  52  88 120 166 218 281 330 424 484
#     4  12  32  56  82 118 164 222 286 348 415 492
#     4  10  24  50  81 121 166 209 268 338 409 495
#     4  12  32  56  82 118 164 222 286 348 415 492
#     4  10  24  50  81 121 166 209 268 338 409 495
#
# _framework density 29.300606999999999
#
# number of rings (size 3 to 8) (size 9 to 14) (size 15 to 20)
#    0.000    0.800    0.000    3.000    8.400   11.200 
#    7.200    6.000    0.000    3.600    0.000    0.000 
#    0.000    0.000    0.000    0.000    0.000    0.000 
#
# Total GULP energy -124022.631607 kJ/mol
# GULP energy per Si atom -12402.263161 kJ/mol
# Density = 2.923392 g / cm^3
# Si number density = 29.300607 Si / 1000 Ang^3
#
#
#
# Elastic Constant Matrix: (Units=GPa)
#
#
# Indices 1 2 3 4 5 6 
#
# 1 113.5022 20.8816 41.3023 0.8497 20.8395 15.2323
# 2 20.8816 145.6310 72.8774 15.5131 2.2297 17.5402
# 3 41.3023 72.8774 235.4757 23.2331 26.9145 -2.3779
# 4 0.8497 15.5131 23.2331 48.3171 11.7380 -10.9773
# 5 20.8395 2.2297 26.9145 11.7380 36.3192 3.7380
# 6 15.2323 17.5402 -2.3779 -10.9773 3.7380 37.9781
#
#
#
# Elastic Compliance Matrix: (Units=1/GPa)
#
#
# Indices 1 2 3 4 5 6 
#
# 1 0.010767 -0.000552 -0.001263 0.001114 -0.005228 -0.003306
# 2 -0.000552 0.009473 -0.002943 -0.003853 0.003761 -0.005822
# 3 -0.001263 -0.002943 0.005851 -0.000427 -0.003546 0.002458
# 4 0.001114 -0.003853 -0.000427 0.026764 -0.009766 0.010003
# 5 -0.005228 0.003761 -0.003546 -0.009766 0.036735 -0.006301
# 6 -0.003306 -0.005822 0.002458 0.010003 -0.006301 0.034011
#
#
# Mechanical properties :
#
#
# Convention : Reuss Voigt Hill
#
# Bulk Modulus (GPa) = 60.33822 84.97015 72.65419
# Shear Modulus (GPa) = 36.06378 48.49271 42.27825
#
# Velocity S-wave (km/s) = 3.51211 4.07259 3.80269
# Velocity P-wave (km/s) = 6.08967 7.15382 6.64309
#
# Compressibility (1/GPa) = 0.01657324
#
# Stress axis : x y z
#
# Youngs Moduli (GPa) = 92.87753 105.56578 170.89717
#
# Poissons Ratio (x) = 0.05828 0.21592
# Poissons Ratio (y) = 0.05127 0.50302
# Poissons Ratio (z) = 0.11735 0.31072
#
# Static dielectric constant tensor:
#      x y z
#    x 5.616070 -0.105450 -0.224500 
#    y -0.105450 5.989420 0.414490 
#    z -0.224500 0.414490 6.182160 
# 
# 
# High freq. dielectric constant tensor:
#      x y z
#    x 2.192970 0.004190 0.001830 
#    y 0.004190 2.214390 -0.000340 
#    z 0.001830 -0.000340 2.206310 
# 
# From -- ./inp_files/536268.got.cif
#   From: 2010.06.25/outbox.cif.g09.slc.cpg/sg2_269_cif.got.tgz:536268.got - 2010.06.27 13:26:56.
