data_PCOD8027730
_publ_section_title
;
Structure prediction by ZEFSAII (Michael W. Deem and Ramdas Pophale) SiO2 
 PCOD8027730
Probable space group: P -1
;
_chemical_formula_sum "Si O2"
_cell_formula_units_Z 12
_cell_length_a 9.850696
_cell_length_b 9.338907
_cell_length_c 8.250531
_cell_angle_alpha 46.252349
_cell_angle_beta 122.291999
_cell_angle_gamma 123.547144
_cell_volume 442.146376
_symmetry_space_group_name_H-M "P -1"
_symmetry_group_IT_number 2
_symmetry_cell_setting 'triclinic'
loop_
_space_group_symop_operation_xyz
x,y,z
-x,-y,-z
loop_
_atom_site_type_symbol
_atom_site_label
_atom_site_fract_x
_atom_site_fract_y
_atom_site_fract_z
Si Si1 0.924570 0.124863 0.723458
Si Si2 0.218810 0.424163 0.496522
Si Si3 0.583996 0.064087 0.674012
Si Si4 0.247925 0.080436 0.550743
Si Si5 0.501506 0.616265 0.075854
Si Si6 0.183639 0.653619 0.012135
O O1 0.063330 0.334600 0.589589
O O2 0.776448 0.205830 0.648400
O O3 0.844166 0.973107 0.639999
O O4 0.000000 0.000000 0.000000
O O5 0.192625 0.261436 0.458666
O O6 0.396295 0.477149 0.658061
O O7 0.229646 0.643704 0.240926
O O8 0.500000 0.000000 0.500000
O O9 0.452722 0.158390 0.610125
O O10 0.598490 0.860468 0.936359
O O11 0.810222 0.115195 0.211700
O O12 0.309540 0.574311 0.040658
O O13 0.500000 0.500000 0.000000
O O14 0.000000 0.500000 0.000000
#
# Coordination Sequence:
#
# PCOD8027730 Si02
#       6
#     2   2   2   2   2   2
#     4  11  21  41  71 105 135 179 232 281 344 410
#     4  12  25  46  73 101 138 190 225 286 354 401
#     4   9  21  41  68  98 134 177 226 277 342 408
#     4  10  24  46  72  99 142 183 228 284 341 416
#     4  11  26  47  67  99 141 181 231 289 344 408
#     4  11  25  46  70 105 142 177 234 283 343 416
#
# _framework density 27.140332999999998
#
# number of rings (size 3 to 8) (size 9 to 14) (size 15 to 20)
#    0.000    1.333    3.333    1.000    4.667    2.667 
#    3.000    0.833    0.000    0.000    0.000    0.000 
#    0.000    0.000    0.000    0.000    0.000    0.000 
#
# Total GULP energy -148767.401900 kJ/mol
# GULP energy per Si atom -12397.283492 kJ/mol
# Density = 2.707856 g / cm^3
# Si number density = 27.140333 Si / 1000 Ang^3
#
#
#
# Elastic Constant Matrix: (Units=GPa)
#
#
# Indices 1 2 3 4 5 6 
#
# 1 191.6034 36.9852 36.5859 -19.5588 -9.1348 12.3953
# 2 36.9852 89.0223 20.6425 20.6753 -7.3045 -2.5234
# 3 36.5859 20.6425 152.1546 29.4037 -29.6203 5.1407
# 4 -19.5588 20.6753 29.4037 25.5597 -1.8061 -6.7908
# 5 -9.1348 -7.3045 -29.6203 -1.8061 54.4204 0.9934
# 6 12.3953 -2.5234 5.1407 -6.7908 0.9934 34.6876
#
#
#
# Elastic Compliance Matrix: (Units=1/GPa)
#
#
# Indices 1 2 3 4 5 6 
#
# 1 0.009562 -0.007390 -0.005452 0.019645 -0.001716 0.000749
# 2 -0.007390 0.019827 0.005258 -0.028112 0.003391 -0.002297
# 3 -0.005452 0.005258 0.013282 -0.024486 0.006292 -0.004611
# 4 0.019645 -0.028112 -0.024486 0.108609 -0.010493 0.016127
# 5 -0.001716 0.003391 0.006292 -0.010493 0.021669 -0.002747
# 6 0.000749 -0.002297 -0.004611 0.016127 -0.002747 0.032313
#
#
# Mechanical properties :
#
#
# Convention : Reuss Voigt Hill
#
# Bulk Modulus (GPa) = 36.36281 69.02305 52.69293
# Shear Modulus (GPa) = 21.77709 45.50465 33.64087
#
# Velocity S-wave (km/s) = 2.83572 4.09913 3.52450
# Velocity P-wave (km/s) = 4.91415 6.92032 6.00166
#
# Compressibility (1/GPa) = 0.02750062
#
# Stress axis : x y z
#
# Youngs Moduli (GPa) = 104.58154 50.43720 75.28729
#
# Poissons Ratio (x) = 0.37276 0.41049
# Poissons Ratio (y) = 0.77291 -0.39583
# Poissons Ratio (z) = 0.57021 -0.26518
#
# Static dielectric constant tensor:
#      x y z
#    x 6.224370 -0.292030 -0.430500 
#    y -0.292030 5.288840 0.748560 
#    z -0.430500 0.748560 6.389560 
# 
# 
# High freq. dielectric constant tensor:
#      x y z
#    x 2.124790 -0.000460 -0.004950 
#    y -0.000460 2.087890 0.008440 
#    z -0.004950 0.008440 2.110560 
# 
# From -- ./inp_files/148977.got.cif
#   From: 2010.06.25/outbox.cif.g09.slc.cpg/sg2_75_cif.got.tgz:148977.got - 2010.06.27 13:26:56.
