data_PCOD8027108
_publ_section_title
;
Structure prediction by ZEFSAII (Michael W. Deem and Ramdas Pophale) SiO2 
 PCOD8027108
Probable space group: P -1
;
_chemical_formula_sum "Si O2"
_cell_formula_units_Z 16
_cell_length_a 12.141507
_cell_length_b 9.190457
_cell_length_c 17.630789
_cell_angle_alpha 126.221705
_cell_angle_beta 42.378376
_cell_angle_gamma 93.318758
_cell_volume 767.821983
_symmetry_space_group_name_H-M "P -1"
_symmetry_group_IT_number 2
_symmetry_cell_setting 'triclinic'
loop_
_space_group_symop_operation_xyz
x,y,z
-x,-y,-z
loop_
_atom_site_type_symbol
_atom_site_label
_atom_site_fract_x
_atom_site_fract_y
_atom_site_fract_z
Si Si1 0.820943 0.388258 0.020395
Si Si2 0.110915 0.252709 0.101415
Si Si3 0.905412 0.387792 0.545432
Si Si4 0.767582 0.831903 0.155906
Si Si5 0.740719 0.500573 0.826004
Si Si6 0.226004 0.818255 0.166091
Si Si7 0.595882 0.607581 0.518742
Si Si8 0.450278 0.690638 0.788451
O O1 0.838182 0.251674 0.895400
O O2 0.074185 0.223636 0.872906
O O3 0.707614 0.667122 0.143592
O O4 0.664885 0.415655 0.172506
O O5 0.222103 0.359470 0.094634
O O6 0.858094 0.432118 0.315211
O O7 0.107060 0.223304 0.004211
O O8 0.256235 0.990128 0.990105
O O9 0.915499 0.377743 0.628727
O O10 0.641124 0.571961 0.717527
O O11 0.000000 0.500000 0.500000
O O12 0.050397 0.116772 0.351530
O O13 0.532800 0.122083 0.368375
O O14 0.798897 0.275726 0.773161
O O15 0.480053 0.700155 0.992304
O O16 0.500000 0.500000 0.500000
O O17 0.566869 0.617952 0.626020
#
# Coordination Sequence:
#
# PCOD8027108 Si02
#       8
#     2   2   2   2   2   2   2   2
#     4  11  22  46  67  95 135 170 216 273 324 377
#     4  11  23  44  68  96 133 173 215 266 331 386
#     4  12  26  41  65 102 130 169 221 269 319 387
#     4  10  24  44  67  98 131 170 219 270 319 392
#     4  11  24  45  67  95 129 176 215 266 331 385
#     4  11  25  44  69  93 134 176 213 268 330 387
#     4  11  24  42  67  96 130 175 215 263 330 385
#     4  11  25  40  65  97 133 167 216 271 317 388
#
# _framework density 20.838162000000001
#
# number of rings (size 3 to 8) (size 9 to 14) (size 15 to 20)
#    0.000    1.000    2.500    3.375    5.250    5.000 
#    0.000    1.875    0.000    0.000    0.000    0.000 
#    0.000    0.000    0.000    0.000    0.000    0.000 
#
# Total GULP energy -198500.682182 kJ/mol
# GULP energy per Si atom -12406.292636 kJ/mol
# Density = 2.079073 g / cm^3
# Si number density = 20.838162 Si / 1000 Ang^3
#
#
#
# Elastic Constant Matrix: (Units=GPa)
#
#
# Indices 1 2 3 4 5 6 
#
# 1 109.0350 28.9916 48.3259 14.0441 -1.3750 10.5716
# 2 28.9916 135.6442 71.0251 16.3420 -12.2350 13.4825
# 3 48.3259 71.0251 140.7805 18.7315 -7.4420 5.5417
# 4 14.0441 16.3420 18.7315 34.9085 1.0756 -3.3380
# 5 -1.3750 -12.2350 -7.4420 1.0756 26.5182 -0.1363
# 6 10.5716 13.4825 5.5417 -3.3380 -0.1363 31.9710
#
#
#
# Elastic Compliance Matrix: (Units=1/GPa)
#
#
# Indices 1 2 3 4 5 6 
#
# 1 0.011405 0.000046 -0.003397 -0.003118 -0.000232 -0.003529
# 2 0.000046 0.011001 -0.004786 -0.003114 0.003840 -0.004134
# 3 -0.003397 -0.004786 0.010980 -0.002213 0.000792 0.001011
# 4 -0.003118 -0.003114 -0.002213 0.033246 -0.003536 0.006184
# 5 -0.000232 0.003840 0.000792 -0.003536 0.039826 -0.001879
# 6 -0.003529 -0.004134 0.001011 0.006184 -0.001879 0.034651
#
#
# Mechanical properties :
#
#
# Convention : Reuss Voigt Hill
#
# Bulk Modulus (GPa) = 58.43367 75.79389 67.11378
# Shear Modulus (GPa) = 30.65860 34.48733 32.57296
#
# Velocity S-wave (km/s) = 3.83988 4.07259 3.95795
# Velocity P-wave (km/s) = 6.91101 7.65286 7.29138
#
# Compressibility (1/GPa) = 0.01711342
#
# Stress axis : x y z
#
# Youngs Moduli (GPa) = 87.67739 90.90398 91.07144
#
# Poissons Ratio (x) = -0.00422 0.30938
# Poissons Ratio (y) = -0.00407 0.43585
# Poissons Ratio (z) = 0.29785 0.43505
#
# Static dielectric constant tensor:
#      x y z
#    x 4.107840 0.090290 -0.244570 
#    y 0.090290 4.074590 -0.120030 
#    z -0.244570 -0.120030 4.103260 
# 
# 
# High freq. dielectric constant tensor:
#      x y z
#    x 1.829010 -0.003140 0.001090 
#    y -0.003140 1.834570 0.000190 
#    z 0.001090 0.000190 1.813540 
# 
# From -- ./inp_files/49285.got.cif
#   From: 2010.06.25/outbox.cif.g09.slc.cpg/sg2_25_cif.got.tgz:49285.got - 2010.06.27 13:26:56.
