data_PCOD8027000
_publ_section_title
;
Structure prediction by ZEFSAII (Michael W. Deem and Ramdas Pophale) SiO2 
 PCOD8027000
Probable space group: P -1
;
_chemical_formula_sum "Si O2"
_cell_formula_units_Z 14
_cell_length_a 13.097139
_cell_length_b 19.519800
_cell_length_c 8.600058
_cell_angle_alpha 140.137470
_cell_angle_beta 113.054555
_cell_angle_gamma 36.294069
_cell_volume 668.277316
_symmetry_space_group_name_H-M "P -1"
_symmetry_group_IT_number 2
_symmetry_cell_setting 'triclinic'
loop_
_space_group_symop_operation_xyz
x,y,z
-x,-y,-z
loop_
_atom_site_type_symbol
_atom_site_label
_atom_site_fract_x
_atom_site_fract_y
_atom_site_fract_z
Si Si1 0.667361 0.302653 0.386426
Si Si2 0.857694 0.539359 0.085035
Si Si3 0.921112 0.810295 0.183383
Si Si4 0.785907 0.431401 0.613455
Si Si5 0.093414 0.038514 0.274545
Si Si6 0.311455 0.466613 0.604753
Si Si7 0.488341 0.120578 0.291115
O O1 0.624504 0.459276 0.564864
O O2 0.487725 0.414220 0.596028
O O3 0.694274 0.192591 0.071700
O O4 0.893082 0.119986 0.298919
O O5 0.682753 0.749673 0.445251
O O6 0.719810 0.572978 0.950487
O O7 0.000000 0.500000 0.000000
O O8 0.023364 0.341512 0.951199
O O9 0.863117 0.956837 0.517074
O O10 0.723037 0.953048 0.202220
O O11 0.130397 0.666669 0.955646
O O12 0.790713 0.479750 0.530461
O O13 0.025188 0.193903 0.391622
O O14 0.416208 0.273563 0.398634
O O15 0.500000 0.000000 0.000000
#
# Coordination Sequence:
#
# PCOD8027000 Si02
#       7
#     2   2   2   2   2   2   2
#     4   9  19  39  68  98 126 169 215 256 311 378
#     4  10  24  44  70  92 118 171 218 269 318 374
#     4  10  24  44  62  95 134 161 209 269 318 381
#     4   9  20  40  65  96 128 161 220 259 305 382
#     4   8  19  39  65  94 127 165 216 254 306 375
#     4  11  24  39  67  95 128 177 202 260 327 371
#     4  11  28  45  62  95 131 165 215 266 323 383
#
# _framework density 20.949387999999999
#
# number of rings (size 3 to 8) (size 9 to 14) (size 15 to 20)
#    0.857    1.429    0.000    0.429    8.000    3.429 
#    0.000    1.429    0.000    0.000    0.000    0.000 
#    0.000    0.000    0.000    0.000    0.000    0.000 
#
# Total GULP energy -173554.634327 kJ/mol
# GULP energy per Si atom -12396.759595 kJ/mol
# Density = 2.090171 g / cm^3
# Si number density = 20.949388 Si / 1000 Ang^3
#
#
#
# Elastic Constant Matrix: (Units=GPa)
#
#
# Indices 1 2 3 4 5 6 
#
# 1 133.8710 45.9522 73.6457 -9.5775 -16.8489 8.8218
# 2 45.9522 124.5852 61.5032 -15.8009 0.2182 4.2250
# 3 73.6457 61.5032 154.1641 -22.8249 -2.6925 -8.4440
# 4 -9.5775 -15.8009 -22.8249 33.1050 -7.1589 2.8801
# 5 -16.8489 0.2182 -2.6925 -7.1589 28.8939 -5.3241
# 6 8.8218 4.2250 -8.4440 2.8801 -5.3241 28.6165
#
#
#
# Elastic Compliance Matrix: (Units=1/GPa)
#
#
# Indices 1 2 3 4 5 6 
#
# 1 0.011845 -0.001693 -0.004969 0.000814 0.005950 -0.003843
# 2 -0.001693 0.010632 -0.003252 0.002285 -0.001260 -0.002472
# 3 -0.004969 -0.003252 0.011052 0.004229 0.000101 0.004867
# 4 0.000814 0.002285 0.004229 0.036655 0.009708 -0.001223
# 5 0.005950 -0.001260 0.000101 0.009708 0.041446 0.005115
# 6 -0.003843 -0.002472 0.004867 -0.001223 0.005115 0.039005
#
#
# Mechanical properties :
#
#
# Convention : Reuss Voigt Hill
#
# Bulk Modulus (GPa) = 72.98459 86.09143 79.53801
# Shear Modulus (GPa) = 28.56638 33.55770 31.06204
#
# Velocity S-wave (km/s) = 3.69669 4.00665 3.85479
# Velocity P-wave (km/s) = 7.28936 7.91129 7.60669
#
# Compressibility (1/GPa) = 0.01370152
#
# Stress axis : x y z
#
# Youngs Moduli (GPa) = 84.42401 94.05281 90.47877
#
# Poissons Ratio (x) = 0.15920 0.44961
# Poissons Ratio (y) = 0.14290 0.29425
# Poissons Ratio (z) = 0.41952 0.30587
#
# Static dielectric constant tensor:
#      x y z
#    x 3.551040 0.038310 0.040030 
#    y 0.038310 3.911300 0.000180 
#    z 0.040030 0.000180 3.910460 
# 
# 
# High freq. dielectric constant tensor:
#      x y z
#    x 1.800830 -0.002700 -0.001010 
#    y -0.002700 1.833610 0.002100 
#    z -0.001010 0.002100 1.828220 
# 
# From -- ./inp_files/277115.got.cif
#   From: 2010.06.25/outbox.cif.g09.slc.cpg/sg2_139_cif.got.tgz:277115.got - 2010.06.27 13:26:56.
