data_PCOD8027349
_publ_section_title
;
Structure prediction by ZEFSAII (Michael W. Deem and Ramdas Pophale) SiO2 
 PCOD8027349
Probable space group: P -1
;
_chemical_formula_sum "Si O2"
_cell_formula_units_Z 12
_cell_length_a 14.275361
_cell_length_b 7.204510
_cell_length_c 9.920308
_cell_angle_alpha 58.967672
_cell_angle_beta 36.147650
_cell_angle_gamma 75.213212
_cell_volume 488.809358
_symmetry_space_group_name_H-M "P -1"
_symmetry_group_IT_number 2
_symmetry_cell_setting 'triclinic'
loop_
_space_group_symop_operation_xyz
x,y,z
-x,-y,-z
loop_
_atom_site_type_symbol
_atom_site_label
_atom_site_fract_x
_atom_site_fract_y
_atom_site_fract_z
Si Si1 0.212437 0.931069 0.019179
Si Si2 0.670303 0.467942 0.937422
Si Si3 0.657736 0.155848 0.839467
Si Si4 0.178125 0.655277 0.682311
Si Si5 0.643715 0.663851 0.470448
Si Si6 0.840505 0.876997 0.413964
O O1 0.208757 0.670068 0.090464
O O2 0.357325 0.115212 0.696370
O O3 0.260223 0.985371 0.101526
O O4 0.040247 0.968446 0.162680
O O5 0.534638 0.462497 0.209733
O O6 0.589225 0.330829 0.944585
O O7 0.772240 0.728119 0.683875
O O8 0.807603 0.298251 0.513447
O O9 0.500000 0.000000 0.000000
O O10 0.311454 0.521353 0.609563
O O11 0.226827 0.905191 0.600642
O O12 0.000000 0.500000 0.000000
O O13 0.786611 0.735109 0.393604
#
# Coordination Sequence:
#
# PCOD8027349 Si02
#       6
#     2   2   2   2   2   2
#     4  10  24  45  75 107 144 191 237 296 367 417
#     4  10  24  44  77 104 143 196 234 296 365 413
#     4  10  24  48  72 104 144 183 247 290 356 431
#     4  12  27  44  72 107 142 196 240 281 371 423
#     4  12  23  47  73 110 149 184 241 294 356 436
#     4  12  24  46  76 104 151 190 232 304 352 434
#
# _framework density 24.549448999999999
#
# number of rings (size 3 to 8) (size 9 to 14) (size 15 to 20)
#    1.000    0.000    3.333    3.000    2.333    0.667 
#    0.000    0.833    0.000    0.000    0.000    0.000 
#    0.000    0.000    0.000    0.000    0.000    0.000 
#
# Total GULP energy -148709.426265 kJ/mol
# GULP energy per Si atom -12392.452189 kJ/mol
# Density = 2.449357 g / cm^3
# Si number density = 24.549449 Si / 1000 Ang^3
#
#
#
# Elastic Constant Matrix: (Units=GPa)
#
#
# Indices 1 2 3 4 5 6 
#
# 1 65.2473 2.4093 12.5262 -3.1839 4.6316 -7.8835
# 2 2.4093 139.4932 40.3147 -8.3453 -8.8944 -18.5754
# 3 12.5262 40.3147 188.4379 -11.2044 16.4786 -13.4858
# 4 -3.1839 -8.3453 -11.2044 49.4032 -16.1426 7.7852
# 5 4.6316 -8.8944 16.4786 -16.1426 29.1405 -8.2529
# 6 -7.8835 -18.5754 -13.4858 7.7852 -8.2529 23.6614
#
#
#
# Elastic Compliance Matrix: (Units=1/GPa)
#
#
# Indices 1 2 3 4 5 6 
#
# 1 0.016121 0.000621 -0.000790 -0.000008 -0.000441 0.005257
# 2 0.000621 0.009476 -0.001993 0.002350 0.007597 0.008387
# 3 -0.000790 -0.001993 0.006146 -0.000381 -0.004060 0.000384
# 4 -0.000008 0.002350 -0.000381 0.025601 0.014636 -0.001694
# 5 -0.000441 0.007597 -0.004060 0.014636 0.051861 0.016776
# 6 0.005257 0.008387 0.000384 -0.001694 0.016776 0.057226
#
#
# Mechanical properties :
#
#
# Convention : Reuss Voigt Hill
#
# Bulk Modulus (GPa) = 36.47092 55.96428 46.21760
# Shear Modulus (GPa) = 27.79418 42.96957 35.38188
#
# Velocity S-wave (km/s) = 3.36843 4.18823 3.80050
# Velocity P-wave (km/s) = 5.47875 6.79959 6.17459
#
# Compressibility (1/GPa) = 0.02741911
#
# Stress axis : x y z
#
# Youngs Moduli (GPa) = 62.02998 105.53054 162.71793
#
# Poissons Ratio (x) = -0.06558 0.12858
# Poissons Ratio (y) = -0.03855 0.32431
# Poissons Ratio (z) = 0.04902 0.21033
#
# Static dielectric constant tensor:
#      x y z
#    x 3.959000 -0.240420 0.362140 
#    y -0.240420 4.553000 -0.086930 
#    z 0.362140 -0.086930 4.623090 
# 
# 
# High freq. dielectric constant tensor:
#      x y z
#    x 1.933870 -0.021760 0.016950 
#    y -0.021760 1.982690 -0.010860 
#    z 0.016950 -0.010860 1.997410 
# 
# From -- ./inp_files/297559.got.cif
#   From: 2010.06.25/outbox.cif.g09.slc.cpg/sg2_149_cif.got.tgz:297559.got - 2010.06.27 13:26:56.
