data_PCOD8027026
_publ_section_title
;
Structure prediction by ZEFSAII (Michael W. Deem and Ramdas Pophale) SiO2 
 PCOD8027026
Probable space group: P -1
;
_chemical_formula_sum "Si O2"
_cell_formula_units_Z 16
_cell_length_a 14.417251
_cell_length_b 11.781380
_cell_length_c 14.174788
_cell_angle_alpha 32.176117
_cell_angle_beta 46.775153
_cell_angle_gamma 69.905685
_cell_volume 741.395525
_symmetry_space_group_name_H-M "P -1"
_symmetry_group_IT_number 2
_symmetry_cell_setting 'triclinic'
loop_
_space_group_symop_operation_xyz
x,y,z
-x,-y,-z
loop_
_atom_site_type_symbol
_atom_site_label
_atom_site_fract_x
_atom_site_fract_y
_atom_site_fract_z
Si Si1 0.443799 0.047377 0.601649
Si Si2 0.123266 0.232951 0.821650
Si Si3 0.859795 0.114968 0.798864
Si Si4 0.252341 0.094136 0.176882
Si Si5 0.946708 0.476690 0.198872
Si Si6 0.215720 0.537052 0.862509
Si Si7 0.389017 0.478792 0.320838
Si Si8 0.780737 0.416027 0.777579
O O1 0.596139 0.215973 0.446812
O O2 0.373419 0.208524 0.517836
O O3 0.500000 0.000000 0.500000
O O4 0.306411 0.763506 0.943398
O O5 0.045199 0.369719 0.821158
O O6 0.282451 0.459781 0.494665
O O7 0.170520 0.121434 0.949900
O O8 0.000000 0.000000 0.000000
O O9 0.799713 0.260177 0.793170
O O10 0.046619 0.321475 0.494650
O O11 0.752402 0.985422 0.872070
O O12 0.143185 0.836380 0.500141
O O13 0.189358 0.270901 0.105612
O O14 0.432347 0.256013 0.975169
O O15 0.853258 0.514572 0.157899
O O16 0.126162 0.607189 0.947113
O O17 0.322685 0.496134 0.255059
#
# Coordination Sequence:
#
# PCOD8027026 Si02
#       8
#     2   2   2   2   2   2   2   2
#     4  11  26  43  68  97 137 177 222 277 332 395
#     4  12  24  43  70 102 134 173 227 279 339 393
#     4  11  24  41  69 100 136 172 222 286 327 396
#     4  11  24  43  66 101 130 175 223 272 337 393
#     4  11  24  43  71  91 138 178 221 274 332 401
#     4  10  24  44  64  99 132 180 222 270 328 402
#     4  11  25  44  68  97 135 172 223 278 336 402
#     4  11  24  44  66  99 134 175 226 272 340 397
#
# _framework density 21.580922000000001
#
# number of rings (size 3 to 8) (size 9 to 14) (size 15 to 20)
#    0.000    1.000    3.750    1.875    5.250    4.000 
#    0.000    0.000    0.000    0.000    0.000    0.000 
#    0.000    0.000    0.000    0.000    0.000    0.000 
#
# Total GULP energy -198517.629262 kJ/mol
# GULP energy per Si atom -12407.351829 kJ/mol
# Density = 2.153180 g / cm^3
# Si number density = 21.580922 Si / 1000 Ang^3
#
#
#
# Elastic Constant Matrix: (Units=GPa)
#
#
# Indices 1 2 3 4 5 6 
#
# 1 90.2015 32.9477 41.2503 6.5027 8.4616 -15.7870
# 2 32.9477 99.8619 6.7852 4.3806 -3.2912 5.3992
# 3 41.2503 6.7852 93.1052 -0.7971 13.9657 0.1875
# 4 6.5027 4.3806 -0.7971 25.9161 -1.5920 5.6230
# 5 8.4616 -3.2912 13.9657 -1.5920 25.7007 -2.9963
# 6 -15.7870 5.3992 0.1875 5.6230 -2.9963 26.9035
#
#
#
# Elastic Compliance Matrix: (Units=1/GPa)
#
#
# Indices 1 2 3 4 5 6 
#
# 1 0.020877 -0.006842 -0.008576 -0.007733 -0.001808 0.015098
# 2 -0.006842 0.012521 0.001815 0.001211 0.002181 -0.006551
# 3 -0.008576 0.001815 0.015331 0.003449 -0.005863 -0.006878
# 4 -0.007733 0.001211 0.003449 0.043515 0.001927 -0.013685
# 5 -0.001808 0.002181 -0.005863 0.001927 0.043436 0.002977
# 6 0.015098 -0.006551 -0.006878 -0.013685 0.002977 0.050584
#
#
# Mechanical properties :
#
#
# Convention : Reuss Voigt Hill
#
# Bulk Modulus (GPa) = 46.46299 49.45945 47.96122
# Shear Modulus (GPa) = 22.66091 29.18310 25.92201
#
# Velocity S-wave (km/s) = 3.24395 3.68130 3.46953
# Velocity P-wave (km/s) = 5.96719 6.40603 6.19050
#
# Compressibility (1/GPa) = 0.02152250
#
# Stress axis : x y z
#
# Youngs Moduli (GPa) = 47.89942 79.86719 65.22821
#
# Poissons Ratio (x) = 0.54645 0.55942
# Poissons Ratio (y) = 0.32773 -0.11841
# Poissons Ratio (z) = 0.41080 -0.14498
#
# Static dielectric constant tensor:
#      x y z
#    x 3.983680 -0.176150 0.037860 
#    y -0.176150 3.972810 0.026940 
#    z 0.037860 0.026940 4.083980 
# 
# 
# High freq. dielectric constant tensor:
#      x y z
#    x 1.859220 -0.010280 0.004250 
#    y -0.010280 1.846630 -0.001530 
#    z 0.004250 -0.001530 1.852850 
# 
# From -- ./inp_files/400148.got.cif
#   From: 2010.06.25/outbox.cif.g09.slc.cpg/sg2_201_cif.got.tgz:400148.got - 2010.06.27 13:26:56.
