data_PCOD8027416
_publ_section_title
;
Structure prediction by ZEFSAII (Michael W. Deem and Ramdas Pophale) SiO2 
 PCOD8027416
Probable space group: P -1
;
_chemical_formula_sum "Si O2"
_cell_formula_units_Z 14
_cell_length_a 6.604025
_cell_length_b 8.947641
_cell_length_c 14.139428
_cell_angle_alpha 96.190001
_cell_angle_beta 85.561430
_cell_angle_gamma 131.318661
_cell_volume 623.825393
_symmetry_space_group_name_H-M "P -1"
_symmetry_group_IT_number 2
_symmetry_cell_setting 'triclinic'
loop_
_space_group_symop_operation_xyz
x,y,z
-x,-y,-z
loop_
_atom_site_type_symbol
_atom_site_label
_atom_site_fract_x
_atom_site_fract_y
_atom_site_fract_z
Si Si1 0.328963 0.773209 0.461084
Si Si2 0.732233 0.225758 0.895843
Si Si3 0.085588 0.417328 0.195330
Si Si4 0.134689 0.915107 0.957621
Si Si5 0.334959 0.662954 0.646069
Si Si6 0.174187 0.887479 0.307350
Si Si7 0.419387 0.366712 0.669293
O O1 0.180676 0.637343 0.552226
O O2 0.135352 0.735267 0.379257
O O3 0.521707 0.732857 0.416135
O O4 0.500000 0.000000 0.500000
O O5 0.871367 0.452911 0.886836
O O6 0.700783 0.123519 0.791177
O O7 0.442617 0.107411 0.943922
O O8 0.911942 0.223379 0.964164
O O9 0.364461 0.531064 0.247744
O O10 0.993789 0.212384 0.143113
O O11 0.848892 0.375363 0.263137
O O12 0.000000 0.000000 0.000000
O O13 0.416106 0.528618 0.633400
O O14 0.624143 0.886527 0.650151
O O15 0.879789 0.812883 0.291141
#
# Coordination Sequence:
#
# PCOD8027416 Si02
#       7
#     2   2   2   2   2   2   2
#     4  10  24  45  68 102 143 188 230 284 339 399
#     4  11  24  48  72 100 138 178 228 287 346 408
#     4  12  26  46  71 104 144 179 225 290 346 410
#     4  11  28  46  76 102 134 179 232 285 350 419
#     4  11  25  43  72  99 143 186 233 281 341 403
#     4  11  24  46  71  99 144 182 231 286 343 402
#     4  12  25  41  72 106 138 186 232 283 336 413
#
# _framework density 22.442177000000001
#
# number of rings (size 3 to 8) (size 9 to 14) (size 15 to 20)
#    0.000    0.857    4.286    0.857    4.000    8.571 
#    0.000    0.000    0.000    0.000    0.000    0.000 
#    0.000    0.000    0.000    0.000    0.000    0.000 
#
# Total GULP energy -173607.951977 kJ/mol
# GULP energy per Si atom -12400.567998 kJ/mol
# Density = 2.239110 g / cm^3
# Si number density = 22.442177 Si / 1000 Ang^3
#
#
#
# Elastic Constant Matrix: (Units=GPa)
#
#
# Indices 1 2 3 4 5 6 
#
# 1 148.3635 60.4504 57.1741 3.9597 -3.7582 -13.8932
# 2 60.4504 90.9487 38.9839 -1.5600 1.8756 -12.8213
# 3 57.1741 38.9839 117.1923 -6.5208 0.9015 -14.5260
# 4 3.9597 -1.5600 -6.5208 46.3604 -6.7403 -5.7637
# 5 -3.7582 1.8756 0.9015 -6.7403 35.7745 12.6401
# 6 -13.8932 -12.8213 -14.5260 -5.7637 12.6401 34.5712
#
#
#
# Elastic Compliance Matrix: (Units=1/GPa)
#
#
# Indices 1 2 3 4 5 6 
#
# 1 0.010312 -0.005484 -0.003281 -0.001347 0.001172 0.000079
# 2 -0.005484 0.016193 -0.002150 0.000826 -0.002628 0.003997
# 3 -0.003281 -0.002150 0.011410 0.002051 -0.001378 0.003524
# 4 -0.001347 0.000826 0.002051 0.022840 0.002871 0.003385
# 5 0.001172 -0.002628 -0.001378 0.002871 0.033305 -0.012781
# 6 0.000079 0.003997 0.003524 0.003385 -0.012781 0.037158
#
#
# Mechanical properties :
#
#
# Convention : Reuss Voigt Hill
#
# Bulk Modulus (GPa) = 62.16307 74.41347 68.28827
# Shear Modulus (GPa) = 31.56375 36.66763 34.11569
#
# Velocity S-wave (km/s) = 3.75433 4.04650 3.90315
# Velocity P-wave (km/s) = 6.82295 7.42038 7.12793
#
# Compressibility (1/GPa) = 0.01608672
#
# Stress axis : x y z
#
# Youngs Moduli (GPa) = 96.97550 61.75354 87.64059
#
# Poissons Ratio (x) = 0.33865 0.28753
# Poissons Ratio (y) = 0.53180 0.18841
# Poissons Ratio (z) = 0.31816 0.13276
#
# Static dielectric constant tensor:
#      x y z
#    x 4.009800 -0.117500 0.190410 
#    y -0.117500 4.215360 -0.076710 
#    z 0.190410 -0.076710 4.294090 
# 
# 
# High freq. dielectric constant tensor:
#      x y z
#    x 1.880960 -0.005050 0.003240 
#    y -0.005050 1.903270 0.002190 
#    z 0.003240 0.002190 1.896440 
# 
# From -- ./inp_files/48849.got.cif
#   From: 2010.06.25/outbox.cif.g09.slc.cpg/sg2_25_cif.got.tgz:48849.got - 2010.06.27 13:26:56.
