data_PCOD8027362
_publ_section_title
;
Structure prediction by ZEFSAII (Michael W. Deem and Ramdas Pophale) SiO2 
 PCOD8027362
Probable space group: P -1
;
_chemical_formula_sum "Si O2"
_cell_formula_units_Z 16
_cell_length_a 13.491027
_cell_length_b 10.718671
_cell_length_c 14.219635
_cell_angle_alpha 113.435808
_cell_angle_beta 136.401349
_cell_angle_gamma 35.569115
_cell_volume 724.935088
_symmetry_space_group_name_H-M "P -1"
_symmetry_group_IT_number 2
_symmetry_cell_setting 'triclinic'
loop_
_space_group_symop_operation_xyz
x,y,z
-x,-y,-z
loop_
_atom_site_type_symbol
_atom_site_label
_atom_site_fract_x
_atom_site_fract_y
_atom_site_fract_z
Si Si1 0.133326 0.357739 0.695380
Si Si2 0.680926 0.882202 0.860284
Si Si3 0.012244 0.568260 0.170555
Si Si4 0.227390 0.672993 0.404104
Si Si5 0.690976 0.510955 0.394446
Si Si6 0.235606 0.769432 0.795956
Si Si7 0.154484 0.018703 0.120525
Si Si8 0.226815 0.568533 0.883871
O O1 0.155157 0.503599 0.743221
O O2 0.131002 0.334668 0.799130
O O3 0.883279 0.489488 0.513103
O O4 0.376526 0.102047 0.732423
O O5 0.771691 0.716463 0.786006
O O6 0.757522 0.979792 0.917486
O O7 0.799782 0.733896 0.993599
O O8 0.154695 0.599451 0.272141
O O9 0.500000 0.500000 0.500000
O O10 0.241708 0.631722 0.511855
O O11 0.015129 0.956048 0.329328
O O12 0.702872 0.404632 0.281485
O O13 0.404640 0.796954 0.290611
O O14 0.189803 0.742370 0.859321
O O15 0.483933 0.674083 0.946732
O O16 0.972497 0.274657 0.119953
O O17 0.000000 0.000000 0.000000
#
# Coordination Sequence:
#
# PCOD8027362 Si02
#       8
#     2   2   2   2   2   2   2   2
#     4  11  24  46  68 103 138 179 227 287 342 414
#     4  11  24  43  74  96 141 181 228 284 343 412
#     4  10  24  45  64 106 132 183 230 276 347 409
#     4  11  25  43  67  97 141 178 228 288 343 407
#     4  11  26  45  68 101 136 180 229 282 353 411
#     4  11  24  43  67 102 134 185 230 276 351 405
#     4  12  25  45  70 103 137 179 235 283 342 415
#     4  11  24  43  72  99 138 179 230 288 335 413
#
# _framework density 22.07094
#
# number of rings (size 3 to 8) (size 9 to 14) (size 15 to 20)
#    0.000    1.000    2.500    3.000    7.000    3.500 
#    0.000    0.000    0.000    0.000    0.000    0.000 
#    0.000    0.000    0.000    0.000    0.000    0.000 
#
# Total GULP energy -198416.564382 kJ/mol
# GULP energy per Si atom -12401.035274 kJ/mol
# Density = 2.202071 g / cm^3
# Si number density = 22.070940 Si / 1000 Ang^3
#
#
#
# Elastic Constant Matrix: (Units=GPa)
#
#
# Indices 1 2 3 4 5 6 
#
# 1 74.5628 32.1192 31.7473 -15.3428 17.6753 -8.0738
# 2 32.1192 98.1009 40.2289 -16.0855 18.6393 -5.7654
# 3 31.7473 40.2289 116.3608 -16.2620 25.7116 -2.2950
# 4 -15.3428 -16.0855 -16.2620 49.2164 2.9160 3.2729
# 5 17.6753 18.6393 25.7116 2.9160 43.0856 -0.9844
# 6 -8.0738 -5.7654 -2.2950 3.2729 -0.9844 33.8796
#
#
#
# Elastic Compliance Matrix: (Units=1/GPa)
#
#
# Indices 1 2 3 4 5 6 
#
# 1 0.018025 -0.003284 -0.002081 0.003946 -0.004929 0.003071
# 2 -0.003284 0.013429 -0.002703 0.002585 -0.003002 0.000983
# 3 -0.002081 -0.002703 0.011574 0.002631 -0.005075 -0.000574
# 4 0.003946 0.002585 0.002631 0.023674 -0.005930 -0.000901
# 5 -0.004929 -0.003002 -0.005075 -0.005930 0.029947 -0.000586
# 6 0.003071 0.000983 -0.000574 -0.000901 -0.000586 0.030447
#
#
# Mechanical properties :
#
#
# Convention : Reuss Voigt Hill
#
# Bulk Modulus (GPa) = 37.18630 55.24614 46.21622
# Shear Modulus (GPa) = 32.85234 37.56493 35.20864
#
# Velocity S-wave (km/s) = 3.86228 4.13002 3.99839
# Velocity P-wave (km/s) = 6.06422 6.91580 6.50396
#
# Compressibility (1/GPa) = 0.02689162
#
# Stress axis : x y z
#
# Youngs Moduli (GPa) = 55.47751 74.46493 86.40044
#
# Poissons Ratio (x) = 0.24455 0.17984
# Poissons Ratio (y) = 0.18220 0.23353
# Poissons Ratio (z) = 0.11547 0.20127
#
# Static dielectric constant tensor:
#      x y z
#    x 4.171510 -0.078050 0.055760 
#    y -0.078050 4.128780 0.058600 
#    z 0.055760 0.058600 4.058200 
# 
# 
# High freq. dielectric constant tensor:
#      x y z
#    x 1.882130 -0.003860 0.008150 
#    y -0.003860 1.876070 -0.000560 
#    z 0.008150 -0.000560 1.866150 
# 
# From -- ./inp_files/532628.got.cif
#   From: 2010.06.25/outbox.cif.g09.slc.cpg/sg2_267_cif.got.tgz:532628.got - 2010.06.27 13:26:56.
