data_PCOD8027372
_publ_section_title
;
Structure prediction by ZEFSAII (Michael W. Deem and Ramdas Pophale) SiO2 
 PCOD8027372
Probable space group: P -1
;
_chemical_formula_sum "Si O2"
_cell_formula_units_Z 16
_cell_length_a 14.924863
_cell_length_b 20.958617
_cell_length_c 9.043016
_cell_angle_alpha 57.799399
_cell_angle_beta 70.731576
_cell_angle_gamma 21.835307
_cell_volume 758.716319
_symmetry_space_group_name_H-M "P -1"
_symmetry_group_IT_number 2
_symmetry_cell_setting 'triclinic'
loop_
_space_group_symop_operation_xyz
x,y,z
-x,-y,-z
loop_
_atom_site_type_symbol
_atom_site_label
_atom_site_fract_x
_atom_site_fract_y
_atom_site_fract_z
Si Si1 0.323073 0.124188 0.705768
Si Si2 0.061645 0.614110 0.666697
Si Si3 0.912000 0.128670 0.771464
Si Si4 0.316829 0.284398 0.051964
Si Si5 0.644462 0.482414 0.566714
Si Si6 0.137201 0.594790 0.185889
Si Si7 0.603092 0.153295 0.314103
Si Si8 0.788183 0.892097 0.744210
O O1 0.205693 0.217053 0.487874
O O2 0.060152 0.313813 0.725961
O O3 0.530508 0.897227 0.893985
O O4 0.485521 0.079659 0.709951
O O5 0.181270 0.599827 0.545479
O O6 0.963935 0.704553 0.774408
O O7 0.302947 0.368849 0.849633
O O8 0.770514 0.304125 0.718750
O O9 0.684564 0.267810 0.605408
O O10 0.189223 0.944032 0.758636
O O11 0.000000 0.000000 0.000000
O O12 0.503308 0.162755 0.244906
O O13 0.000000 0.500000 0.000000
O O14 0.681847 0.486737 0.705477
O O15 0.337804 0.395993 0.219952
O O16 0.947258 0.787028 0.941813
O O17 0.758635 0.996085 0.559326
#
# Coordination Sequence:
#
# PCOD8027372 Si02
#       8
#     2   2   2   2   2   2   2   2
#     4  11  23  40  60  96 132 174 220 259 301 368
#     4  11  20  38  67  91 125 167 217 266 302 369
#     4  11  24  44  75  93 119 159 217 267 321 382
#     4  12  21  35  65  95 123 169 220 257 304 368
#     4  10  24  45  65  97 123 159 211 269 320 376
#     4  11  26  41  61  94 139 166 204 260 323 377
#     4  12  24  40  64  96 126 171 214 257 318 383
#     4  12  22  39  65  91 135 172 211 262 310 366
#
# _framework density 21.088249999999999
#
# number of rings (size 3 to 8) (size 9 to 14) (size 15 to 20)
#    0.000    0.750    5.000    3.000    0.000    4.000 
#    0.000    1.250    0.000    0.000    0.000    0.000 
#    0.000    0.000    0.000    0.000    0.000    0.000 
#
# Total GULP energy -198487.483214 kJ/mol
# GULP energy per Si atom -12405.467701 kJ/mol
# Density = 2.104025 g / cm^3
# Si number density = 21.088250 Si / 1000 Ang^3
#
#
#
# Elastic Constant Matrix: (Units=GPa)
#
#
# Indices 1 2 3 4 5 6 
#
# 1 87.5414 35.3969 52.5562 5.2550 7.0058 -21.2653
# 2 35.3969 104.8466 26.1812 -3.3986 8.0432 -19.3121
# 3 52.5562 26.1812 138.7397 8.1934 2.2207 -6.2822
# 4 5.2550 -3.3986 8.1934 26.0671 1.1382 -3.6649
# 5 7.0058 8.0432 2.2207 1.1382 42.3892 -3.5095
# 6 -21.2653 -19.3121 -6.2822 -3.6649 -3.5095 21.5805
#
#
#
# Elastic Compliance Matrix: (Units=1/GPa)
#
#
# Indices 1 2 3 4 5 6 
#
# 1 0.020132 -0.002173 -0.006479 -0.000029 -0.001267 0.015796
# 2 -0.002173 0.012502 -0.001329 0.003822 -0.001293 0.009099
# 3 -0.006479 -0.001329 0.009834 -0.002694 0.000458 -0.005094
# 4 -0.000029 0.003822 -0.002694 0.041080 -0.000901 0.009437
# 5 -0.001267 -0.001293 0.000458 -0.000901 0.024170 0.001506
# 6 0.015796 0.009099 -0.005094 0.009437 0.001506 0.070410
#
#
# Mechanical properties :
#
#
# Convention : Reuss Voigt Hill
#
# Bulk Modulus (GPa) = 44.43250 62.15514 53.29382
# Shear Modulus (GPa) = 24.32000 32.47358 28.39679
#
# Velocity S-wave (km/s) = 3.39964 3.92840 3.67354
# Velocity P-wave (km/s) = 6.04364 7.07914 6.58179
#
# Compressibility (1/GPa) = 0.02250605
#
# Stress axis : x y z
#
# Youngs Moduli (GPa) = 49.67304 79.98576 101.68878
#
# Poissons Ratio (x) = 0.17381 0.65882
# Poissons Ratio (y) = 0.10794 0.13515
# Poissons Ratio (z) = 0.32182 0.10631
#
# Static dielectric constant tensor:
#      x y z
#    x 3.783110 -0.117670 0.051340 
#    y -0.117670 3.694910 -0.108790 
#    z 0.051340 -0.108790 4.095210 
# 
# 
# High freq. dielectric constant tensor:
#      x y z
#    x 1.816530 -0.008420 0.001140 
#    y -0.008420 1.819580 -0.007190 
#    z 0.001140 -0.007190 1.845040 
# 
# From -- ./inp_files/201277.got.cif
#   From: 2010.06.25/outbox.cif.g09.slc.cpg/sg2_101_cif.got.tgz:201277.got - 2010.06.27 13:26:56.
