data_PCOD8027033
_publ_section_title
;
Structure prediction by ZEFSAII (Michael W. Deem and Ramdas Pophale) SiO2 
 PCOD8027033
Probable space group: P -1
;
_chemical_formula_sum "Si O2"
_cell_formula_units_Z 16
_cell_length_a 18.695895
_cell_length_b 5.210425
_cell_length_c 7.657278
_cell_angle_alpha 90.676327
_cell_angle_beta 117.764321
_cell_angle_gamma 80.005773
_cell_volume 647.986230
_symmetry_space_group_name_H-M "P -1"
_symmetry_group_IT_number 2
_symmetry_cell_setting 'triclinic'
loop_
_space_group_symop_operation_xyz
x,y,z
-x,-y,-z
loop_
_atom_site_type_symbol
_atom_site_label
_atom_site_fract_x
_atom_site_fract_y
_atom_site_fract_z
Si Si1 0.076458 0.548775 0.480220
Si Si2 0.164605 0.988272 0.546864
Si Si3 0.609107 0.843893 0.273403
Si Si4 0.918909 0.200665 0.854759
Si Si5 0.321175 0.983850 0.309576
Si Si6 0.701032 0.414332 0.168493
Si Si7 0.227011 0.531888 0.102520
Si Si8 0.568076 0.165247 0.881567
O O1 0.146460 0.289758 0.582583
O O2 0.053873 0.590205 0.248467
O O3 0.000000 0.500000 0.500000
O O4 0.890716 0.193738 0.412717
O O5 0.145562 0.953024 0.319287
O O6 0.259004 0.871549 0.707003
O O7 0.638288 0.029326 0.452826
O O8 0.685718 0.608843 0.317335
O O9 0.529568 0.735781 0.257642
O O10 0.582958 0.980970 0.063590
O O11 0.869469 0.353946 0.962615
O O12 0.000000 0.000000 0.000000
O O13 0.252847 0.248043 0.216829
O O14 0.282841 0.727249 0.241812
O O15 0.391682 0.989182 0.244576
O O16 0.762854 0.496606 0.095350
O O17 0.613574 0.407595 0.975536
#
# Coordination Sequence:
#
# PCOD8027033 Si02
#       8
#     2   2   2   2   2   2   2   2
#     4  10  24  44  68 101 135 174 237 283 354 427
#     4  10  25  41  70  98 133 185 234 275 358 419
#     4  11  23  42  73  99 141 190 231 295 355 424
#     4  10  26  45  69 103 140 183 233 296 355 422
#     4  11  25  47  71 102 143 189 235 292 352 423
#     4  11  24  43  70  99 144 184 238 296 351 422
#     4  11  26  45  68 104 141 182 241 293 352 423
#     4  10  24  44  65 109 140 181 240 291 356 420
#
# _framework density 24.691883000000001
#
# number of rings (size 3 to 8) (size 9 to 14) (size 15 to 20)
#    0.750    0.750    1.250    1.875    8.750    0.500 
#    0.000    1.875    0.000    0.000    0.000    0.000 
#    0.000    0.000    0.000    0.000    0.000    0.000 
#
# Total GULP energy -198301.850481 kJ/mol
# GULP energy per Si atom -12393.865655 kJ/mol
# Density = 2.463568 g / cm^3
# Si number density = 24.691883 Si / 1000 Ang^3
#
#
#
# Elastic Constant Matrix: (Units=GPa)
#
#
# Indices 1 2 3 4 5 6 
#
# 1 123.1293 31.6220 30.9658 2.4806 -17.9303 -32.1632
# 2 31.6220 105.8190 26.0372 -5.5167 -9.9584 -12.5707
# 3 30.9658 26.0372 72.7128 7.9411 -2.3285 -14.4790
# 4 2.4806 -5.5167 7.9411 35.3032 -5.2407 -1.7547
# 5 -17.9303 -9.9584 -2.3285 -5.2407 29.7345 1.4577
# 6 -32.1632 -12.5707 -14.4790 -1.7547 1.4577 46.7017
#
#
#
# Elastic Compliance Matrix: (Units=1/GPa)
#
#
# Indices 1 2 3 4 5 6 
#
# 1 0.011913 -0.001343 -0.003158 0.000935 0.006323 0.006702
# 2 -0.001343 0.011309 -0.003513 0.003181 0.003211 0.001049
# 3 -0.003158 -0.003513 0.017182 -0.004477 -0.002628 0.002121
# 4 0.000935 0.003181 -0.004477 0.030805 0.006656 0.001062
# 5 0.006323 0.003211 -0.002628 0.006656 0.039319 0.003427
# 6 0.006702 0.001049 0.002121 0.001062 0.003427 0.026901
#
#
# Mechanical properties :
#
#
# Convention : Reuss Voigt Hill
#
# Bulk Modulus (GPa) = 41.02293 53.21234 47.11763
# Shear Modulus (GPa) = 30.94410 36.55028 33.74719
#
# Velocity S-wave (km/s) = 3.54391 3.85158 3.70094
# Velocity P-wave (km/s) = 5.77890 6.43249 6.11444
#
# Compressibility (1/GPa) = 0.02437661
#
# Stress axis : x y z
#
# Youngs Moduli (GPa) = 83.94115 88.42889 58.19892
#
# Poissons Ratio (x) = 0.11877 0.18377
# Poissons Ratio (y) = 0.11275 0.20445
# Poissons Ratio (z) = 0.26505 0.31065
#
# Static dielectric constant tensor:
#      x y z
#    x 4.755600 -0.329210 -0.029220 
#    y -0.329210 4.415610 0.002130 
#    z -0.029220 0.002130 4.337050 
# 
# 
# High freq. dielectric constant tensor:
#      x y z
#    x 1.993590 -0.006080 -0.004010 
#    y -0.006080 1.973980 0.001470 
#    z -0.004010 0.001470 1.972960 
# 
# From -- ./inp_files/340498.got.cif
#   From: 2010.06.25/outbox.cif.g09.slc.cpg/sg2_171_cif.got.tgz:340498.got - 2010.06.27 13:26:56.
