data_PCOD8027455
_publ_section_title
;
Structure prediction by ZEFSAII (Michael W. Deem and Ramdas Pophale) SiO2 
 PCOD8027455
Probable space group: P -1
;
_chemical_formula_sum "Si O2"
_cell_formula_units_Z 14
_cell_length_a 14.682842
_cell_length_b 8.437387
_cell_length_c 9.164383
_cell_angle_alpha 61.757983
_cell_angle_beta 83.797183
_cell_angle_gamma 42.423997
_cell_volume 616.634446
_symmetry_space_group_name_H-M "P -1"
_symmetry_group_IT_number 2
_symmetry_cell_setting 'triclinic'
loop_
_space_group_symop_operation_xyz
x,y,z
-x,-y,-z
loop_
_atom_site_type_symbol
_atom_site_label
_atom_site_fract_x
_atom_site_fract_y
_atom_site_fract_z
Si Si1 0.093351 0.203643 0.537304
Si Si2 0.317759 0.162050 0.105365
Si Si3 0.358153 0.349594 0.772014
Si Si4 0.829848 0.324022 0.893899
Si Si5 0.111214 0.203046 0.196684
Si Si6 0.646121 0.356728 0.106011
Si Si7 0.872422 0.230517 0.615828
O O1 0.106310 0.242447 0.352268
O O2 0.000000 0.500000 0.500000
O O3 0.016425 0.125683 0.597875
O O4 0.253234 0.948795 0.698426
O O5 0.206886 0.442980 0.107482
O O6 0.272359 0.022004 0.189734
O O7 0.489925 0.922386 0.223477
O O8 0.296869 0.262215 0.897447
O O9 0.396512 0.429669 0.859206
O O10 0.236897 0.612780 0.569799
O O11 0.787916 0.435635 0.684155
O O12 0.736085 0.302331 0.980011
O O13 0.000000 0.000000 0.000000
O O14 0.075952 0.051082 0.231615
O O15 0.000000 0.500000 0.000000
O O16 0.500000 0.500000 0.000000
#
# Coordination Sequence:
#
# PCOD8027455 Si02
#       7
#     2   2   2   2   2   2   2
#     4  12  27  46  73 110 149 192 250 303 376 447
#     4  10  24  45  69 103 149 189 248 294 373 448
#     4  10  24  48  73 102 146 197 243 304 372 447
#     4  11  23  44  72 104 146 191 239 303 367 433
#     4  12  26  40  72 108 141 189 246 306 367 435
#     4  11  26  46  74 104 151 195 242 304 377 440
#     4  12  25  44  76 104 148 189 247 309 371 436
#
# _framework density 22.703889
#
# number of rings (size 3 to 8) (size 9 to 14) (size 15 to 20)
#    0.000    0.857    2.857    3.000    6.000    5.714 
#    0.000    0.000    0.000    0.000    0.000    0.000 
#    0.000    0.000    0.000    0.000    0.000    0.000 
#
# Total GULP energy -173583.265508 kJ/mol
# GULP energy per Si atom -12398.804679 kJ/mol
# Density = 2.265221 g / cm^3
# Si number density = 22.703889 Si / 1000 Ang^3
#
#
#
# Elastic Constant Matrix: (Units=GPa)
#
#
# Indices 1 2 3 4 5 6 
#
# 1 147.2379 49.8598 68.2255 -1.7663 -9.4800 -18.1827
# 2 49.8598 111.9369 42.6262 -3.9501 1.6500 -19.2438
# 3 68.2255 42.6262 161.1476 0.5090 3.9698 -17.0996
# 4 -1.7663 -3.9501 0.5090 43.2028 -1.0182 -8.1433
# 5 -9.4800 1.6500 3.9698 -1.0182 45.3060 0.1571
# 6 -18.1827 -19.2438 -17.0996 -8.1433 0.1571 29.9002
#
#
#
# Elastic Compliance Matrix: (Units=1/GPa)
#
#
# Indices 1 2 3 4 5 6 
#
# 1 0.009636 -0.002662 -0.003170 0.000719 0.002398 0.002517
# 2 -0.002662 0.011696 -0.001348 0.002030 -0.000839 0.005695
# 3 -0.003170 -0.001348 0.008134 -0.000030 -0.001334 0.001855
# 4 0.000719 0.002030 -0.000030 0.024984 0.000611 0.008527
# 5 0.002398 -0.000839 -0.001334 0.000611 0.022734 0.000203
# 6 0.002517 0.005695 0.001855 0.008527 0.000203 0.042022
#
#
# Mechanical properties :
#
#
# Convention : Reuss Voigt Hill
#
# Bulk Modulus (GPa) = 66.20124 82.41616 74.30870
# Shear Modulus (GPa) = 36.07467 40.98920 38.53194
#
# Velocity S-wave (km/s) = 3.99045 4.25359 4.12412
# Velocity P-wave (km/s) = 7.10306 7.77839 7.44838
#
# Compressibility (1/GPa) = 0.01510546
#
# Stress axis : x y z
#
# Youngs Moduli (GPa) = 103.77925 85.50022 122.94353
#
# Poissons Ratio (x) = 0.22764 0.38968
# Poissons Ratio (y) = 0.27630 0.16573
# Poissons Ratio (z) = 0.32894 0.11526
#
# Static dielectric constant tensor:
#      x y z
#    x 4.387200 -0.107130 -0.071430 
#    y -0.107130 4.374760 0.433370 
#    z -0.071430 0.433370 4.939740 
# 
# 
# High freq. dielectric constant tensor:
#      x y z
#    x 1.894210 -0.006600 -0.009680 
#    y -0.006600 1.900020 0.008900 
#    z -0.009680 0.008900 1.907080 
# 
# From -- ./inp_files/297622.got.cif
#   From: 2010.06.25/outbox.cif.g09.slc.cpg/sg2_149_cif.got.tgz:297622.got - 2010.06.27 13:26:56.
