data_PCOD8027797
_publ_section_title
;
Structure prediction by ZEFSAII (Michael W. Deem and Ramdas Pophale) SiO2 
 PCOD8027797
Probable space group: P -1
;
_chemical_formula_sum "Si O2"
_cell_formula_units_Z 16
_cell_length_a 8.347897
_cell_length_b 8.294015
_cell_length_c 19.165937
_cell_angle_alpha 135.709251
_cell_angle_beta 63.752469
_cell_angle_gamma 127.929297
_cell_volume 730.904287
_symmetry_space_group_name_H-M "P -1"
_symmetry_group_IT_number 2
_symmetry_cell_setting 'triclinic'
loop_
_space_group_symop_operation_xyz
x,y,z
-x,-y,-z
loop_
_atom_site_type_symbol
_atom_site_label
_atom_site_fract_x
_atom_site_fract_y
_atom_site_fract_z
Si Si1 0.775052 0.665149 0.879879
Si Si2 0.222063 0.913366 0.900129
Si Si3 0.909054 0.043727 0.330199
Si Si4 0.597568 0.912846 0.225333
Si Si5 0.324058 0.469744 0.729392
Si Si6 0.365925 0.568663 0.597179
Si Si7 0.947001 0.200541 0.527064
Si Si8 0.244862 0.455578 0.302738
O O1 0.595860 0.370107 0.828876
O O2 0.839696 0.724589 0.805337
O O3 0.980912 0.719096 0.897473
O O4 0.697801 0.862287 0.986445
O O5 0.344426 0.749964 0.832902
O O6 0.266956 0.050482 0.857987
O O7 0.734564 0.987307 0.290642
O O8 0.879971 0.751423 0.261270
O O9 0.867964 0.123413 0.439667
O O10 0.130899 0.260721 0.329121
O O11 0.515737 0.125809 0.309655
O O12 0.308208 0.406189 0.630262
O O13 0.516878 0.444026 0.710058
O O14 0.500000 0.500000 0.500000
O O15 0.153940 0.480089 0.570180
O O16 0.787386 0.285180 0.618014
O O17 0.000000 0.000000 0.500000
#
# Coordination Sequence:
#
# PCOD8027797 Si02
#       8
#     2   2   2   2   2   2   2   2
#     4  11  23  43  77  94 131 180 218 284 334 394
#     4  10  24  47  69 102 131 169 230 275 337 402
#     4  12  24  42  67  97 139 177 218 275 327 396
#     4  11  23  43  69  99 134 176 223 275 334 399
#     4  11  25  43  67  97 138 175 218 280 332 395
#     4  11  24  42  64 100 134 176 230 270 324 403
#     4  12  26  43  67  94 137 181 221 271 327 394
#     4  12  25  44  67 100 135 177 222 273 331 391
#
# _framework density 21.890688999999998
#
# number of rings (size 3 to 8) (size 9 to 14) (size 15 to 20)
#    0.000    0.750    5.000    2.250    3.500    3.000 
#    0.000    0.625    0.000    0.000    0.000    0.000 
#    0.000    0.000    0.000    0.000    0.000    0.000 
#
# Total GULP energy -198213.616951 kJ/mol
# GULP energy per Si atom -12388.351059 kJ/mol
# Density = 2.184087 g / cm^3
# Si number density = 21.890689 Si / 1000 Ang^3
#
#
#
# Elastic Constant Matrix: (Units=GPa)
#
#
# Indices 1 2 3 4 5 6 
#
# 1 77.6923 14.6451 50.6592 8.1798 -5.6508 -1.2828
# 2 14.6451 113.9684 46.3445 11.0862 -2.9258 -7.1626
# 3 50.6592 46.3445 177.6053 -4.9763 -1.0557 -11.9559
# 4 8.1798 11.0862 -4.9763 32.7902 4.9058 9.8885
# 5 -5.6508 -2.9258 -1.0557 4.9058 36.9908 -0.9926
# 6 -1.2828 -7.1626 -11.9559 9.8885 -0.9926 33.0162
#
#
#
# Elastic Compliance Matrix: (Units=1/GPa)
#
#
# Indices 1 2 3 4 5 6 
#
# 1 0.016953 0.000605 -0.005085 -0.005950 0.003304 0.000830
# 2 0.000605 0.010610 -0.002884 -0.005299 0.001630 0.002917
# 3 -0.005085 -0.002884 0.007989 0.003320 -0.001189 0.001040
# 4 -0.005950 -0.005299 0.003320 0.038911 -0.006717 -0.012034
# 5 0.003304 0.001630 -0.001189 -0.006717 0.028603 0.002923
# 6 0.000830 0.002917 0.001040 -0.012034 0.002923 0.035022
#
#
# Mechanical properties :
#
#
# Convention : Reuss Voigt Hill
#
# Bulk Modulus (GPa) = 48.01765 65.84040 56.92903
# Shear Modulus (GPa) = 31.29768 37.73392 34.51580
#
# Velocity S-wave (km/s) = 3.78527 4.15630 3.97512
# Velocity P-wave (km/s) = 6.40993 7.29214 6.86522
#
# Compressibility (1/GPa) = 0.02082567
#
# Stress axis : x y z
#
# Youngs Moduli (GPa) = 58.98601 94.25181 125.16949
#
# Poissons Ratio (x) = -0.05701 0.63645
# Poissons Ratio (y) = -0.03568 0.36093
# Poissons Ratio (z) = 0.29992 0.27178
#
# Static dielectric constant tensor:
#      x y z
#    x 3.835340 -0.095050 0.159760 
#    y -0.095050 4.226790 0.127580 
#    z 0.159760 0.127580 4.274740 
# 
# 
# High freq. dielectric constant tensor:
#      x y z
#    x 1.846120 0.001670 0.014270 
#    y 0.001670 1.869730 0.004850 
#    z 0.014270 0.004850 1.868960 
# 
# From -- ./inp_files/314388.got.cif
#   From: 2010.06.25/outbox.cif.g09.slc.cpg/sg2_158_cif.got.tgz:314388.got - 2010.06.27 13:26:56.
