data_PCOD8027626
_publ_section_title
;
Structure prediction by ZEFSAII (Michael W. Deem and Ramdas Pophale) SiO2 
 PCOD8027626
Probable space group: P -1
;
_chemical_formula_sum "Si O2"
_cell_formula_units_Z 12
_cell_length_a 6.392648
_cell_length_b 11.605488
_cell_length_c 8.427235
_cell_angle_alpha 63.414470
_cell_angle_beta 106.104908
_cell_angle_gamma 108.687068
_cell_volume 522.965534
_symmetry_space_group_name_H-M "P -1"
_symmetry_group_IT_number 2
_symmetry_cell_setting 'triclinic'
loop_
_space_group_symop_operation_xyz
x,y,z
-x,-y,-z
loop_
_atom_site_type_symbol
_atom_site_label
_atom_site_fract_x
_atom_site_fract_y
_atom_site_fract_z
Si Si1 0.812860 0.085847 0.387132
Si Si2 0.273005 0.511987 0.232367
Si Si3 0.986265 0.850143 0.120582
Si Si4 0.411965 0.859622 0.371158
Si Si5 0.048291 0.316364 0.067788
Si Si6 0.332615 0.322723 0.612209
O O1 0.731587 0.137470 0.502630
O O2 0.900761 0.217724 0.223456
O O3 0.599721 0.995264 0.309881
O O4 0.000000 0.000000 0.500000
O O5 0.211680 0.425148 0.434526
O O6 0.519592 0.603672 0.254763
O O7 0.258427 0.412286 0.140322
O O8 0.093834 0.598447 0.112035
O O9 0.849182 0.799942 0.281556
O O10 0.243175 0.840437 0.198590
O O11 0.863127 0.769592 0.993498
O O12 0.000000 0.000000 0.000000
O O13 0.525309 0.733876 0.458532
#
# Coordination Sequence:
#
# PCOD8027626 Si02
#       6
#     2   2   2   2   2   2
#     4  11  24  44  71  99 140 178 228 282 343 409
#     4  10  24  46  67  96 138 189 226 279 327 413
#     4  12  26  41  71 103 137 174 229 291 342 400
#     4  11  23  43  69  99 134 184 220 284 346 401
#     4  11  23  45  67 102 136 177 234 279 343 393
#     4  11  24  47  68  99 137 181 234 269 349 405
#
# _framework density 22.946061
#
# number of rings (size 3 to 8) (size 9 to 14) (size 15 to 20)
#    0.000    1.000    1.667    5.000    2.333    4.000 
#   12.000    0.000    0.000    0.000    0.000    0.000 
#    0.000    0.000    0.000    0.000    0.000    0.000 
#
# Total GULP energy -148744.816023 kJ/mol
# GULP energy per Si atom -12395.401335 kJ/mol
# Density = 2.289384 g / cm^3
# Si number density = 22.946061 Si / 1000 Ang^3
#
#
#
# Elastic Constant Matrix: (Units=GPa)
#
#
# Indices 1 2 3 4 5 6 
#
# 1 95.9620 52.1944 49.5595 -5.7906 -4.7204 -0.1381
# 2 52.1944 163.9199 58.9161 12.9046 3.4456 -3.5999
# 3 49.5595 58.9161 115.9750 -18.2243 14.7617 8.0369
# 4 -5.7906 12.9046 -18.2243 53.9610 6.3240 0.8433
# 5 -4.7204 3.4456 14.7617 6.3240 28.3790 4.5162
# 6 -0.1381 -3.5999 8.0369 0.8433 4.5162 33.4076
#
#
#
# Elastic Compliance Matrix: (Units=1/GPa)
#
#
# Indices 1 2 3 4 5 6 
#
# 1 0.015306 -0.002813 -0.005970 -0.000413 0.006023 0.000393
# 2 -0.002813 0.008840 -0.004208 -0.004012 0.001241 0.001887
# 3 -0.005970 -0.004208 0.015860 0.006917 -0.009773 -0.003147
# 4 -0.000413 -0.004012 0.006917 0.022745 -0.007995 -0.001591
# 5 0.006023 0.001241 -0.009773 -0.007995 0.043457 -0.003163
# 6 0.000393 0.001887 -0.003147 -0.001591 -0.003163 0.031363
#
#
# Mechanical properties :
#
#
# Convention : Reuss Voigt Hill
#
# Bulk Modulus (GPa) = 71.30783 77.46634 74.38709
# Shear Modulus (GPa) = 29.72161 37.49531 33.60846
#
# Velocity S-wave (km/s) = 3.60291 4.04674 3.83126
# Velocity P-wave (km/s) = 6.96072 7.46112 7.21526
#
# Compressibility (1/GPa) = 0.01402370
#
# Stress axis : x y z
#
# Youngs Moduli (GPa) = 65.33282 113.12423 63.05100
#
# Poissons Ratio (x) = 0.31826 0.37643
# Poissons Ratio (y) = 0.18380 0.26530
# Poissons Ratio (z) = 0.39006 0.47599
#
# Static dielectric constant tensor:
#      x y z
#    x 4.006120 0.114490 0.317910 
#    y 0.114490 4.683310 0.274660 
#    z 0.317910 0.274660 4.599070 
# 
# 
# High freq. dielectric constant tensor:
#      x y z
#    x 1.878520 0.005750 0.011970 
#    y 0.005750 1.941280 0.006610 
#    z 0.011970 0.006610 1.909940 
# 
# From -- ./inp_files/21673.got.cif
#   From: 2010.06.25/outbox.cif.g09.slc.cpg/sg2_11_cif.got.tgz:21673.got - 2010.06.27 13:26:56.
