data_PCOD8027600
_publ_section_title
;
Structure prediction by ZEFSAII (Michael W. Deem and Ramdas Pophale) SiO2 
 PCOD8027600
Probable space group: P -1
;
_chemical_formula_sum "Si O2"
_cell_formula_units_Z 16
_cell_length_a 15.592131
_cell_length_b 12.448322
_cell_length_c 15.282834
_cell_angle_alpha 47.540578
_cell_angle_beta 152.406577
_cell_angle_gamma 112.623731
_cell_volume 791.227734
_symmetry_space_group_name_H-M "P -1"
_symmetry_group_IT_number 2
_symmetry_cell_setting 'triclinic'
loop_
_space_group_symop_operation_xyz
x,y,z
-x,-y,-z
loop_
_atom_site_type_symbol
_atom_site_label
_atom_site_fract_x
_atom_site_fract_y
_atom_site_fract_z
Si Si1 0.008881 0.642372 0.377496
Si Si2 0.536736 0.951572 0.701479
Si Si3 0.398009 0.069143 0.710700
Si Si4 0.061216 0.423069 0.324553
Si Si5 0.905213 0.824811 0.355581
Si Si6 0.510567 0.764371 0.624232
Si Si7 0.356043 0.522487 0.614325
Si Si8 0.768458 0.152030 0.257621
O O1 0.260588 0.539982 0.616128
O O2 0.000000 0.500000 0.500000
O O3 0.964712 0.784646 0.330465
O O4 0.801507 0.757322 0.055425
O O5 0.422882 0.885269 0.569466
O O6 0.407756 0.043295 0.628039
O O7 0.545530 0.102325 0.579879
O O8 0.175339 0.276311 0.426920
O O9 0.383786 0.913343 0.820772
O O10 0.633795 0.019504 0.999004
O O11 0.087416 0.322354 0.495165
O O12 0.198203 0.511018 0.407563
O O13 0.787833 0.587446 0.968238
O O14 0.122878 0.823352 0.573822
O O15 0.356491 0.695272 0.502994
O O16 0.623144 0.331212 0.964453
O O17 0.000000 0.000000 0.500000
#
# Coordination Sequence:
#
# PCOD8027600 Si02
#       8
#     2   2   2   2   2   2   2   2
#     4  11  21  39  62  92 125 152 197 253 306 366
#     4  10  24  46  62  88 124 163 204 258 304 352
#     4  11  23  40  63  90 129 162 198 255 312 358
#     4  12  21  41  62  92 126 163 203 248 307 364
#     4  11  21  36  57  90 131 155 194 248 305 364
#     4  11  24  44  64  86 123 162 214 253 293 368
#     4  12  23  36  65  92 119 166 207 247 307 356
#     4  12  22  35  59  95 125 160 200 243 311 374
#
# _framework density 20.221738999999999
#
# number of rings (size 3 to 8) (size 9 to 14) (size 15 to 20)
#    0.000    0.750    6.250    1.875    1.750    1.500 
#    0.000    0.625    0.000    0.000    0.000    0.000 
#    0.000    0.000    0.000    0.000    0.000    0.000 
#
# Total GULP energy -198220.100715 kJ/mol
# GULP energy per Si atom -12388.756295 kJ/mol
# Density = 2.017571 g / cm^3
# Si number density = 20.221739 Si / 1000 Ang^3
#
#
#
# Elastic Constant Matrix: (Units=GPa)
#
#
# Indices 1 2 3 4 5 6 
#
# 1 70.0281 23.1085 30.4740 -15.4659 -3.1724 -1.2610
# 2 23.1085 123.0530 14.3359 -4.1835 -3.4263 11.5238
# 3 30.4740 14.3359 74.9130 -11.4642 -2.1110 6.2994
# 4 -15.4659 -4.1835 -11.4642 31.5666 2.4984 -1.9800
# 5 -3.1724 -3.4263 -2.1110 2.4984 28.4393 0.2835
# 6 -1.2610 11.5238 6.2994 -1.9800 0.2835 20.9558
#
#
#
# Elastic Compliance Matrix: (Units=1/GPa)
#
#
# Indices 1 2 3 4 5 6 
#
# 1 0.020081 -0.003241 -0.006910 0.007208 0.000646 0.005740
# 2 -0.003241 0.009243 -0.000100 -0.000802 0.000868 -0.005335
# 3 -0.006910 -0.000100 0.017000 0.002421 0.000319 -0.005246
# 4 0.007208 -0.000802 0.002421 0.036396 -0.002346 0.003618
# 5 0.000646 0.000868 0.000319 -0.002346 0.035581 -0.001238
# 6 0.005740 -0.005335 -0.005246 0.003618 -0.001238 0.052934
#
#
# Mechanical properties :
#
#
# Convention : Reuss Voigt Hill
#
# Bulk Modulus (GPa) = 38.72638 44.87011 41.79824
# Shear Modulus (GPa) = 24.95696 29.53072 27.24384
#
# Velocity S-wave (km/s) = 3.51688 3.82559 3.67448
# Velocity P-wave (km/s) = 5.97358 6.46148 6.22232
#
# Compressibility (1/GPa) = 0.02582219
#
# Stress axis : x y z
#
# Youngs Moduli (GPa) = 49.79843 108.18574 58.82516
#
# Poissons Ratio (x) = 0.35058 0.40648
# Poissons Ratio (y) = 0.16137 0.00590
# Poissons Ratio (z) = 0.34411 0.01086
#
# Static dielectric constant tensor:
#      x y z
#    x 34.300570 -20.879700 -2.650910 
#    y -20.879700 17.590840 1.743950 
#    z -2.650910 1.743950 3.861690 
# 
# 
# High freq. dielectric constant tensor:
#      x y z
#    x 1.779570 -0.014350 0.014990 
#    y -0.014350 1.798980 -0.000720 
#    z 0.014990 -0.000720 1.788280 
# 
# From -- ./inp_files/532362.got.cif
#   From: 2010.06.25/outbox.cif.g09.slc.cpg/sg2_267_cif.got.tgz:532362.got - 2010.06.27 13:26:56.
