data_PCOD8027710
_publ_section_title
;
Structure prediction by ZEFSAII (Michael W. Deem and Ramdas Pophale) SiO2 
 PCOD8027710
Probable space group: P -1
;
_chemical_formula_sum "Si O2"
_cell_formula_units_Z 12
_cell_length_a 8.562498
_cell_length_b 11.223891
_cell_length_c 12.266189
_cell_angle_alpha 38.377073
_cell_angle_beta 124.656253
_cell_angle_gamma 139.062357
_cell_volume 478.738528
_symmetry_space_group_name_H-M "P -1"
_symmetry_group_IT_number 2
_symmetry_cell_setting 'triclinic'
loop_
_space_group_symop_operation_xyz
x,y,z
-x,-y,-z
loop_
_atom_site_type_symbol
_atom_site_label
_atom_site_fract_x
_atom_site_fract_y
_atom_site_fract_z
Si Si1 0.006791 0.426901 0.217533
Si Si2 0.764489 0.627561 0.229298
Si Si3 0.240193 0.324016 0.566930
Si Si4 0.475719 0.798877 0.706880
Si Si5 0.237423 0.884581 0.854858
Si Si6 0.713683 0.011120 0.862708
O O1 0.068035 0.319924 0.415629
O O2 0.754079 0.363170 0.191767
O O3 0.969526 0.283848 0.194520
O O4 0.203266 0.715392 0.064963
O O5 0.773845 0.570334 0.400235
O O6 0.544231 0.390371 0.249595
O O7 0.706225 0.816522 0.071770
O O8 0.023306 0.731588 0.204136
O O9 0.500000 0.500000 0.500000
O O10 0.181309 0.063329 0.745398
O O11 0.695041 0.933250 0.782994
O O12 0.500000 0.000000 0.500000
O O13 0.505240 0.027770 0.807483
#
# Coordination Sequence:
#
# PCOD8027710 Si02
#       6
#     2   2   2   2   2   2
#     4  10  24  46  72 100 138 187 233 288 341 420
#     4  11  26  44  71 106 135 183 234 284 352 411
#     4  12  27  42  70 105 141 181 230 291 346 416
#     4  11  25  45  71 101 141 184 230 290 348 412
#     4  10  24  48  72 101 139 187 231 283 354 407
#     4  10  24  47  73  99 139 183 231 290 339 422
#
# _framework density 25.065874000000001
#
# number of rings (size 3 to 8) (size 9 to 14) (size 15 to 20)
#    0.000    1.333    0.000    3.000   11.667    2.667 
#   15.000    0.000    0.000    0.000    0.000    0.000 
#    0.000    0.000    0.000    0.000    0.000    0.000 
#
# Total GULP energy -148797.848594 kJ/mol
# GULP energy per Si atom -12399.820716 kJ/mol
# Density = 2.500882 g / cm^3
# Si number density = 25.065874 Si / 1000 Ang^3
#
#
#
# Elastic Constant Matrix: (Units=GPa)
#
#
# Indices 1 2 3 4 5 6 
#
# 1 36.4049 -14.6138 10.5561 1.7678 -4.0133 -8.9584
# 2 -14.6138 75.9444 17.1635 9.1356 2.2846 -16.3052
# 3 10.5561 17.1635 110.9503 10.2772 -4.2015 -13.6657
# 4 1.7678 9.1356 10.2772 49.3635 0.4555 -0.1183
# 5 -4.0133 2.2846 -4.2015 0.4555 36.1835 2.8392
# 6 -8.9584 -16.3052 -13.6657 -0.1183 2.8392 35.2916
#
#
#
# Elastic Compliance Matrix: (Units=1/GPa)
#
#
# Indices 1 2 3 4 5 6 
#
# 1 0.036144 0.010655 -0.003209 -0.002586 0.002001 0.012685
# 2 0.010655 0.018393 -0.002317 -0.003269 -0.001022 0.010377
# 3 -0.003209 -0.002317 0.010093 -0.001561 0.000829 0.001951
# 4 -0.002586 -0.003269 -0.001561 0.021277 -0.000320 -0.002674
# 5 0.002001 -0.001022 0.000829 -0.000320 0.028174 -0.001911
# 6 0.012685 0.010377 0.001951 -0.002674 -0.001911 0.037250
#
#
# Mechanical properties :
#
#
# Convention : Reuss Voigt Hill
#
# Bulk Modulus (GPa) = 13.35333 27.72348 20.53841
# Shear Modulus (GPa) = 30.11392 38.18064 34.14728
#
# Velocity S-wave (km/s) = 3.46987 3.90707 3.69494
# Velocity P-wave (km/s) = 4.62517 5.60695 5.13955
#
# Compressibility (1/GPa) = 0.07488770
#
# Stress axis : x y z
#
# Youngs Moduli (GPa) = 27.66696 54.36781 99.07782
#
# Poissons Ratio (x) = -0.57928 0.31798
# Poissons Ratio (y) = -0.29479 0.22955
# Poissons Ratio (z) = 0.08879 0.12596
#
# Static dielectric constant tensor:
#      x y z
#    x 4.425250 -0.315190 -0.112070 
#    y -0.315190 4.947030 -0.075100 
#    z -0.112070 -0.075100 4.408450 
# 
# 
# High freq. dielectric constant tensor:
#      x y z
#    x 1.982200 -0.008810 -0.014530 
#    y -0.008810 2.015480 0.006160 
#    z -0.014530 0.006160 2.007860 
# 
# From -- ./inp_files/243589.got.cif
#   From: 2010.06.25/outbox.cif.g09.slc.cpg/sg2_122_cif.got.tgz:243589.got - 2010.06.27 13:26:56.
