data_PCOD8027226
_publ_section_title
;
Structure prediction by ZEFSAII (Michael W. Deem and Ramdas Pophale) SiO2 
 PCOD8027226
Probable space group: P -1
;
_chemical_formula_sum "Si O2"
_cell_formula_units_Z 16
_cell_length_a 14.936046
_cell_length_b 7.798232
_cell_length_c 14.766325
_cell_angle_alpha 98.478539
_cell_angle_beta 140.669954
_cell_angle_gamma 109.472653
_cell_volume 755.162960
_symmetry_space_group_name_H-M "P -1"
_symmetry_group_IT_number 2
_symmetry_cell_setting 'triclinic'
loop_
_space_group_symop_operation_xyz
x,y,z
-x,-y,-z
loop_
_atom_site_type_symbol
_atom_site_label
_atom_site_fract_x
_atom_site_fract_y
_atom_site_fract_z
Si Si1 0.895161 0.580913 0.461923
Si Si2 0.968375 0.738494 0.014592
Si Si3 0.937897 0.469812 0.805118
Si Si4 0.645882 0.720404 0.704893
Si Si5 0.289763 0.861879 0.993141
Si Si6 0.635665 0.276682 0.406697
Si Si7 0.261691 0.115289 0.838420
Si Si8 0.333463 0.555215 0.902152
O O1 0.806816 0.484497 0.486132
O O2 0.726679 0.497365 0.254546
O O3 0.000000 0.500000 0.500000
O O4 0.052988 0.874613 0.613573
O O5 0.978844 0.647009 0.111620
O O6 0.888987 0.535611 0.861086
O O7 0.790138 0.722385 0.877600
O O8 0.195249 0.010526 0.198163
O O9 0.737970 0.273085 0.572407
O O10 0.100753 0.727852 0.899448
O O11 0.500000 0.500000 0.500000
O O12 0.500825 0.684308 0.661407
O O13 0.491040 0.013591 0.222092
O O14 0.243956 0.646082 0.886340
O O15 0.317033 0.050545 0.964571
O O16 0.253511 0.312974 0.871939
O O17 0.424432 0.228424 0.894346
#
# Coordination Sequence:
#
# PCOD8027226 Si02
#       8
#     2   2   2   2   2   2   2   2
#     4  12  22  42  70  98 137 181 224 279 339 402
#     4  10  24  44  70  94 134 175 220 285 345 406
#     4  11  23  44  67  97 128 178 225 275 344 408
#     4  11  23  44  69 100 136 173 224 283 349 403
#     4  12  23  43  65  98 139 177 226 283 335 407
#     4  12  24  39  72  99 133 183 228 277 343 411
#     4  11  23  41  68  91 136 179 226 279 335 402
#     4  11  24  42  66  98 131 185 225 275 341 396
#
# _framework density 21.187480000000001
#
# number of rings (size 3 to 8) (size 9 to 14) (size 15 to 20)
#    0.000    0.750    6.250    1.500    0.000    2.500 
#    2.250    0.000    0.000    0.000    0.000    0.000 
#    0.000    0.000    0.000    0.000    0.000    0.000 
#
# Total GULP energy -198378.294413 kJ/mol
# GULP energy per Si atom -12398.643401 kJ/mol
# Density = 2.113926 g / cm^3
# Si number density = 21.187480 Si / 1000 Ang^3
#
#
#
# Elastic Constant Matrix: (Units=GPa)
#
#
# Indices 1 2 3 4 5 6 
#
# 1 97.9843 48.4580 34.0588 -7.4167 7.6929 5.2863
# 2 48.4580 133.9156 45.6980 -14.0325 -3.1742 -6.2469
# 3 34.0588 45.6980 128.0480 -3.2295 -13.5146 2.0860
# 4 -7.4167 -14.0325 -3.2295 35.2377 0.9373 5.3552
# 5 7.6929 -3.1742 -13.5146 0.9373 37.0132 1.3363
# 6 5.2863 -6.2469 2.0860 5.3552 1.3363 15.7199
#
#
#
# Elastic Compliance Matrix: (Units=1/GPa)
#
#
# Indices 1 2 3 4 5 6 
#
# 1 0.014071 -0.004450 -0.002419 0.002069 -0.004005 -0.006544
# 2 -0.004450 0.010413 -0.002491 0.002179 0.000666 0.005166
# 3 -0.002419 -0.002491 0.009772 -0.000459 0.003928 -0.001651
# 4 0.002069 0.002179 -0.000459 0.031233 -0.000829 -0.010338
# 5 -0.004005 0.000666 0.003928 -0.000829 0.029403 -0.001127
# 6 -0.006544 0.005166 -0.001651 -0.010338 -0.001127 0.071704
#
#
# Mechanical properties :
#
#
# Convention : Reuss Voigt Hill
#
# Bulk Modulus (GPa) = 64.36555 68.48642 66.42598
# Shear Modulus (GPa) = 26.24750 33.04303 29.64527
#
# Velocity S-wave (km/s) = 3.52351 3.95340 3.74463
# Velocity P-wave (km/s) = 6.85554 7.29612 7.07926
#
# Compressibility (1/GPa) = 0.01553626
#
# Stress axis : x y z
#
# Youngs Moduli (GPa) = 71.06746 96.03523 102.33349
#
# Poissons Ratio (x) = 0.42733 0.24751
# Poissons Ratio (y) = 0.31623 0.25496
# Poissons Ratio (z) = 0.17189 0.23927
#
# Static dielectric constant tensor:
#      x y z
#    x 3.703240 0.002230 -0.052720 
#    y 0.002230 3.867680 -0.024140 
#    z -0.052720 -0.024140 4.111310 
# 
# 
# High freq. dielectric constant tensor:
#      x y z
#    x 1.821780 0.001890 0.001080 
#    y 0.001890 1.825230 0.001200 
#    z 0.001080 0.001200 1.851790 
# 
# From -- ./inp_files/529923.got.cif
#   From: 2010.06.25/outbox.cif.g09.slc.cpg/sg2_265_cif.got.tgz:529923.got - 2010.06.27 13:26:56.
