data_PCOD8027184
_publ_section_title
;
Structure prediction by ZEFSAII (Michael W. Deem and Ramdas Pophale) SiO2 
 PCOD8027184
Probable space group: P -1
;
_chemical_formula_sum "Si O2"
_cell_formula_units_Z 14
_cell_length_a 8.692417
_cell_length_b 23.290341
_cell_length_c 17.816918
_cell_angle_alpha 20.246363
_cell_angle_beta 44.736852
_cell_angle_gamma 34.464784
_cell_volume 668.598982
_symmetry_space_group_name_H-M "P -1"
_symmetry_group_IT_number 2
_symmetry_cell_setting 'triclinic'
loop_
_space_group_symop_operation_xyz
x,y,z
-x,-y,-z
loop_
_atom_site_type_symbol
_atom_site_label
_atom_site_fract_x
_atom_site_fract_y
_atom_site_fract_z
Si Si1 0.347001 0.424750 0.108089
Si Si2 0.699979 0.670095 0.032969
Si Si3 0.347170 0.042929 0.423281
Si Si4 0.298236 0.599852 0.756108
Si Si5 0.633599 0.757198 0.233899
Si Si6 0.276266 0.348902 0.503645
Si Si7 0.695219 0.065184 0.015347
O O1 0.522167 0.187469 0.373162
O O2 0.500000 0.500000 0.000000
O O3 0.377388 0.424125 0.007685
O O4 0.017838 0.569527 0.069977
O O5 0.573702 0.854819 0.788240
O O6 0.501470 0.773197 0.047620
O O7 0.699411 0.487735 0.219102
O O8 0.013021 0.179735 0.385632
O O9 0.500000 0.000000 0.500000
O O10 0.504298 0.659034 0.615411
O O11 0.621092 0.661270 0.433857
O O12 0.968024 0.585957 0.303560
O O13 0.441050 0.788213 0.193171
O O14 0.500000 0.000000 0.000000
O O15 0.279451 0.148824 0.731949
O O16 0.000000 0.000000 0.000000
#
# Coordination Sequence:
#
# PCOD8027184 Si02
#       7
#     2   2   2   2   2   2   2
#     4  11  25  41  67  98 135 171 216 271 323 389
#     4  11  25  42  64  99 133 172 222 263 326 397
#     4  11  21  44  65  94 133 177 211 260 327 390
#     4  11  24  41  68  98 130 170 222 262 326 403
#     4   9  22  45  66  88 130 168 224 271 325 387
#     4  10  24  44  69  96 127 176 224 271 333 390
#     4  11  27  45  66  98 136 171 223 277 330 391
#
# _framework density 20.939308
#
# number of rings (size 3 to 8) (size 9 to 14) (size 15 to 20)
#    0.000    1.429    2.857    0.857   12.000    4.000 
#    0.000    0.000    0.000    0.000    0.000    0.000 
#    0.000    0.000    0.000    0.000    0.000    0.000 
#
# Total GULP energy -173512.018757 kJ/mol
# GULP energy per Si atom -12393.715626 kJ/mol
# Density = 2.089165 g / cm^3
# Si number density = 20.939308 Si / 1000 Ang^3
#
#
#
# Elastic Constant Matrix: (Units=GPa)
#
#
# Indices 1 2 3 4 5 6 
#
# 1 121.0656 55.2831 32.4126 -5.4520 8.7160 -8.8921
# 2 55.2831 127.4980 28.8442 6.0079 5.6185 -5.0093
# 3 32.4126 28.8442 86.0064 -9.3122 9.2625 -14.6588
# 4 -5.4520 6.0079 -9.3122 26.0198 -5.7633 -6.3521
# 5 8.7160 5.6185 9.2625 -5.7633 37.4129 0.4484
# 6 -8.8921 -5.0093 -14.6588 -6.3521 0.4484 35.6310
#
#
#
# Elastic Compliance Matrix: (Units=1/GPa)
#
#
# Indices 1 2 3 4 5 6 
#
# 1 0.011140 -0.004398 -0.001983 0.002870 -0.001024 0.001870
# 2 -0.004398 0.010529 -0.002584 -0.004791 -0.000637 -0.001527
# 3 -0.001983 -0.002584 0.015339 0.006871 -0.001969 0.006702
# 4 0.002870 -0.004791 0.006871 0.046498 0.005380 0.011091
# 5 -0.001024 -0.000637 -0.001969 0.005380 0.028386 -0.000553
# 6 0.001870 -0.001527 0.006702 0.011091 -0.000553 0.033059
#
#
# Mechanical properties :
#
#
# Convention : Reuss Voigt Hill
#
# Bulk Modulus (GPa) = 52.41927 63.07221 57.74574
# Shear Modulus (GPa) = 29.54380 34.34807 31.94594
#
# Velocity S-wave (km/s) = 3.76030 4.05453 3.91019
# Velocity P-wave (km/s) = 6.62883 7.21844 6.92991
#
# Compressibility (1/GPa) = 0.01907695
#
# Stress axis : x y z
#
# Youngs Moduli (GPa) = 89.76966 94.97887 65.19157
#
# Poissons Ratio (x) = 0.41772 0.12930
# Poissons Ratio (y) = 0.39481 0.16845
# Poissons Ratio (z) = 0.17805 0.24542
#
# Static dielectric constant tensor:
#      x y z
#    x 4.294320 0.185510 0.333400 
#    y 0.185510 3.735490 -0.008290 
#    z 0.333400 -0.008290 3.510610 
# 
# 
# High freq. dielectric constant tensor:
#      x y z
#    x 1.827000 0.003210 0.009110 
#    y 0.003210 1.819900 -0.011010 
#    z 0.009110 -0.011010 1.826150 
# 
# From -- ./inp_files/35925.got.cif
#   From: 2010.06.25/outbox.cif.g09.slc.cpg/sg2_18_cif.got.tgz:35925.got - 2010.06.27 13:26:56.
