data_PCOD8027359
_publ_section_title
;
Structure prediction by ZEFSAII (Michael W. Deem and Ramdas Pophale) SiO2 
 PCOD8027359
Probable space group: P -1
;
_chemical_formula_sum "Si O2"
_cell_formula_units_Z 10
_cell_length_a 5.202038
_cell_length_b 14.607161
_cell_length_c 11.319136
_cell_angle_alpha 148.933751
_cell_angle_beta 63.260971
_cell_angle_gamma 116.198626
_cell_volume 393.431395
_symmetry_space_group_name_H-M "P -1"
_symmetry_group_IT_number 2
_symmetry_cell_setting 'triclinic'
loop_
_space_group_symop_operation_xyz
x,y,z
-x,-y,-z
loop_
_atom_site_type_symbol
_atom_site_label
_atom_site_fract_x
_atom_site_fract_y
_atom_site_fract_z
Si Si1 0.624848 0.059297 0.169224
Si Si2 0.862006 0.084081 0.733495
Si Si3 0.224480 0.534180 0.886855
Si Si4 0.156914 0.570532 0.369095
Si Si5 0.978695 0.802199 0.937018
O O1 0.842324 0.238416 0.357883
O O2 0.341826 0.067700 0.318675
O O3 0.767343 0.884016 0.981235
O O4 0.679609 0.101057 0.057898
O O5 0.099316 0.156909 0.864509
O O6 0.699617 0.251824 0.912914
O O7 0.000000 0.000000 0.500000
O O8 0.520042 0.456061 0.772410
O O9 0.075636 0.434711 0.693723
O O10 0.000000 0.500000 0.000000
O O11 0.052599 0.411052 0.307238
#
# Coordination Sequence:
#
# PCOD8027359 Si02
#       5
#     2   2   2   2   2
#     4  11  23  43  71  95 134 180 223 283 340 403
#     4  11  24  42  68  98 137 178 227 281 339 405
#     4  11  24  44  64 101 141 178 225 283 336 411
#     4  11  24  44  68 100 134 179 229 278 342 401
#     4  10  24  45  64 102 133 175 229 280 337 407
#
# _framework density 25.417394000000002
#
# number of rings (size 3 to 8) (size 9 to 14) (size 15 to 20)
#    0.000    1.200    2.000    3.000    5.600    2.400 
#    0.000    3.000    0.000    0.000    0.000    0.000 
#    0.000    0.000    0.000    0.000    0.000    0.000 
#
# Total GULP energy -123890.834327 kJ/mol
# GULP energy per Si atom -12389.083433 kJ/mol
# Density = 2.535954 g / cm^3
# Si number density = 25.417394 Si / 1000 Ang^3
#
#
#
# Elastic Constant Matrix: (Units=GPa)
#
#
# Indices 1 2 3 4 5 6 
#
# 1 70.8998 19.0490 2.9207 -5.3092 -6.1282 4.9602
# 2 19.0490 174.7873 53.9529 -8.4487 17.7244 14.6010
# 3 2.9207 53.9529 103.4860 -19.7528 4.1768 -8.4676
# 4 -5.3092 -8.4487 -19.7528 46.4690 -1.8431 -3.5838
# 5 -6.1282 17.7244 4.1768 -1.8431 20.9145 -6.2436
# 6 4.9602 14.6010 -8.4676 -3.5838 -6.2436 42.0671
#
#
#
# Elastic Compliance Matrix: (Units=1/GPa)
#
#
# Indices 1 2 3 4 5 6 
#
# 1 0.015496 -0.002682 0.001121 0.002076 0.006932 0.000535
# 2 -0.002682 0.008774 -0.004852 -0.001526 -0.008928 -0.005161
# 3 0.001121 -0.004852 0.013500 0.005545 0.003818 0.005308
# 4 0.002076 -0.001526 0.005545 0.024317 0.004158 0.004090
# 5 0.006932 -0.008928 0.003818 0.004158 0.060721 0.012416
# 6 0.000535 -0.005161 0.005308 0.004090 0.012416 0.028759
#
#
# Mechanical properties :
#
#
# Convention : Reuss Voigt Hill
#
# Bulk Modulus (GPa) = 40.08971 55.66869 47.87920
# Shear Modulus (GPa) = 28.95068 40.10682 34.52875
#
# Velocity S-wave (km/s) = 3.37858 3.97662 3.68974
# Velocity P-wave (km/s) = 5.57015 6.56004 6.08525
#
# Compressibility (1/GPa) = 0.02494406
#
# Stress axis : x y z
#
# Youngs Moduli (GPa) = 64.53239 113.97501 74.07597
#
# Poissons Ratio (x) = 0.30572 -0.08306
# Poissons Ratio (y) = 0.17310 0.35940
# Poissons Ratio (z) = -0.07236 0.55298
#
# Static dielectric constant tensor:
#      x y z
#    x 4.609500 0.401900 0.439580 
#    y 0.401900 5.565570 0.177340 
#    z 0.439580 0.177340 4.605520 
# 
# 
# High freq. dielectric constant tensor:
#      x y z
#    x 2.006510 0.011190 0.021150 
#    y 0.011190 2.052390 0.005110 
#    z 0.021150 0.005110 2.024960 
# 
# From -- ./inp_files/15112.got.cif
#   From: 2010.06.25/outbox.cif.g09.slc.cpg/sg2_8_cif.got.tgz:15112.got - 2010.06.27 13:26:56.
