data_PCOD8027641
_publ_section_title
;
Structure prediction by ZEFSAII (Michael W. Deem and Ramdas Pophale) SiO2 
 PCOD8027641
Probable space group: P -1
;
_chemical_formula_sum "Si O2"
_cell_formula_units_Z 14
_cell_length_a 9.187041
_cell_length_b 11.208320
_cell_length_c 9.073612
_cell_angle_alpha 87.524885
_cell_angle_beta 47.316583
_cell_angle_gamma 95.943452
_cell_volume 674.873765
_symmetry_space_group_name_H-M "P -1"
_symmetry_group_IT_number 2
_symmetry_cell_setting 'triclinic'
loop_
_space_group_symop_operation_xyz
x,y,z
-x,-y,-z
loop_
_atom_site_type_symbol
_atom_site_label
_atom_site_fract_x
_atom_site_fract_y
_atom_site_fract_z
Si Si1 0.634062 0.804819 0.929100
Si Si2 0.925891 0.867662 0.988023
Si Si3 0.754223 0.356167 0.667647
Si Si4 0.693827 0.785697 0.421784
Si Si5 0.780015 0.981158 0.583746
Si Si6 0.277091 0.797193 0.567543
Si Si7 0.791776 0.629844 0.613511
O O1 0.755320 0.869787 0.981629
O O2 0.617825 0.909145 0.813758
O O3 0.757127 0.708808 0.775850
O O4 0.411425 0.738870 0.127351
O O5 0.104206 0.809779 0.800481
O O6 0.826836 0.773704 0.186890
O O7 0.000000 0.000000 0.000000
O O8 0.758792 0.329724 0.489964
O O9 0.702482 0.489853 0.715777
O O10 0.971141 0.349633 0.587905
O O11 0.799538 0.906002 0.426981
O O12 0.475297 0.808585 0.526951
O O13 0.680158 0.668882 0.542864
O O14 0.707401 0.104180 0.580790
O O15 0.000000 0.000000 0.500000
#
# Coordination Sequence:
#
# PCOD8027641 Si02
#       7
#     2   2   2   2   2   2   2
#     4  11  22  42  67  97 126 171 220 264 320 385
#     4  12  23  40  64  95 134 171 207 263 324 388
#     4  11  23  43  72  93 125 175 220 272 318 378
#     4  11  24  41  62  96 131 170 212 266 325 384
#     4  11  21  40  65  93 131 170 212 266 314 385
#     4  12  23  40  64  95 134 168 213 261 329 380
#     4  10  24  46  68  94 129 167 224 274 318 374
#
# _framework density 20.744620000000001
#
# number of rings (size 3 to 8) (size 9 to 14) (size 15 to 20)
#    0.000    0.857    5.714    1.714    0.000    3.429 
#    0.000    0.714    0.000    0.000    0.000    0.000 
#    0.000    0.000    0.000    0.000    0.000    0.000 
#
# Total GULP energy -173614.629160 kJ/mol
# GULP energy per Si atom -12401.044940 kJ/mol
# Density = 2.069740 g / cm^3
# Si number density = 20.744620 Si / 1000 Ang^3
#
#
#
# Elastic Constant Matrix: (Units=GPa)
#
#
# Indices 1 2 3 4 5 6 
#
# 1 139.1530 34.6030 40.1112 -8.8959 0.3976 -3.9279
# 2 34.6030 65.0541 20.2214 3.1318 1.5567 5.7301
# 3 40.1112 20.2214 126.6951 -10.0188 -0.1429 5.3298
# 4 -8.8959 3.1318 -10.0188 25.9726 8.8940 0.9505
# 5 0.3976 1.5567 -0.1429 8.8940 35.9049 3.2690
# 6 -3.9279 5.7301 5.3298 0.9505 3.2690 27.1908
#
#
#
# Elastic Compliance Matrix: (Units=1/GPa)
#
#
# Indices 1 2 3 4 5 6 
#
# 1 0.009206 -0.004630 -0.002042 0.003145 -0.000935 0.002708
# 2 -0.004630 0.018958 -0.001748 -0.004651 0.000762 -0.004250
# 3 -0.002042 -0.001748 0.009152 0.003284 -0.000517 -0.001773
# 4 0.003145 -0.004651 0.003284 0.045174 -0.011060 0.000541
# 5 -0.000935 0.000762 -0.000517 -0.011060 0.030887 -0.003521
# 6 0.002708 -0.004250 -0.001773 0.000541 -0.003521 0.038816
#
#
# Mechanical properties :
#
#
# Convention : Reuss Voigt Hill
#
# Bulk Modulus (GPa) = 48.83673 57.86372 53.35023
# Shear Modulus (GPa) = 28.43181 33.54476 30.98829
#
# Velocity S-wave (km/s) = 3.70613 4.02560 3.86916
# Velocity P-wave (km/s) = 6.47355 7.03997 6.76269
#
# Compressibility (1/GPa) = 0.02047639
#
# Stress axis : x y z
#
# Youngs Moduli (GPa) = 108.61976 52.74834 109.26349
#
# Poissons Ratio (x) = 0.24422 0.22312
# Poissons Ratio (y) = 0.50289 0.19101
# Poissons Ratio (z) = 0.22181 0.09221
#
# Static dielectric constant tensor:
#      x y z
#    x 3.814550 0.111510 0.121690 
#    y 0.111510 3.851750 0.031990 
#    z 0.121690 0.031990 3.913420 
# 
# 
# High freq. dielectric constant tensor:
#      x y z
#    x 1.814930 0.010640 0.002990 
#    y 0.010640 1.805880 0.008150 
#    z 0.002990 0.008150 1.821180 
# 
# From -- ./inp_files/177204.got.cif
#   From: 2010.06.25/outbox.cif.g09.slc.cpg/sg2_89_cif.got.tgz:177204.got - 2010.06.27 13:26:56.
