data_PCOD8027074
_publ_section_title
;
Structure prediction by ZEFSAII (Michael W. Deem and Ramdas Pophale) SiO2 
 PCOD8027074
Probable space group: P -1
;
_chemical_formula_sum "Si O2"
_cell_formula_units_Z 16
_cell_length_a 15.794554
_cell_length_b 8.918323
_cell_length_c 26.053845
_cell_angle_alpha 30.951292
_cell_angle_beta 154.403909
_cell_angle_gamma 132.810798
_cell_volume 739.115523
_symmetry_space_group_name_H-M "P -1"
_symmetry_group_IT_number 2
_symmetry_cell_setting 'triclinic'
loop_
_space_group_symop_operation_xyz
x,y,z
-x,-y,-z
loop_
_atom_site_type_symbol
_atom_site_label
_atom_site_fract_x
_atom_site_fract_y
_atom_site_fract_z
Si Si1 0.141346 0.989003 0.344845
Si Si2 0.801736 0.379446 0.665376
Si Si3 0.977408 0.229174 0.372997
Si Si4 0.906406 0.253534 0.035861
Si Si5 0.107897 0.115718 0.669427
Si Si6 0.460969 0.653151 0.258062
Si Si7 0.546149 0.775155 0.969094
Si Si8 0.642047 0.565377 0.634113
O O1 0.294695 0.621613 0.521966
O O2 0.987437 0.025131 0.297458
O O3 0.306387 0.148370 0.399467
O O4 0.966738 0.157162 0.155733
O O5 0.792751 0.409672 0.713369
O O6 0.604995 0.311533 0.555500
O O7 0.819690 0.688904 0.556754
O O8 0.011850 0.055570 0.865604
O O9 0.934895 0.027214 0.364228
O O10 0.789016 0.585041 0.179430
O O11 0.000000 0.000000 0.500000
O O12 0.650203 0.414231 0.834865
O O13 0.000000 0.500000 0.000000
O O14 0.000000 0.500000 0.500000
O O15 0.370936 0.975329 0.858572
O O16 0.324247 0.675286 0.228832
O O17 0.472565 0.990533 0.157528
O O18 0.500000 0.500000 0.000000
#
# Coordination Sequence:
#
# PCOD8027074 Si02
#       8
#     2   2   2   2   2   2   2   2
#     4  12  24  47  71 101 145 182 226 295 354 411
#     4  11  24  44  68 104 137 181 237 283 347 423
#     4  11  25  46  72 101 141 183 234 294 351 416
#     4  12  25  43  67 102 136 185 233 275 352 421
#     4  11  24  45  72 101 138 184 234 291 355 410
#     4  12  23  43  74  98 140 186 227 289 350 420
#     4  10  24  44  67 100 133 180 238 277 353 422
#     4  11  24  43  70 101 139 183 229 285 352 415
#
# _framework density 21.647494999999999
#
# number of rings (size 3 to 8) (size 9 to 14) (size 15 to 20)
#    0.000    0.750    6.250    1.125    5.250    0.500 
#    6.750    1.250    0.000    0.000    0.000    0.000 
#    0.000    0.000    0.000    0.000    0.000    0.000 
#
# Total GULP energy -198261.954302 kJ/mol
# GULP energy per Si atom -12391.372144 kJ/mol
# Density = 2.159822 g / cm^3
# Si number density = 21.647495 Si / 1000 Ang^3
#
#
#
# Elastic Constant Matrix: (Units=GPa)
#
#
# Indices 1 2 3 4 5 6 
#
# 1 172.8469 48.8597 67.3762 -11.0967 -21.3827 15.6729
# 2 48.8597 92.9768 29.2910 -11.6613 -10.1467 13.9982
# 3 67.3762 29.2910 98.2746 -9.7438 -19.1246 3.0480
# 4 -11.0967 -11.6613 -9.7438 41.3404 0.1600 -7.3493
# 5 -21.3827 -10.1467 -19.1246 0.1600 40.4461 -4.2415
# 6 15.6729 13.9982 3.0480 -7.3493 -4.2415 40.0362
#
#
#
# Elastic Compliance Matrix: (Units=1/GPa)
#
#
# Indices 1 2 3 4 5 6 
#
# 1 0.008801 -0.002609 -0.004897 0.000114 0.001475 -0.001983
# 2 -0.002609 0.013507 -0.001765 0.002142 0.000843 -0.003085
# 3 -0.004897 -0.001765 0.015037 0.002112 0.004304 0.002233
# 4 0.000114 0.002142 0.002112 0.026031 0.001916 0.004027
# 5 0.001475 0.000843 0.004304 0.001916 0.027965 0.002115
# 6 -0.001983 -0.003085 0.002233 0.004027 0.002115 0.027626
#
#
# Mechanical properties :
#
#
# Convention : Reuss Voigt Hill
#
# Bulk Modulus (GPa) = 53.18059 72.79466 62.98762
# Shear Modulus (GPa) = 34.77645 38.93597 36.85621
#
# Velocity S-wave (km/s) = 4.01245 4.24563 4.13069
# Velocity P-wave (km/s) = 6.78869 7.59830 7.20488
#
# Compressibility (1/GPa) = 0.01880385
#
# Stress axis : x y z
#
# Youngs Moduli (GPa) = 113.62076 74.03337 66.50412
#
# Poissons Ratio (x) = 0.19312 0.32565
# Poissons Ratio (y) = 0.29639 0.11741
# Poissons Ratio (z) = 0.55637 0.13070
#
# Static dielectric constant tensor:
#      x y z
#    x 4.223340 0.554670 0.378470 
#    y 0.554670 4.027830 0.235760 
#    z 0.378470 0.235760 4.484620 
# 
# 
# High freq. dielectric constant tensor:
#      x y z
#    x 1.853400 0.018960 -0.005410 
#    y 0.018960 1.864480 -0.002630 
#    z -0.005410 -0.002630 1.843960 
# 
# From -- ./inp_files/206540.got.cif
#   From: 2010.06.25/outbox.cif.g09.slc.cpg/sg2_104_cif.got.tgz:206540.got - 2010.06.27 13:26:56.
