data_PCOD8027554
_publ_section_title
;
Structure prediction by ZEFSAII (Michael W. Deem and Ramdas Pophale) SiO2 
 PCOD8027554
Probable space group: P -1
;
_chemical_formula_sum "Si O2"
_cell_formula_units_Z 16
_cell_length_a 27.324106
_cell_length_b 11.740052
_cell_length_c 9.517390
_cell_angle_alpha 143.341615
_cell_angle_beta 151.804555
_cell_angle_gamma 30.373515
_cell_volume 718.111998
_symmetry_space_group_name_H-M "P -1"
_symmetry_group_IT_number 2
_symmetry_cell_setting 'triclinic'
loop_
_space_group_symop_operation_xyz
x,y,z
-x,-y,-z
loop_
_atom_site_type_symbol
_atom_site_label
_atom_site_fract_x
_atom_site_fract_y
_atom_site_fract_z
Si Si1 0.567963 0.545569 0.338916
Si Si2 0.879840 0.847065 0.286495
Si Si3 0.855816 0.168865 0.328252
Si Si4 0.431301 0.990382 0.602247
Si Si5 0.260394 0.385753 0.349655
Si Si6 0.777651 0.108043 0.567056
Si Si7 0.322158 0.129333 0.755626
Si Si8 0.158996 0.658292 0.824499
O O1 0.464303 0.760119 0.379475
O O2 0.666623 0.595859 0.577024
O O3 0.638691 0.325653 0.401021
O O4 0.500000 0.500000 0.000000
O O5 0.028584 0.688483 0.488978
O O6 0.813967 0.017411 0.153333
O O7 0.849655 0.000060 0.498633
O O8 0.826634 0.689768 0.009671
O O9 0.830298 0.372429 0.566992
O O10 0.791307 0.271913 0.116463
O O11 0.000000 0.000000 0.500000
O O12 0.359783 0.204463 0.530319
O O13 0.347841 0.025396 0.561020
O O14 0.552550 0.982754 0.948996
O O15 0.770439 0.922093 0.454127
O O16 0.856117 0.183583 0.927036
O O17 0.261110 0.398763 0.862934
#
# Coordination Sequence:
#
# PCOD8027554 Si02
#       8
#     2   2   2   2   2   2   2   2
#     4  12  25  44  70 101 138 185 234 285 338 404
#     4  11  26  45  73 103 137 184 231 282 345 412
#     4  10  24  45  72 102 137 178 233 281 341 408
#     4  11  24  45  68  98 138 181 229 283 341 410
#     4  12  24  45  74  99 141 179 233 284 345 403
#     4  12  25  44  70 101 141 180 231 284 344 410
#     4  11  25  45  68 100 138 182 227 282 352 407
#     4  11  25  46  70 102 141 180 228 286 346 412
#
# _framework density 22.280646999999998
#
# number of rings (size 3 to 8) (size 9 to 14) (size 15 to 20)
#    0.000    0.750    3.750    3.000    1.750    5.000 
#    0.000    0.000    0.000    0.000    0.000    0.000 
#    0.000    0.000    0.000    0.000    0.000    0.000 
#
# Total GULP energy -198478.677013 kJ/mol
# GULP energy per Si atom -12404.917313 kJ/mol
# Density = 2.222993 g / cm^3
# Si number density = 22.280647 Si / 1000 Ang^3
#
#
#
# Elastic Constant Matrix: (Units=GPa)
#
#
# Indices 1 2 3 4 5 6 
#
# 1 109.8155 23.1051 14.4976 7.9873 -5.2575 3.6776
# 2 23.1051 88.7777 2.6942 5.8094 -4.7091 -2.0410
# 3 14.4976 2.6942 80.3291 9.5403 -2.6083 7.0043
# 4 7.9873 5.8094 9.5403 35.6300 -2.2754 -8.2607
# 5 -5.2575 -4.7091 -2.6083 -2.2754 33.4076 5.3791
# 6 3.6776 -2.0410 7.0043 -8.2607 5.3791 39.9740
#
#
#
# Elastic Compliance Matrix: (Units=1/GPa)
#
#
# Indices 1 2 3 4 5 6 
#
# 1 0.010024 -0.002420 -0.001369 -0.001715 0.001226 -0.001325
# 2 -0.002420 0.012045 0.000194 -0.001311 0.001183 0.000373
# 3 -0.001369 0.000194 0.013480 -0.004006 0.001107 -0.003203
# 4 -0.001715 -0.001311 -0.004006 0.031434 0.000204 0.007261
# 5 0.001226 0.001183 0.001107 0.000204 0.031100 -0.004389
# 6 -0.001325 0.000373 -0.003203 0.007261 -0.004389 0.027810
#
#
# Mechanical properties :
#
#
# Convention : Reuss Voigt Hill
#
# Bulk Modulus (GPa) = 35.26129 39.94622 37.60375
# Shear Modulus (GPa) = 35.07882 37.71068 36.39475
#
# Velocity S-wave (km/s) = 3.97219 4.11850 4.04600
# Velocity P-wave (km/s) = 6.07437 6.37053 6.22421
#
# Compressibility (1/GPa) = 0.02835971
#
# Stress axis : x y z
#
# Youngs Moduli (GPa) = 99.76083 83.02016 74.18197
#
# Poissons Ratio (x) = 0.20095 0.10155
# Poissons Ratio (y) = 0.24147 -0.01442
# Poissons Ratio (z) = 0.13656 -0.01614
#
# Static dielectric constant tensor:
#      x y z
#    x 4.341890 0.129130 -0.232500 
#    y 0.129130 4.151460 -0.013230 
#    z -0.232500 -0.013230 3.794160 
# 
# 
# High freq. dielectric constant tensor:
#      x y z
#    x 1.889940 0.002160 -0.012360 
#    y 0.002160 1.889980 0.001840 
#    z -0.012360 0.001840 1.870860 
# 
# From -- ./inp_files/85138.got.cif
#   From: 2010.06.25/outbox.cif.g09.slc.cpg/sg2_43_cif.got.tgz:85138.got - 2010.06.27 13:26:56.
