data_PCOD8027025
_publ_section_title
;
Structure prediction by ZEFSAII (Michael W. Deem and Ramdas Pophale) SiO2 
 PCOD8027025
Probable space group: P -1
;
_chemical_formula_sum "Si O2"
_cell_formula_units_Z 12
_cell_length_a 6.700673
_cell_length_b 14.804438
_cell_length_c 11.942448
_cell_angle_alpha 150.101898
_cell_angle_beta 91.334118
_cell_angle_gamma 82.656389
_cell_volume 576.422238
_symmetry_space_group_name_H-M "P -1"
_symmetry_group_IT_number 2
_symmetry_cell_setting 'triclinic'
loop_
_space_group_symop_operation_xyz
x,y,z
-x,-y,-z
loop_
_atom_site_type_symbol
_atom_site_label
_atom_site_fract_x
_atom_site_fract_y
_atom_site_fract_z
Si Si1 0.911015 0.927191 0.087150
Si Si2 0.448917 0.640918 0.990600
Si Si3 0.116672 0.009430 0.396733
Si Si4 0.730304 0.232005 0.244068
Si Si5 0.779526 0.612002 0.151547
Si Si6 0.653411 0.627453 0.747729
O O1 0.756521 0.091378 0.197567
O O2 0.809716 0.752630 0.918819
O O3 0.955537 0.006663 0.292917
O O4 0.121549 0.859909 0.951727
O O5 0.318707 0.493264 0.867529
O O6 0.519566 0.589676 0.810663
O O7 0.644303 0.636938 0.065596
O O8 0.311267 0.844568 0.212652
O O9 0.203791 0.193756 0.586351
O O10 0.000000 0.000000 0.500000
O O11 0.781028 0.428444 0.492388
O O12 0.495783 0.268425 0.239585
O O13 0.000000 0.500000 0.000000
#
# Coordination Sequence:
#
# PCOD8027025 Si02
#       6
#     2   2   2   2   2   2
#     4  11  24  43  67  98 133 170 219 269 327 385
#     4  11  25  43  66  98 131 174 221 267 332 389
#     4  12  24  43  69  96 134 174 215 271 333 387
#     4  10  24  44  64  99 129 175 220 266 327 382
#     4  11  25  44  66  96 135 171 220 270 325 396
#     4  11  23  43  69  95 131 171 220 271 324 386
#
# _framework density 20.818072999999998
#
# number of rings (size 3 to 8) (size 9 to 14) (size 15 to 20)
#    0.000    1.000    3.333    2.500    2.333    1.333 
#   12.000    0.000    0.000    0.000    0.000    0.000 
#    0.000    0.000    0.000    0.000    0.000    0.000 
#
# Total GULP energy -148887.038667 kJ/mol
# GULP energy per Si atom -12407.253222 kJ/mol
# Density = 2.077069 g / cm^3
# Si number density = 20.818073 Si / 1000 Ang^3
#
#
#
# Elastic Constant Matrix: (Units=GPa)
#
#
# Indices 1 2 3 4 5 6 
#
# 1 71.4975 30.0987 24.0257 -2.3623 29.3024 -4.5345
# 2 30.0987 115.0768 46.8889 -8.5486 11.2943 -5.7055
# 3 24.0257 46.8889 113.0246 4.2353 25.4486 -2.9810
# 4 -2.3623 -8.5486 4.2353 38.0387 4.2292 -1.2587
# 5 29.3024 11.2943 25.4486 4.2292 43.2170 5.8844
# 6 -4.5345 -5.7055 -2.9810 -1.2587 5.8844 25.0999
#
#
#
# Elastic Compliance Matrix: (Units=1/GPa)
#
#
# Indices 1 2 3 4 5 6 
#
# 1 0.022446 -0.004019 0.000516 0.002406 -0.015661 0.006995
# 2 -0.004019 0.011628 -0.004472 0.002685 0.001911 0.001073
# 3 0.000516 -0.004472 0.012156 -0.001544 -0.006455 0.001956
# 4 0.002406 0.002685 -0.001544 0.027836 -0.004602 0.003336
# 5 -0.015661 0.001911 -0.006455 -0.004602 0.039224 -0.012588
# 6 0.006995 0.001073 0.001956 0.003336 -0.012588 0.044699
#
#
# Mechanical properties :
#
#
# Convention : Reuss Voigt Hill
#
# Bulk Modulus (GPa) = 33.02363 55.73618 44.37991
# Shear Modulus (GPa) = 27.16912 34.51015 30.83964
#
# Velocity S-wave (km/s) = 3.61650 4.07591 3.85306
# Velocity P-wave (km/s) = 5.77375 6.99870 6.41553
#
# Compressibility (1/GPa) = 0.03028134
#
# Stress axis : x y z
#
# Youngs Moduli (GPa) = 44.55063 85.99678 82.26358
#
# Poissons Ratio (x) = 0.34559 -0.04247
# Poissons Ratio (y) = 0.17903 0.36791
# Poissons Ratio (z) = -0.02300 0.38461
#
# Static dielectric constant tensor:
#      x y z
#    x 3.730370 -0.055810 -0.055590 
#    y -0.055810 4.016960 -0.036740 
#    z -0.055590 -0.036740 4.229080 
# 
# 
# High freq. dielectric constant tensor:
#      x y z
#    x 1.817870 -0.006320 0.000550 
#    y -0.006320 1.828670 0.004930 
#    z 0.000550 0.004930 1.828400 
# 
# From -- ./inp_files/21211.got.cif
#   From: 2010.06.25/outbox.cif.g09.slc.cpg/sg2_11_cif.got.tgz:21211.got - 2010.06.27 13:26:56.
