data_PCOD8027755
_publ_section_title
;
Structure prediction by ZEFSAII (Michael W. Deem and Ramdas Pophale) SiO2 
 PCOD8027755
Probable space group: P -1
;
_chemical_formula_sum "Si O2"
_cell_formula_units_Z 16
_cell_length_a 14.179732
_cell_length_b 11.351794
_cell_length_c 16.255672
_cell_angle_alpha 148.008393
_cell_angle_beta 33.614781
_cell_angle_gamma 124.809445
_cell_volume 680.700793
_symmetry_space_group_name_H-M "P -1"
_symmetry_group_IT_number 2
_symmetry_cell_setting 'triclinic'
loop_
_space_group_symop_operation_xyz
x,y,z
-x,-y,-z
loop_
_atom_site_type_symbol
_atom_site_label
_atom_site_fract_x
_atom_site_fract_y
_atom_site_fract_z
Si Si1 0.018633 0.131386 0.830955
Si Si2 0.879981 0.601496 0.474898
Si Si3 0.516577 0.019061 0.262178
Si Si4 0.461571 0.310789 0.104532
Si Si5 0.873923 0.099354 0.759176
Si Si6 0.908382 0.938077 0.952050
Si Si7 0.584424 0.288701 0.744647
Si Si8 0.111270 0.366487 0.698055
O O1 0.846054 0.226461 0.945273
O O2 0.200337 0.934675 0.529781
O O3 0.002478 0.970984 0.821381
O O4 0.033578 0.374921 0.997966
O O5 0.682097 0.674158 0.710085
O O6 0.844090 0.561779 0.381879
O O7 0.045904 0.351780 0.246918
O O8 0.961890 0.802202 0.537926
O O9 0.307864 0.251453 0.538818
O O10 0.533643 0.867383 0.245494
O O11 0.565421 0.840897 0.041044
O O12 0.678658 0.110078 0.211486
O O13 0.432476 0.584713 0.257323
O O14 0.675901 0.170206 0.899513
O O15 0.013369 0.179354 0.651820
O O16 0.000000 0.000000 0.000000
O O17 0.500000 0.500000 0.000000
#
# Coordination Sequence:
#
# PCOD8027755 Si02
#       8
#     2   2   2   2   2   2   2   2
#     4  12  26  50  74 109 152 196 248 304 375 439
#     4  12  26  46  76 106 150 199 254 303 368 442
#     4  11  26  46  74 107 150 195 250 303 369 437
#     4  11  25  46  73 114 145 192 251 312 361 433
#     4  12  27  44  77 108 151 198 249 307 365 441
#     4  12  28  49  73 110 151 199 244 310 379 438
#     4  10  24  46  74 108 148 190 249 300 366 438
#     4  12  27  48  73 111 155 198 245 305 373 440
#
# _framework density 23.505188
#
# number of rings (size 3 to 8) (size 9 to 14) (size 15 to 20)
#    0.000    0.500    5.000    1.875    7.000    2.500 
#    0.000    1.250    0.000    0.000    0.000    0.000 
#    0.000    0.000    0.000    0.000    0.000    0.000 
#
# Total GULP energy -198253.571551 kJ/mol
# GULP energy per Si atom -12390.848222 kJ/mol
# Density = 2.345169 g / cm^3
# Si number density = 23.505188 Si / 1000 Ang^3
#
#
#
# Elastic Constant Matrix: (Units=GPa)
#
#
# Indices 1 2 3 4 5 6 
#
# 1 100.8821 48.7148 19.8273 -18.3356 -3.8176 -0.6781
# 2 48.7148 129.3764 51.4568 -4.1851 0.8946 -15.7523
# 3 19.8273 51.4568 115.7452 -8.2369 -1.1181 10.1364
# 4 -18.3356 -4.1851 -8.2369 37.1756 0.0535 -0.4105
# 5 -3.8176 0.8946 -1.1181 0.0535 31.0103 -8.1725
# 6 -0.6781 -15.7523 10.1364 -0.4105 -8.1725 46.6920
#
#
#
# Elastic Compliance Matrix: (Units=1/GPa)
#
#
# Indices 1 2 3 4 5 6 
#
# 1 0.013535 -0.005331 0.000632 0.006197 0.001455 -0.001430
# 2 -0.005331 0.012370 -0.005209 -0.002334 0.000184 0.005238
# 3 0.000632 -0.005209 0.011374 0.002199 -0.000495 -0.004285
# 4 0.006197 -0.002334 0.002199 0.030171 0.000648 -0.000796
# 5 0.001455 0.000184 -0.000495 0.000648 0.034023 0.006151
# 6 -0.001430 0.005238 -0.004285 -0.000796 0.006151 0.025163
#
#
# Mechanical properties :
#
#
# Convention : Reuss Voigt Hill
#
# Bulk Modulus (GPa) = 57.26797 65.11129 61.18963
# Shear Modulus (GPa) = 32.83584 38.04256 35.43920
#
# Velocity S-wave (km/s) = 3.74165 4.02739 3.88715
# Velocity P-wave (km/s) = 6.56380 7.02762 6.79967
#
# Compressibility (1/GPa) = 0.01746177
#
# Stress axis : x y z
#
# Youngs Moduli (GPa) = 73.88443 80.84365 87.91953
#
# Poissons Ratio (x) = 0.43100 -0.05556
# Poissons Ratio (y) = 0.39390 0.45796
# Poissons Ratio (z) = -0.04669 0.42110
#
# Static dielectric constant tensor:
#      x y z
#    x 4.153290 -0.372270 0.004940 
#    y -0.372270 4.695970 0.152800 
#    z 0.004940 0.152800 4.248540 
# 
# 
# High freq. dielectric constant tensor:
#      x y z
#    x 1.922310 -0.023830 -0.000530 
#    y -0.023830 1.952210 0.003500 
#    z -0.000530 0.003500 1.925230 
# 
# From -- ./inp_files/573645.got.cif
#   From: 2010.06.25/outbox.cif.g09.slc.cpg/sg2_287_cif.got.tgz:573645.got - 2010.06.27 13:26:56.
