data_PCOD8027165
_publ_section_title
;
Structure prediction by ZEFSAII (Michael W. Deem and Ramdas Pophale) SiO2 
 PCOD8027165
Probable space group: P -1
;
_chemical_formula_sum "Si O2"
_cell_formula_units_Z 16
_cell_length_a 7.901088
_cell_length_b 8.647493
_cell_length_c 12.358103
_cell_angle_alpha 63.912621
_cell_angle_beta 109.071622
_cell_angle_gamma 113.796478
_cell_volume 682.320991
_symmetry_space_group_name_H-M "P -1"
_symmetry_group_IT_number 2
_symmetry_cell_setting 'triclinic'
loop_
_space_group_symop_operation_xyz
x,y,z
-x,-y,-z
loop_
_atom_site_type_symbol
_atom_site_label
_atom_site_fract_x
_atom_site_fract_y
_atom_site_fract_z
Si Si1 0.026415 0.396266 0.932973
Si Si2 0.206831 0.535525 0.485217
Si Si3 0.278817 0.059293 0.818910
Si Si4 0.736135 0.853360 0.960438
Si Si5 0.656904 0.272539 0.159545
Si Si6 0.041250 0.144422 0.559814
Si Si7 0.647500 0.176199 0.430878
Si Si8 0.692383 0.220914 0.776159
O O1 0.191301 0.532052 0.853724
O O2 0.826564 0.353647 0.848507
O O3 0.090069 0.216099 0.020088
O O4 0.000000 0.500000 0.000000
O O5 0.206830 0.334691 0.508532
O O6 0.362676 0.629580 0.583370
O O7 0.262400 0.680782 0.357651
O O8 0.000000 0.500000 0.500000
O O9 0.104806 0.071192 0.706090
O O10 0.476925 0.187773 0.775181
O O11 0.278987 0.850661 0.878526
O O12 0.252149 0.113144 0.919007
O O13 0.540056 0.705373 0.929494
O O14 0.745770 0.034611 0.841170
O O15 0.636515 0.167990 0.301916
O O16 0.843078 0.176342 0.525859
O O17 0.000000 0.000000 0.500000
O O18 0.500000 0.000000 0.500000
#
# Coordination Sequence:
#
# PCOD8027165 Si02
#       8
#     2   2   2   2   2   2   2   2
#     4  12  25  44  68 107 140 176 241 296 360 436
#     4  10  24  44  69 101 143 191 241 298 354 427
#     4  11  24  45  72 102 148 188 238 296 359 443
#     4  11  25  45  73 101 139 195 234 291 376 431
#     4  11  23  45  69 102 149 186 233 298 353 427
#     4  11  24  45  70 104 143 194 239 298 369 413
#     4  11  23  45  70 103 144 188 243 296 352 433
#     4  11  24  46  70 101 144 188 243 296 356 434
#
# _framework density 23.449375
#
# number of rings (size 3 to 8) (size 9 to 14) (size 15 to 20)
#    0.000    1.000    1.250    6.750    5.250    0.500 
#    4.500    0.000    0.000    0.000    0.000    0.000 
#    0.000    0.000    0.000    0.000    0.000    0.000 
#
# Total GULP energy -198292.313122 kJ/mol
# GULP energy per Si atom -12393.269570 kJ/mol
# Density = 2.339600 g / cm^3
# Si number density = 23.449375 Si / 1000 Ang^3
#
#
#
# Elastic Constant Matrix: (Units=GPa)
#
#
# Indices 1 2 3 4 5 6 
#
# 1 63.9160 18.6571 23.5913 11.8513 9.2085 -6.1076
# 2 18.6571 155.9068 17.9328 11.9228 -8.4788 5.4916
# 3 23.5913 17.9328 87.2043 7.8993 5.7032 -6.0991
# 4 11.8513 11.9228 7.8993 43.7418 14.9005 -1.2434
# 5 9.2085 -8.4788 5.7032 14.9005 32.8018 9.6914
# 6 -6.1076 5.4916 -6.0991 -1.2434 9.6914 43.5949
#
#
#
# Elastic Compliance Matrix: (Units=1/GPa)
#
#
# Indices 1 2 3 4 5 6 
#
# 1 0.019214 -0.002108 -0.003985 -0.001972 -0.005397 0.003543
# 2 -0.002108 0.007374 -0.001171 -0.002928 0.004780 -0.002534
# 3 -0.003985 -0.001171 0.013061 -0.000271 -0.001871 0.001825
# 4 -0.001972 -0.002928 -0.000271 0.029380 -0.014734 0.004168
# 5 -0.005397 0.004780 -0.001871 -0.014734 0.043730 -0.011762
# 6 0.003543 -0.002534 0.001825 0.004168 -0.011762 0.026743
#
#
# Mechanical properties :
#
#
# Convention : Reuss Voigt Hill
#
# Bulk Modulus (GPa) = 39.80820 47.48772 43.64796
# Shear Modulus (GPa) = 30.78757 40.48409 35.63583
#
# Velocity S-wave (km/s) = 3.62738 4.15956 3.90255
# Velocity P-wave (km/s) = 5.87851 6.58516 6.24185
#
# Compressibility (1/GPa) = 0.02512045
#
# Stress axis : x y z
#
# Youngs Moduli (GPa) = 52.04640 135.60804 76.56629
#
# Poissons Ratio (x) = 0.28592 0.30510
# Poissons Ratio (y) = 0.10974 0.08964
# Poissons Ratio (z) = 0.20740 0.15876
#
# Static dielectric constant tensor:
#      x y z
#    x 4.360060 0.024310 0.196570 
#    y 0.024310 4.502320 0.126520 
#    z 0.196570 0.126520 4.194830 
# 
# 
# High freq. dielectric constant tensor:
#      x y z
#    x 1.913770 0.014440 -0.001100 
#    y 0.014440 1.963440 0.008600 
#    z -0.001100 0.008600 1.922680 
# 
# From -- ./inp_files/381425.got.cif
#   From: 2010.06.25/outbox.cif.g09.slc.cpg/sg2_191_cif.got.tgz:381425.got - 2010.06.27 13:26:56.
