data_PCOD8027285
_publ_section_title
;
Structure prediction by ZEFSAII (Michael W. Deem and Ramdas Pophale) SiO2 
 PCOD8027285
Probable space group: P -1
;
_chemical_formula_sum "Si O2"
_cell_formula_units_Z 14
_cell_length_a 8.240669
_cell_length_b 8.655661
_cell_length_c 16.555321
_cell_angle_alpha 34.129914
_cell_angle_beta 65.462062
_cell_angle_gamma 67.673980
_cell_volume 601.202199
_symmetry_space_group_name_H-M "P -1"
_symmetry_group_IT_number 2
_symmetry_cell_setting 'triclinic'
loop_
_space_group_symop_operation_xyz
x,y,z
-x,-y,-z
loop_
_atom_site_type_symbol
_atom_site_label
_atom_site_fract_x
_atom_site_fract_y
_atom_site_fract_z
Si Si1 0.027695 0.699139 0.831919
Si Si2 0.144910 0.414879 0.356098
Si Si3 0.315274 0.850764 0.592905
Si Si4 0.539752 0.052752 0.182103
Si Si5 0.219781 0.798626 0.314577
Si Si6 0.283567 0.478827 0.135076
Si Si7 0.256328 0.509168 0.600306
O O1 0.233562 0.700367 0.754811
O O2 0.902314 0.613963 0.821443
O O3 0.964173 0.010806 0.737827
O O4 0.000000 0.500000 0.000000
O O5 0.206290 0.531962 0.378076
O O6 0.277205 0.510504 0.218841
O O7 0.948929 0.535902 0.319526
O O8 0.157888 0.083060 0.502148
O O9 0.345692 0.635179 0.606582
O O10 0.500000 0.000000 0.500000
O O11 0.447051 0.252705 0.182579
O O12 0.389218 0.973968 0.181656
O O13 0.638812 0.780655 0.318831
O O14 0.686694 0.219021 0.035041
O O15 0.263669 0.711742 0.435312
#
# Coordination Sequence:
#
# PCOD8027285 Si02
#       7
#     2   2   2   2   2   2   2
#     4  11  25  44  70 100 144 184 234 290 358 415
#     4  12  25  44  73  99 143 184 231 290 346 420
#     4  12  26  45  72 106 139 187 241 291 350 418
#     4  10  24  44  72 101 139 184 231 288 349 417
#     4  11  25  44  68 107 138 181 232 288 346 417
#     4  10  24  47  70  99 142 186 229 285 354 415
#     4  12  24  45  74 101 142 181 236 285 353 414
#
# _framework density 23.286673
#
# number of rings (size 3 to 8) (size 9 to 14) (size 15 to 20)
#    0.000    0.857    2.857    3.857    2.000    8.000 
#    0.000    0.000    0.000    0.000    0.000    0.000 
#    0.000    0.000    0.000    0.000    0.000    0.000 
#
# Total GULP energy -173581.133302 kJ/mol
# GULP energy per Si atom -12398.652379 kJ/mol
# Density = 2.323367 g / cm^3
# Si number density = 23.286673 Si / 1000 Ang^3
#
#
#
# Elastic Constant Matrix: (Units=GPa)
#
#
# Indices 1 2 3 4 5 6 
#
# 1 79.2165 39.2486 40.0981 6.1377 -11.7419 -9.9568
# 2 39.2486 107.9904 61.2350 8.7633 2.7317 2.1363
# 3 40.0981 61.2350 126.7151 11.5646 -2.8377 -5.9150
# 4 6.1377 8.7633 11.5646 46.6724 -8.3321 1.9185
# 5 -11.7419 2.7317 -2.8377 -8.3321 42.4426 -1.4297
# 6 -9.9568 2.1363 -5.9150 1.9185 -1.4297 35.8144
#
#
#
# Elastic Compliance Matrix: (Units=1/GPa)
#
#
# Indices 1 2 3 4 5 6 
#
# 1 0.018060 -0.005181 -0.002860 0.000048 0.005319 0.005067
# 2 -0.005181 0.014481 -0.005480 -0.001091 -0.003056 -0.003273
# 3 -0.002860 -0.005480 0.011659 -0.001531 0.000092 0.001543
# 4 0.000048 -0.001091 -0.001531 0.022844 0.004424 -0.001222
# 5 0.005319 -0.003056 0.000092 0.004424 0.026188 0.002485
# 6 0.005067 -0.003273 0.001543 -0.001222 0.002485 0.029945
#
#
# Mechanical properties :
#
#
# Convention : Reuss Voigt Hill
#
# Bulk Modulus (GPa) = 58.28240 66.12062 62.20151
# Shear Modulus (GPa) = 32.06412 36.54189 34.30301
#
# Velocity S-wave (km/s) = 3.71473 3.96563 3.84223
# Velocity P-wave (km/s) = 6.59405 7.03023 6.81563
#
# Compressibility (1/GPa) = 0.01715784
#
# Stress axis : x y z
#
# Youngs Moduli (GPa) = 55.37193 69.05581 85.77148
#
# Poissons Ratio (x) = 0.35775 0.24531
# Poissons Ratio (y) = 0.28686 0.47005
# Poissons Ratio (z) = 0.15837 0.37844
#
# Static dielectric constant tensor:
#      x y z
#    x 4.196840 -0.226420 -0.224410 
#    y -0.226420 4.278430 0.027960 
#    z -0.224410 0.027960 4.208740 
# 
# 
# High freq. dielectric constant tensor:
#      x y z
#    x 1.918460 -0.010430 -0.015960 
#    y -0.010430 1.924810 -0.001660 
#    z -0.015960 -0.001660 1.920710 
# 
# From -- ./inp_files/242784.got.cif
#   From: 2010.06.25/outbox.cif.g09.slc.cpg/sg2_122_cif.got.tgz:242784.got - 2010.06.27 13:26:56.
