data_PCOD8027657
_publ_section_title
;
Structure prediction by ZEFSAII (Michael W. Deem and Ramdas Pophale) SiO2 
 PCOD8027657
Probable space group: P -1
;
_chemical_formula_sum "Si O2"
_cell_formula_units_Z 14
_cell_length_a 9.319822
_cell_length_b 9.281685
_cell_length_c 11.036751
_cell_angle_alpha 122.355035
_cell_angle_beta 119.928525
_cell_angle_gamma 49.026368
_cell_volume 592.292382
_symmetry_space_group_name_H-M "P -1"
_symmetry_group_IT_number 2
_symmetry_cell_setting 'triclinic'
loop_
_space_group_symop_operation_xyz
x,y,z
-x,-y,-z
loop_
_atom_site_type_symbol
_atom_site_label
_atom_site_fract_x
_atom_site_fract_y
_atom_site_fract_z
Si Si1 0.234197 0.505003 0.457482
Si Si2 0.349682 0.780846 0.534731
Si Si3 0.732577 0.522508 0.271828
Si Si4 0.019720 0.796972 0.957320
Si Si5 0.298634 0.206706 0.028591
Si Si6 0.167862 0.234162 0.720017
Si Si7 0.338074 0.576447 0.197112
O O1 0.308793 0.661581 0.566745
O O2 0.421028 0.290841 0.393805
O O3 0.183969 0.477970 0.560599
O O4 0.050011 0.590539 0.330962
O O5 0.297472 0.727168 0.358489
O O6 0.210432 0.016472 0.606096
O O7 0.680654 0.727426 0.271466
O O8 0.543084 0.506790 0.187630
O O9 0.909876 0.338874 0.193162
O O10 0.171537 0.696686 0.084086
O O11 0.815080 0.826071 0.925995
O O12 0.000000 0.000000 0.000000
O O13 0.172683 0.265127 0.878657
O O14 0.339543 0.381175 0.157502
O O15 0.500000 0.000000 0.000000
#
# Coordination Sequence:
#
# PCOD8027657 Si02
#       7
#     2   2   2   2   2   2   2
#     4  10  24  46  69 108 144 192 242 301 362 440
#     4  10  25  44  78 100 148 192 247 297 363 436
#     4  11  26  46  74 106 151 187 241 311 358 436
#     4  12  27  44  75 109 145 193 242 307 372 433
#     4  12  29  48  77 105 146 196 249 300 369 440
#     4  12  26  46  73 107 145 196 243 302 365 434
#     4  11  25  51  71 108 147 193 245 301 370 434
#
# _framework density 23.636973999999999
#
# number of rings (size 3 to 8) (size 9 to 14) (size 15 to 20)
#    0.000    0.857    1.429    3.429   14.000    2.286 
#    0.000    0.000    0.000    0.000    0.000    0.000 
#    0.000    0.000    0.000    0.000    0.000    0.000 
#
# Total GULP energy -173638.935075 kJ/mol
# GULP energy per Si atom -12402.781077 kJ/mol
# Density = 2.358318 g / cm^3
# Si number density = 23.636974 Si / 1000 Ang^3
#
#
#
# Elastic Constant Matrix: (Units=GPa)
#
#
# Indices 1 2 3 4 5 6 
#
# 1 152.8575 12.3047 6.2945 9.0155 3.1801 11.6962
# 2 12.3047 59.9480 -13.9342 5.0253 9.2443 6.3834
# 3 6.2945 -13.9342 50.4470 2.8595 0.6977 -5.5335
# 4 9.0155 5.0253 2.8595 42.7866 0.1920 7.6209
# 5 3.1801 9.2443 0.6977 0.1920 41.2714 -3.9516
# 6 11.6962 6.3834 -5.5335 7.6209 -3.9516 45.1717
#
#
#
# Elastic Compliance Matrix: (Units=1/GPa)
#
#
# Indices 1 2 3 4 5 6 
#
# 1 0.006899 -0.001436 -0.001380 -0.000901 -0.000339 -0.001630
# 2 -0.001436 0.019293 0.005493 -0.002002 -0.004460 -0.001734
# 3 -0.001380 0.005493 0.021937 -0.002268 -0.001241 0.002542
# 4 -0.000901 -0.002002 -0.002268 0.024645 0.000067 -0.003914
# 5 -0.000339 -0.004460 -0.001241 0.000067 0.025543 0.002789
# 6 -0.001630 -0.001734 0.002542 -0.003914 0.002789 0.024021
#
#
# Mechanical properties :
#
#
# Convention : Reuss Voigt Hill
#
# Bulk Modulus (GPa) = 18.69757 30.28693 24.49225
# Shear Modulus (GPa) = 37.08883 43.08511 40.08697
#
# Velocity S-wave (km/s) = 3.96549 4.27404 4.12265
# Velocity P-wave (km/s) = 5.37534 6.09900 5.74857
#
# Compressibility (1/GPa) = 0.05348288
#
# Stress axis : x y z
#
# Youngs Moduli (GPa) = 144.94043 51.83262 45.58534
#
# Poissons Ratio (x) = 0.07442 0.06293
# Poissons Ratio (y) = 0.20809 -0.25040
# Poissons Ratio (z) = 0.20009 -0.28472
#
# Static dielectric constant tensor:
#      x y z
#    x 4.764770 0.263220 0.111340 
#    y 0.263220 4.355120 -0.042880 
#    z 0.111340 -0.042880 4.245340 
# 
# 
# High freq. dielectric constant tensor:
#      x y z
#    x 1.958980 0.004000 -0.001550 
#    y 0.004000 1.933890 -0.008470 
#    z -0.001550 -0.008470 1.944370 
# 
# From -- ./inp_files/383342.got.cif
#   From: 2010.06.25/outbox.cif.g09.slc.cpg/sg2_192_cif.got.tgz:383342.got - 2010.06.27 13:26:56.
