data_PCOD8027786
_publ_section_title
;
Structure prediction by ZEFSAII (Michael W. Deem and Ramdas Pophale) SiO2 
 PCOD8027786
Probable space group: P -1
;
_chemical_formula_sum "Si O2"
_cell_formula_units_Z 14
_cell_length_a 9.683446
_cell_length_b 6.722213
_cell_length_c 17.023637
_cell_angle_alpha 122.201299
_cell_angle_beta 48.480733
_cell_angle_gamma 127.124934
_cell_volume 644.958219
_symmetry_space_group_name_H-M "P -1"
_symmetry_group_IT_number 2
_symmetry_cell_setting 'triclinic'
loop_
_space_group_symop_operation_xyz
x,y,z
-x,-y,-z
loop_
_atom_site_type_symbol
_atom_site_label
_atom_site_fract_x
_atom_site_fract_y
_atom_site_fract_z
Si Si1 0.539449 0.883951 0.881577
Si Si2 0.559236 0.523401 0.606254
Si Si3 0.215813 0.899976 0.307627
Si Si4 0.112475 0.766103 0.973696
Si Si5 0.795334 0.491724 0.366546
Si Si6 0.101682 0.910754 0.839507
Si Si7 0.471257 0.652903 0.246420
O O1 0.344328 0.819648 0.887808
O O2 0.572421 0.625591 0.831794
O O3 0.717907 0.088867 0.806445
O O4 0.500000 0.000000 0.000000
O O5 0.657259 0.408380 0.478443
O O6 0.340940 0.503477 0.655675
O O7 0.533345 0.355525 0.658742
O O8 0.708226 0.815292 0.626898
O O9 0.297374 0.733293 0.296807
O O10 0.974178 0.768221 0.370474
O O11 0.029979 0.755039 0.914732
O O12 0.000000 0.500000 0.000000
O O13 0.067517 0.974905 0.088993
O O14 0.889341 0.279846 0.272225
O O15 0.314791 0.145970 0.820730
#
# Coordination Sequence:
#
# PCOD8027786 Si02
#       7
#     2   2   2   2   2   2   2
#     4  11  25  39  62  95 130 171 216 262 320 387
#     4  10  24  47  67  95 131 171 215 271 327 383
#     4  11  24  45  65  96 136 168 212 277 321 383
#     4  11  23  40  62  89 129 172 208 259 321 375
#     4  11  24  44  70  97 128 171 222 266 323 393
#     4  11  23  40  64  95 124 169 217 259 321 386
#     4  11  22  44  66  91 138 170 208 277 325 377
#
# _framework density 21.706831000000001
#
# number of rings (size 3 to 8) (size 9 to 14) (size 15 to 20)
#    0.000    1.143    4.286    1.286    4.000    1.714 
#    2.571    0.000    0.000    0.000    0.000    0.000 
#    0.000    0.000    0.000    0.000    0.000    0.000 
#
# Total GULP energy -173622.169809 kJ/mol
# GULP energy per Si atom -12401.583558 kJ/mol
# Density = 2.165743 g / cm^3
# Si number density = 21.706831 Si / 1000 Ang^3
#
#
#
# Elastic Constant Matrix: (Units=GPa)
#
#
# Indices 1 2 3 4 5 6 
#
# 1 54.7241 40.3947 13.5927 -4.0826 9.3017 -1.7676
# 2 40.3947 103.9498 28.3137 -8.1809 2.3671 -14.2768
# 3 13.5927 28.3137 108.2511 3.9066 12.8277 -19.1418
# 4 -4.0826 -8.1809 3.9066 37.8857 -0.0934 -3.9324
# 5 9.3017 2.3671 12.8277 -0.0934 37.1451 -8.7128
# 6 -1.7676 -14.2768 -19.1418 -3.9324 -8.7128 39.1275
#
#
#
# Elastic Compliance Matrix: (Units=1/GPa)
#
#
# Indices 1 2 3 4 5 6 
#
# 1 0.027639 -0.011049 -0.000562 0.000153 -0.007107 -0.004625
# 2 -0.011049 0.015383 -0.002282 0.002908 0.003786 0.005133
# 3 -0.000562 -0.002282 0.010929 -0.001294 -0.002605 0.003778
# 4 0.000153 0.002908 -0.001294 0.027534 0.001101 0.003447
# 5 -0.007107 0.003786 -0.002605 0.001101 0.030955 0.006789
# 6 -0.004625 0.005133 0.003778 0.003447 0.006789 0.030928
#
#
# Mechanical properties :
#
#
# Convention : Reuss Voigt Hill
#
# Bulk Modulus (GPa) = 38.21880 47.94747 43.08313
# Shear Modulus (GPa) = 27.79730 35.13992 31.46861
#
# Velocity S-wave (km/s) = 3.58240 4.02785 3.81164
# Velocity P-wave (km/s) = 5.89546 6.61574 6.26596
#
# Compressibility (1/GPa) = 0.02616513
#
# Stress axis : x y z
#
# Youngs Moduli (GPa) = 36.18113 65.00796 91.50203
#
# Poissons Ratio (x) = 0.71825 0.05140
# Poissons Ratio (y) = 0.39975 0.20882
# Poissons Ratio (z) = 0.02032 0.14835
#
# Static dielectric constant tensor:
#      x y z
#    x 3.704950 -0.170980 -0.027560 
#    y -0.170980 3.808020 0.046940 
#    z -0.027560 0.046940 3.983630 
# 
# 
# High freq. dielectric constant tensor:
#      x y z
#    x 1.842120 -0.005360 -0.004290 
#    y -0.005360 1.853740 -0.004540 
#    z -0.004290 -0.004540 1.866830 
# 
# From -- ./inp_files/27564.got.cif
#   From: 2010.06.25/outbox.cif.g09.slc.cpg/sg2_14_cif.got.tgz:27564.got - 2010.06.27 13:26:56.
