data_PCOD8027608
_publ_section_title
;
Structure prediction by ZEFSAII (Michael W. Deem and Ramdas Pophale) SiO2 
 PCOD8027608
Probable space group: P -1
;
_chemical_formula_sum "Si O2"
_cell_formula_units_Z 16
_cell_length_a 16.881925
_cell_length_b 13.938982
_cell_length_c 11.614858
_cell_angle_alpha 32.029218
_cell_angle_beta 128.159806
_cell_angle_gamma 148.133622
_cell_volume 712.529799
_symmetry_space_group_name_H-M "P -1"
_symmetry_group_IT_number 2
_symmetry_cell_setting 'triclinic'
loop_
_space_group_symop_operation_xyz
x,y,z
-x,-y,-z
loop_
_atom_site_type_symbol
_atom_site_label
_atom_site_fract_x
_atom_site_fract_y
_atom_site_fract_z
Si Si1 0.324319 0.279946 0.378917
Si Si2 0.983883 0.927701 0.347122
Si Si3 0.888298 0.502414 0.520050
Si Si4 0.550544 0.122403 0.549519
Si Si5 0.314508 0.533852 0.304397
Si Si6 0.613689 0.032483 0.219612
Si Si7 0.418709 0.421111 0.886784
Si Si8 0.936801 0.173323 0.872535
O O1 0.386565 0.475770 0.347636
O O2 0.463765 0.491361 0.194400
O O3 0.286319 0.014977 0.639352
O O4 0.164512 0.158567 0.317988
O O5 0.925888 0.663642 0.504121
O O6 0.859236 0.780508 0.489524
O O7 0.980029 0.096324 0.090162
O O8 0.697522 0.200409 0.639897
O O9 0.977288 0.434691 0.683102
O O10 0.955026 0.714031 0.257151
O O11 0.616744 0.417545 0.319562
O O12 0.500000 0.000000 0.500000
O O13 0.404692 0.903732 0.733811
O O14 0.435449 0.734536 0.314860
O O15 0.293423 0.693746 0.054549
O O16 0.500000 0.500000 0.000000
O O17 0.248942 0.085628 0.067288
#
# Coordination Sequence:
#
# PCOD8027608 Si02
#       8
#     2   2   2   2   2   2   2   2
#     4  11  26  41  68  98 137 173 227 281 335 398
#     4  12  24  44  66  98 137 178 225 282 337 407
#     4  11  24  43  66  97 136 184 217 281 341 402
#     4  11  23  41  69  99 139 173 223 281 339 403
#     4  11  24  44  72  94 134 183 228 276 340 396
#     4  10  24  46  65 101 134 174 231 280 332 407
#     4  11  23  41  65 102 132 178 228 277 335 405
#     4  11  25  42  68  96 136 181 228 269 351 406
#
# _framework density 22.455202
#
# number of rings (size 3 to 8) (size 9 to 14) (size 15 to 20)
#    0.000    1.000    2.500    3.375    5.250    5.500 
#    0.000    0.000    0.000    0.000    0.000    0.000 
#    0.000    0.000    0.000    0.000    0.000    0.000 
#
# Total GULP energy -198447.982869 kJ/mol
# GULP energy per Si atom -12402.998929 kJ/mol
# Density = 2.240409 g / cm^3
# Si number density = 22.455202 Si / 1000 Ang^3
#
#
#
# Elastic Constant Matrix: (Units=GPa)
#
#
# Indices 1 2 3 4 5 6 
#
# 1 127.7611 27.7268 34.5406 4.8049 -8.7107 -12.6760
# 2 27.7268 76.1492 19.2428 9.8063 0.6855 0.2645
# 3 34.5406 19.2428 109.1391 15.9002 -5.1147 5.7525
# 4 4.8049 9.8063 15.9002 31.6483 3.3463 -1.1098
# 5 -8.7107 0.6855 -5.1147 3.3463 26.8013 3.3792
# 6 -12.6760 0.2645 5.7525 -1.1098 3.3792 40.1830
#
#
#
# Elastic Compliance Matrix: (Units=1/GPa)
#
#
# Indices 1 2 3 4 5 6 
#
# 1 0.009648 -0.002950 -0.002704 0.000691 0.002195 0.003285
# 2 -0.002950 0.014973 -0.001197 -0.003513 -0.001022 -0.000869
# 3 -0.002704 -0.001197 0.011243 -0.005208 0.002300 -0.002792
# 4 0.000691 -0.003513 -0.005208 0.035861 -0.005464 0.002437
# 5 0.002195 -0.001022 0.002300 -0.005464 0.039564 -0.003108
# 6 0.003285 -0.000869 -0.002792 0.002437 -0.003108 0.026656
#
#
# Mechanical properties :
#
#
# Convention : Reuss Voigt Hill
#
# Bulk Modulus (GPa) = 45.12073 52.89662 49.00868
# Shear Modulus (GPa) = 31.43978 35.16248 33.30113
#
# Velocity S-wave (km/s) = 3.74587 3.96143 3.85516
# Velocity P-wave (km/s) = 6.23265 6.67320 6.45668
#
# Compressibility (1/GPa) = 0.02216276
#
# Stress axis : x y z
#
# Youngs Moduli (GPa) = 103.64979 66.78630 88.94274
#
# Poissons Ratio (x) = 0.19700 0.24052
# Poissons Ratio (y) = 0.30573 0.10645
# Poissons Ratio (z) = 0.28029 0.07993
#
# Static dielectric constant tensor:
#      x y z
#    x 4.309530 -0.095000 0.043550 
#    y -0.095000 3.834440 0.032970 
#    z 0.043550 0.032970 4.062550 
# 
# 
# High freq. dielectric constant tensor:
#      x y z
#    x 1.901560 -0.004140 0.004350 
#    y -0.004140 1.874680 0.007600 
#    z 0.004350 0.007600 1.889640 
# 
# From -- ./inp_files/466036.got.cif
#   From: 2010.06.25/outbox.cif.g09.slc.cpg/sg2_234_cif.got.tgz:466036.got - 2010.06.27 13:26:56.
