data_PCOD8027874
_publ_section_title
;
Structure prediction by ZEFSAII (Michael W. Deem and Ramdas Pophale) SiO2 
 PCOD8027874
Probable space group: P -1
;
_chemical_formula_sum "Si O2"
_cell_formula_units_Z 16
_cell_length_a 12.131152
_cell_length_b 14.295122
_cell_length_c 15.681822
_cell_angle_alpha 36.608305
_cell_angle_beta 26.480788
_cell_angle_gamma 38.363952
_cell_volume 700.798225
_symmetry_space_group_name_H-M "P -1"
_symmetry_group_IT_number 2
_symmetry_cell_setting 'triclinic'
loop_
_space_group_symop_operation_xyz
x,y,z
-x,-y,-z
loop_
_atom_site_type_symbol
_atom_site_label
_atom_site_fract_x
_atom_site_fract_y
_atom_site_fract_z
Si Si1 0.303264 0.274416 0.436033
Si Si2 0.043987 0.707093 0.768256
Si Si3 0.722582 0.102982 0.661821
Si Si4 0.571930 0.021091 0.316667
Si Si5 0.649912 0.073870 0.036407
Si Si6 0.963738 0.047045 0.283397
Si Si7 0.732477 0.399204 0.688842
Si Si8 0.588963 0.617218 0.228050
O O1 0.272273 0.141577 0.625379
O O2 0.374131 0.428755 0.317101
O O3 0.038616 0.338294 0.522215
O O4 0.539982 0.184089 0.277305
O O5 0.060419 0.848227 0.584469
O O6 0.118948 0.764816 0.767919
O O7 0.246887 0.543784 0.722256
O O8 0.760063 0.682292 0.991199
O O9 0.497688 0.261214 0.722527
O O10 0.599111 0.977945 0.787346
O O11 0.829252 0.040532 0.725866
O O12 0.279325 0.023737 0.499514
O O13 0.711207 0.030482 0.124564
O O14 0.607519 0.266767 0.916530
O O15 0.901465 0.976412 0.884067
O O16 0.650856 0.415923 0.633581
#
# Coordination Sequence:
#
# PCOD8027874 Si02
#       8
#     2   2   2   2   2   2   2   2
#     4  10  24  48  69  94 129 173 222 286 325 376
#     4  11  24  38  65  97 137 175 212 259 323 391
#     4  12  23  39  67  98 138 173 213 256 327 400
#     4  11  24  44  73  95 127 172 226 272 329 384
#     4  12  24  39  71 100 129 176 216 263 329 394
#     4  12  22  41  64  98 133 172 213 266 318 395
#     4  11  23  44  70  92 134 173 216 276 333 374
#     4  11  23  42  63  98 138 171 213 268 321 396
#
# _framework density 22.831106999999999
#
# number of rings (size 3 to 8) (size 9 to 14) (size 15 to 20)
#    0.000    0.750    5.000    2.625    1.750    1.000 
#    0.000    0.000    2.750    0.000    0.000    0.000 
#    0.000    0.000    0.000    0.000    0.000    0.000 
#
# Total GULP energy -198380.714067 kJ/mol
# GULP energy per Si atom -12398.794629 kJ/mol
# Density = 2.277914 g / cm^3
# Si number density = 22.831107 Si / 1000 Ang^3
#
#
#
# Elastic Constant Matrix: (Units=GPa)
#
#
# Indices 1 2 3 4 5 6 
#
# 1 70.4295 24.4182 14.8698 -2.8020 9.5113 14.7614
# 2 24.4182 125.2667 25.2649 -3.6305 -0.4617 32.6902
# 3 14.8698 25.2649 77.1223 -2.4915 15.7056 9.8009
# 4 -2.8020 -3.6305 -2.4915 30.6615 10.0190 0.3218
# 5 9.5113 -0.4617 15.7056 10.0190 40.1796 0.9331
# 6 14.7614 32.6902 9.8009 0.3218 0.9331 34.6947
#
#
#
# Elastic Compliance Matrix: (Units=1/GPa)
#
#
# Indices 1 2 3 4 5 6 
#
# 1 0.016742 -0.001621 -0.001121 0.002635 -0.004080 -0.005194
# 2 -0.001621 0.011235 -0.002493 0.000567 0.001561 -0.009239
# 3 -0.001121 -0.002493 0.015624 0.003042 -0.006596 -0.001438
# 4 0.002635 0.000567 0.003042 0.036762 -0.010914 -0.002562
# 5 -0.004080 0.001561 -0.006596 -0.010914 0.031139 0.001392
# 6 -0.005194 -0.009239 -0.001438 -0.002562 0.001392 0.040131
#
#
# Mechanical properties :
#
#
# Convention : Reuss Voigt Hill
#
# Bulk Modulus (GPa) = 30.18396 44.65827 37.42112
# Shear Modulus (GPa) = 28.87742 34.99155 31.93448
#
# Velocity S-wave (km/s) = 3.56030 3.91912 3.74401
# Velocity P-wave (km/s) = 5.49092 6.33104 5.92589
#
# Compressibility (1/GPa) = 0.03313018
#
# Stress axis : x y z
#
# Youngs Moduli (GPa) = 59.73170 89.00702 64.00586
#
# Poissons Ratio (x) = 0.14424 0.07175
# Poissons Ratio (y) = 0.09680 0.15960
# Poissons Ratio (z) = 0.06696 0.22194
#
# Static dielectric constant tensor:
#      x y z
#    x 4.202030 0.362260 -0.022850 
#    y 0.362260 4.508920 -0.030960 
#    z -0.022850 -0.030960 3.998010 
# 
# 
# High freq. dielectric constant tensor:
#      x y z
#    x 1.901550 0.009080 -0.008650 
#    y 0.009080 1.923640 0.004340 
#    z -0.008650 0.004340 1.881710 
# 
# From -- ./inp_files/521409.got.cif
#   From: 2010.06.25/outbox.cif.g09.slc.cpg/sg2_261_cif.got.tgz:521409.got - 2010.06.27 13:26:56.
