data_PCOD8027369
_publ_section_title
;
Structure prediction by ZEFSAII (Michael W. Deem and Ramdas Pophale) SiO2 
 PCOD8027369
Probable space group: P -1
;
_chemical_formula_sum "Si O2"
_cell_formula_units_Z 16
_cell_length_a 14.804771
_cell_length_b 12.043791
_cell_length_c 14.297618
_cell_angle_alpha 129.588956
_cell_angle_beta 152.051764
_cell_angle_gamma 39.672597
_cell_volume 754.974053
_symmetry_space_group_name_H-M "P -1"
_symmetry_group_IT_number 2
_symmetry_cell_setting 'triclinic'
loop_
_space_group_symop_operation_xyz
x,y,z
-x,-y,-z
loop_
_atom_site_type_symbol
_atom_site_label
_atom_site_fract_x
_atom_site_fract_y
_atom_site_fract_z
Si Si1 0.602190 0.619924 0.013651
Si Si2 0.776011 0.443509 0.349945
Si Si3 0.747338 0.737566 0.389506
Si Si4 0.315075 0.998496 0.893486
Si Si5 0.458108 0.382259 0.334542
Si Si6 0.124398 0.690750 0.426643
Si Si7 0.033318 0.544319 0.903729
Si Si8 0.615839 0.877169 0.784232
O O1 0.467083 0.536070 0.882259
O O2 0.400270 0.798273 0.872115
O O3 0.707218 0.664884 0.218791
O O4 0.815584 0.487926 0.068427
O O5 0.714539 0.641159 0.394614
O O6 0.891163 0.352188 0.504377
O O7 0.981863 0.321202 0.396341
O O8 0.568859 0.946506 0.347758
O O9 0.071649 0.108829 0.673975
O O10 0.287457 0.080923 0.014404
O O11 0.500000 0.000000 0.000000
O O12 0.500000 0.500000 0.500000
O O13 0.629577 0.334169 0.377740
O O14 0.519007 0.210296 0.354043
O O15 0.194132 0.483015 0.110044
O O16 0.085886 0.562398 0.261302
O O17 0.829307 0.750735 0.840585
#
# Coordination Sequence:
#
# PCOD8027369 Si02
#       8
#     2   2   2   2   2   2   2   2
#     4  11  22  40  67  91 125 164 210 256 311 370
#     4  11  23  42  68  90 121 167 216 254 308 370
#     4  10  24  45  65  90 125 163 211 266 305 358
#     4  11  21  38  60  95 130 163 201 256 317 363
#     4  12  23  36  63  94 127 167 201 246 316 383
#     4  12  22  37  63  93 128 162 204 254 311 372
#     4  12  22  42  60  93 133 164 196 259 319 369
#     4  11  23  41  63  93 130 164 205 256 313 367
#
# _framework density 21.192781
#
# number of rings (size 3 to 8) (size 9 to 14) (size 15 to 20)
#    0.000    0.750    6.250    2.250    1.750    0.500 
#    0.000    1.250    0.000    0.000    0.000    0.000 
#    0.000    0.000    0.000    0.000    0.000    0.000 
#
# Total GULP energy -198387.076363 kJ/mol
# GULP energy per Si atom -12399.192273 kJ/mol
# Density = 2.114455 g / cm^3
# Si number density = 21.192781 Si / 1000 Ang^3
#
#
#
# Elastic Constant Matrix: (Units=GPa)
#
#
# Indices 1 2 3 4 5 6 
#
# 1 92.6785 51.5429 21.4389 -2.0976 27.3063 3.5671
# 2 51.5429 127.1071 22.9857 -17.3391 22.7865 1.2178
# 3 21.4389 22.9857 67.2222 3.2916 26.5878 -2.4659
# 4 -2.0976 -17.3391 3.2916 34.1037 -0.3953 -1.6164
# 5 27.3063 22.7865 26.5878 -0.3953 40.5256 0.4290
# 6 3.5671 1.2178 -2.4659 -1.6164 0.4290 39.9136
#
#
#
# Elastic Compliance Matrix: (Units=1/GPa)
#
#
# Indices 1 2 3 4 5 6 
#
# 1 0.016088 -0.005346 -0.000214 -0.001858 -0.007698 -0.001280
# 2 -0.005346 0.011416 -0.001853 0.005649 -0.001549 0.000260
# 3 -0.000214 -0.001853 0.020695 -0.003032 -0.012435 0.001365
# 4 -0.001858 0.005649 -0.003032 0.032430 0.000370 0.001116
# 5 -0.007698 -0.001549 -0.012435 0.000370 0.038900 -0.000436
# 6 -0.001280 0.000260 0.001365 0.001116 -0.000436 0.025295
#
#
# Mechanical properties :
#
#
# Convention : Reuss Voigt Hill
#
# Bulk Modulus (GPa) = 29.96469 53.21587 41.59028
# Shear Modulus (GPa) = 29.27826 35.64461 32.46143
#
# Velocity S-wave (km/s) = 3.72091 4.10557 3.91797
# Velocity P-wave (km/s) = 5.71227 6.90212 6.33519
#
# Compressibility (1/GPa) = 0.03337261
#
# Stress axis : x y z
#
# Youngs Moduli (GPa) = 62.15708 87.59546 48.32105
#
# Poissons Ratio (x) = 0.46831 0.01034
# Poissons Ratio (y) = 0.33231 0.08954
# Poissons Ratio (z) = 0.01330 0.16232
#
# Static dielectric constant tensor:
#      x y z
#    x 3.926340 0.120440 0.204220 
#    y 0.120440 3.855720 -0.164810 
#    z 0.204220 -0.164810 4.171690 
# 
# 
# High freq. dielectric constant tensor:
#      x y z
#    x 1.828340 0.003990 0.011040 
#    y 0.003990 1.821260 -0.002800 
#    z 0.011040 -0.002800 1.837410 
# 
# From -- ./inp_files/314826.got.cif
#   From: 2010.06.25/outbox.cif.g09.slc.cpg/sg2_158_cif.got.tgz:314826.got - 2010.06.27 13:26:56.
