data_PCOD8027557
_publ_section_title
;
Structure prediction by ZEFSAII (Michael W. Deem and Ramdas Pophale) SiO2 
 PCOD8027557
Probable space group: P -1
;
_chemical_formula_sum "Si O2"
_cell_formula_units_Z 12
_cell_length_a 20.239620
_cell_length_b 6.757795
_cell_length_c 6.049909
_cell_angle_alpha 68.753518
_cell_angle_beta 135.146349
_cell_angle_gamma 124.655501
_cell_volume 478.891604
_symmetry_space_group_name_H-M "P -1"
_symmetry_group_IT_number 2
_symmetry_cell_setting 'triclinic'
loop_
_space_group_symop_operation_xyz
x,y,z
-x,-y,-z
loop_
_atom_site_type_symbol
_atom_site_label
_atom_site_fract_x
_atom_site_fract_y
_atom_site_fract_z
Si Si1 0.290265 0.485995 0.240981
Si Si2 0.149054 0.130447 0.693858
Si Si3 0.478120 0.717297 0.303656
Si Si4 0.657963 0.199185 0.384301
Si Si5 0.238519 0.037889 0.544094
Si Si6 0.028137 0.772869 0.915409
O O1 0.398903 0.705369 0.316690
O O2 0.257475 0.604735 0.321639
O O3 0.311453 0.274557 0.477795
O O4 0.201034 0.359948 0.891333
O O5 0.241283 0.104273 0.784059
O O6 0.076001 0.191080 0.331168
O O7 0.082138 0.875317 0.762225
O O8 0.500000 0.500000 0.500000
O O9 0.587711 0.962384 0.458833
O O10 0.416327 0.693524 0.934623
O O11 0.719858 0.151876 0.345875
O O12 0.113608 0.931682 0.237090
O O13 0.000000 0.500000 0.000000
#
# Coordination Sequence:
#
# PCOD8027557 Si02
#       6
#     2   2   2   2   2   2
#     4  11  24  46  73 102 146 189 236 292 355 419
#     4  10  24  49  69 104 149 183 233 301 349 419
#     4  11  24  48  72 105 144 190 237 295 352 426
#     4  11  26  47  72 107 142 190 239 292 358 421
#     4  11  24  46  73 107 144 185 241 294 351 422
#     4  10  24  45  72 106 139 192 235 289 357 426
#
# _framework density 25.057860999999999
#
# number of rings (size 3 to 8) (size 9 to 14) (size 15 to 20)
#    0.000    1.333    1.667    2.000    4.667    4.000 
#    9.000    0.000    0.000    0.000    0.000    0.000 
#    0.000    0.000    0.000    0.000    0.000    0.000 
#
# Total GULP energy -148679.001760 kJ/mol
# GULP energy per Si atom -12389.916813 kJ/mol
# Density = 2.500083 g / cm^3
# Si number density = 25.057861 Si / 1000 Ang^3
#
#
#
# Elastic Constant Matrix: (Units=GPa)
#
#
# Indices 1 2 3 4 5 6 
#
# 1 118.5432 61.7297 34.8527 6.7315 -5.2489 -9.4542
# 2 61.7297 146.0460 65.8852 -10.4640 -9.7672 -2.4906
# 3 34.8527 65.8852 103.9979 -1.3895 2.3511 -20.8655
# 4 6.7315 -10.4640 -1.3895 50.9642 -3.0025 -11.9270
# 5 -5.2489 -9.7672 2.3511 -3.0025 25.0880 -3.1368
# 6 -9.4542 -2.4906 -20.8655 -11.9270 -3.1368 38.5595
#
#
#
# Elastic Compliance Matrix: (Units=1/GPa)
#
#
# Indices 1 2 3 4 5 6 
#
# 1 0.011257 -0.004563 -0.000611 -0.002043 0.000585 0.001550
# 2 -0.004563 0.012334 -0.006940 0.002519 0.004432 -0.002938
# 3 -0.000611 -0.006940 0.015902 0.000767 -0.003230 0.007981
# 4 -0.002043 0.002519 0.000767 0.022386 0.004077 0.007333
# 5 0.000585 0.004432 -0.003230 0.004077 0.042928 0.003435
# 6 0.001550 -0.002938 0.007981 0.007333 0.003435 0.032991
#
#
# Mechanical properties :
#
#
# Convention : Reuss Voigt Hill
#
# Bulk Modulus (GPa) = 65.51736 77.05802 71.28769
# Shear Modulus (GPa) = 29.91959 36.66362 33.29160
#
# Velocity S-wave (km/s) = 3.45921 3.82928 3.64894
# Velocity P-wave (km/s) = 6.49292 7.09718 6.80176
#
# Compressibility (1/GPa) = 0.01526313
#
# Stress axis : x y z
#
# Youngs Moduli (GPa) = 88.83159 81.07873 62.88553
#
# Poissons Ratio (x) = 0.36998 0.03844
# Poissons Ratio (y) = 0.40536 0.43645
# Poissons Ratio (z) = 0.05430 0.56272
#
# Static dielectric constant tensor:
#      x y z
#    x 4.583270 0.265860 -0.099370 
#    y 0.265860 4.612280 -0.042470 
#    z -0.099370 -0.042470 4.454010 
# 
# 
# High freq. dielectric constant tensor:
#      x y z
#    x 1.992780 0.014690 -0.012660 
#    y 0.014690 2.005620 -0.008530 
#    z -0.012660 -0.008530 1.988260 
# 
# From -- ./inp_files/4506.got.cif
#   From: 2010.06.25/outbox.cif.g09.slc.cpg/sg2_3_cif.got.tgz:4506.got - 2010.06.27 13:26:56.
