data_PCOD8027637
_publ_section_title
;
Structure prediction by ZEFSAII (Michael W. Deem and Ramdas Pophale) SiO2 
 PCOD8027637
Probable space group: P -1
;
_chemical_formula_sum "Si O2"
_cell_formula_units_Z 16
_cell_length_a 14.776441
_cell_length_b 12.138971
_cell_length_c 9.372448
_cell_angle_alpha 113.900515
_cell_angle_beta 78.051272
_cell_angle_gamma 152.156967
_cell_volume 671.334052
_symmetry_space_group_name_H-M "P -1"
_symmetry_group_IT_number 2
_symmetry_cell_setting 'triclinic'
loop_
_space_group_symop_operation_xyz
x,y,z
-x,-y,-z
loop_
_atom_site_type_symbol
_atom_site_label
_atom_site_fract_x
_atom_site_fract_y
_atom_site_fract_z
Si Si1 0.784591 0.729537 0.500397
Si Si2 0.394570 0.952954 0.384416
Si Si3 0.039659 0.107859 0.193065
Si Si4 0.452588 0.170530 0.972744
Si Si5 0.567629 0.337026 0.715649
Si Si6 0.048222 0.562644 0.850943
Si Si7 0.603389 0.607469 0.226234
Si Si8 0.316437 0.655535 0.747873
O O1 0.621557 0.616765 0.399297
O O2 0.738756 0.533601 0.408461
O O3 0.814060 0.801234 0.695395
O O4 0.000000 0.000000 0.500000
O O5 0.155474 0.641234 0.279652
O O6 0.500000 0.000000 0.500000
O O7 0.421384 0.121421 0.521391
O O8 0.509183 0.072139 0.258211
O O9 0.186184 0.394646 0.259282
O O10 0.826937 0.890706 0.227613
O O11 0.000000 0.000000 0.000000
O O12 0.490136 0.356760 0.073613
O O13 0.598893 0.265934 0.079647
O O14 0.514179 0.203950 0.809320
O O15 0.214290 0.860975 0.920591
O O16 0.535392 0.442446 0.799833
O O17 0.120653 0.515416 0.749751
O O18 0.000000 0.500000 0.000000
#
# Coordination Sequence:
#
# PCOD8027637 Si02
#       8
#     2   2   2   2   2   2   2   2
#     4   9  21  43  68 103 142 189 228 297 358 431
#     4  12  29  50  75 107 144 195 245 304 370 428
#     4  11  22  42  68 101 143 190 233 291 370 417
#     4  11  24  48  73 108 151 189 239 312 359 428
#     4  12  26  45  71 108 147 187 238 298 367 440
#     4  12  28  50  79 106 137 201 253 298 365 432
#     4  10  24  46  68 106 150 184 237 295 362 442
#     4  11  24  50  74 104 150 184 248 304 359 439
#
# _framework density 23.833141999999999
#
# number of rings (size 3 to 8) (size 9 to 14) (size 15 to 20)
#    0.000    1.000    3.750    1.500    5.250    3.500 
#    6.750    0.000    0.000    0.000    0.000    0.000 
#    0.000    0.000    0.000    0.000    0.000    0.000 
#
# Total GULP energy -198299.318679 kJ/mol
# GULP energy per Si atom -12393.707417 kJ/mol
# Density = 2.377890 g / cm^3
# Si number density = 23.833142 Si / 1000 Ang^3
#
#
#
# Elastic Constant Matrix: (Units=GPa)
#
#
# Indices 1 2 3 4 5 6 
#
# 1 100.1837 33.7532 24.7290 1.3525 17.0312 -3.8916
# 2 33.7532 184.3704 51.9980 5.0531 13.7144 -6.3628
# 3 24.7290 51.9980 148.2239 -11.1418 32.5956 3.7335
# 4 1.3525 5.0531 -11.1418 53.6468 -0.8837 7.2567
# 5 17.0312 13.7144 32.5956 -0.8837 28.5121 2.9604
# 6 -3.8916 -6.3628 3.7335 7.2567 2.9604 25.8853
#
#
#
# Elastic Compliance Matrix: (Units=1/GPa)
#
#
# Indices 1 2 3 4 5 6 
#
# 1 0.011711 -0.001543 -0.000111 -0.000588 -0.006383 0.002292
# 2 -0.001543 0.006414 -0.002150 -0.001283 0.000046 0.002009
# 3 -0.000111 -0.002150 0.009936 0.002303 -0.010034 -0.001476
# 4 -0.000588 -0.001283 0.002303 0.020104 -0.000385 -0.006328
# 5 -0.006383 0.000046 -0.010034 -0.000385 0.050864 -0.005210
# 6 0.002292 0.002009 -0.001476 -0.006328 -0.005210 0.042053
#
#
# Mechanical properties :
#
#
# Convention : Reuss Voigt Hill
#
# Bulk Modulus (GPa) = 48.89013 72.63761 60.76387
# Shear Modulus (GPa) = 32.15307 43.09535 37.62421
#
# Velocity S-wave (km/s) = 3.67698 4.25692 3.97753
# Velocity P-wave (km/s) = 6.21168 7.39632 6.82973
#
# Compressibility (1/GPa) = 0.02045403
#
# Stress axis : x y z
#
# Youngs Moduli (GPa) = 85.39111 155.91779 100.64327
#
# Poissons Ratio (x) = 0.24052 0.01117
# Poissons Ratio (y) = 0.13173 0.21635
# Poissons Ratio (z) = 0.00948 0.33517
#
# Static dielectric constant tensor:
#      x y z
#    x 4.136730 -0.341460 0.259250 
#    y -0.341460 5.013920 -0.045100 
#    z 0.259250 -0.045100 5.030520 
# 
# 
# High freq. dielectric constant tensor:
#      x y z
#    x 1.917640 -0.011550 0.014400 
#    y -0.011550 1.969220 -0.005710 
#    z 0.014400 -0.005710 1.967580 
# 
# From -- ./inp_files/308014.got.cif
#   From: 2010.06.25/outbox.cif.g09.slc.cpg/sg2_155_cif.got.tgz:308014.got - 2010.06.27 13:26:56.
