data_PCOD8027252
_publ_section_title
;
Structure prediction by ZEFSAII (Michael W. Deem and Ramdas Pophale) SiO2 
 PCOD8027252
Probable space group: P -1
;
_chemical_formula_sum "Si O2"
_cell_formula_units_Z 14
_cell_length_a 8.527968
_cell_length_b 27.433394
_cell_length_c 4.965973
_cell_angle_alpha 116.692500
_cell_angle_beta 52.445328
_cell_angle_gamma 145.596511
_cell_volume 516.649615
_symmetry_space_group_name_H-M "P -1"
_symmetry_group_IT_number 2
_symmetry_cell_setting 'triclinic'
loop_
_space_group_symop_operation_xyz
x,y,z
-x,-y,-z
loop_
_atom_site_type_symbol
_atom_site_label
_atom_site_fract_x
_atom_site_fract_y
_atom_site_fract_z
Si Si1 0.186390 0.705830 0.505187
Si Si2 0.823123 0.593516 0.125504
Si Si3 0.177388 0.121611 0.545500
Si Si4 0.853238 0.741130 0.972687
Si Si5 0.339614 0.553722 0.871861
Si Si6 0.057525 0.847192 0.533006
Si Si7 0.250590 0.027258 0.000010
O O1 0.547792 0.777349 0.396499
O O2 0.119287 0.657550 0.183510
O O3 0.111949 0.752773 0.634796
O O4 0.940898 0.633380 0.806503
O O5 0.556413 0.579758 0.461001
O O6 0.686604 0.502727 0.032240
O O7 0.329479 0.093934 0.289078
O O8 0.036417 0.113129 0.387015
O O9 0.894863 0.056580 0.899125
O O10 0.502220 0.640314 0.064744
O O11 0.904480 0.804352 0.879575
O O12 0.916384 0.771933 0.289178
O O13 0.000000 0.500000 0.000000
O O14 0.434279 0.924451 0.355890
O O15 0.000000 0.000000 0.000000
#
# Coordination Sequence:
#
# PCOD8027252 Si02
#       7
#     2   2   2   2   2   2   2
#     4  11  23  46  74  97 146 184 235 282 351 411
#     4  10  25  45  69 103 138 190 230 290 342 412
#     4  11  27  43  73 105 136 186 232 285 349 416
#     4  11  25  46  70 103 143 187 227 292 346 412
#     4  10  24  44  71 103 144 181 238 288 348 406
#     4  12  27  46  72 105 144 182 235 284 349 419
#     4  11  26  48  73 103 140 185 229 294 347 413
#
# _framework density 27.097671999999999
#
# number of rings (size 3 to 8) (size 9 to 14) (size 15 to 20)
#    0.000    1.143    1.429    3.000   10.000    6.857 
#    0.000    7.143    0.000    0.000    0.000    0.000 
#    0.000    0.000    0.000    0.000    0.000    0.000 
#
# Total GULP energy -173666.549446 kJ/mol
# GULP energy per Si atom -12404.753532 kJ/mol
# Density = 2.703600 g / cm^3
# Si number density = 27.097672 Si / 1000 Ang^3
#
#
#
# Elastic Constant Matrix: (Units=GPa)
#
#
# Indices 1 2 3 4 5 6 
#
# 1 120.4973 43.2861 19.6874 -25.9738 -1.3089 5.6630
# 2 43.2861 152.4405 21.2653 -22.5037 -6.2583 -1.0877
# 3 19.6874 21.2653 53.2141 -17.0482 -0.1194 0.3897
# 4 -25.9738 -22.5037 -17.0482 31.4389 4.5465 1.5716
# 5 -1.3089 -6.2583 -0.1194 4.5465 46.5897 -9.7331
# 6 5.6630 -1.0877 0.3897 1.5716 -9.7331 60.3393
#
#
#
# Elastic Compliance Matrix: (Units=1/GPa)
#
#
# Indices 1 2 3 4 5 6 
#
# 1 0.010743 -0.001908 -0.000886 0.007236 -0.000951 -0.001379
# 2 -0.001908 0.007791 -0.001414 0.003105 0.000764 0.000371
# 3 -0.000886 -0.001414 0.023237 0.011084 -0.001362 -0.000601
# 4 0.007236 0.003105 0.011084 0.046797 -0.004468 -0.002634
# 5 -0.000951 0.000764 -0.001362 -0.004468 0.022788 0.003904
# 6 -0.001379 0.000371 -0.000601 -0.002634 0.003904 0.017411
#
#
# Mechanical properties :
#
#
# Convention : Reuss Voigt Hill
#
# Bulk Modulus (GPa) = 29.97943 54.95881 42.46912
# Shear Modulus (GPa) = 33.71507 43.80114 38.75810
#
# Velocity S-wave (km/s) = 3.53116 4.02483 3.78605
# Velocity P-wave (km/s) = 5.26430 6.47494 5.90075
#
# Compressibility (1/GPa) = 0.03335620
#
# Stress axis : x y z
#
# Youngs Moduli (GPa) = 93.08155 128.34895 43.03473
#
# Poissons Ratio (x) = 0.24484 0.03813
# Poissons Ratio (y) = 0.17757 0.06085
# Poissons Ratio (z) = 0.08248 0.18148
#
# Static dielectric constant tensor:
#      x y z
#    x 4.866800 -0.183190 -0.130440 
#    y -0.183190 5.484120 0.284750 
#    z -0.130440 0.284750 4.626460 
# 
# 
# High freq. dielectric constant tensor:
#      x y z
#    x 2.095520 -0.001650 -0.006050 
#    y -0.001650 2.119490 0.009340 
#    z -0.006050 0.009340 2.079940 
# 
# From -- ./inp_files/56490.got.cif
#   From: 2010.06.25/outbox.cif.g09.slc.cpg/sg2_29_cif.got.tgz:56490.got - 2010.06.27 13:26:56.
