data_PCOD8027728
_publ_section_title
;
Structure prediction by ZEFSAII (Michael W. Deem and Ramdas Pophale) SiO2 
 PCOD8027728
Probable space group: P -1
;
_chemical_formula_sum "Si O2"
_cell_formula_units_Z 16
_cell_length_a 19.837934
_cell_length_b 8.229706
_cell_length_c 10.407383
_cell_angle_alpha 49.744108
_cell_angle_beta 141.165763
_cell_angle_gamma 133.466918
_cell_volume 750.216894
_symmetry_space_group_name_H-M "P -1"
_symmetry_group_IT_number 2
_symmetry_cell_setting 'triclinic'
loop_
_space_group_symop_operation_xyz
x,y,z
-x,-y,-z
loop_
_atom_site_type_symbol
_atom_site_label
_atom_site_fract_x
_atom_site_fract_y
_atom_site_fract_z
Si Si1 0.241517 0.381180 0.053044
Si Si2 0.377560 0.312918 0.873591
Si Si3 0.843612 0.773654 0.262879
Si Si4 0.570572 0.113648 0.920845
Si Si5 0.019781 0.283338 0.280392
Si Si6 0.583679 0.873484 0.540797
Si Si7 0.362811 0.666677 0.486881
Si Si8 0.859299 0.553758 0.874310
O O1 0.319316 0.651102 0.008503
O O2 0.318572 0.230481 0.260504
O O3 0.159962 0.325625 0.086788
O O4 0.153172 0.298918 0.843049
O O5 0.290985 0.280358 0.880222
O O6 0.333318 0.414498 0.633634
O O7 0.500000 0.500000 0.000000
O O8 0.382616 0.066487 0.980762
O O9 0.897487 0.642996 0.508349
O O10 0.915695 0.039743 0.261063
O O11 0.481589 0.174461 0.667502
O O12 0.500000 0.000000 0.000000
O O13 0.097109 0.282083 0.270144
O O14 0.962034 0.468369 0.095889
O O15 0.492152 0.752596 0.578557
O O16 0.643233 0.148960 0.511554
O O17 0.267100 0.644799 0.246374
#
# Coordination Sequence:
#
# PCOD8027728 Si02
#       8
#     2   2   2   2   2   2   2   2
#     4  12  26  42  65 101 142 170 216 281 347 393
#     4  12  23  42  68  98 135 177 225 266 331 408
#     4  11  24  44  68  98 128 178 221 283 328 395
#     4  12  25  37  60  99 141 177 214 269 334 398
#     4  10  24  46  72  91 127 177 242 269 324 395
#     4  11  24  40  64  97 139 180 217 267 329 415
#     4  11  22  41  67  94 128 185 227 264 323 403
#     4  11  23  43  68  97 124 176 225 286 326 391
#
# _framework density 21.327168
#
# number of rings (size 3 to 8) (size 9 to 14) (size 15 to 20)
#    0.000    0.750    3.750    4.125    3.500    1.000 
#    0.000    0.000    0.000    0.000    0.000    0.000 
#    0.000    0.000    0.000    0.000    0.000    0.000 
#
# Total GULP energy -198418.206985 kJ/mol
# GULP energy per Si atom -12401.137937 kJ/mol
# Density = 2.127863 g / cm^3
# Si number density = 21.327168 Si / 1000 Ang^3
#
#
#
# Elastic Constant Matrix: (Units=GPa)
#
#
# Indices 1 2 3 4 5 6 
#
# 1 130.0665 15.8941 57.4385 2.8559 0.5513 -7.6689
# 2 15.8941 62.1723 42.2005 0.6737 1.2905 -6.9529
# 3 57.4385 42.2005 126.6556 6.1030 -6.6511 -10.3980
# 4 2.8559 0.6737 6.1030 38.5409 -1.2022 -4.4179
# 5 0.5513 1.2905 -6.6511 -1.2022 37.8673 4.6289
# 6 -7.6689 -6.9529 -10.3980 -4.4179 4.6289 30.0761
#
#
#
# Elastic Compliance Matrix: (Units=1/GPa)
#
#
# Indices 1 2 3 4 5 6 
#
# 1 0.009714 0.000832 -0.004644 0.000109 -0.001135 0.001254
# 2 0.000832 0.021267 -0.007383 0.001016 -0.002379 0.003091
# 3 -0.004644 -0.007383 0.012730 -0.001360 0.002397 0.000941
# 4 0.000109 0.001016 -0.001360 0.026561 0.000119 0.003676
# 5 -0.001135 -0.002379 0.002397 0.000119 0.027446 -0.004217
# 6 0.001254 0.003091 0.000941 0.003676 -0.004217 0.035798
#
#
# Mechanical properties :
#
#
# Convention : Reuss Voigt Hill
#
# Bulk Modulus (GPa) = 46.90465 61.10672 54.00569
# Shear Modulus (GPa) = 30.67188 34.85428 32.76308
#
# Velocity S-wave (km/s) = 3.79642 4.04699 3.92371
# Velocity P-wave (km/s) = 6.42322 7.10998 6.77531
#
# Compressibility (1/GPa) = 0.02131985
#
# Stress axis : x y z
#
# Youngs Moduli (GPa) = 102.94289 47.02029 78.55180
#
# Poissons Ratio (x) = -0.03911 0.36483
# Poissons Ratio (y) = -0.08562 0.57998
# Poissons Ratio (z) = 0.47811 0.34717
#
# Static dielectric constant tensor:
#      x y z
#    x 4.057820 0.079540 -0.152820 
#    y 0.079540 3.844870 -0.032770 
#    z -0.152820 -0.032770 4.122250 
# 
# 
# High freq. dielectric constant tensor:
#      x y z
#    x 1.841960 0.008070 -0.007430 
#    y 0.008070 1.825800 0.002250 
#    z -0.007430 0.002250 1.850830 
# 
# From -- ./inp_files/392756.got.cif
#   From: 2010.06.25/outbox.cif.g09.slc.cpg/sg2_197_cif.got.tgz:392756.got - 2010.06.27 13:26:56.
