data_PCOD8027510
_publ_section_title
;
Structure prediction by ZEFSAII (Michael W. Deem and Ramdas Pophale) SiO2 
 PCOD8027510
Probable space group: P -1
;
_chemical_formula_sum "Si O2"
_cell_formula_units_Z 16
_cell_length_a 19.253564
_cell_length_b 9.770725
_cell_length_c 12.189687
_cell_angle_alpha 53.387485
_cell_angle_beta 150.984487
_cell_angle_gamma 140.477237
_cell_volume 684.772580
_symmetry_space_group_name_H-M "P -1"
_symmetry_group_IT_number 2
_symmetry_cell_setting 'triclinic'
loop_
_space_group_symop_operation_xyz
x,y,z
-x,-y,-z
loop_
_atom_site_type_symbol
_atom_site_label
_atom_site_fract_x
_atom_site_fract_y
_atom_site_fract_z
Si Si1 0.252177 0.514299 0.174756
Si Si2 0.307138 0.839860 0.940598
Si Si3 0.175980 0.752507 0.352293
Si Si4 0.304828 0.692021 0.775994
Si Si5 0.075059 0.911673 0.722083
Si Si6 0.669831 0.679262 0.972048
Si Si7 0.278629 0.524888 0.458643
Si Si8 0.788391 0.847425 0.814662
O O1 0.371019 0.731947 0.157673
O O2 0.303385 0.588876 0.335055
O O3 0.316136 0.370184 0.302805
O O4 0.034190 0.381002 0.914525
O O5 0.477352 0.099142 0.037489
O O6 0.234098 0.712759 0.784105
O O7 0.135417 0.802421 0.780314
O O8 0.178516 0.681785 0.512954
O O9 0.284613 0.707062 0.444447
O O10 0.286702 0.018118 0.372636
O O11 0.284361 0.472625 0.845205
O O12 0.913753 0.723338 0.670805
O O13 0.000000 0.000000 0.500000
O O14 0.248104 0.113132 0.934685
O O15 0.447685 0.535324 0.727664
O O16 0.768873 0.774569 0.947182
O O17 0.000000 0.000000 0.000000
#
# Coordination Sequence:
#
# PCOD8027510 Si02
#       8
#     2   2   2   2   2   2   2   2
#     4  11  24  46  71 104 146 185 243 302 359 427
#     4  11  25  45  72 104 144 193 241 300 367 426
#     4  11  24  45  75 104 142 189 239 301 360 433
#     4  11  26  48  73 107 144 188 251 300 361 436
#     4  12  26  46  74 107 148 194 239 299 368 433
#     4  12  27  48  74 107 149 192 238 304 361 428
#     4  12  27  46  75 109 149 190 245 297 362 441
#     4  10  24  45  70 106 141 190 243 292 360 432
#
# _framework density 23.365421999999999
#
# number of rings (size 3 to 8) (size 9 to 14) (size 15 to 20)
#    0.000    0.750    2.500    4.125    3.500    8.000 
#    0.000    0.000    0.000    0.000    0.000    0.000 
#    0.000    0.000    0.000    0.000    0.000    0.000 
#
# Total GULP energy -198471.493798 kJ/mol
# GULP energy per Si atom -12404.468362 kJ/mol
# Density = 2.331224 g / cm^3
# Si number density = 23.365422 Si / 1000 Ang^3
#
#
#
# Elastic Constant Matrix: (Units=GPa)
#
#
# Indices 1 2 3 4 5 6 
#
# 1 125.4209 63.8968 25.5880 -3.7781 -31.9477 -17.1207
# 2 63.8968 141.5185 37.1558 -37.9034 -2.6383 -8.5066
# 3 25.5880 37.1558 99.8204 -4.7686 -16.3025 -8.5713
# 4 -3.7781 -37.9034 -4.7686 37.3658 6.2674 -2.8049
# 5 -31.9477 -2.6383 -16.3025 6.2674 33.1518 -3.1576
# 6 -17.1207 -8.5066 -8.5713 -2.8049 -3.1576 39.4468
#
#
#
# Elastic Compliance Matrix: (Units=1/GPa)
#
#
# Indices 1 2 3 4 5 6 
#
# 1 0.020795 -0.013234 0.003535 -0.014337 0.024183 0.007856
# 2 -0.013234 0.019713 -0.006208 0.020744 -0.018430 -0.002842
# 3 0.003535 -0.006208 0.013219 -0.005808 0.010846 0.003523
# 4 -0.014337 0.020744 -0.005808 0.049622 -0.024541 -0.001447
# 5 0.024183 -0.018430 0.010846 -0.024541 0.063136 0.012187
# 6 0.007856 -0.002842 0.003523 -0.001447 0.012187 0.029785
#
#
# Mechanical properties :
#
#
# Convention : Reuss Voigt Hill
#
# Bulk Modulus (GPa) = 45.63735 68.89344 57.26539
# Shear Modulus (GPa) = 21.24142 38.00084 29.62113
#
# Velocity S-wave (km/s) = 3.01839 4.03720 3.56439
# Velocity P-wave (km/s) = 5.63223 7.16109 6.44218
#
# Compressibility (1/GPa) = 0.02191188
#
# Stress axis : x y z
#
# Youngs Moduli (GPa) = 48.08936 50.72805 75.64723
#
# Poissons Ratio (x) = 0.67133 -0.26739
# Poissons Ratio (y) = 0.63641 0.46964
# Poissons Ratio (z) = -0.16998 0.31493
#
# Static dielectric constant tensor:
#      x y z
#    x 4.253310 -0.182940 -0.171850 
#    y -0.182940 5.535300 -0.289890 
#    z -0.171850 -0.289890 3.947410 
# 
# 
# High freq. dielectric constant tensor:
#      x y z
#    x 1.936730 -0.001220 -0.001450 
#    y -0.001220 1.945430 -0.005290 
#    z -0.001450 -0.005290 1.920460 
# 
# From -- ./inp_files/462021.got.cif
#   From: 2010.06.25/outbox.cif.g09.slc.cpg/sg2_232_cif.got.tgz:462021.got - 2010.06.27 13:26:56.
