data_PCOD8027973
_publ_section_title
;
Structure prediction by ZEFSAII (Michael W. Deem and Ramdas Pophale) SiO2 
 PCOD8027973
Probable space group: P -1
;
_chemical_formula_sum "Si O2"
_cell_formula_units_Z 16
_cell_length_a 11.174144
_cell_length_b 17.583113
_cell_length_c 18.681829
_cell_angle_alpha 16.164945
_cell_angle_beta 46.268871
_cell_angle_gamma 46.459320
_cell_volume 732.719914
_symmetry_space_group_name_H-M "P -1"
_symmetry_group_IT_number 2
_symmetry_cell_setting 'triclinic'
loop_
_space_group_symop_operation_xyz
x,y,z
-x,-y,-z
loop_
_atom_site_type_symbol
_atom_site_label
_atom_site_fract_x
_atom_site_fract_y
_atom_site_fract_z
Si Si1 0.354675 0.977278 0.320899
Si Si2 0.105752 0.773486 0.517336
Si Si3 0.546931 0.481343 0.774794
Si Si4 0.080636 0.689382 0.239992
Si Si5 0.195961 0.841531 0.763923
Si Si6 0.902536 0.626032 0.859041
Si Si7 0.085761 0.539736 0.210876
Si Si8 0.558533 0.691559 0.739531
O O1 0.201089 0.078025 0.346454
O O2 0.290077 0.856450 0.381345
O O3 0.485105 0.758131 0.506180
O O4 0.428386 0.250732 0.018858
O O5 0.057802 0.652859 0.720712
O O6 0.091185 0.539927 0.673798
O O7 0.969269 0.025912 0.326469
O O8 0.723865 0.350875 0.788003
O O9 0.561634 0.537384 0.802092
O O10 0.048531 0.604116 0.249492
O O11 0.000000 0.500000 0.500000
O O12 0.000000 0.000000 0.000000
O O13 0.389833 0.937491 0.586689
O O14 0.225479 0.553099 0.967444
O O15 0.154227 0.789302 0.912688
O O16 0.000000 0.500000 0.000000
O O17 0.234178 0.275975 0.373307
O O18 0.500000 0.500000 0.000000
#
# Coordination Sequence:
#
# PCOD8027973 Si02
#       8
#     2   2   2   2   2   2   2   2
#     4  12  23  39  62  92 142 176 224 267 307 384
#     4  11  23  36  59  91 135 184 222 263 315 381
#     4  11  26  42  67 101 128 172 222 271 334 389
#     4  11  26  51  79  99 123 161 218 290 349 404
#     4  11  21  35  56  89 136 180 220 259 315 378
#     4  11  21  34  52  88 136 195 236 251 292 372
#     4  10  25  39  63  96 124 171 221 267 338 394
#     4  11  21  36  57  90 136 178 216 268 313 382
#
# _framework density 21.836449000000002
#
# number of rings (size 3 to 8) (size 9 to 14) (size 15 to 20)
#    0.000    1.000    3.750    3.000    5.250    2.000 
#    0.000    0.000    0.000    4.500    0.000    0.000 
#    0.000    0.000    0.000    0.000    0.000    0.000 
#
# Total GULP energy -198211.953466 kJ/mol
# GULP energy per Si atom -12388.247092 kJ/mol
# Density = 2.178675 g / cm^3
# Si number density = 21.836449 Si / 1000 Ang^3
#
#
#
# Elastic Constant Matrix: (Units=GPa)
#
#
# Indices 1 2 3 4 5 6 
#
# 1 129.0695 49.2020 40.3986 9.9233 2.2171 7.3086
# 2 49.2020 107.5313 37.1264 -7.8350 13.3312 7.2238
# 3 40.3986 37.1264 82.6352 -3.2308 13.2409 9.6643
# 4 9.9233 -7.8350 -3.2308 30.7952 -7.6219 12.5623
# 5 2.2171 13.3312 13.2409 -7.6219 41.6217 -2.9408
# 6 7.3086 7.2238 9.6643 12.5623 -2.9408 30.0522
#
#
#
# Elastic Compliance Matrix: (Units=1/GPa)
#
#
# Indices 1 2 3 4 5 6 
#
# 1 0.010961 -0.004310 -0.004091 -0.005638 0.001218 0.002162
# 2 -0.004310 0.013168 -0.002785 0.005366 -0.002381 -0.003697
# 3 -0.004091 -0.002785 0.016795 0.003707 -0.003955 -0.005673
# 4 -0.005638 0.005366 0.003707 0.045070 0.004276 -0.019532
# 5 0.001218 -0.002381 -0.003955 0.004276 0.026934 0.002396
# 6 0.002162 -0.003697 -0.005673 -0.019532 0.002396 0.043862
#
#
# Mechanical properties :
#
#
# Convention : Reuss Voigt Hill
#
# Bulk Modulus (GPa) = 53.90397 63.63223 58.76810
# Shear Modulus (GPa) = 26.97654 33.32773 30.15214
#
# Velocity S-wave (km/s) = 3.51863 3.91095 3.71997
# Velocity P-wave (km/s) = 6.42235 7.04257 6.73959
#
# Compressibility (1/GPa) = 0.01855151
#
# Stress axis : x y z
#
# Youngs Moduli (GPa) = 91.22912 75.94205 59.54235
#
# Poissons Ratio (x) = 0.32733 0.24358
# Poissons Ratio (y) = 0.39322 0.16584
# Poissons Ratio (z) = 0.37320 0.21152
#
# Static dielectric constant tensor:
#      x y z
#    x 4.533810 -0.173900 -0.124320 
#    y -0.173900 3.845590 -0.138180 
#    z -0.124320 -0.138180 4.000120 
# 
# 
# High freq. dielectric constant tensor:
#      x y z
#    x 1.894810 -0.004340 -0.007630 
#    y -0.004340 1.819140 -0.021600 
#    z -0.007630 -0.021600 1.879720 
# 
# From -- ./inp_files/570220.got.cif
#   From: 2010.06.25/outbox.cif.g09.slc.cpg/sg2_286_cif.got.tgz:570220.got - 2010.06.27 13:26:56.
