data_PCOD8027928
_publ_section_title
;
Structure prediction by ZEFSAII (Michael W. Deem and Ramdas Pophale) SiO2 
 PCOD8027928
Probable space group: P -1
;
_chemical_formula_sum "Si O2"
_cell_formula_units_Z 16
_cell_length_a 14.399180
_cell_length_b 15.561138
_cell_length_c 14.587469
_cell_angle_alpha 31.013926
_cell_angle_beta 147.709858
_cell_angle_gamma 152.023498
_cell_volume 735.220366
_symmetry_space_group_name_H-M "P -1"
_symmetry_group_IT_number 2
_symmetry_cell_setting 'triclinic'
loop_
_space_group_symop_operation_xyz
x,y,z
-x,-y,-z
loop_
_atom_site_type_symbol
_atom_site_label
_atom_site_fract_x
_atom_site_fract_y
_atom_site_fract_z
Si Si1 0.755154 0.313924 0.353257
Si Si2 0.624756 0.660579 0.253590
Si Si3 0.898698 0.590756 0.778702
Si Si4 0.025320 0.750490 0.241354
Si Si5 0.673937 0.803363 0.968861
Si Si6 0.534745 0.823585 0.202939
Si Si7 0.926639 0.184831 0.465812
Si Si8 0.732312 0.784403 0.573617
O O1 0.808554 0.230082 0.562818
O O2 0.516773 0.262172 0.202940
O O3 0.763189 0.205435 0.368190
O O4 0.936756 0.556762 0.278499
O O5 0.632738 0.802923 0.210553
O O6 0.465907 0.423055 0.359950
O O7 0.858132 0.711451 0.391275
O O8 0.564804 0.713065 0.059276
O O9 0.664265 0.401793 0.728554
O O10 0.901233 0.748302 0.705832
O O11 0.034484 0.703145 0.700108
O O12 0.000000 0.500000 0.000000
O O13 0.161660 0.952279 0.109377
O O14 0.812835 0.719153 0.133683
O O15 0.685357 0.885648 0.358863
O O16 0.500000 0.000000 0.000000
O O17 0.831631 0.947477 0.589200
#
# Coordination Sequence:
#
# PCOD8027928 Si02
#       8
#     2   2   2   2   2   2   2   2
#     4  11  25  44  70 102 130 171 222 275 334 410
#     4  11  24  44  61  97 134 170 220 274 327 392
#     4  11  23  40  63  94 131 177 225 266 320 390
#     4  10  24  49  70  96 134 171 215 280 345 394
#     4  11  24  45  72 100 131 172 220 275 337 407
#     4  11  23  40  64  91 133 180 223 265 324 384
#     4  12  24  42  65  95 133 172 221 272 331 389
#     4  11  24  43  62  89 135 181 215 270 325 377
#
# _framework density 21.762184000000001
#
# number of rings (size 3 to 8) (size 9 to 14) (size 15 to 20)
#    0.000    1.000    3.750    2.625    7.000    3.000 
#    2.250    0.000    0.000    0.000    0.000    0.000 
#    0.000    0.000    0.000    0.000    0.000    0.000 
#
# Total GULP energy -198404.486437 kJ/mol
# GULP energy per Si atom -12400.280402 kJ/mol
# Density = 2.171265 g / cm^3
# Si number density = 21.762184 Si / 1000 Ang^3
#
#
#
# Elastic Constant Matrix: (Units=GPa)
#
#
# Indices 1 2 3 4 5 6 
#
# 1 78.0531 34.2703 36.1640 -4.5820 -10.1442 -5.2686
# 2 34.2703 84.4978 31.4206 -9.7466 -10.6519 -7.2964
# 3 36.1640 31.4206 136.4625 4.1378 0.1280 1.2675
# 4 -4.5820 -9.7466 4.1378 45.6024 5.3223 6.7531
# 5 -10.1442 -10.6519 0.1280 5.3223 20.2842 -0.7882
# 6 -5.2686 -7.2964 1.2675 6.7531 -0.7882 25.6657
#
#
#
# Elastic Compliance Matrix: (Units=1/GPa)
#
#
# Indices 1 2 3 4 5 6 
#
# 1 0.017577 -0.004762 -0.003590 -0.000069 0.006433 0.002647
# 2 -0.004762 0.015919 -0.002500 0.002007 0.005596 0.003315
# 3 -0.003590 -0.002500 0.008907 -0.001111 -0.002939 -0.001686
# 4 -0.000069 0.002007 -0.001111 0.023960 -0.005488 -0.005862
# 5 0.006433 0.005596 -0.002939 -0.005488 0.057157 0.006256
# 6 0.002647 0.003315 -0.001686 -0.005862 0.006256 0.042266
#
#
# Mechanical properties :
#
#
# Convention : Reuss Voigt Hill
#
# Bulk Modulus (GPa) = 48.31379 55.85814 52.08597
# Shear Modulus (GPa) = 25.72147 31.45436 28.58792
#
# Velocity S-wave (km/s) = 3.44166 3.80592 3.62836
# Velocity P-wave (km/s) = 6.16785 6.71094 6.44511
#
# Compressibility (1/GPa) = 0.02069802
#
# Stress axis : x y z
#
# Youngs Moduli (GPa) = 56.89320 62.81824 112.26869
#
# Poissons Ratio (x) = 0.29915 0.40305
# Poissons Ratio (y) = 0.27093 0.28070
# Poissons Ratio (z) = 0.20425 0.15706
#
# Static dielectric constant tensor:
#      x y z
#    x 3.691890 -0.012030 0.077280 
#    y -0.012030 3.891740 -0.034860 
#    z 0.077280 -0.034860 4.059330 
# 
# 
# High freq. dielectric constant tensor:
#      x y z
#    x 1.840180 0.004090 0.003530 
#    y 0.004090 1.864820 -0.004010 
#    z 0.003530 -0.004010 1.870020 
# 
# From -- ./inp_files/534206.got.cif
#   From: 2010.06.25/outbox.cif.g09.slc.cpg/sg2_268_cif.got.tgz:534206.got - 2010.06.27 13:26:56.
