data_PCOD8027119
_publ_section_title
;
Structure prediction by ZEFSAII (Michael W. Deem and Ramdas Pophale) SiO2 
 PCOD8027119
Probable space group: P -1
;
_chemical_formula_sum "Si O2"
_cell_formula_units_Z 16
_cell_length_a 13.986410
_cell_length_b 11.220046
_cell_length_c 8.114867
_cell_angle_alpha 110.654544
_cell_angle_beta 70.132002
_cell_angle_gamma 148.518365
_cell_volume 620.293848
_symmetry_space_group_name_H-M "P -1"
_symmetry_group_IT_number 2
_symmetry_cell_setting 'triclinic'
loop_
_space_group_symop_operation_xyz
x,y,z
-x,-y,-z
loop_
_atom_site_type_symbol
_atom_site_label
_atom_site_fract_x
_atom_site_fract_y
_atom_site_fract_z
Si Si1 0.106303 0.902997 0.997715
Si Si2 0.174722 0.783272 0.457169
Si Si3 0.708435 0.724359 0.699302
Si Si4 0.759009 0.221435 0.232114
Si Si5 0.552256 0.722660 0.518211
Si Si6 0.083862 0.290058 0.325813
Si Si7 0.650894 0.264155 0.802812
Si Si8 0.753690 0.471720 0.179936
O O1 0.928935 0.732401 0.136644
O O2 0.267131 0.165144 0.095634
O O3 0.177049 0.832556 0.938486
O O4 0.056774 0.884799 0.828435
O O5 0.140633 0.675741 0.598798
O O6 0.204266 0.704889 0.263474
O O7 0.007807 0.707952 0.488224
O O8 0.361743 0.061110 0.502873
O O9 0.708211 0.816743 0.585187
O O10 0.514514 0.443970 0.668548
O O11 0.874270 0.794626 0.639377
O O12 0.821480 0.416980 0.208099
O O13 0.540536 0.988485 0.273990
O O14 0.369539 0.564971 0.653891
O O15 0.273465 0.547048 0.270420
O O16 0.628748 0.294304 0.013780
#
# Coordination Sequence:
#
# PCOD8027119 Si02
#       8
#     2   2   2   2   2   2   2   2
#     4  10  24  44  68 102 135 177 226 276 338 402
#     4  11  24  42  67 102 139 171 228 278 341 402
#     4  11  25  47  67  94 139 185 226 275 331 399
#     4  11  22  41  69 101 138 176 220 283 341 399
#     4  11  26  44  68 102 132 181 232 274 330 405
#     4  10  24  44  68 102 135 177 226 276 338 402
#     4  11  22  41  69 101 138 176 220 283 341 399
#     4  11  24  42  67 102 139 171 228 278 341 402
#
# _framework density 25.794225999999998
#
# number of rings (size 3 to 8) (size 9 to 14) (size 15 to 20)
#    0.000    1.250    1.250    3.375    3.500    4.000 
#    0.000   13.125    0.000    0.000    0.000    0.000 
#    0.000    0.000    0.000    0.000    0.000    0.000 
#
# Total GULP energy -198379.029699 kJ/mol
# GULP energy per Si atom -12398.689356 kJ/mol
# Density = 2.573552 g / cm^3
# Si number density = 25.794226 Si / 1000 Ang^3
#
#
#
# Elastic Constant Matrix: (Units=GPa)
#
#
# Indices 1 2 3 4 5 6 
#
# 1 157.0260 9.6889 27.9080 1.2412 -7.9550 1.5234
# 2 9.6889 57.5288 30.2439 12.6407 -8.5275 -2.4068
# 3 27.9080 30.2439 69.5703 13.5334 -10.4081 4.9113
# 4 1.2412 12.6407 13.5334 45.0299 3.2673 -3.7508
# 5 -7.9550 -8.5275 -10.4081 3.2673 25.9314 3.5950
# 6 1.5234 -2.4068 4.9113 -3.7508 3.5950 31.6450
#
#
#
# Elastic Compliance Matrix: (Units=1/GPa)
#
#
# Indices 1 2 3 4 5 6 
#
# 1 0.006905 0.000405 -0.002899 0.000502 0.001012 0.000093
# 2 0.000405 0.023803 -0.009211 -0.004062 0.004457 0.002233
# 3 -0.002899 -0.009211 0.021748 -0.004748 0.006130 -0.005195
# 4 0.000502 -0.004062 -0.004748 0.025614 -0.006901 0.004224
# 5 0.001012 0.004457 0.006130 -0.006901 0.044576 -0.006543
# 6 0.000093 0.002233 -0.005195 0.004224 -0.006543 0.033816
#
#
# Mechanical properties :
#
#
# Convention : Reuss Voigt Hill
#
# Bulk Modulus (GPa) = 34.42664 46.64517 40.53591
# Shear Modulus (GPa) = 26.37764 34.94022 30.65893
#
# Velocity S-wave (km/s) = 3.20131 3.68445 3.45134
# Velocity P-wave (km/s) = 5.20001 6.01856 5.62420
#
# Compressibility (1/GPa) = 0.02904727
#
# Stress axis : x y z
#
# Youngs Moduli (GPa) = 144.82347 42.01071 45.98065
#
# Poissons Ratio (x) = -0.01700 0.13328
# Poissons Ratio (y) = -0.05859 0.42352
# Poissons Ratio (z) = 0.41977 0.38695
#
# Static dielectric constant tensor:
#      x y z
#    x 4.740550 0.011240 -0.079540 
#    y 0.011240 4.564320 0.205370 
#    z -0.079540 0.205370 4.510110 
# 
# 
# High freq. dielectric constant tensor:
#      x y z
#    x 2.038620 0.000620 -0.005510 
#    y 0.000620 2.033310 0.022260 
#    z -0.005510 0.022260 2.018440 
# 
# From -- ./inp_files/307985.got.cif
#   From: 2010.06.25/outbox.cif.g09.slc.cpg/sg2_154_cif.got.tgz:307985.got - 2010.06.27 13:26:56.
