data_PCOD8027732
_publ_section_title
;
Structure prediction by ZEFSAII (Michael W. Deem and Ramdas Pophale) SiO2 
 PCOD8027732
Probable space group: P -1
;
_chemical_formula_sum "Si O2"
_cell_formula_units_Z 16
_cell_length_a 10.805261
_cell_length_b 8.586067
_cell_length_c 15.373941
_cell_angle_alpha 125.633317
_cell_angle_beta 79.079282
_cell_angle_gamma 137.237765
_cell_volume 709.926902
_symmetry_space_group_name_H-M "P -1"
_symmetry_group_IT_number 2
_symmetry_cell_setting 'triclinic'
loop_
_space_group_symop_operation_xyz
x,y,z
-x,-y,-z
loop_
_atom_site_type_symbol
_atom_site_label
_atom_site_fract_x
_atom_site_fract_y
_atom_site_fract_z
Si Si1 0.102744 0.323172 0.108805
Si Si2 0.363066 0.772866 0.057446
Si Si3 0.809949 0.243200 0.214780
Si Si4 0.781071 0.274816 0.416945
Si Si5 0.430478 0.609673 0.293034
Si Si6 0.443112 0.639471 0.839209
Si Si7 0.331503 0.422853 0.443568
Si Si8 0.054170 0.188232 0.636856
O O1 0.207223 0.538604 0.078942
O O2 0.254401 0.507473 0.230371
O O3 0.912171 0.218571 0.128451
O O4 0.000000 0.000000 0.000000
O O5 0.592342 0.013327 0.129943
O O6 0.367193 0.002282 0.102512
O O7 0.321241 0.587181 0.919653
O O8 0.778565 0.146292 0.287061
O O9 0.952307 0.597568 0.316391
O O10 0.712492 0.415882 0.458302
O O11 0.000000 0.500000 0.500000
O O12 0.616729 0.975358 0.400997
O O13 0.470416 0.466394 0.183661
O O14 0.379484 0.491480 0.358715
O O15 0.277083 0.400289 0.709207
O O16 0.500000 0.500000 0.500000
O O17 0.122222 0.057994 0.350525
O O18 0.000000 0.000000 0.500000
#
# Coordination Sequence:
#
# PCOD8027732 Si02
#       8
#     2   2   2   2   2   2   2   2
#     4  12  28  45  74 106 145 191 246 308 376 443
#     4  10  24  50  72 100 143 187 249 305 369 428
#     4  11  25  45  74 102 141 194 241 297 369 440
#     4  12  26  47  71 103 154 196 243 306 376 449
#     4  12  27  43  71 105 144 186 248 303 375 437
#     4  10  24  46  73 100 137 194 238 307 364 436
#     4  12  28  43  71 106 149 193 246 303 367 452
#     4  11  23  44  71 102 136 187 243 288 366 438
#
# _framework density 22.537531000000001
#
# number of rings (size 3 to 8) (size 9 to 14) (size 15 to 20)
#    0.000    0.750    2.500    3.375   10.500    1.000 
#    0.000    2.500    0.000    0.000    0.000    0.000 
#    0.000    0.000    0.000    0.000    0.000    0.000 
#
# Total GULP energy -198322.816117 kJ/mol
# GULP energy per Si atom -12395.176007 kJ/mol
# Density = 2.248623 g / cm^3
# Si number density = 22.537531 Si / 1000 Ang^3
#
#
#
# Elastic Constant Matrix: (Units=GPa)
#
#
# Indices 1 2 3 4 5 6 
#
# 1 68.1329 16.6659 16.7198 0.7361 -19.1170 -3.1797
# 2 16.6659 123.2479 27.3064 -0.8923 -3.3772 0.9373
# 3 16.7198 27.3064 106.2759 -0.1680 -7.2203 2.2635
# 4 0.7361 -0.8923 -0.1680 44.8146 -1.7617 3.0406
# 5 -19.1170 -3.3772 -7.2203 -1.7617 38.7457 -6.6541
# 6 -3.1797 0.9373 2.2635 3.0406 -6.6541 26.6201
#
#
#
# Elastic Compliance Matrix: (Units=1/GPa)
#
#
# Indices 1 2 3 4 5 6 
#
# 1 0.018464 -0.001859 -0.001891 -0.000304 0.009409 0.004819
# 2 -0.001859 0.008797 -0.001997 0.000211 -0.000605 -0.000537
# 3 -0.001891 -0.001997 0.010284 0.000115 0.000664 -0.000877
# 4 -0.000304 0.000211 0.000115 0.022513 0.000483 -0.002504
# 5 0.009409 -0.000605 0.000664 0.000483 0.032100 0.009058
# 6 0.004819 -0.000537 -0.000877 -0.002504 0.009058 0.040785
#
#
# Mechanical properties :
#
#
# Convention : Reuss Voigt Hill
#
# Bulk Modulus (GPa) = 38.38638 46.56010 42.47324
# Shear Modulus (GPa) = 32.65403 37.83373 35.24388
#
# Velocity S-wave (km/s) = 3.81054 4.10164 3.95876
# Velocity P-wave (km/s) = 6.03568 6.56772 6.30731
#
# Compressibility (1/GPa) = 0.02605091
#
# Stress axis : x y z
#
# Youngs Moduli (GPa) = 54.15863 113.68054 97.23750
#
# Poissons Ratio (x) = 0.21131 0.18389
# Poissons Ratio (y) = 0.10067 0.19419
# Poissons Ratio (z) = 0.10242 0.22703
#
# Static dielectric constant tensor:
#      x y z
#    x 3.884640 -0.029260 -0.030370 
#    y -0.029260 4.456050 0.338560 
#    z -0.030370 0.338560 3.986780 
# 
# 
# High freq. dielectric constant tensor:
#      x y z
#    x 1.886000 -0.004950 -0.000350 
#    y -0.004950 1.905230 0.003120 
#    z -0.000350 0.003120 1.901010 
# 
# From -- ./inp_files/516256.got.cif
#   From: 2010.06.25/outbox.cif.g09.slc.cpg/sg2_259_cif.got.tgz:516256.got - 2010.06.27 13:26:56.
