data_PCOD8027540
_publ_section_title
;
Structure prediction by ZEFSAII (Michael W. Deem and Ramdas Pophale) SiO2 
 PCOD8027540
Probable space group: P -1
;
_chemical_formula_sum "Si O2"
_cell_formula_units_Z 16
_cell_length_a 8.837517
_cell_length_b 10.987292
_cell_length_c 9.455464
_cell_angle_alpha 104.782009
_cell_angle_beta 86.095796
_cell_angle_gamma 128.487175
_cell_volume 689.870607
_symmetry_space_group_name_H-M "P -1"
_symmetry_group_IT_number 2
_symmetry_cell_setting 'triclinic'
loop_
_space_group_symop_operation_xyz
x,y,z
-x,-y,-z
loop_
_atom_site_type_symbol
_atom_site_label
_atom_site_fract_x
_atom_site_fract_y
_atom_site_fract_z
Si Si1 0.624066 0.034976 0.187991
Si Si2 0.363807 0.315402 0.997001
Si Si3 0.428254 0.698552 0.767530
Si Si4 0.011701 0.492797 0.666014
Si Si5 0.985475 0.258300 0.075522
Si Si6 0.195895 0.063324 0.686121
Si Si7 0.203678 0.797684 0.208275
Si Si8 0.773906 0.901001 0.624056
O O1 0.607174 0.173941 0.221764
O O2 0.782795 0.075064 0.068522
O O3 0.719468 0.034393 0.328878
O O4 0.407693 0.862864 0.138784
O O5 0.489548 0.287730 0.078982
O O6 0.170826 0.263716 0.074220
O O7 0.500000 0.500000 0.000000
O O8 0.308354 0.211419 0.830415
O O9 0.587766 0.735556 0.655036
O O10 0.215573 0.528171 0.703425
O O11 0.989132 0.617814 0.775583
O O12 0.842420 0.317134 0.690363
O O13 0.000000 0.500000 0.500000
O O14 0.964240 0.301257 0.929850
O O15 0.235764 0.138064 0.551234
O O16 0.965519 0.941626 0.695599
O O17 0.222643 0.947530 0.311371
#
# Coordination Sequence:
#
# PCOD8027540 Si02
#       8
#     2   2   2   2   2   2   2   2
#     4  10  25  40  74 101 133 181 234 296 346 403
#     4  12  27  45  72 103 144 194 233 286 354 427
#     4  10  25  46  67 104 138 179 242 286 354 417
#     4  11  27  45  70 101 143 186 234 292 357 424
#     4  11  24  45  66 102 139 183 234 288 352 415
#     4  11  25  43  72 102 145 181 241 281 360 404
#     4  11  23  43  72 101 139 182 236 293 355 418
#     4  10  24  45  71 106 140 183 233 301 346 416
#
# _framework density 23.192754999999998
#
# number of rings (size 3 to 8) (size 9 to 14) (size 15 to 20)
#    0.000    1.250    1.250    2.250   14.000    2.000 
#    0.000    1.250    0.000    0.000    0.000    0.000 
#    0.000    0.000    0.000    0.000    0.000    0.000 
#
# Total GULP energy -198322.876107 kJ/mol
# GULP energy per Si atom -12395.179757 kJ/mol
# Density = 2.313997 g / cm^3
# Si number density = 23.192755 Si / 1000 Ang^3
#
#
#
# Elastic Constant Matrix: (Units=GPa)
#
#
# Indices 1 2 3 4 5 6 
#
# 1 140.7092 38.9696 40.4241 6.5290 17.9802 17.1352
# 2 38.9696 92.9639 26.6755 -9.0036 0.2895 16.6047
# 3 40.4241 26.6755 125.7581 7.6455 8.1961 6.1153
# 4 6.5290 -9.0036 7.6455 22.4523 0.7830 -1.0968
# 5 17.9802 0.2895 8.1961 0.7830 39.0586 -5.1521
# 6 17.1352 16.6047 6.1153 -1.0968 -5.1521 37.6224
#
#
#
# Elastic Compliance Matrix: (Units=1/GPa)
#
#
# Indices 1 2 3 4 5 6 
#
# 1 0.009655 -0.003273 -0.001741 -0.003538 -0.004430 -0.003380
# 2 -0.003273 0.014194 -0.002278 0.007180 0.001204 -0.004029
# 3 -0.001741 -0.002278 0.009275 -0.003527 -0.001051 0.000044
# 4 -0.003538 0.007180 -0.003527 0.049631 0.001407 0.000655
# 5 -0.004430 0.001204 -0.001051 0.001407 0.028565 0.005610
# 6 -0.003380 -0.004029 0.000044 0.000655 0.005610 0.030678
#
#
# Mechanical properties :
#
#
# Convention : Reuss Voigt Hill
#
# Bulk Modulus (GPa) = 53.93541 63.50773 58.72157
# Shear Modulus (GPa) = 30.71954 36.71745 33.71849
#
# Velocity S-wave (km/s) = 3.64336 3.98319 3.81706
# Velocity P-wave (km/s) = 6.40348 6.97111 6.69332
#
# Compressibility (1/GPa) = 0.01854069
#
# Stress axis : x y z
#
# Youngs Moduli (GPa) = 103.56935 70.45310 107.81162
#
# Poissons Ratio (x) = 0.23059 0.18773
# Poissons Ratio (y) = 0.33898 0.24557
# Poissons Ratio (z) = 0.18034 0.16047
#
# Static dielectric constant tensor:
#      x y z
#    x 4.822980 0.495050 0.121250 
#    y 0.495050 4.428780 -0.243180 
#    z 0.121250 -0.243180 4.030230 
# 
# 
# High freq. dielectric constant tensor:
#      x y z
#    x 1.935190 0.017490 0.010110 
#    y 0.017490 1.910860 -0.018830 
#    z 0.010110 -0.018830 1.909720 
# 
# From -- ./inp_files/188586.got.cif
#   From: 2010.06.25/outbox.cif.g09.slc.cpg/sg2_95_cif.got.tgz:188586.got - 2010.06.27 13:26:56.
