data_PCOD8027415
_publ_section_title
;
Structure prediction by ZEFSAII (Michael W. Deem and Ramdas Pophale) SiO2 
 PCOD8027415
Probable space group: P -1
;
_chemical_formula_sum "Si O2"
_cell_formula_units_Z 14
_cell_length_a 11.530358
_cell_length_b 9.616863
_cell_length_c 8.459012
_cell_angle_alpha 104.808582
_cell_angle_beta 128.549642
_cell_angle_gamma 54.720992
_cell_volume 590.796652
_symmetry_space_group_name_H-M "P -1"
_symmetry_group_IT_number 2
_symmetry_cell_setting 'triclinic'
loop_
_space_group_symop_operation_xyz
x,y,z
-x,-y,-z
loop_
_atom_site_type_symbol
_atom_site_label
_atom_site_fract_x
_atom_site_fract_y
_atom_site_fract_z
Si Si1 0.733554 0.387281 0.981009
Si Si2 0.077344 0.119170 0.346606
Si Si3 0.595296 0.526692 0.442243
Si Si4 0.587897 0.761825 0.072737
Si Si5 0.640336 0.817499 0.491868
Si Si6 0.113010 0.782515 0.258456
Si Si7 0.775076 0.939039 0.202366
O O1 0.539052 0.414478 0.805355
O O2 0.835818 0.340283 0.886015
O O3 0.701105 0.560064 0.077048
O O4 0.864733 0.234465 0.168431
O O5 0.169497 0.202547 0.356480
O O6 0.106044 0.112504 0.555673
O O7 0.162518 0.922329 0.302913
O O8 0.500000 0.500000 0.500000
O O9 0.644641 0.667922 0.553994
O O10 0.780537 0.338691 0.533008
O O11 0.586867 0.805530 0.266649
O O12 0.683138 0.834130 0.072470
O O13 0.382162 0.856777 0.870088
O O14 0.500000 0.000000 0.500000
O O15 0.903210 0.890278 0.146671
#
# Coordination Sequence:
#
# PCOD8027415 Si02
#       7
#     2   2   2   2   2   2   2
#     4  11  25  43  71 102 143 174 237 288 341 407
#     4  11  25  44  71 104 141 180 234 290 340 408
#     4  10  24  45  68 102 141 180 230 283 344 409
#     4  10  25  44  68 103 145 180 231 285 352 409
#     4  11  25  44  74 100 141 184 232 284 350 410
#     4  11  24  44  73 100 140 187 236 276 349 412
#     4  10  24  45  70 100 144 186 229 284 348 413
#
# _framework density 23.696816999999999
#
# number of rings (size 3 to 8) (size 9 to 14) (size 15 to 20)
#    0.000    1.429    0.000    3.429    8.000    8.000 
#    0.000    0.000    0.000    0.000    0.000    0.000 
#    0.000    0.000    0.000    0.000    0.000    0.000 
#
# Total GULP energy -173539.658534 kJ/mol
# GULP energy per Si atom -12395.689895 kJ/mol
# Density = 2.364288 g / cm^3
# Si number density = 23.696817 Si / 1000 Ang^3
#
#
#
# Elastic Constant Matrix: (Units=GPa)
#
#
# Indices 1 2 3 4 5 6 
#
# 1 107.8761 51.9002 25.4354 7.8936 8.9340 5.0792
# 2 51.9002 187.6611 61.2085 -8.5865 8.1359 2.2304
# 3 25.4354 61.2085 129.5325 -17.9150 16.5466 -15.8943
# 4 7.8936 -8.5865 -17.9150 43.8088 -10.3760 -0.6297
# 5 8.9340 8.1359 16.5466 -10.3760 26.1108 3.5817
# 6 5.0792 2.2304 -15.8943 -0.6297 3.5817 46.3272
#
#
#
# Elastic Compliance Matrix: (Units=1/GPa)
#
#
# Indices 1 2 3 4 5 6 
#
# 1 0.011572 -0.002823 -0.001175 -0.004028 -0.003757 -0.001300
# 2 -0.002823 0.007076 -0.002943 0.000950 0.001157 -0.001117
# 3 -0.001175 -0.002943 0.010945 0.002980 -0.005044 0.004456
# 4 -0.004028 0.000950 0.002980 0.027319 0.009909 0.001023
# 5 -0.003757 0.001157 -0.005044 0.009909 0.047026 -0.004875
# 6 -0.001300 -0.001117 0.004456 0.001023 -0.004875 0.023702
#
#
# Mechanical properties :
#
#
# Convention : Reuss Voigt Hill
#
# Bulk Modulus (GPa) = 63.64916 78.01754 70.83335
# Shear Modulus (GPa) = 34.06971 42.35107 38.21039
#
# Velocity S-wave (km/s) = 3.79586 4.23212 4.01991
# Velocity P-wave (km/s) = 6.79187 7.54161 7.17654
#
# Compressibility (1/GPa) = 0.01571113
#
# Stress axis : x y z
#
# Youngs Moduli (GPa) = 86.41334 141.32358 91.37003
#
# Poissons Ratio (x) = 0.39898 0.10735
# Poissons Ratio (y) = 0.24396 0.26888
# Poissons Ratio (z) = 0.10153 0.41588
#
# Static dielectric constant tensor:
#      x y z
#    x 4.253570 0.074750 0.311670 
#    y 0.074750 4.498400 -0.286800 
#    z 0.311670 -0.286800 4.585320 
# 
# 
# High freq. dielectric constant tensor:
#      x y z
#    x 1.935300 -0.000410 0.011160 
#    y -0.000410 1.947110 -0.010650 
#    z 0.011160 -0.010650 1.938060 
# 
# From -- ./inp_files/207137.got.cif
#   From: 2010.06.25/outbox.cif.g09.slc.cpg/sg2_104_cif.got.tgz:207137.got - 2010.06.27 13:26:56.
