data_PCOD8027886
_publ_section_title
;
Structure prediction by ZEFSAII (Michael W. Deem and Ramdas Pophale) SiO2 
 PCOD8027886
Probable space group: P -1
;
_chemical_formula_sum "Si O2"
_cell_formula_units_Z 12
_cell_length_a 14.299678
_cell_length_b 11.308451
_cell_length_c 8.590962
_cell_angle_alpha 52.174442
_cell_angle_beta 38.755630
_cell_angle_gamma 30.503690
_cell_volume 433.849841
_symmetry_space_group_name_H-M "P -1"
_symmetry_group_IT_number 2
_symmetry_cell_setting 'triclinic'
loop_
_space_group_symop_operation_xyz
x,y,z
-x,-y,-z
loop_
_atom_site_type_symbol
_atom_site_label
_atom_site_fract_x
_atom_site_fract_y
_atom_site_fract_z
Si Si1 0.728925 0.739149 0.856726
Si Si2 0.050141 0.178314 0.327723
Si Si3 0.503385 0.195620 0.157753
Si Si4 0.718456 0.052375 0.302422
Si Si5 0.159251 0.726643 0.176234
Si Si6 0.636598 0.543993 0.334364
O O1 0.947723 0.662270 0.708410
O O2 0.700501 0.757667 0.687025
O O3 0.732252 0.561219 0.046958
O O4 0.500000 0.000000 0.000000
O O5 0.964732 0.130057 0.612926
O O6 0.864110 0.324258 0.314410
O O7 0.301514 0.935413 0.126712
O O8 0.619392 0.037595 0.292679
O O9 0.385918 0.447152 0.141731
O O10 0.524945 0.211456 0.561173
O O11 0.755110 0.192226 0.083176
O O12 0.961454 0.799138 0.263989
O O13 0.500000 0.500000 0.500000
#
# Coordination Sequence:
#
# PCOD8027886 Si02
#       6
#     2   2   2   2   2   2
#     4  10  24  48  71 106 151 193 243 297 370 440
#     4  11  26  48  73 103 148 195 237 305 368 437
#     4  11  24  45  73 102 142 195 240 298 360 433
#     4  11  25  44  69 111 146 188 247 308 359 434
#     4  11  25  46  68 106 152 186 247 302 366 433
#     4  12  26  47  78 110 145 197 248 302 366 436
#
# _framework density 27.659337000000001
#
# number of rings (size 3 to 8) (size 9 to 14) (size 15 to 20)
#    0.000    1.000    1.667    4.000    9.333    1.333 
#    0.000    5.000    0.000    0.000    0.000    0.000 
#    0.000    0.000    0.000    0.000    0.000    0.000 
#
# Total GULP energy -148735.271735 kJ/mol
# GULP energy per Si atom -12394.605978 kJ/mol
# Density = 2.759638 g / cm^3
# Si number density = 27.659337 Si / 1000 Ang^3
#
#
#
# Elastic Constant Matrix: (Units=GPa)
#
#
# Indices 1 2 3 4 5 6 
#
# 1 195.3979 31.4646 12.0323 -5.7219 3.8909 -40.2631
# 2 31.4646 75.9546 2.4353 12.5312 3.1439 -28.3574
# 3 12.0323 2.4353 48.7376 14.8305 9.0524 -5.9301
# 4 -5.7219 12.5312 14.8305 34.9412 6.9894 9.6835
# 5 3.8909 3.1439 9.0524 6.9894 54.5420 -2.9289
# 6 -40.2631 -28.3574 -5.9301 9.6835 -2.9289 52.8446
#
#
#
# Elastic Compliance Matrix: (Units=1/GPa)
#
#
# Indices 1 2 3 4 5 6 
#
# 1 0.006201 -0.001329 -0.001324 0.001055 -0.000084 0.003665
# 2 -0.001329 0.020646 0.004881 -0.013429 0.000519 0.013104
# 3 -0.001324 0.004881 0.026360 -0.014671 -0.002299 0.007129
# 4 0.001055 -0.013429 -0.014671 0.045119 -0.003535 -0.016513
# 5 -0.000084 0.000519 -0.002299 -0.003535 0.019235 0.001670
# 6 0.003665 0.013104 0.007129 -0.016513 0.001670 0.032666
#
#
# Mechanical properties :
#
#
# Convention : Reuss Voigt Hill
#
# Bulk Modulus (GPa) = 17.34198 45.77272 31.55735
# Shear Modulus (GPa) = 30.30455 46.74275 38.52365
#
# Velocity S-wave (km/s) = 3.31363 4.11535 3.73606
# Velocity P-wave (km/s) = 4.57424 6.25829 5.48132
#
# Compressibility (1/GPa) = 0.05766354
#
# Stress axis : x y z
#
# Youngs Moduli (GPa) = 161.26353 48.43538 37.93640
#
# Poissons Ratio (x) = 0.06435 0.05022
# Poissons Ratio (y) = 0.21425 -0.18516
# Poissons Ratio (z) = 0.21350 -0.23640
#
# Static dielectric constant tensor:
#      x y z
#    x 6.399500 -0.308480 -0.131320 
#    y -0.308480 4.798920 -0.037340 
#    z -0.131320 -0.037340 5.376310 
# 
# 
# High freq. dielectric constant tensor:
#      x y z
#    x 2.145990 -0.019030 0.004750 
#    y -0.019030 2.101280 0.004020 
#    z 0.004750 0.004020 2.112310 
# 
# From -- ./inp_files/306403.got.cif
#   From: 2010.06.25/outbox.cif.g09.slc.cpg/sg2_154_cif.got.tgz:306403.got - 2010.06.27 13:26:56.
