data_PCOD8027027
_publ_section_title
;
Structure prediction by ZEFSAII (Michael W. Deem and Ramdas Pophale) SiO2 
 PCOD8027027
Probable space group: P -1
;
_chemical_formula_sum "Si O2"
_cell_formula_units_Z 16
_cell_length_a 20.507590
_cell_length_b 18.120989
_cell_length_c 11.295016
_cell_angle_alpha 34.903094
_cell_angle_beta 148.152179
_cell_angle_gamma 160.577611
_cell_volume 732.164351
_symmetry_space_group_name_H-M "P -1"
_symmetry_group_IT_number 2
_symmetry_cell_setting 'triclinic'
loop_
_space_group_symop_operation_xyz
x,y,z
-x,-y,-z
loop_
_atom_site_type_symbol
_atom_site_label
_atom_site_fract_x
_atom_site_fract_y
_atom_site_fract_z
Si Si1 0.332598 0.751898 0.603636
Si Si2 0.664980 0.749390 0.383371
Si Si3 0.375502 0.592498 0.668521
Si Si4 0.085983 0.988671 0.802221
Si Si5 0.189576 0.165892 0.981997
Si Si6 0.444350 0.821771 0.958120
Si Si7 0.219904 0.691208 0.159381
Si Si8 0.013998 0.628346 0.140295
O O1 0.378588 0.667395 0.701674
O O2 0.371673 0.749167 0.803614
O O3 0.097264 0.617084 0.397780
O O4 0.500000 0.000000 0.500000
O O5 0.500000 0.500000 0.500000
O O6 0.710322 0.798936 0.245919
O O7 0.580650 0.813669 0.215378
O O8 0.893451 0.921925 0.567721
O O9 0.216534 0.338883 0.771230
O O10 0.284378 0.601547 0.409649
O O11 0.599368 0.727468 0.786368
O O12 0.142884 0.049162 0.945507
O O13 0.004336 0.773023 0.948790
O O14 0.000000 0.000000 0.000000
O O15 0.213933 0.619141 0.933894
O O16 0.569329 0.053088 0.900011
O O17 0.189081 0.750893 0.149670
O O18 0.000000 0.500000 0.000000
#
# Coordination Sequence:
#
# PCOD8027027 Si02
#       8
#     2   2   2   2   2   2   2   2
#     4  11  20  42  71  98 135 170 222 289 337 404
#     4  11  23  41  66 100 133 180 228 279 340 399
#     4  10  24  44  64  99 133 178 225 281 341 401
#     4  11  24  42  69  98 139 175 231 285 334 419
#     4  11  26  44  68 100 138 181 225 280 352 406
#     4  12  23  40  67 103 129 175 227 276 347 402
#     4  11  26  46  68  95 141 180 224 282 346 414
#     4  11  23  41  69 106 128 174 225 286 345 403
#
# _framework density 21.853017000000001
#
# number of rings (size 3 to 8) (size 9 to 14) (size 15 to 20)
#    0.000    1.000    5.000    1.875    3.500    4.500 
#    2.250    0.000    0.000    0.000    0.000    0.000 
#    0.000    0.000    0.000    0.000    0.000    0.000 
#
# Total GULP energy -198276.240637 kJ/mol
# GULP energy per Si atom -12392.265040 kJ/mol
# Density = 2.180328 g / cm^3
# Si number density = 21.853017 Si / 1000 Ang^3
#
#
#
# Elastic Constant Matrix: (Units=GPa)
#
#
# Indices 1 2 3 4 5 6 
#
# 1 38.5583 28.3123 23.9632 -4.2696 -1.6495 15.7668
# 2 28.3123 153.6293 58.6764 -11.8788 4.8868 10.3215
# 3 23.9632 58.6764 147.0760 -3.6581 23.7070 3.3122
# 4 -4.2696 -11.8788 -3.6581 34.3309 3.1220 1.8695
# 5 -1.6495 4.8868 23.7070 3.1220 29.8854 -0.1797
# 6 15.7668 10.3215 3.3122 1.8695 -0.1797 36.2477
#
#
#
# Elastic Compliance Matrix: (Units=1/GPa)
#
#
# Indices 1 2 3 4 5 6 
#
# 1 0.039316 -0.004099 -0.005426 0.003129 0.006724 -0.015567
# 2 -0.004099 0.008486 -0.002702 0.002138 0.000303 -0.000495
# 3 -0.005426 -0.002702 0.009963 0.000038 -0.007751 0.002179
# 4 0.003129 0.002138 0.000038 0.030769 -0.003443 -0.003577
# 5 0.006724 0.000303 -0.007751 -0.003443 0.040280 -0.001926
# 6 -0.015567 -0.000495 0.002179 -0.003577 -0.001926 0.034476
#
#
# Mechanical properties :
#
#
# Convention : Reuss Voigt Hill
#
# Bulk Modulus (GPa) = 30.02099 62.35195 46.18647
# Shear Modulus (GPa) = 25.14500 35.31358 30.22929
#
# Velocity S-wave (km/s) = 3.39579 4.02426 3.72331
# Velocity P-wave (km/s) = 5.39840 7.08430 6.29801
#
# Compressibility (1/GPa) = 0.03331003
#
# Stress axis : x y z
#
# Youngs Moduli (GPa) = 25.43471 117.84767 100.37615
#
# Poissons Ratio (x) = 0.48310 0.54462
# Poissons Ratio (y) = 0.10427 0.27121
# Poissons Ratio (z) = 0.13800 0.31842
#
# Static dielectric constant tensor:
#      x y z
#    x 4.152440 0.146980 -0.299770 
#    y 0.146980 4.052250 0.182860 
#    z -0.299770 0.182860 4.249710 
# 
# 
# High freq. dielectric constant tensor:
#      x y z
#    x 1.842630 0.013410 0.009970 
#    y 0.013410 1.870640 0.003960 
#    z 0.009970 0.003960 1.876870 
# 
# From -- ./inp_files/455855.got.cif
#   From: 2010.06.25/outbox.cif.g09.slc.cpg/sg2_228_cif.got.tgz:455855.got - 2010.06.27 13:26:56.
