data_PCOD8027580
_publ_section_title
;
Structure prediction by ZEFSAII (Michael W. Deem and Ramdas Pophale) SiO2 
 PCOD8027580
Probable space group: P -1
;
_chemical_formula_sum "Si O2"
_cell_formula_units_Z 16
_cell_length_a 15.180011
_cell_length_b 9.147573
_cell_length_c 9.081360
_cell_angle_alpha 79.688949
_cell_angle_beta 67.531654
_cell_angle_gamma 38.387659
_cell_volume 707.484327
_symmetry_space_group_name_H-M "P -1"
_symmetry_group_IT_number 2
_symmetry_cell_setting 'triclinic'
loop_
_space_group_symop_operation_xyz
x,y,z
-x,-y,-z
loop_
_atom_site_type_symbol
_atom_site_label
_atom_site_fract_x
_atom_site_fract_y
_atom_site_fract_z
Si Si1 0.675551 0.648467 0.820419
Si Si2 0.577563 0.903965 0.307723
Si Si3 0.700421 0.157258 0.637229
Si Si4 0.862961 0.041461 0.251626
Si Si5 0.113108 0.345308 0.323794
Si Si6 0.629084 0.544137 0.175061
Si Si7 0.102261 0.332459 0.829237
Si Si8 0.882518 0.158191 0.678309
O O1 0.801792 0.612815 0.798392
O O2 0.762012 0.440759 0.681802
O O3 0.530986 0.901098 0.787616
O O4 0.623946 0.616451 0.000651
O O5 0.628391 0.675093 0.274146
O O6 0.722112 0.835985 0.233096
O O7 0.500000 0.000000 0.500000
O O8 0.759282 0.148833 0.445451
O O9 0.515946 0.388115 0.720719
O O10 0.774782 0.144784 0.736852
O O11 0.749138 0.928319 0.665160
O O12 0.778114 0.256751 0.154362
O O13 0.899982 0.838852 0.186382
O O14 0.023804 0.927518 0.214313
O O15 0.000000 0.500000 0.500000
O O16 0.987698 0.449323 0.265632
O O17 0.000000 0.500000 0.000000
O O18 0.000000 0.000000 0.500000
#
# Coordination Sequence:
#
# PCOD8027580 Si02
#       8
#     2   2   2   2   2   2   2   2
#     4  12  26  49  72 105 148 189 247 303 369 423
#     4  12  28  46  74 108 145 197 248 299 362 446
#     4  11  24  44  76 104 141 197 243 294 361 440
#     4  11  25  49  70 107 148 189 245 299 365 438
#     4  12  22  47  75 100 140 190 247 299 355 427
#     4  12  28  46  73 104 154 189 234 310 368 430
#     4  12  27  45  75 110 145 187 245 306 367 434
#     4  10  24  45  74 103 143 189 242 300 357 439
#
# _framework density 22.615344
#
# number of rings (size 3 to 8) (size 9 to 14) (size 15 to 20)
#    0.000    0.500    3.750    3.750    8.750    2.000 
#    0.000    0.000    0.000    0.000    0.000    0.000 
#    0.000    0.000    0.000    0.000    0.000    0.000 
#
# Total GULP energy -198262.863307 kJ/mol
# GULP energy per Si atom -12391.428957 kJ/mol
# Density = 2.256387 g / cm^3
# Si number density = 22.615344 Si / 1000 Ang^3
#
#
#
# Elastic Constant Matrix: (Units=GPa)
#
#
# Indices 1 2 3 4 5 6 
#
# 1 146.8451 25.5548 48.0462 8.7784 5.7117 -14.3450
# 2 25.5548 100.4835 38.9268 -2.3851 9.7543 -11.0906
# 3 48.0462 38.9268 98.5159 -7.5991 6.3891 -3.1976
# 4 8.7784 -2.3851 -7.5991 38.7001 1.1573 3.9667
# 5 5.7117 9.7543 6.3891 1.1573 30.1042 0.3521
# 6 -14.3450 -11.0906 -3.1976 3.9667 0.3521 34.9839
#
#
#
# Elastic Compliance Matrix: (Units=1/GPa)
#
#
# Indices 1 2 3 4 5 6 
#
# 1 0.008816 -0.000198 -0.004314 -0.003202 -0.000611 0.003527
# 2 -0.000198 0.012434 -0.004531 -0.000347 -0.003057 0.003517
# 3 -0.004314 -0.004531 0.014317 0.003774 -0.000870 -0.002316
# 4 -0.003202 -0.000347 0.003774 0.027750 -0.001098 -0.004214
# 5 -0.000611 -0.003057 -0.000870 -0.001098 0.034569 -0.001523
# 6 0.003527 0.003517 -0.002316 -0.004214 -0.001523 0.031427
#
#
# Mechanical properties :
#
#
# Convention : Reuss Voigt Hill
#
# Bulk Modulus (GPa) = 57.20496 63.43333 60.31915
# Shear Modulus (GPa) = 32.63134 36.31208 34.47171
#
# Velocity S-wave (km/s) = 3.80265 4.01139 3.90842
# Velocity P-wave (km/s) = 6.68056 7.04022 6.86275
#
# Compressibility (1/GPa) = 0.01748100
#
# Stress axis : x y z
#
# Youngs Moduli (GPa) = 113.43532 80.42317 69.84589
#
# Poissons Ratio (x) = 0.01594 0.30131
# Poissons Ratio (y) = 0.02248 0.31646
# Poissons Ratio (z) = 0.48936 0.36439
#
# Static dielectric constant tensor:
#      x y z
#    x 3.453170 0.199310 0.470400 
#    y 0.199310 4.111940 0.082460 
#    z 0.470400 0.082460 3.833730 
# 
# 
# High freq. dielectric constant tensor:
#      x y z
#    x 1.905290 -0.010490 0.004040 
#    y -0.010490 1.905890 0.011050 
#    z 0.004040 0.011050 1.889720 
# 
# From -- ./inp_files/298194.got.cif
#   From: 2010.06.25/outbox.cif.g09.slc.cpg/sg2_150_cif.got.tgz:298194.got - 2010.06.27 13:26:56.
