data_PCOD8027018
_publ_section_title
;
Structure prediction by ZEFSAII (Michael W. Deem and Ramdas Pophale) SiO2 
 PCOD8027018
Probable space group: P -1
;
_chemical_formula_sum "Si O2"
_cell_formula_units_Z 16
_cell_length_a 26.182395
_cell_length_b 9.241556
_cell_length_c 6.736131
_cell_angle_alpha 86.408684
_cell_angle_beta 93.783954
_cell_angle_gamma 152.871356
_cell_volume 741.577283
_symmetry_space_group_name_H-M "P -1"
_symmetry_group_IT_number 2
_symmetry_cell_setting 'triclinic'
loop_
_space_group_symop_operation_xyz
x,y,z
-x,-y,-z
loop_
_atom_site_type_symbol
_atom_site_label
_atom_site_fract_x
_atom_site_fract_y
_atom_site_fract_z
Si Si1 0.270031 0.295929 0.441054
Si Si2 0.906075 0.118363 0.223133
Si Si3 0.198291 0.641566 0.981057
Si Si4 0.097616 0.216680 0.662884
Si Si5 0.142508 0.804471 0.149445
Si Si6 0.727177 0.371878 0.651034
Si Si7 0.483491 0.675883 0.523762
Si Si8 0.566263 0.713151 0.192912
O O1 0.261613 0.429096 0.317440
O O2 0.398114 0.596304 0.519136
O O3 0.183844 0.067698 0.618860
O O4 0.240925 0.090755 0.302925
O O5 0.027329 0.494069 0.269687
O O6 0.922021 0.986495 0.219260
O O7 0.865497 0.078206 0.006945
O O8 0.101301 0.345778 0.828096
O O9 0.312911 0.927113 0.866639
O O10 0.171350 0.733402 0.041459
O O11 0.206483 0.549795 0.171994
O O12 0.216581 0.519504 0.555309
O O13 0.000000 0.000000 0.500000
O O14 0.597441 0.000178 0.640886
O O15 0.504785 0.688436 0.297536
O O16 0.421316 0.388743 0.644307
O O17 0.500000 0.500000 0.000000
#
# Coordination Sequence:
#
# PCOD8027018 Si02
#       8
#     2   2   2   2   2   2   2   2
#     4  11  24  42  65  94 131 172 217 265 322 381
#     4  10  24  44  64  92 133 167 216 267 325 377
#     4  12  24  42  69  98 131 168 216 267 327 383
#     4  11  25  44  67  97 129 172 216 267 325 385
#     4  11  24  41  68  97 127 171 218 265 325 386
#     4  11  24  43  65  94 134 172 214 266 322 387
#     4  11  23  40  65  95 129 171 220 260 321 386
#     4  11  22  39  65  95 132 165 210 269 317 375
#
# _framework density 21.575635999999999
#
# number of rings (size 3 to 8) (size 9 to 14) (size 15 to 20)
#    0.000    1.000    2.500    3.750    1.750    9.000 
#    0.000    0.625    0.000    0.000    0.000    0.000 
#    0.000    0.000    0.000    0.000    0.000    0.000 
#
# Total GULP energy -198441.899493 kJ/mol
# GULP energy per Si atom -12402.618718 kJ/mol
# Density = 2.152653 g / cm^3
# Si number density = 21.575636 Si / 1000 Ang^3
#
#
#
# Elastic Constant Matrix: (Units=GPa)
#
#
# Indices 1 2 3 4 5 6 
#
# 1 110.4494 27.3301 33.6985 0.0360 -1.9251 -4.8703
# 2 27.3301 79.2590 41.2509 5.6554 5.1909 -11.4197
# 3 33.6985 41.2509 87.8020 8.6254 -3.7463 -12.4024
# 4 0.0360 5.6554 8.6254 51.2455 -8.5997 4.9236
# 5 -1.9251 5.1909 -3.7463 -8.5997 31.2534 6.1899
# 6 -4.8703 -11.4197 -12.4024 4.9236 6.1899 27.6721
#
#
#
# Elastic Compliance Matrix: (Units=1/GPa)
#
#
# Indices 1 2 3 4 5 6 
#
# 1 0.010563 -0.002275 -0.003174 0.001057 0.001126 -0.000942
# 2 -0.002275 0.018423 -0.006975 -0.002397 -0.005846 0.005810
# 3 -0.003174 -0.006975 0.016745 -0.002180 0.001557 0.004108
# 4 0.001057 -0.002397 -0.002180 0.022167 0.007780 -0.007464
# 5 0.001126 -0.005846 0.001557 0.007780 0.037605 -0.011313
# 6 -0.000942 0.005810 0.004108 -0.007464 -0.011313 0.044069
#
#
# Mechanical properties :
#
#
# Convention : Reuss Voigt Hill
#
# Bulk Modulus (GPa) = 47.88875 53.56327 50.72601
# Shear Modulus (GPa) = 27.56600 33.71626 30.64113
#
# Velocity S-wave (km/s) = 3.57829 3.95739 3.77261
# Velocity P-wave (km/s) = 6.27026 6.76468 6.52216
#
# Compressibility (1/GPa) = 0.02088173
#
# Stress axis : x y z
#
# Youngs Moduli (GPa) = 94.66931 54.28022 59.71781
#
# Poissons Ratio (x) = 0.12351 0.18955
# Poissons Ratio (y) = 0.21541 0.41656
# Poissons Ratio (z) = 0.30049 0.37863
#
# Static dielectric constant tensor:
#      x y z
#    x 3.856200 0.023150 0.007610 
#    y 0.023150 4.106770 -0.168810 
#    z 0.007610 -0.168810 3.877030 
# 
# 
# High freq. dielectric constant tensor:
#      x y z
#    x 1.846350 0.000550 0.000240 
#    y 0.000550 1.862690 -0.009660 
#    z 0.000240 -0.009660 1.849480 
# 
# From -- ./inp_files/81665.got.cif
#   From: 2010.06.25/outbox.cif.g09.slc.cpg/sg2_41_cif.got.tgz:81665.got - 2010.06.27 13:26:56.
