data_PCOD8027887
_publ_section_title
;
Structure prediction by ZEFSAII (Michael W. Deem and Ramdas Pophale) SiO2 
 PCOD8027887
Probable space group: P -1
;
_chemical_formula_sum "Si O2"
_cell_formula_units_Z 16
_cell_length_a 16.659378
_cell_length_b 8.433562
_cell_length_c 8.035671
_cell_angle_alpha 120.572942
_cell_angle_beta 123.075186
_cell_angle_gamma 52.613398
_cell_volume 724.555821
_symmetry_space_group_name_H-M "P -1"
_symmetry_group_IT_number 2
_symmetry_cell_setting 'triclinic'
loop_
_space_group_symop_operation_xyz
x,y,z
-x,-y,-z
loop_
_atom_site_type_symbol
_atom_site_label
_atom_site_fract_x
_atom_site_fract_y
_atom_site_fract_z
Si Si1 0.731758 0.535743 0.673966
Si Si2 0.028719 0.140013 0.481490
Si Si3 0.739142 0.088964 0.946884
Si Si4 0.240385 0.883985 0.402363
Si Si5 0.348058 0.141796 0.776832
Si Si6 0.204025 0.571092 0.684695
Si Si7 0.894768 0.673922 0.055871
Si Si8 0.422882 0.053188 0.182903
O O1 0.709240 0.358531 0.633230
O O2 0.788557 0.471641 0.526178
O O3 0.618284 0.743454 0.636862
O O4 0.806114 0.589893 0.913961
O O5 0.078801 0.273763 0.702845
O O6 0.922525 0.298162 0.346293
O O7 0.113811 0.993303 0.363331
O O8 0.000000 0.000000 0.500000
O O9 0.738978 0.084792 0.746976
O O10 0.631826 0.088236 0.896538
O O11 0.734619 0.296971 0.126714
O O12 0.847946 0.888231 0.014941
O O13 0.303957 0.973109 0.635102
O O14 0.252692 0.361415 0.732305
O O15 0.448497 0.078950 0.729854
O O16 0.387828 0.147325 0.009256
O O17 0.000000 0.500000 0.000000
#
# Coordination Sequence:
#
# PCOD8027887 Si02
#       8
#     2   2   2   2   2   2   2   2
#     4  11  22  41  70  98 132 175 219 274 325 391
#     4  12  23  44  67  97 138 181 214 270 323 389
#     4  11  25  42  66  99 135 174 221 273 322 399
#     4  12  25  43  66 102 135 174 225 265 328 393
#     4  11  25  46  71  98 127 174 223 277 331 394
#     4  12  24  43  68  99 136 176 223 269 327 390
#     4  11  20  40  67  91 131 179 216 266 327 379
#     4  10  24  48  71  95 132 169 220 281 338 383
#
# _framework density 22.082494000000001
#
# number of rings (size 3 to 8) (size 9 to 14) (size 15 to 20)
#    0.000    0.750    3.750    4.500    0.000    4.000 
#    4.500    0.000    0.000    0.000    0.000    0.000 
#    0.000    0.000    0.000    0.000    0.000    0.000 
#
# Total GULP energy -198461.873676 kJ/mol
# GULP energy per Si atom -12403.867105 kJ/mol
# Density = 2.203223 g / cm^3
# Si number density = 22.082494 Si / 1000 Ang^3
#
#
#
# Elastic Constant Matrix: (Units=GPa)
#
#
# Indices 1 2 3 4 5 6 
#
# 1 102.6645 17.9035 17.5388 3.1424 4.4403 -5.3106
# 2 17.9035 87.9335 39.3869 14.9278 13.7495 12.9886
# 3 17.5388 39.3869 54.3767 8.7008 12.5894 0.1991
# 4 3.1424 14.9278 8.7008 39.4115 5.4190 0.5411
# 5 4.4403 13.7495 12.5894 5.4190 25.3228 5.5126
# 6 -5.3106 12.9886 0.1991 0.5411 5.5126 36.0750
#
#
#
# Elastic Compliance Matrix: (Units=1/GPa)
#
#
# Indices 1 2 3 4 5 6 
#
# 1 0.010501 -0.001376 -0.002332 0.000231 -0.000446 0.002119
# 2 -0.001376 0.019128 -0.012345 -0.004088 -0.001673 -0.006704
# 3 -0.002332 -0.012345 0.030239 -0.000658 -0.008937 0.005310
# 4 0.000231 -0.004088 -0.000658 0.027541 -0.003751 0.001670
# 5 -0.000446 -0.001673 -0.008937 -0.003751 0.047151 -0.006563
# 6 0.002119 -0.006704 0.005310 0.001670 -0.006563 0.031394
#
#
# Mechanical properties :
#
#
# Convention : Reuss Voigt Hill
#
# Bulk Modulus (GPa) = 36.02070 43.84814 39.93442
# Shear Modulus (GPa) = 24.11799 31.50490 27.81145
#
# Velocity S-wave (km/s) = 3.30840 3.78125 3.55270
# Velocity P-wave (km/s) = 5.56249 6.24207 5.91205
#
# Compressibility (1/GPa) = 0.02776181
#
# Stress axis : x y z
#
# Youngs Moduli (GPa) = 95.23299 52.27981 33.06953
#
# Poissons Ratio (x) = 0.07194 0.07711
# Poissons Ratio (y) = 0.13104 0.40825
# Poissons Ratio (z) = 0.22206 0.64541
#
# Static dielectric constant tensor:
#      x y z
#    x 4.175690 -0.320970 0.089210 
#    y -0.320970 4.264040 0.144670 
#    z 0.089210 0.144670 4.038610 
# 
# 
# High freq. dielectric constant tensor:
#      x y z
#    x 1.871300 -0.007120 0.000090 
#    y -0.007120 1.875910 0.013250 
#    z 0.000090 0.013250 1.868400 
# 
# From -- ./inp_files/327871.got.cif
#   From: 2010.06.25/outbox.cif.g09.slc.cpg/sg2_164_cif.got.tgz:327871.got - 2010.06.27 13:26:56.
