data_PCOD8027386
_publ_section_title
;
Structure prediction by ZEFSAII (Michael W. Deem and Ramdas Pophale) SiO2 
 PCOD8027386
Probable space group: P -1
;
_chemical_formula_sum "Si O2"
_cell_formula_units_Z 16
_cell_length_a 15.361539
_cell_length_b 9.104713
_cell_length_c 26.089558
_cell_angle_alpha 46.990200
_cell_angle_beta 27.998939
_cell_angle_gamma 29.253181
_cell_volume 772.716095
_symmetry_space_group_name_H-M "P -1"
_symmetry_group_IT_number 2
_symmetry_cell_setting 'triclinic'
loop_
_space_group_symop_operation_xyz
x,y,z
-x,-y,-z
loop_
_atom_site_type_symbol
_atom_site_label
_atom_site_fract_x
_atom_site_fract_y
_atom_site_fract_z
Si Si1 0.685754 0.649616 0.471476
Si Si2 0.575544 0.281178 0.766151
Si Si3 0.364920 0.558465 0.110729
Si Si4 0.209308 0.613661 0.623866
Si Si5 0.155554 0.439419 0.799774
Si Si6 0.267000 0.733396 0.728886
Si Si7 0.766368 0.385365 0.029780
Si Si8 0.645536 0.876720 0.746739
O O1 0.741573 0.597811 0.394167
O O2 0.507826 0.601187 0.592768
O O3 0.016239 0.379411 0.388366
O O4 0.500000 0.000000 0.500000
O O5 0.455808 0.560606 0.724781
O O6 0.368742 0.468751 0.878623
O O7 0.543198 0.103418 0.793275
O O8 0.925409 0.002153 0.666945
O O9 0.503170 0.577260 0.079467
O O10 0.442377 0.265860 0.153634
O O11 0.500000 0.500000 0.000000
O O12 0.004153 0.878500 0.217996
O O13 0.500000 0.500000 0.500000
O O14 0.158130 0.533424 0.720534
O O15 0.109357 0.658147 0.812847
O O16 0.468264 0.068656 0.740625
O O17 0.903611 0.483980 0.921042
O O18 0.000000 0.000000 0.000000
#
# Coordination Sequence:
#
# PCOD8027386 Si02
#       8
#     2   2   2   2   2   2   2   2
#     4  11  23  42  68  98 137 174 226 280 337 406
#     4  10  26  43  70  99 136 177 229 275 338 408
#     4  12  26  43  69  99 140 178 225 281 343 403
#     4  11  24  43  68  99 136 177 231 280 335 400
#     4  11  25  44  70  98 135 180 226 282 339 400
#     4  11  24  43  71 100 134 182 225 276 348 400
#     4  12  26  45  70 102 139 174 232 284 334 405
#     4  10  24  45  67 100 138 177 224 277 345 404
#
# _framework density 20.706182999999999
#
# number of rings (size 3 to 8) (size 9 to 14) (size 15 to 20)
#    0.000    1.000    3.750    1.500    7.000    4.500 
#    0.000    0.625    0.000    0.000    0.000    0.000 
#    0.000    0.000    0.000    0.000    0.000    0.000 
#
# Total GULP energy -198354.160012 kJ/mol
# GULP energy per Si atom -12397.135001 kJ/mol
# Density = 2.065905 g / cm^3
# Si number density = 20.706183 Si / 1000 Ang^3
#
#
#
# Elastic Constant Matrix: (Units=GPa)
#
#
# Indices 1 2 3 4 5 6 
#
# 1 100.4492 47.1305 50.7613 7.3480 4.5481 -24.7229
# 2 47.1305 100.3960 32.7162 11.8712 2.5729 -20.1272
# 3 50.7613 32.7162 110.8138 6.8017 3.9556 -9.0309
# 4 7.3480 11.8712 6.8017 38.1903 3.4891 -1.2405
# 5 4.5481 2.5729 3.9556 3.4891 40.3585 -3.1220
# 6 -24.7229 -20.1272 -9.0309 -1.2405 -3.1220 42.1031
#
#
#
# Elastic Compliance Matrix: (Units=1/GPa)
#
#
# Indices 1 2 3 4 5 6 
#
# 1 0.016589 -0.004609 -0.005680 -0.000499 -0.000491 0.006269
# 2 -0.004609 0.013637 -0.001462 -0.003009 0.000319 0.003434
# 3 -0.005680 -0.001462 0.011988 -0.000591 -0.000508 -0.001517
# 4 -0.000499 -0.003009 -0.000591 0.027480 -0.002163 -0.001209
# 5 -0.000491 0.000319 -0.000508 -0.002163 0.025170 0.001558
# 6 0.006269 0.003434 -0.001517 -0.001209 0.001558 0.028828
#
#
# Mechanical properties :
#
#
# Convention : Reuss Voigt Hill
#
# Bulk Modulus (GPa) = 53.43517 63.65280 58.54398
# Shear Modulus (GPa) = 32.58813 36.20046 34.39430
#
# Velocity S-wave (km/s) = 3.97146 4.18579 4.08004
# Velocity P-wave (km/s) = 6.84781 7.35995 7.10849
#
# Compressibility (1/GPa) = 0.01871427
#
# Stress axis : x y z
#
# Youngs Moduli (GPa) = 60.27941 73.33251 83.41619
#
# Poissons Ratio (x) = 0.33797 0.47377
# Poissons Ratio (y) = 0.27781 0.12193
# Poissons Ratio (z) = 0.34236 0.10719
#
# Static dielectric constant tensor:
#      x y z
#    x 4.360870 -0.076140 0.314110 
#    y -0.076140 4.023060 0.205820 
#    z 0.314110 0.205820 4.536920 
# 
# 
# High freq. dielectric constant tensor:
#      x y z
#    x 1.820260 -0.010990 -0.005150 
#    y -0.010990 1.820100 0.004740 
#    z -0.005150 0.004740 1.813160 
# 
# From -- ./inp_files/178719.got.cif
#   From: 2010.06.25/outbox.cif.g09.slc.cpg/sg2_90_cif.got.tgz:178719.got - 2010.06.27 13:26:56.
