data_PCOD8027450
_publ_section_title
;
Structure prediction by ZEFSAII (Michael W. Deem and Ramdas Pophale) SiO2 
 PCOD8027450
Probable space group: P -1
;
_chemical_formula_sum "Si O2"
_cell_formula_units_Z 16
_cell_length_a 12.133642
_cell_length_b 13.129136
_cell_length_c 11.258520
_cell_angle_alpha 78.848824
_cell_angle_beta 134.147347
_cell_angle_gamma 63.035357
_cell_volume 693.955633
_symmetry_space_group_name_H-M "P -1"
_symmetry_group_IT_number 2
_symmetry_cell_setting 'triclinic'
loop_
_space_group_symop_operation_xyz
x,y,z
-x,-y,-z
loop_
_atom_site_type_symbol
_atom_site_label
_atom_site_fract_x
_atom_site_fract_y
_atom_site_fract_z
Si Si1 0.567673 0.051750 0.950528
Si Si2 0.862045 0.074796 0.252654
Si Si3 0.919549 0.256981 0.768352
Si Si4 0.971746 0.423737 0.402502
Si Si5 0.184626 0.136800 0.232973
Si Si6 0.415523 0.490874 0.753272
Si Si7 0.281057 0.843385 0.414821
Si Si8 0.745222 0.500671 0.978019
O O1 0.278778 0.230956 0.623649
O O2 0.637056 0.110052 0.073104
O O3 0.500000 0.000000 0.000000
O O4 0.801483 0.899087 0.064634
O O5 0.695027 0.268891 0.037440
O O6 0.000000 0.000000 0.500000
O O7 0.116522 0.909711 0.395236
O O8 0.686124 0.454774 0.474494
O O9 0.807353 0.202992 0.727400
O O10 0.002189 0.268470 0.949478
O O11 0.839131 0.399082 0.376658
O O12 0.000000 0.500000 0.500000
O O13 0.805631 0.539231 0.129500
O O14 0.500000 0.000000 0.500000
O O15 0.204972 0.999929 0.276092
O O16 0.015205 0.283222 0.182530
O O17 0.503309 0.559152 0.829573
O O18 0.612215 0.648436 0.741363
#
# Coordination Sequence:
#
# PCOD8027450 Si02
#       8
#     2   2   2   2   2   2   2   2
#     4  11  23  40  64 102 140 180 221 283 352 404
#     4  11  23  40  67  99 138 186 228 279 345 412
#     4  10  24  45  69 102 138 180 237 277 350 418
#     4  12  24  41  65 101 143 178 223 289 351 414
#     4  12  26  48  72 100 138 184 231 296 344 412
#     4  11  22  43  67 102 134 182 230 285 344 413
#     4  10  24  46  68 100 136 181 236 284 342 414
#     4  11  26  46  70 101 136 185 236 282 352 415
#
# _framework density 23.056227
#
# number of rings (size 3 to 8) (size 9 to 14) (size 15 to 20)
#    0.000    1.000    3.750    2.250    1.750    4.500 
#    4.500    0.000    0.000    0.000    0.000    0.000 
#    0.000    0.000    0.000    0.000    0.000    0.000 
#
# Total GULP energy -198231.992921 kJ/mol
# GULP energy per Si atom -12389.499558 kJ/mol
# Density = 2.300375 g / cm^3
# Si number density = 23.056227 Si / 1000 Ang^3
#
#
#
# Elastic Constant Matrix: (Units=GPa)
#
#
# Indices 1 2 3 4 5 6 
#
# 1 68.0331 18.8302 38.0428 8.7506 1.4843 0.8009
# 2 18.8302 67.3874 46.9333 7.1776 -14.2168 -8.9080
# 3 38.0428 46.9333 157.6745 12.2558 -13.0878 -5.5970
# 4 8.7506 7.1776 12.2558 45.1794 -5.0637 -12.0283
# 5 1.4843 -14.2168 -13.0878 -5.0637 42.8638 -1.8724
# 6 0.8009 -8.9080 -5.5970 -12.0283 -1.8724 23.7721
#
#
#
# Elastic Compliance Matrix: (Units=1/GPa)
#
#
# Indices 1 2 3 4 5 6 
#
# 1 0.018296 -0.003695 -0.003499 -0.003741 -0.003588 -0.005000
# 2 -0.003695 0.021490 -0.004803 0.001529 0.006333 0.008319
# 3 -0.003499 -0.004803 0.008773 -0.000796 0.001116 0.000069
# 4 -0.003741 0.001529 -0.000796 0.027196 0.004245 0.014607
# 5 -0.003588 0.006333 0.001116 0.004245 0.026703 0.007008
# 6 -0.005000 0.008319 0.000069 0.014607 0.007008 0.053311
#
#
# Mechanical properties :
#
#
# Convention : Reuss Voigt Hill
#
# Bulk Modulus (GPa) = 40.70818 55.63419 48.17118
# Shear Modulus (GPa) = 26.60250 34.98231 30.79240
#
# Velocity S-wave (km/s) = 3.40046 3.89943 3.65846
# Velocity P-wave (km/s) = 5.75429 6.66755 6.22769
#
# Compressibility (1/GPa) = 0.02456509
#
# Stress axis : x y z
#
# Youngs Moduli (GPa) = 54.65557 46.53271 113.98560
#
# Poissons Ratio (x) = 0.17194 0.39885
# Poissons Ratio (y) = 0.20196 0.54749
# Poissons Ratio (z) = 0.19125 0.22350
#
# Static dielectric constant tensor:
#      x y z
#    x 3.924950 0.335810 0.015810 
#    y 0.335810 3.717790 0.151650 
#    z 0.015810 0.151650 4.543510 
# 
# 
# High freq. dielectric constant tensor:
#      x y z
#    x 1.897200 0.003400 0.006190 
#    y 0.003400 1.894530 -0.000970 
#    z 0.006190 -0.000970 1.942490 
# 
# From -- ./inp_files/428244.got.cif
#   From: 2010.06.25/outbox.cif.g09.slc.cpg/sg2_215_cif.got.tgz:428244.got - 2010.06.27 13:26:56.
