data_PCOD8027241
_publ_section_title
;
Structure prediction by ZEFSAII (Michael W. Deem and Ramdas Pophale) SiO2 
 PCOD8027241
Probable space group: P -1
;
_chemical_formula_sum "Si O2"
_cell_formula_units_Z 12
_cell_length_a 15.214693
_cell_length_b 15.758902
_cell_length_c 8.652635
_cell_angle_alpha 152.386194
_cell_angle_beta 140.578434
_cell_angle_gamma 30.054418
_cell_volume 481.455645
_symmetry_space_group_name_H-M "P -1"
_symmetry_group_IT_number 2
_symmetry_cell_setting 'triclinic'
loop_
_space_group_symop_operation_xyz
x,y,z
-x,-y,-z
loop_
_atom_site_type_symbol
_atom_site_label
_atom_site_fract_x
_atom_site_fract_y
_atom_site_fract_z
Si Si1 0.252587 0.867367 0.709104
Si Si2 0.403702 0.383349 0.035512
Si Si3 0.627825 0.569187 0.261982
Si Si4 0.778654 0.760925 0.955211
Si Si5 0.165919 0.287388 0.710110
Si Si6 0.012554 0.110290 0.042170
O O1 0.301511 0.660973 0.329910
O O2 0.406507 0.756474 0.861955
O O3 0.226425 0.071507 0.903582
O O4 0.079641 0.962327 0.733877
O O5 0.429615 0.283157 0.736155
O O6 0.287148 0.354520 0.938684
O O7 0.633066 0.720144 0.648546
O O8 0.824060 0.345264 0.133439
O O9 0.500000 0.500000 0.000000
O O10 0.966005 0.513040 0.815998
O O11 0.752488 0.856686 0.249387
O O12 0.163327 0.137165 0.330524
O O13 0.000000 0.000000 0.000000
#
# Coordination Sequence:
#
# PCOD8027241 Si02
#       6
#     2   2   2   2   2   2
#     4  11  26  44  69 102 138 180 230 277 341 400
#     4  11  26  44  68 100 140 180 227 284 333 402
#     4  11  25  44  71 101 139 177 225 282 339 404
#     4  10  24  45  71 101 136 177 226 280 342 406
#     4  10  24  44  71 101 137 175 225 283 339 405
#     4  11  25  43  71 103 135 179 228 277 342 405
#
# _framework density 24.924416000000001
#
# number of rings (size 3 to 8) (size 9 to 14) (size 15 to 20)
#    0.000    1.333    0.000    3.000   14.000    8.667 
#    0.000    0.000    0.000    0.000    0.000    0.000 
#    0.000    0.000    0.000    0.000    0.000    0.000 
#
# Total GULP energy -148723.671292 kJ/mol
# GULP energy per Si atom -12393.639274 kJ/mol
# Density = 2.486769 g / cm^3
# Si number density = 24.924416 Si / 1000 Ang^3
#
#
#
# Elastic Constant Matrix: (Units=GPa)
#
#
# Indices 1 2 3 4 5 6 
#
# 1 109.9274 20.1533 17.6113 -6.1844 9.7557 21.1468
# 2 20.1533 111.0516 58.6188 -58.7211 20.4528 38.5903
# 3 17.6113 58.6188 100.5479 -52.5084 17.2830 21.6088
# 4 -6.1844 -58.7211 -52.5084 92.5252 -14.6780 -17.4580
# 5 9.7557 20.4528 17.2830 -14.6780 48.2174 2.6041
# 6 21.1468 38.5903 21.6088 -17.4580 2.6041 56.8244
#
#
#
# Elastic Compliance Matrix: (Units=1/GPa)
#
#
# Indices 1 2 3 4 5 6 
#
# 1 0.010067 -0.000334 -0.001127 -0.001069 -0.001636 -0.003345
# 2 -0.000334 0.019056 -0.004860 0.007109 -0.003644 -0.008617
# 3 -0.001127 -0.004860 0.016439 0.005753 -0.001815 -0.000681
# 4 -0.001069 0.007109 0.005753 0.018456 0.000810 -0.000985
# 5 -0.001636 -0.003644 -0.001815 0.000810 0.023354 0.002952
# 6 -0.003345 -0.008617 -0.000681 -0.000985 0.002952 0.024516
#
#
# Mechanical properties :
#
#
# Convention : Reuss Voigt Hill
#
# Bulk Modulus (GPa) = 30.37652 57.14375 43.76013
# Shear Modulus (GPa) = 36.89988 54.52296 45.71142
#
# Velocity S-wave (km/s) = 3.85186 4.68218 4.28717
# Velocity P-wave (km/s) = 5.65653 7.22544 6.48858
#
# Compressibility (1/GPa) = 0.03292017
#
# Stress axis : x y z
#
# Youngs Moduli (GPa) = 99.33316 52.47817 60.83164
#
# Poissons Ratio (x) = 0.01752 0.06856
# Poissons Ratio (y) = 0.03316 0.29563
# Poissons Ratio (z) = 0.11195 0.25504
#
# Static dielectric constant tensor:
#      x y z
#    x 4.347350 0.015760 -0.145780 
#    y 0.015760 4.628830 -0.281400 
#    z -0.145780 -0.281400 5.052680 
# 
# 
# High freq. dielectric constant tensor:
#      x y z
#    x 1.992270 0.004460 -0.006330 
#    y 0.004460 2.018490 -0.015640 
#    z -0.006330 -0.015640 1.992150 
# 
# From -- ./inp_files/152536.got.cif
#   From: 2010.06.25/outbox.cif.g09.slc.cpg/sg2_77_cif.got.tgz:152536.got - 2010.06.27 13:26:56.
