data_PCOD8027534
_publ_section_title
;
Structure prediction by ZEFSAII (Michael W. Deem and Ramdas Pophale) SiO2 
 PCOD8027534
Probable space group: P -1
;
_chemical_formula_sum "Si O2"
_cell_formula_units_Z 14
_cell_length_a 5.105420
_cell_length_b 8.432565
_cell_length_c 15.060248
_cell_angle_alpha 72.931809
_cell_angle_beta 110.869821
_cell_angle_gamma 100.163608
_cell_volume 577.270057
_symmetry_space_group_name_H-M "P -1"
_symmetry_group_IT_number 2
_symmetry_cell_setting 'triclinic'
loop_
_space_group_symop_operation_xyz
x,y,z
-x,-y,-z
loop_
_atom_site_type_symbol
_atom_site_label
_atom_site_fract_x
_atom_site_fract_y
_atom_site_fract_z
Si Si1 0.082466 0.776276 0.224479
Si Si2 0.969195 0.067364 0.289041
Si Si3 0.361690 0.223362 0.614647
Si Si4 0.384825 0.292730 0.413575
Si Si5 0.889200 0.508371 0.366578
Si Si6 0.218102 0.693867 0.911256
Si Si7 0.158863 0.304163 0.971634
O O1 0.396190 0.724986 0.292208
O O2 0.853170 0.633844 0.258304
O O3 0.022654 0.795844 0.109928
O O4 0.061940 0.953331 0.239250
O O5 0.812463 0.216889 0.201747
O O6 0.233622 0.144228 0.363602
O O7 0.771376 0.962155 0.351742
O O8 0.494069 0.221225 0.531985
O O9 0.128672 0.364030 0.571432
O O10 0.637671 0.364705 0.368950
O O11 0.184944 0.433091 0.398256
O O12 0.165674 0.498852 0.918709
O O13 0.524623 0.748761 0.978699
O O14 0.987437 0.745834 0.944821
#
# Coordination Sequence:
#
# PCOD8027534 Si02
#       7
#     2   2   2   2   2   2   2
#     4  11  26  45  70 106 145 180 227 284 352 409
#     4  11  28  44  68 106 144 185 226 282 349 417
#     4  11  26  46  68 105 144 184 229 284 348 408
#     4  12  26  45  73  99 140 188 238 283 333 403
#     4  11  25  44  72 100 135 183 242 284 332 400
#     4  10  24  45  71 101 131 177 232 280 346 403
#     4  10  24  46  73  98 134 175 230 289 335 410
#
# _framework density 24.252084
#
# number of rings (size 3 to 8) (size 9 to 14) (size 15 to 20)
#    0.000    1.143    1.429    2.143   12.000    4.000 
#    0.000    0.000    0.000    0.000    0.000    0.000 
#    0.000    0.000    0.000    0.000    0.000    0.000 
#
# Total GULP energy -173584.709103 kJ/mol
# GULP energy per Si atom -12398.907793 kJ/mol
# Density = 2.419688 g / cm^3
# Si number density = 24.252084 Si / 1000 Ang^3
#
#
#
# Elastic Constant Matrix: (Units=GPa)
#
#
# Indices 1 2 3 4 5 6 
#
# 1 74.3753 4.9268 -3.0822 -13.7959 0.1826 13.1273
# 2 4.9268 70.0937 27.3619 -2.6641 -2.3837 24.7399
# 3 -3.0822 27.3619 55.4964 4.5532 -1.5451 12.4100
# 4 -13.7959 -2.6641 4.5532 46.2477 11.7438 -4.6552
# 5 0.1826 -2.3837 -1.5451 11.7438 27.4198 -1.5786
# 6 13.1273 24.7399 12.4100 -4.6552 -1.5786 37.8765
#
#
#
# Elastic Compliance Matrix: (Units=1/GPa)
#
#
# Indices 1 2 3 4 5 6 
#
# 1 0.015296 0.000424 0.001469 0.004439 -0.002206 -0.005606
# 2 0.000424 0.021455 -0.008074 0.000920 0.000358 -0.011387
# 3 0.001469 -0.008074 0.023072 -0.003046 0.001715 -0.003098
# 4 0.004439 0.000920 -0.003046 0.026334 -0.011307 0.001624
# 5 -0.002206 0.000358 0.001715 -0.011307 0.041473 0.000308
# 6 -0.005606 -0.011387 -0.003098 0.001624 0.000308 0.037010
#
#
# Mechanical properties :
#
#
# Convention : Reuss Voigt Hill
#
# Bulk Modulus (GPa) = 21.07026 28.70871 24.88949
# Shear Modulus (GPa) = 25.93067 33.69273 29.81170
#
# Velocity S-wave (km/s) = 3.27343 3.73134 3.50986
# Velocity P-wave (km/s) = 4.79521 5.51608 5.16823
#
# Compressibility (1/GPa) = 0.04746026
#
# Stress axis : x y z
#
# Youngs Moduli (GPa) = 65.37540 46.60967 43.34318
#
# Poissons Ratio (x) = -0.01976 -0.06365
# Poissons Ratio (y) = -0.02771 0.34994
# Poissons Ratio (z) = -0.09600 0.37631
#
# Static dielectric constant tensor:
#      x y z
#    x 4.307930 0.022550 -0.141950 
#    y 0.022550 4.249860 -0.208430 
#    z -0.141950 -0.208430 4.349710 
# 
# 
# High freq. dielectric constant tensor:
#      x y z
#    x 1.963030 0.002990 -0.009460 
#    y 0.002990 1.963070 -0.011800 
#    z -0.009460 -0.011800 1.963280 
# 
# From -- ./inp_files/289081.got.cif
#   From: 2010.06.25/outbox.cif.g09.slc.cpg/sg2_145_cif.got.tgz:289081.got - 2010.06.27 13:26:56.
