data_PCOD8027102
_publ_section_title
;
Structure prediction by ZEFSAII (Michael W. Deem and Ramdas Pophale) SiO2 
 PCOD8027102
Probable space group: P -1
;
_chemical_formula_sum "Si O2"
_cell_formula_units_Z 16
_cell_length_a 8.720694
_cell_length_b 14.991677
_cell_length_c 12.843949
_cell_angle_alpha 151.422159
_cell_angle_beta 82.133440
_cell_angle_gamma 110.543184
_cell_volume 694.994187
_symmetry_space_group_name_H-M "P -1"
_symmetry_group_IT_number 2
_symmetry_cell_setting 'triclinic'
loop_
_space_group_symop_operation_xyz
x,y,z
-x,-y,-z
loop_
_atom_site_type_symbol
_atom_site_label
_atom_site_fract_x
_atom_site_fract_y
_atom_site_fract_z
Si Si1 0.790414 0.846254 0.879284
Si Si2 0.369024 0.998629 0.594440
Si Si3 0.498691 0.796542 0.998975
Si Si4 0.169122 0.215011 0.738082
Si Si5 0.612789 0.641123 0.335631
Si Si6 0.227426 0.563275 0.239261
Si Si7 0.731336 0.013264 0.860447
Si Si8 0.073200 0.412685 0.313304
O O1 0.772792 0.616640 0.673229
O O2 0.676154 0.844336 0.788153
O O3 0.697659 0.896955 0.036800
O O4 0.000000 0.000000 0.000000
O O5 0.217103 0.754853 0.377454
O O6 0.500000 0.000000 0.500000
O O7 0.486868 0.085845 0.774996
O O8 0.294289 0.153704 0.729806
O O9 0.380643 0.860646 0.001854
O O10 0.405603 0.541128 0.767552
O O11 0.270489 0.354028 0.769639
O O12 0.115888 0.352668 0.962459
O O13 0.000000 0.000000 0.500000
O O14 0.424545 0.598007 0.266204
O O15 0.713114 0.876261 0.619174
O O16 0.153984 0.566758 0.365077
O O17 0.931886 0.190587 0.046604
O O18 0.000000 0.500000 0.500000
#
# Coordination Sequence:
#
# PCOD8027102 Si02
#       8
#     2   2   2   2   2   2   2   2
#     4  10  24  44  67  96 143 183 230 283 347 406
#     4  12  24  42  72 102 137 178 229 282 345 415
#     4  12  24  43  72 103 137 184 231 287 348 408
#     4  12  26  46  71 104 142 178 227 288 347 412
#     4  12  24  43  73 103 140 180 231 285 347 414
#     4  12  24  45  74 101 138 185 232 281 349 410
#     4  11  26  44  69 104 141 177 239 285 343 410
#     4  11  26  47  70 103 142 187 233 286 350 412
#
# _framework density 23.021774000000001
#
# number of rings (size 3 to 8) (size 9 to 14) (size 15 to 20)
#    0.000    0.500    5.000    2.250    5.250    4.000 
#    0.000    0.000    0.000    0.000    0.000    0.000 
#    0.000    0.000    0.000    0.000    0.000    0.000 
#
# Total GULP energy -198294.597623 kJ/mol
# GULP energy per Si atom -12393.412351 kJ/mol
# Density = 2.296938 g / cm^3
# Si number density = 23.021774 Si / 1000 Ang^3
#
#
#
# Elastic Constant Matrix: (Units=GPa)
#
#
# Indices 1 2 3 4 5 6 
#
# 1 74.6838 45.3371 11.5363 -0.5835 -12.5269 -10.4363
# 2 45.3371 162.2444 41.5181 -7.7497 -19.4028 6.3299
# 3 11.5363 41.5181 114.5858 -0.0402 -7.2079 0.8154
# 4 -0.5835 -7.7497 -0.0402 38.8322 1.3217 -11.1447
# 5 -12.5269 -19.4028 -7.2079 1.3217 37.7261 1.8020
# 6 -10.4363 6.3299 0.8154 -11.1447 1.8020 42.6806
#
#
#
# Elastic Compliance Matrix: (Units=1/GPa)
#
#
# Indices 1 2 3 4 5 6 
#
# 1 0.017452 -0.004692 0.000105 0.000654 0.003140 0.004999
# 2 -0.004692 0.008522 -0.002446 0.000905 0.002432 -0.002231
# 3 0.000105 -0.002446 0.009642 -0.000483 0.000634 0.000051
# 4 0.000654 0.000905 -0.000483 0.028091 -0.000748 0.007402
# 5 0.003140 0.002432 0.000634 -0.000748 0.028997 -0.001024
# 6 0.004999 -0.002231 0.000051 0.007402 -0.001024 0.026958
#
#
# Mechanical properties :
#
#
# Convention : Reuss Voigt Hill
#
# Bulk Modulus (GPa) = 46.40314 60.92190 53.66252
# Shear Modulus (GPa) = 35.48322 40.72262 38.10292
#
# Velocity S-wave (km/s) = 3.93019 4.21036 4.07268
# Velocity P-wave (km/s) = 6.38710 7.08212 6.74357
#
# Compressibility (1/GPa) = 0.02155026
#
# Stress axis : x y z
#
# Youngs Moduli (GPa) = 57.29908 117.34677 103.71156
#
# Poissons Ratio (x) = 0.55059 -0.01091
# Poissons Ratio (y) = 0.26885 0.25369
# Poissons Ratio (z) = -0.00603 0.28704
#
# Static dielectric constant tensor:
#      x y z
#    x 3.470160 0.155640 0.142670 
#    y 0.155640 4.206880 -0.204800 
#    z 0.142670 -0.204800 3.968600 
# 
# 
# High freq. dielectric constant tensor:
#      x y z
#    x 1.896410 -0.012000 -0.011640 
#    y -0.012000 1.932960 -0.001350 
#    z -0.011640 -0.001350 1.908230 
# 
# From -- ./inp_files/400017.got.cif
#   From: 2010.06.25/outbox.cif.g09.slc.cpg/sg2_201_cif.got.tgz:400017.got - 2010.06.27 13:26:56.
