data_PCOD8027193
_publ_section_title
;
Structure prediction by ZEFSAII (Michael W. Deem and Ramdas Pophale) SiO2 
 PCOD8027193
Probable space group: P -1
;
_chemical_formula_sum "Si O2"
_cell_formula_units_Z 12
_cell_length_a 14.617643
_cell_length_b 17.398990
_cell_length_c 7.245181
_cell_angle_alpha 137.210083
_cell_angle_beta 141.226616
_cell_angle_gamma 23.556071
_cell_volume 459.820569
_symmetry_space_group_name_H-M "P -1"
_symmetry_group_IT_number 2
_symmetry_cell_setting 'triclinic'
loop_
_space_group_symop_operation_xyz
x,y,z
-x,-y,-z
loop_
_atom_site_type_symbol
_atom_site_label
_atom_site_fract_x
_atom_site_fract_y
_atom_site_fract_z
Si Si1 0.968152 0.965769 0.602329
Si Si2 0.518415 0.354586 0.275634
Si Si3 0.449802 0.221932 0.215970
Si Si4 0.127542 0.760201 0.848386
Si Si5 0.264317 0.451880 0.676508
Si Si6 0.736845 0.838476 0.457631
O O1 0.154864 0.788744 0.733713
O O2 0.182068 0.860704 0.599648
O O3 0.748361 0.015318 0.297528
O O4 0.828063 0.163331 0.810027
O O5 0.500000 0.500000 0.500000
O O6 0.374558 0.383576 0.268197
O O7 0.413572 0.356787 0.933832
O O8 0.360623 0.291577 0.410352
O O9 0.323626 0.190584 0.876664
O O10 0.840249 0.896683 0.663832
O O11 0.318531 0.539254 0.812772
O O12 0.964620 0.629329 0.552233
O O13 0.500000 0.000000 0.500000
#
# Coordination Sequence:
#
# PCOD8027193 Si02
#       6
#     2   2   2   2   2   2
#     4  11  22  40  68  99 132 177 221 276 331 399
#     4  12  26  41  70 103 138 176 227 277 340 397
#     4  12  25  43  72 101 138 177 228 273 339 401
#     4   9  21  41  67  95 133 175 224 266 344 382
#     4  10  24  46  67  99 139 175 223 284 328 401
#     4  10  24  44  69  99 135 180 226 276 337 403
#
# _framework density 26.097138000000001
#
# number of rings (size 3 to 8) (size 9 to 14) (size 15 to 20)
#    1.000    0.333    0.000    6.000    2.333    3.333 
#    0.000    0.000    0.000    0.000    0.000    0.000 
#    0.000    0.000    0.000    0.000    0.000    0.000 
#
# Total GULP energy -148751.202143 kJ/mol
# GULP energy per Si atom -12395.933512 kJ/mol
# Density = 2.603774 g / cm^3
# Si number density = 26.097138 Si / 1000 Ang^3
#
#
#
# Elastic Constant Matrix: (Units=GPa)
#
#
# Indices 1 2 3 4 5 6 
#
# 1 44.4575 -8.7214 8.5273 -0.0234 -20.3210 -12.3813
# 2 -8.7214 99.8321 15.5381 -17.4211 -19.5384 -16.6578
# 3 8.5273 15.5381 127.0558 -18.5358 -23.4493 -4.5821
# 4 -0.0234 -17.4211 -18.5358 38.1230 -2.2858 5.7682
# 5 -20.3210 -19.5384 -23.4493 -2.2858 36.5527 -0.5487
# 6 -12.3813 -16.6578 -4.5821 5.7682 -0.5487 41.0734
#
#
#
# Elastic Compliance Matrix: (Units=1/GPa)
#
#
# Indices 1 2 3 4 5 6 
#
# 1 0.048748 0.016337 0.003988 0.008598 0.039246 0.021082
# 2 0.016337 0.018860 0.002325 0.009254 0.021411 0.011819
# 3 0.003988 0.002325 0.010262 0.006298 0.010476 0.002546
# 4 0.008598 0.009254 0.006298 0.034109 0.015937 0.002470
# 5 0.039246 0.021411 0.010476 0.015937 0.068643 0.020362
# 6 0.021082 0.011819 0.002546 0.002470 0.020362 0.035704
#
#
# Mechanical properties :
#
#
# Convention : Reuss Voigt Hill
#
# Bulk Modulus (GPa) = 8.11881 33.55925 20.83903
# Shear Modulus (GPa) = 23.57566 40.21658 31.89612
#
# Velocity S-wave (km/s) = 3.00889 3.92986 3.49980
# Velocity P-wave (km/s) = 3.89730 5.78610 4.93295
#
# Compressibility (1/GPa) = 0.12317083
#
# Stress axis : x y z
#
# Youngs Moduli (GPa) = 20.51357 53.02342 97.44262
#
# Poissons Ratio (x) = -0.86625 -0.38862
# Poissons Ratio (y) = -0.33513 -0.22656
# Poissons Ratio (z) = -0.08181 -0.12328
#
# Static dielectric constant tensor:
#      x y z
#    x 4.663670 0.021090 -0.034010 
#    y 0.021090 4.595580 -0.330540 
#    z -0.034010 -0.330540 4.600090 
# 
# 
# High freq. dielectric constant tensor:
#      x y z
#    x 2.049260 0.001480 -0.008370 
#    y 0.001480 2.047420 -0.023440 
#    z -0.008370 -0.023440 2.048370 
# 
# From -- ./inp_files/338365.got.cif
#   From: 2010.06.25/outbox.cif.g09.slc.cpg/sg2_170_cif.got.tgz:338365.got - 2010.06.27 13:26:56.
