data_PCOD8027770
_publ_section_title
;
Structure prediction by ZEFSAII (Michael W. Deem and Ramdas Pophale) SiO2 
 PCOD8027770
Probable space group: P -1
;
_chemical_formula_sum "Si O2"
_cell_formula_units_Z 14
_cell_length_a 17.973886
_cell_length_b 17.547256
_cell_length_c 8.982051
_cell_angle_alpha 39.813334
_cell_angle_beta 41.538163
_cell_angle_gamma 18.372548
_cell_volume 569.032356
_symmetry_space_group_name_H-M "P -1"
_symmetry_group_IT_number 2
_symmetry_cell_setting 'triclinic'
loop_
_space_group_symop_operation_xyz
x,y,z
-x,-y,-z
loop_
_atom_site_type_symbol
_atom_site_label
_atom_site_fract_x
_atom_site_fract_y
_atom_site_fract_z
Si Si1 0.332958 0.051973 0.728458
Si Si2 0.433649 0.370204 0.814579
Si Si3 0.222780 0.689741 0.126167
Si Si4 0.720005 0.858549 0.813654
Si Si5 0.478150 0.544957 0.707874
Si Si6 0.963317 0.427951 0.947417
Si Si7 0.690031 0.091712 0.296910
O O1 0.500000 0.000000 0.500000
O O2 0.262070 0.034726 0.726303
O O3 0.434084 0.875081 0.975615
O O4 0.112040 0.319814 0.739282
O O5 0.449531 0.449357 0.804997
O O6 0.540931 0.325966 0.569052
O O7 0.165013 0.579263 0.874915
O O8 0.271566 0.689525 0.223077
O O9 0.947135 0.917942 0.181422
O O10 0.435681 0.397818 0.199683
O O11 0.273915 0.748002 0.838451
O O12 0.804355 0.695023 0.797714
O O13 0.647195 0.053767 0.564489
O O14 0.912688 0.702317 0.884525
O O15 0.500000 0.000000 0.000000
#
# Coordination Sequence:
#
# PCOD8027770 Si02
#       7
#     2   2   2   2   2   2   2
#     4  12  27  45  72 110 151 197 244 308 373 456
#     4  11  23  48  67 110 141 196 242 311 370 444
#     4  11  26  50  73 112 140 202 248 315 367 444
#     4  11  26  45  72 109 145 196 249 311 372 451
#     4  10  24  46  76  99 152 187 257 305 375 436
#     4  11  25  44  73 104 147 192 250 303 379 442
#     4  12  27  47  78 106 156 193 253 306 381 440
#
# _framework density 24.603168
#
# number of rings (size 3 to 8) (size 9 to 14) (size 15 to 20)
#    0.000    0.857    1.429    4.286   10.000    3.429 
#    5.143    2.143    0.000    0.000    0.000    0.000 
#    0.000    0.000    0.000    0.000    0.000    0.000 
#
# Total GULP energy -173441.085230 kJ/mol
# GULP energy per Si atom -12388.648945 kJ/mol
# Density = 2.454717 g / cm^3
# Si number density = 24.603168 Si / 1000 Ang^3
#
#
#
# Elastic Constant Matrix: (Units=GPa)
#
#
# Indices 1 2 3 4 5 6 
#
# 1 161.4835 43.0188 30.8540 21.6209 2.1411 -10.6797
# 2 43.0188 138.0384 44.5921 19.0815 -3.0324 -1.4769
# 3 30.8540 44.5921 191.1512 20.4094 -0.1600 -17.6244
# 4 21.6209 19.0815 20.4094 34.8090 -6.8037 1.4626
# 5 2.1411 -3.0324 -0.1600 -6.8037 35.3487 9.6341
# 6 -10.6797 -1.4769 -17.6244 1.4626 9.6341 36.9957
#
#
#
# Elastic Compliance Matrix: (Units=1/GPa)
#
#
# Indices 1 2 3 4 5 6 
#
# 1 0.007439 -0.001730 -0.000102 -0.004148 -0.002148 0.002753
# 2 -0.001730 0.008646 -0.001546 -0.002602 0.000596 -0.000943
# 3 -0.000102 -0.001546 0.006272 -0.003236 -0.001663 0.003458
# 4 -0.004148 -0.002602 -0.003236 0.036639 0.008864 -0.006600
# 5 -0.002148 0.000596 -0.001663 0.008864 0.032984 -0.010329
# 6 0.002753 -0.000943 0.003458 -0.006600 -0.010329 0.032385
#
#
# Mechanical properties :
#
#
# Convention : Reuss Voigt Hill
#
# Bulk Modulus (GPa) = 64.10373 80.84479 72.47426
# Shear Modulus (GPa) = 36.67836 46.24458 41.46147
#
# Velocity S-wave (km/s) = 3.86527 4.34016 4.10958
# Velocity P-wave (km/s) = 6.78470 7.61885 7.21384
#
# Compressibility (1/GPa) = 0.01559972
#
# Stress axis : x y z
#
# Youngs Moduli (GPa) = 134.43052 115.66564 159.44762
#
# Poissons Ratio (x) = 0.20005 0.01632
# Poissons Ratio (y) = 0.23250 0.24655
# Poissons Ratio (z) = 0.01376 0.17885
#
# Static dielectric constant tensor:
#      x y z
#    x 4.901320 0.319270 -0.032740 
#    y 0.319270 4.329920 0.031180 
#    z -0.032740 0.031180 4.781210 
# 
# 
# High freq. dielectric constant tensor:
#      x y z
#    x 2.011440 0.004170 0.003320 
#    y 0.004170 1.972370 0.000230 
#    z 0.003320 0.000230 1.995880 
# 
# From -- ./inp_files/135670.got.cif
#   From: 2010.06.25/outbox.cif.g09.slc.cpg/sg2_68_cif.got.tgz:135670.got - 2010.06.27 13:26:56.
