data_PCOD8027053
_publ_section_title
;
Structure prediction by ZEFSAII (Michael W. Deem and Ramdas Pophale) SiO2 
 PCOD8027053
Probable space group: P -1
;
_chemical_formula_sum "Si O2"
_cell_formula_units_Z 14
_cell_length_a 19.387901
_cell_length_b 5.037851
_cell_length_c 9.777038
_cell_angle_alpha 65.920159
_cell_angle_beta 131.760343
_cell_angle_gamma 117.321682
_cell_volume 625.283426
_symmetry_space_group_name_H-M "P -1"
_symmetry_group_IT_number 2
_symmetry_cell_setting 'triclinic'
loop_
_space_group_symop_operation_xyz
x,y,z
-x,-y,-z
loop_
_atom_site_type_symbol
_atom_site_label
_atom_site_fract_x
_atom_site_fract_y
_atom_site_fract_z
Si Si1 0.135132 0.972032 0.171758
Si Si2 0.748575 0.472068 0.619599
Si Si3 0.983117 0.739883 0.231540
Si Si4 0.756160 0.535004 0.294935
Si Si5 0.122278 0.823754 0.629368
Si Si6 0.542450 0.357691 0.965348
Si Si7 0.464809 0.645645 0.549304
O O1 0.174065 0.246486 0.271167
O O2 0.217117 0.829990 0.252791
O O3 0.055623 0.723075 0.206057
O O4 0.088626 0.072057 0.954370
O O5 0.734193 0.507982 0.432273
O O6 0.649743 0.443591 0.572673
O O7 0.037888 0.893034 0.410091
O O8 0.921330 0.402764 0.257821
O O9 0.814475 0.307958 0.366589
O O10 0.816639 0.878768 0.274635
O O11 0.657530 0.452104 0.098415
O O12 0.510791 0.505710 0.761078
O O13 0.500000 0.500000 0.000000
O O14 0.500000 0.000000 0.000000
O O15 0.500000 0.500000 0.500000
O O16 0.500000 0.000000 0.500000
#
# Coordination Sequence:
#
# PCOD8027053 Si02
#       7
#     2   2   2   2   2   2   2
#     4  11  25  42  70  99 137 188 229 283 345 423
#     4  12  24  45  71  98 140 180 235 281 356 419
#     4  10  24  44  66 102 140 182 235 283 351 407
#     4  12  24  44  71 101 136 181 240 280 350 414
#     4  11  25  42  68  99 141 181 228 297 339 404
#     4  12  26  46  77 104 138 187 242 291 350 442
#     4  12  28  48  73 107 146 182 232 304 368 420
#
# _framework density 22.389845000000001
#
# number of rings (size 3 to 8) (size 9 to 14) (size 15 to 20)
#    0.000    0.571    4.286    2.571    2.000   11.429 
#    0.000    0.000    0.000    0.000    0.000    0.000 
#    0.000    0.000    0.000    0.000    0.000    0.000 
#
# Total GULP energy -173620.287815 kJ/mol
# GULP energy per Si atom -12401.449130 kJ/mol
# Density = 2.233888 g / cm^3
# Si number density = 22.389845 Si / 1000 Ang^3
#
#
#
# Elastic Constant Matrix: (Units=GPa)
#
#
# Indices 1 2 3 4 5 6 
#
# 1 79.8144 20.4200 66.1987 -6.0060 2.3045 -3.4109
# 2 20.4200 139.5955 70.1574 -6.5790 5.7878 1.0642
# 3 66.1987 70.1574 163.8837 -24.3652 11.8745 8.2158
# 4 -6.0060 -6.5790 -24.3652 39.8029 7.9963 -2.4076
# 5 2.3045 5.7878 11.8745 7.9963 35.2984 0.7951
# 6 -3.4109 1.0642 8.2158 -2.4076 0.7951 47.2795
#
#
#
# Elastic Compliance Matrix: (Units=1/GPa)
#
#
# Indices 1 2 3 4 5 6 
#
# 1 0.019736 0.001573 -0.009353 -0.002749 0.002159 0.002837
# 2 0.001573 0.009297 -0.004847 -0.001205 0.000261 0.000681
# 3 -0.009353 -0.004847 0.013418 0.006773 -0.004587 -0.002475
# 4 -0.002749 -0.001205 0.006773 0.030447 -0.008807 0.000350
# 5 0.002159 0.000261 -0.004587 -0.008807 0.031685 -0.000034
# 6 0.002837 0.000681 -0.002475 0.000350 -0.000034 0.021789
#
#
# Mechanical properties :
#
#
# Convention : Reuss Voigt Hill
#
# Bulk Modulus (GPa) = 58.15121 77.42733 67.78927
# Shear Modulus (GPa) = 31.77450 39.57731 35.67590
#
# Velocity S-wave (km/s) = 3.77124 4.20890 3.99607
# Velocity P-wave (km/s) = 6.70758 7.63389 7.18568
#
# Compressibility (1/GPa) = 0.01719655
#
# Stress axis : x y z
#
# Youngs Moduli (GPa) = 50.66870 107.56304 74.52406
#
# Poissons Ratio (x) = -0.16918 0.69701
# Poissons Ratio (y) = -0.07969 0.36125
# Poissons Ratio (z) = 0.47390 0.52140
#
# Static dielectric constant tensor:
#      x y z
#    x 4.152760 0.131600 0.218860 
#    y 0.131600 4.127000 -0.036990 
#    z 0.218860 -0.036990 4.245150 
# 
# 
# High freq. dielectric constant tensor:
#      x y z
#    x 1.893380 0.003260 0.005680 
#    y 0.003260 1.888690 -0.004890 
#    z 0.005680 -0.004890 1.894310 
# 
# From -- ./inp_files/321663.got.cif
#   From: 2010.06.25/outbox.cif.g09.slc.cpg/sg2_161_cif.got.tgz:321663.got - 2010.06.27 13:26:56.
