data_PCOD8027260
_publ_section_title
;
Structure prediction by ZEFSAII (Michael W. Deem and Ramdas Pophale) SiO2 
 PCOD8027260
Probable space group: P -1
;
_chemical_formula_sum "Si O2"
_cell_formula_units_Z 10
_cell_length_a 9.501008
_cell_length_b 9.152031
_cell_length_c 9.528012
_cell_angle_alpha 126.498525
_cell_angle_beta 65.997907
_cell_angle_gamma 145.958361
_cell_volume 365.937529
_symmetry_space_group_name_H-M "P -1"
_symmetry_group_IT_number 2
_symmetry_cell_setting 'triclinic'
loop_
_space_group_symop_operation_xyz
x,y,z
-x,-y,-z
loop_
_atom_site_type_symbol
_atom_site_label
_atom_site_fract_x
_atom_site_fract_y
_atom_site_fract_z
Si Si1 0.798381 0.961441 0.585760
Si Si2 0.774557 0.169561 0.467851
Si Si3 0.470662 0.594880 0.752665
Si Si4 0.797027 0.311657 0.096120
Si Si5 0.797440 0.971608 0.083958
O O1 0.719617 0.921430 0.757213
O O2 0.548832 0.631579 0.421061
O O3 0.855549 0.200311 0.613465
O O4 0.000000 0.000000 0.500000
O O5 0.746235 0.959953 0.263295
O O6 0.000000 0.500000 0.500000
O O7 0.500000 0.000000 0.500000
O O8 0.217425 0.479738 0.747970
O O9 0.538597 0.667202 0.932472
O O10 0.883403 0.252314 0.148965
O O11 0.000000 0.500000 0.000000
O O12 0.500000 0.000000 0.000000
O O13 0.000000 0.000000 0.000000
#
# Coordination Sequence:
#
# PCOD8027260 Si02
#       5
#     2   2   2   2   2
#     4  11  26  47  79 107 156 199 258 314 386 453
#     4  12  31  52  76 114 162 203 248 323 400 451
#     4  10  25  47  77 113 145 205 258 314 374 464
#     4  10  24  44  71 105 147 190 249 303 368 442
#     4  11  26  48  80 114 151 200 257 319 377 456
#
# _framework density 27.327067
#
# number of rings (size 3 to 8) (size 9 to 14) (size 15 to 20)
#    0.000    1.200    0.000    2.400   19.600    4.000 
#    0.000    0.000    0.000    0.000    0.000    0.000 
#    0.000    0.000    0.000    0.000    0.000    0.000 
#
# Total GULP energy -123891.787959 kJ/mol
# GULP energy per Si atom -12389.178796 kJ/mol
# Density = 2.726487 g / cm^3
# Si number density = 27.327067 Si / 1000 Ang^3
#
#
#
# Elastic Constant Matrix: (Units=GPa)
#
#
# Indices 1 2 3 4 5 6 
#
# 1 179.9243 24.1975 12.9754 -14.8789 -16.4187 22.1711
# 2 24.1975 117.7850 1.3673 -13.5301 -11.6776 16.0858
# 3 12.9754 1.3673 88.5166 -17.3240 -7.9959 17.8544
# 4 -14.8789 -13.5301 -17.3240 58.6713 -0.9108 -19.7711
# 5 -16.4187 -11.6776 -7.9959 -0.9108 60.0074 -7.7376
# 6 22.1711 16.0858 17.8544 -19.7711 -7.7376 48.5807
#
#
#
# Elastic Compliance Matrix: (Units=1/GPa)
#
#
# Indices 1 2 3 4 5 6 
#
# 1 0.006090 -0.000782 -0.000245 0.000647 0.001237 -0.001970
# 2 -0.000782 0.009250 0.000829 0.001466 0.001437 -0.002185
# 3 -0.000245 0.000829 0.012682 0.002716 0.001374 -0.003500
# 4 0.000647 0.001466 0.002716 0.020733 0.002039 0.006984
# 5 0.001237 0.001437 0.001374 0.002039 0.017770 0.002115
# 6 -0.001970 -0.002185 -0.003500 0.006984 0.002115 0.026672
#
#
# Mechanical properties :
#
#
# Convention : Reuss Voigt Hill
#
# Bulk Modulus (GPa) = 36.19714 51.47847 43.83780
# Shear Modulus (GPa) = 48.63731 56.63094 52.63412
#
# Velocity S-wave (km/s) = 4.22337 4.55723 4.39347
# Velocity P-wave (km/s) = 6.08746 6.82422 6.46634
#
# Compressibility (1/GPa) = 0.02762649
#
# Stress axis : x y z
#
# Youngs Moduli (GPa) = 164.20628 108.10340 78.85227
#
# Poissons Ratio (x) = 0.08456 0.01931
# Poissons Ratio (y) = 0.12845 -0.06539
# Poissons Ratio (z) = 0.04021 -0.08964
#
# Static dielectric constant tensor:
#      x y z
#    x 11.996300 -17.945310 -16.444990 
#    y -17.945310 51.299670 42.917740 
#    z -16.444990 42.917740 44.826870 
# 
# 
# High freq. dielectric constant tensor:
#      x y z
#    x 2.108740 -0.001580 -0.010540 
#    y -0.001580 2.121270 0.024930 
#    z -0.010540 0.024930 2.133580 
# 
# From -- ./inp_files/16279.got.cif
#   From: 2010.06.25/outbox.cif.g09.slc.cpg/sg2_9_cif.got.tgz:16279.got - 2010.06.27 13:26:56.
