data_PCOD8027086
_publ_section_title
;
Structure prediction by ZEFSAII (Michael W. Deem and Ramdas Pophale) SiO2 
 PCOD8027086
Probable space group: P -1
;
_chemical_formula_sum "Si O2"
_cell_formula_units_Z 16
_cell_length_a 9.333404
_cell_length_b 8.118219
_cell_length_c 13.523146
_cell_angle_alpha 141.845409
_cell_angle_beta 96.946976
_cell_angle_gamma 75.307484
_cell_volume 607.014109
_symmetry_space_group_name_H-M "P -1"
_symmetry_group_IT_number 2
_symmetry_cell_setting 'triclinic'
loop_
_space_group_symop_operation_xyz
x,y,z
-x,-y,-z
loop_
_atom_site_type_symbol
_atom_site_label
_atom_site_fract_x
_atom_site_fract_y
_atom_site_fract_z
Si Si1 0.897590 0.725386 0.029012
Si Si2 0.558291 0.028513 0.626541
Si Si3 0.163390 0.549253 0.410199
Si Si4 0.518894 0.801897 0.765931
Si Si5 0.745986 0.446083 0.380508
Si Si6 0.912817 0.406382 0.189498
Si Si7 0.396441 0.382713 0.099734
Si Si8 0.251597 0.054973 0.687375
O O1 0.809704 0.959836 0.209254
O O2 0.780734 0.596854 0.898515
O O3 0.000000 0.500000 0.000000
O O4 0.998986 0.815025 0.991041
O O5 0.590268 0.319391 0.793210
O O6 0.432788 0.989954 0.677204
O O7 0.500000 0.000000 0.500000
O O8 0.704990 0.778319 0.525727
O O9 0.312967 0.294650 0.306878
O O10 0.123069 0.611280 0.552181
O O11 0.029593 0.507723 0.314871
O O12 0.206571 0.827010 0.506620
O O13 0.394950 0.661199 0.641169
O O14 0.520627 0.692447 0.826053
O O15 0.471530 0.137299 0.914036
O O16 0.807782 0.301480 0.210665
O O17 0.811818 0.651639 0.231068
#
# Coordination Sequence:
#
# PCOD8027086 Si02
#       8
#     2   2   2   2   2   2   2   2
#     4  10  24  44  67 103 144 193 235 293 354 431
#     4  12  23  44  75 110 140 184 244 306 352 424
#     4  12  24  44  73 109 145 192 240 298 367 434
#     4  11  23  43  73 103 145 187 236 296 362 427
#     4  12  25  43  73 110 146 184 239 305 364 417
#     4  11  24  45  72 102 147 195 244 293 358 436
#     4  11  23  43  72 104 141 191 239 288 364 428
#     4  11  23  44  76 105 144 189 246 299 360 426
#
# _framework density 26.358532
#
# number of rings (size 3 to 8) (size 9 to 14) (size 15 to 20)
#    0.000    0.750    5.000    1.875    1.750    2.500 
#    0.000    3.750    8.250    0.000    0.000    0.000 
#    0.000    0.000    0.000    0.000    0.000    0.000 
#
# Total GULP energy -198224.695991 kJ/mol
# GULP energy per Si atom -12389.043499 kJ/mol
# Density = 2.629854 g / cm^3
# Si number density = 26.358532 Si / 1000 Ang^3
#
#
#
# Elastic Constant Matrix: (Units=GPa)
#
#
# Indices 1 2 3 4 5 6 
#
# 1 100.9198 7.7066 22.0157 -5.7317 -12.2773 5.5150
# 2 7.7066 40.6006 18.4940 -13.7450 -19.8176 20.2023
# 3 22.0157 18.4940 110.0574 8.9719 -16.8467 17.7712
# 4 -5.7317 -13.7450 8.9719 55.1934 8.5737 -10.5222
# 5 -12.2773 -19.8176 -16.8467 8.5737 50.6403 -9.7033
# 6 5.5150 20.2023 17.7712 -10.5222 -9.7033 49.1790
#
#
#
# Elastic Compliance Matrix: (Units=1/GPa)
#
#
# Indices 1 2 3 4 5 6 
#
# 1 0.010611 0.000116 -0.001982 0.001194 0.001773 0.000083
# 2 0.000116 0.039519 -0.003690 0.006586 0.010979 -0.011339
# 3 -0.001982 -0.003690 0.011136 -0.003747 0.001895 -0.002714
# 4 0.001194 0.006586 -0.003747 0.021245 -0.001445 0.002775
# 5 0.001773 0.010979 0.001895 -0.001445 0.025209 -0.000729
# 6 0.000083 -0.011339 -0.002714 0.002775 -0.000729 0.026413
#
#
# Mechanical properties :
#
#
# Convention : Reuss Voigt Hill
#
# Bulk Modulus (GPa) = 19.93747 38.66784 29.30265
# Shear Modulus (GPa) = 30.87154 44.55996 37.71575
#
# Velocity S-wave (km/s) = 3.42602 4.11607 3.78679
# Velocity P-wave (km/s) = 4.81980 6.10665 5.50098
#
# Compressibility (1/GPa) = 0.05015681
#
# Stress axis : x y z
#
# Youngs Moduli (GPa) = 94.24043 25.30420 89.79685
#
# Poissons Ratio (x) = -0.00294 0.17794
# Poissons Ratio (y) = -0.01096 0.33131
# Poissons Ratio (z) = 0.18675 0.09336
#
# Static dielectric constant tensor:
#      x y z
#    x 4.791870 0.074500 -0.429610 
#    y 0.074500 5.391090 0.013960 
#    z -0.429610 0.013960 5.441010 
# 
# 
# High freq. dielectric constant tensor:
#      x y z
#    x 2.042480 -0.013900 -0.018670 
#    y -0.013900 2.085760 -0.008750 
#    z -0.018670 -0.008750 2.068740 
# 
# From -- ./inp_files/495846.got.cif
#   From: 2010.06.25/outbox.cif.g09.slc.cpg/sg2_248_cif.got.tgz:495846.got - 2010.06.27 13:26:56.
