data_PCOD8027068
_publ_section_title
;
Structure prediction by ZEFSAII (Michael W. Deem and Ramdas Pophale) SiO2 
 PCOD8027068
Probable space group: P -1
;
_chemical_formula_sum "Si O2"
_cell_formula_units_Z 14
_cell_length_a 14.864790
_cell_length_b 17.371336
_cell_length_c 4.757800
_cell_angle_alpha 83.950591
_cell_angle_beta 110.910241
_cell_angle_gamma 149.124166
_cell_volume 534.715738
_symmetry_space_group_name_H-M "P -1"
_symmetry_group_IT_number 2
_symmetry_cell_setting 'triclinic'
loop_
_space_group_symop_operation_xyz
x,y,z
-x,-y,-z
loop_
_atom_site_type_symbol
_atom_site_label
_atom_site_fract_x
_atom_site_fract_y
_atom_site_fract_z
Si Si1 0.186883 0.568047 0.946817
Si Si2 0.870852 0.835074 0.501522
Si Si3 0.408815 0.367831 0.252778
Si Si4 0.375621 0.997800 0.613537
Si Si5 0.126574 0.864973 0.884072
Si Si6 0.761399 0.497215 0.472141
Si Si7 0.711427 0.240931 0.457537
O O1 0.230414 0.520740 0.836501
O O2 0.313587 0.727009 0.870735
O O3 0.945168 0.414763 0.754047
O O4 0.263946 0.600037 0.334969
O O5 0.701831 0.684103 0.141709
O O6 0.765522 0.792175 0.683404
O O7 0.023525 0.874100 0.723392
O O8 0.000000 0.000000 0.500000
O O9 0.500000 0.500000 0.500000
O O10 0.575441 0.422801 0.342209
O O11 0.336993 0.005851 0.879699
O O12 0.365876 0.898292 0.665985
O O13 0.582838 0.174542 0.618509
O O14 0.183793 0.894995 0.260873
O O15 0.977027 0.688928 0.709163
#
# Coordination Sequence:
#
# PCOD8027068 Si02
#       7
#     2   2   2   2   2   2   2
#     4  11  25  42  67  99 139 180 229 299 347 410
#     4  12  28  48  73 108 149 186 233 304 367 421
#     4  12  26  46  77 106 140 190 244 291 351 442
#     4  11  25  42  69  98 135 186 231 286 352 429
#     4  12  24  44  70 100 141 180 238 287 358 422
#     4  12  24  43  70 103 137 181 241 288 350 419
#     4  10  24  44  66  98 137 180 235 284 358 417
#
# _framework density 26.182134000000001
#
# number of rings (size 3 to 8) (size 9 to 14) (size 15 to 20)
#    0.000    0.571    4.286    2.571    2.000   11.429 
#    0.000    0.000    0.000    0.000    0.000    0.000 
#    0.000    0.000    0.000    0.000    0.000    0.000 
#
# Total GULP energy -173630.338727 kJ/mol
# GULP energy per Si atom -12402.167052 kJ/mol
# Density = 2.612254 g / cm^3
# Si number density = 26.182134 Si / 1000 Ang^3
#
#
#
# Elastic Constant Matrix: (Units=GPa)
#
#
# Indices 1 2 3 4 5 6 
#
# 1 83.2213 35.3078 33.1855 -0.0088 20.4484 16.6644
# 2 35.3078 129.5362 -8.9984 -9.7935 16.7852 8.9742
# 3 33.1855 -8.9984 83.3495 -23.1523 -9.9584 5.8696
# 4 -0.0088 -9.7935 -23.1523 32.0313 2.6168 0.6675
# 5 20.4484 16.7852 -9.9584 2.6168 41.4101 -6.6045
# 6 16.6644 8.9742 5.8696 0.6675 -6.6045 53.7412
#
#
#
# Elastic Compliance Matrix: (Units=1/GPa)
#
#
# Indices 1 2 3 4 5 6 
#
# 1 0.025958 -0.006767 -0.015628 -0.012060 -0.014156 -0.006802
# 2 -0.006767 0.010587 0.005958 0.007556 -0.000061 -0.000422
# 3 -0.015628 0.005958 0.025303 0.019203 0.010515 0.002141
# 4 -0.012060 0.007556 0.019203 0.047023 0.004597 0.000361
# 5 -0.014156 -0.000061 0.010515 0.004597 0.034590 0.007445
# 6 -0.006802 -0.000422 0.002141 0.000361 0.007445 0.021464
#
#
# Mechanical properties :
#
#
# Convention : Reuss Voigt Hill
#
# Bulk Modulus (GPa) = 34.51372 46.12186 40.31779
# Shear Modulus (GPa) = 24.10147 41.21066 32.65606
#
# Velocity S-wave (km/s) = 3.03732 3.97167 3.53550
# Velocity P-wave (km/s) = 5.05086 6.21983 5.66557
#
# Compressibility (1/GPa) = 0.02897398
#
# Stress axis : x y z
#
# Youngs Moduli (GPa) = 38.52323 94.45800 39.52141
#
# Poissons Ratio (x) = 0.63922 0.61764
# Poissons Ratio (y) = 0.26070 -0.23549
# Poissons Ratio (z) = 0.60204 -0.56282
#
# Static dielectric constant tensor:
#      x y z
#    x 4.800160 0.318900 -0.604870 
#    y 0.318900 5.312120 -0.216180 
#    z -0.604870 -0.216180 5.723370 
# 
# 
# High freq. dielectric constant tensor:
#      x y z
#    x 2.052190 0.007770 -0.012680 
#    y 0.007770 2.081580 -0.004330 
#    z -0.012680 -0.004330 2.072270 
# 
# From -- ./inp_files/99700.got.cif
#   From: 2010.06.25/outbox.cif.g09.slc.cpg/sg2_50_cif.got.tgz:99700.got - 2010.06.27 13:26:56.
