data_PCOD8027882
_publ_section_title
;
Structure prediction by ZEFSAII (Michael W. Deem and Ramdas Pophale) SiO2 
 PCOD8027882
Probable space group: P -1
;
_chemical_formula_sum "Si O2"
_cell_formula_units_Z 16
_cell_length_a 12.540797
_cell_length_b 16.708205
_cell_length_c 8.875830
_cell_angle_alpha 50.840463
_cell_angle_beta 148.756550
_cell_angle_gamma 131.083812
_cell_volume 715.463219
_symmetry_space_group_name_H-M "P -1"
_symmetry_group_IT_number 2
_symmetry_cell_setting 'triclinic'
loop_
_space_group_symop_operation_xyz
x,y,z
-x,-y,-z
loop_
_atom_site_type_symbol
_atom_site_label
_atom_site_fract_x
_atom_site_fract_y
_atom_site_fract_z
Si Si1 0.937000 0.467733 0.131838
Si Si2 0.681634 0.098254 0.676619
Si Si3 0.158821 0.160354 0.113221
Si Si4 0.472357 0.731224 0.163441
Si Si5 0.281220 0.367772 0.213674
Si Si6 0.517062 0.097470 0.793251
Si Si7 0.429969 0.228016 0.080743
Si Si8 0.387819 0.459008 0.759634
O O1 0.133454 0.439851 0.486055
O O2 0.734109 0.363331 0.025359
O O3 0.895135 0.570308 0.043203
O O4 0.000000 0.500000 0.000000
O O5 0.685056 0.095013 0.866497
O O6 0.635742 0.209767 0.437717
O O7 0.500000 0.000000 0.500000
O O8 0.910347 0.092891 0.900329
O O9 0.197151 0.280466 0.083603
O O10 0.290920 0.093664 0.445016
O O11 0.222578 0.170082 0.001131
O O12 0.669353 0.687620 0.507868
O O13 0.398397 0.793631 0.137112
O O14 0.567250 0.813771 0.039445
O O15 0.511330 0.451614 0.350677
O O16 0.500000 0.000000 0.000000
O O17 0.450204 0.351588 0.926683
O O18 0.500000 0.500000 0.000000
#
# Coordination Sequence:
#
# PCOD8027882 Si02
#       8
#     2   2   2   2   2   2   2   2
#     4  12  25  38  67  97 137 193 225 277 344 391
#     4  11  26  49  71  99 133 172 225 284 342 411
#     4  10  25  43  72 100 127 184 219 273 349 402
#     4  11  23  44  66 102 138 179 230 283 336 404
#     4  11  23  43  65  95 142 176 236 275 326 405
#     4  10  24  48  71 100 133 166 223 290 339 407
#     4  11  24  42  66  97 141 171 228 276 329 405
#     4  12  25  41  63 101 142 184 230 280 331 402
#
# _framework density 22.363136000000001
#
# number of rings (size 3 to 8) (size 9 to 14) (size 15 to 20)
#    0.000    1.000    3.750    1.875    5.250    3.000 
#    2.250    0.000    0.000    0.000    0.000    0.000 
#    0.000    0.000    0.000    0.000    0.000    0.000 
#
# Total GULP energy -198384.037532 kJ/mol
# GULP energy per Si atom -12399.002346 kJ/mol
# Density = 2.231224 g / cm^3
# Si number density = 22.363136 Si / 1000 Ang^3
#
#
#
# Elastic Constant Matrix: (Units=GPa)
#
#
# Indices 1 2 3 4 5 6 
#
# 1 167.8309 30.5279 49.6146 5.9819 -13.3980 17.3185
# 2 30.5279 77.2808 38.4758 -1.0788 -1.1926 5.1415
# 3 49.6146 38.4758 108.3934 0.6636 -0.7875 13.9157
# 4 5.9819 -1.0788 0.6636 38.8666 7.2124 -1.0079
# 5 -13.3980 -1.1926 -0.7875 7.2124 40.6310 -3.1309
# 6 17.3185 5.1415 13.9157 -1.0079 -3.1309 32.3242
#
#
#
# Elastic Compliance Matrix: (Units=1/GPa)
#
#
# Indices 1 2 3 4 5 6 
#
# 1 0.007503 -0.001514 -0.002548 -0.001679 0.002486 -0.002493
# 2 -0.001514 0.016037 -0.005063 0.000820 -0.000238 0.000443
# 3 -0.002548 -0.005063 0.012611 0.000140 -0.001028 -0.003354
# 4 -0.001679 0.000820 0.000140 0.027007 -0.005241 0.001043
# 5 0.002486 -0.000238 -0.001028 -0.005241 0.026454 0.001547
# 6 -0.002493 0.000443 -0.003354 0.001043 0.001547 0.033828
#
#
# Mechanical properties :
#
#
# Convention : Reuss Voigt Hill
#
# Bulk Modulus (GPa) = 55.86529 65.63798 60.75164
# Shear Modulus (GPa) = 33.86180 38.02349 35.94265
#
# Velocity S-wave (km/s) = 3.89547 4.12791 4.01337
# Velocity P-wave (km/s) = 6.72816 7.22040 6.97862
#
# Compressibility (1/GPa) = 0.01790020
#
# Stress axis : x y z
#
# Youngs Moduli (GPa) = 133.28422 62.35560 79.29276
#
# Poissons Ratio (x) = 0.09442 0.20206
# Poissons Ratio (y) = 0.20183 0.40146
# Poissons Ratio (z) = 0.33964 0.31571
#
# Static dielectric constant tensor:
#      x y z
#    x 5.388820 0.634310 0.318090 
#    y 0.634310 4.295360 -0.058810 
#    z 0.318090 -0.058810 4.272650 
# 
# 
# High freq. dielectric constant tensor:
#      x y z
#    x 1.901680 -0.008140 -0.004890 
#    y -0.008140 1.868570 -0.020340 
#    z -0.004890 -0.020340 1.878890 
# 
# From -- ./inp_files/106707.got.cif
#   From: 2010.06.25/outbox.cif.g09.slc.cpg/sg2_54_cif.got.tgz:106707.got - 2010.06.27 13:26:56.
