data_PCOD8027987
_publ_section_title
;
Structure prediction by ZEFSAII (Michael W. Deem and Ramdas Pophale) SiO2 
 PCOD8027987
Probable space group: P -1
;
_chemical_formula_sum "Si O2"
_cell_formula_units_Z 16
_cell_length_a 4.993567
_cell_length_b 9.221921
_cell_length_c 23.579816
_cell_angle_alpha 56.214146
_cell_angle_beta 128.864853
_cell_angle_gamma 115.658683
_cell_volume 696.741060
_symmetry_space_group_name_H-M "P -1"
_symmetry_group_IT_number 2
_symmetry_cell_setting 'triclinic'
loop_
_space_group_symop_operation_xyz
x,y,z
-x,-y,-z
loop_
_atom_site_type_symbol
_atom_site_label
_atom_site_fract_x
_atom_site_fract_y
_atom_site_fract_z
Si Si1 0.889853 0.604432 0.409270
Si Si2 0.138474 0.384776 0.971696
Si Si3 0.966542 0.249187 0.857111
Si Si4 0.342288 0.414207 0.297541
Si Si5 0.664379 0.213368 0.288104
Si Si6 0.632834 0.168681 0.656277
Si Si7 0.849054 0.724171 0.882296
Si Si8 0.250566 0.070372 0.833374
O O1 0.688883 0.465889 0.368947
O O2 0.629343 0.740142 0.360580
O O3 0.000000 0.500000 0.500000
O O4 0.242830 0.711782 0.407542
O O5 0.120393 0.278076 0.934174
O O6 0.854298 0.521373 0.908278
O O7 0.500000 0.500000 0.000000
O O8 0.111827 0.251473 0.050089
O O9 0.881473 0.428792 0.778789
O O10 0.620675 0.110457 0.844390
O O11 0.245512 0.163674 0.874388
O O12 0.472811 0.346894 0.270359
O O13 0.079716 0.265997 0.328038
O O14 0.508916 0.217246 0.202459
O O15 0.572890 0.021221 0.346393
O O16 0.975114 0.155068 0.740587
O O17 0.167026 0.859059 0.870151
#
# Coordination Sequence:
#
# PCOD8027987 Si02
#       8
#     2   2   2   2   2   2   2   2
#     4  12  25  44  69  98 136 172 206 263 330 390
#     4  11  25  42  61  89 131 173 210 269 325 386
#     4  12  24  41  68  91 131 163 224 264 318 380
#     4  12  22  42  66 101 125 170 223 262 319 386
#     4  11  24  41  72  96 128 174 220 272 309 378
#     4  11  22  45  66 100 133 168 217 262 323 382
#     4  10  25  41  62  92 131 168 218 262 334 369
#     4  11  24  42  66  96 122 171 215 275 308 377
#
# _framework density 22.964054999999998
#
# number of rings (size 3 to 8) (size 9 to 14) (size 15 to 20)
#    0.000    0.750    3.750    3.375    5.250    3.000 
#    0.000    3.750    0.000    0.000    0.000    0.000 
#    0.000    0.000    0.000    0.000    0.000    0.000 
#
# Total GULP energy -198454.670472 kJ/mol
# GULP energy per Si atom -12403.416905 kJ/mol
# Density = 2.291179 g / cm^3
# Si number density = 22.964055 Si / 1000 Ang^3
#
#
#
# Elastic Constant Matrix: (Units=GPa)
#
#
# Indices 1 2 3 4 5 6 
#
# 1 74.6107 15.5126 4.4911 -0.6904 -18.4496 15.5584
# 2 15.5126 91.7862 39.4464 -5.7685 -16.6663 19.3331
# 3 4.4911 39.4464 84.5510 -0.9059 -21.8217 8.7870
# 4 -0.6904 -5.7685 -0.9059 19.8131 3.9111 -3.7073
# 5 -18.4496 -16.6663 -21.8217 3.9111 30.4758 -0.5414
# 6 15.5584 19.3331 8.7870 -3.7073 -0.5414 45.9904
#
#
#
# Elastic Compliance Matrix: (Units=1/GPa)
#
#
# Indices 1 2 3 4 5 6 
#
# 1 0.017974 -0.001026 0.003559 -0.003317 0.013180 -0.006441
# 2 -0.001026 0.015272 -0.005722 0.002630 0.003212 -0.004730
# 3 0.003559 -0.005722 0.017622 -0.003549 0.012058 -0.002310
# 4 -0.003317 0.002630 -0.003549 0.053840 -0.009933 0.004918
# 5 0.013180 0.003212 0.012058 -0.009933 0.052310 -0.008298
# 6 -0.006441 -0.004730 -0.002310 0.004918 -0.008298 0.026651
#
#
# Mechanical properties :
#
#
# Convention : Reuss Voigt Hill
#
# Bulk Modulus (GPa) = 22.47664 41.09424 31.78544
# Shear Modulus (GPa) = 24.40514 32.02240 28.21377
#
# Velocity S-wave (km/s) = 3.26353 3.73829 3.50895
# Velocity P-wave (km/s) = 4.89998 6.04707 5.50349
#
# Compressibility (1/GPa) = 0.04449063
#
# Stress axis : x y z
#
# Youngs Moduli (GPa) = 55.63732 65.47890 56.74863
#
# Poissons Ratio (x) = 0.06717 -0.20199
# Poissons Ratio (y) = 0.05708 0.32470
# Poissons Ratio (z) = -0.19803 0.37466
#
# Static dielectric constant tensor:
#      x y z
#    x 4.254660 0.120230 -0.032520 
#    y 0.120230 4.482810 -0.277710 
#    z -0.032520 -0.277710 3.881300 
# 
# 
# High freq. dielectric constant tensor:
#      x y z
#    x 1.914390 0.007110 -0.012350 
#    y 0.007110 1.915050 -0.006600 
#    z -0.012350 -0.006600 1.886290 
# 
# From -- ./inp_files/112492.got.cif
#   From: 2010.06.25/outbox.cif.g09.slc.cpg/sg2_57_cif.got.tgz:112492.got - 2010.06.27 13:26:56.
