data_PCOD8027865
_publ_section_title
;
Structure prediction by ZEFSAII (Michael W. Deem and Ramdas Pophale) SiO2 
 PCOD8027865
Probable space group: P -1
;
_chemical_formula_sum "Si O2"
_cell_formula_units_Z 16
_cell_length_a 14.269257
_cell_length_b 6.205769
_cell_length_c 9.255240
_cell_angle_alpha 88.213887
_cell_angle_beta 73.341590
_cell_angle_gamma 111.780707
_cell_volume 720.352133
_symmetry_space_group_name_H-M "P -1"
_symmetry_group_IT_number 2
_symmetry_cell_setting 'triclinic'
loop_
_space_group_symop_operation_xyz
x,y,z
-x,-y,-z
loop_
_atom_site_type_symbol
_atom_site_label
_atom_site_fract_x
_atom_site_fract_y
_atom_site_fract_z
Si Si1 0.419094 0.227549 0.031582
Si Si2 0.886226 0.292777 0.065271
Si Si3 0.035489 0.982219 0.755654
Si Si4 0.577844 0.363955 0.458159
Si Si5 0.500833 0.004099 0.750987
Si Si6 0.808306 0.505968 0.333428
Si Si7 0.101163 0.728573 0.488680
Si Si8 0.180663 0.004649 0.161628
O O1 0.298114 0.212192 0.090776
O O2 0.430263 0.079741 0.167603
O O3 0.500000 0.500000 0.000000
O O4 0.430771 0.105123 0.878863
O O5 0.906681 0.079905 0.135039
O O6 0.805292 0.369952 0.188707
O O7 0.000000 0.500000 0.000000
O O8 0.831416 0.206729 0.937962
O O9 0.055623 0.880196 0.600976
O O10 0.907994 0.891257 0.837027
O O11 0.084369 0.262081 0.713607
O O12 0.500000 0.500000 0.500000
O O13 0.570044 0.212095 0.608418
O O14 0.700541 0.553428 0.394109
O O15 0.563589 0.213908 0.320826
O O16 0.812008 0.338416 0.465308
O O17 0.000000 0.500000 0.500000
O O18 0.164004 0.890034 0.327515
#
# Coordination Sequence:
#
# PCOD8027865 Si02
#       8
#     2   2   2   2   2   2   2   2
#     4  11  25  46  67  97 136 182 227 280 340 400
#     4  11  23  44  64  99 136 173 219 268 339 401
#     4  11  24  42  65  98 135 169 222 265 331 414
#     4  11  24  44  73  98 130 179 227 284 346 389
#     4  10  24  48  66  96 134 170 236 284 326 408
#     4  11  24  42  70  98 133 173 217 279 332 408
#     4  11  23  44  64  99 136 173 219 268 339 401
#     4  12  23  42  69  98 134 176 218 279 332 405
#
# _framework density 22.211359999999999
#
# number of rings (size 3 to 8) (size 9 to 14) (size 15 to 20)
#    0.000    1.000    2.500    3.750    0.000    8.000 
#    9.000    0.000    0.000    0.000    0.000    0.000 
#    0.000    0.000    0.000    0.000    0.000    0.000 
#
# Total GULP energy -198360.814690 kJ/mol
# GULP energy per Si atom -12397.550918 kJ/mol
# Density = 2.216081 g / cm^3
# Si number density = 22.211360 Si / 1000 Ang^3
#
#
#
# Elastic Constant Matrix: (Units=GPa)
#
#
# Indices 1 2 3 4 5 6 
#
# 1 146.6924 48.5211 42.4816 8.8614 -40.0939 1.4956
# 2 48.5211 104.8227 40.0246 11.7955 -10.2218 -1.0001
# 3 42.4816 40.0246 117.4195 22.0675 -2.0090 1.5586
# 4 8.8614 11.7955 22.0675 34.3469 5.3142 -3.8636
# 5 -40.0939 -10.2218 -2.0090 5.3142 24.2569 -3.0140
# 6 1.4956 -1.0001 1.5586 -3.8636 -3.0140 36.7460
#
#
#
# Elastic Compliance Matrix: (Units=1/GPa)
#
#
# Indices 1 2 3 4 5 6 
#
# 1 0.016512 -0.003098 -0.003538 -0.004966 0.026916 0.001079
# 2 -0.003098 0.012229 -0.002745 -0.001622 0.000213 0.000422
# 3 -0.003538 -0.002745 0.011593 -0.004953 -0.005129 -0.001364
# 4 -0.004966 -0.001622 -0.004953 0.037100 -0.017073 0.002868
# 5 0.026916 0.000213 -0.005129 -0.017073 0.089703 0.004690
# 6 0.001079 0.000422 -0.001364 0.002868 0.004690 0.027926
#
#
# Mechanical properties :
#
#
# Convention : Reuss Voigt Hill
#
# Bulk Modulus (GPa) = 46.35618 70.10991 58.23304
# Shear Modulus (GPa) = 22.62270 34.93044 28.77657
#
# Velocity S-wave (km/s) = 3.19489 3.96995 3.60332
# Velocity P-wave (km/s) = 5.87584 7.25586 6.60201
#
# Compressibility (1/GPa) = 0.02157210
#
# Stress axis : x y z
#
# Youngs Moduli (GPa) = 60.56118 81.76953 86.25590
#
# Poissons Ratio (x) = 0.25336 0.30521
# Poissons Ratio (y) = 0.18764 0.23675
# Poissons Ratio (z) = 0.21429 0.22443
#
# Static dielectric constant tensor:
#      x y z
#    x 4.176110 -0.246180 0.304490 
#    y -0.246180 3.982410 -0.015980 
#    z 0.304490 -0.015980 4.556460 
# 
# 
# High freq. dielectric constant tensor:
#      x y z
#    x 1.871540 -0.003820 0.000740 
#    y -0.003820 1.869540 0.009030 
#    z 0.000740 0.009030 1.897260 
# 
# From -- ./inp_files/288637.got.cif
#   From: 2010.06.25/outbox.cif.g09.slc.cpg/sg2_145_cif.got.tgz:288637.got - 2010.06.27 13:26:56.
