data_PCOD8027740
_publ_section_title
;
Structure prediction by ZEFSAII (Michael W. Deem and Ramdas Pophale) SiO2 
 PCOD8027740
Probable space group: P -1
;
_chemical_formula_sum "Si O2"
_cell_formula_units_Z 14
_cell_length_a 8.030902
_cell_length_b 11.672761
_cell_length_c 16.663756
_cell_angle_alpha 35.165079
_cell_angle_beta 38.346501
_cell_angle_gamma 54.609282
_cell_volume 549.705725
_symmetry_space_group_name_H-M "P -1"
_symmetry_group_IT_number 2
_symmetry_cell_setting 'triclinic'
loop_
_space_group_symop_operation_xyz
x,y,z
-x,-y,-z
loop_
_atom_site_type_symbol
_atom_site_label
_atom_site_fract_x
_atom_site_fract_y
_atom_site_fract_z
Si Si1 0.749013 0.740620 0.817717
Si Si2 0.030133 0.924815 0.764830
Si Si3 0.408106 0.067850 0.758683
Si Si4 0.133262 0.392613 0.440475
Si Si5 0.313674 0.588155 0.854522
Si Si6 0.875064 0.411985 0.356777
Si Si7 0.148478 0.154511 0.956056
O O1 0.913675 0.861750 0.758398
O O2 0.939571 0.726266 0.678493
O O3 0.528409 0.872083 0.798908
O O4 0.615080 0.515710 0.029010
O O5 0.306955 0.827120 0.731754
O O6 0.807758 0.841569 0.966737
O O7 0.098884 0.161120 0.608367
O O8 0.569729 0.281667 0.542522
O O9 0.396499 0.089630 0.848622
O O10 0.107202 0.026696 0.859285
O O11 0.462137 0.458721 0.267919
O O12 0.000000 0.500000 0.500000
O O13 0.977169 0.440683 0.392391
O O14 0.000000 0.500000 0.000000
O O15 0.892688 0.625877 0.184834
#
# Coordination Sequence:
#
# PCOD8027740 Si02
#       7
#     2   2   2   2   2   2   2
#     4  11  24  48  75 109 144 198 253 304 377 450
#     4  11  25  49  73 110 149 195 251 312 371 454
#     4  11  26  46  75 106 154 199 250 308 382 448
#     4  12  29  47  77 112 152 196 255 314 382 451
#     4  10  24  46  73 107 148 195 247 307 373 449
#     4  12  26  50  75 107 152 199 250 313 376 455
#     4  11  27  46  74 111 150 199 250 311 381 447
#
# _framework density 25.468171999999999
#
# number of rings (size 3 to 8) (size 9 to 14) (size 15 to 20)
#    0.000    0.857    2.857    2.143    8.000    6.286 
#    0.000    0.000    0.000    0.000    0.000    0.000 
#    0.000    0.000    0.000    0.000    0.000    0.000 
#
# Total GULP energy -173529.832637 kJ/mol
# GULP energy per Si atom -12394.988046 kJ/mol
# Density = 2.541021 g / cm^3
# Si number density = 25.468172 Si / 1000 Ang^3
#
#
#
# Elastic Constant Matrix: (Units=GPa)
#
#
# Indices 1 2 3 4 5 6 
#
# 1 53.2337 7.9624 19.8373 -7.7438 22.5341 12.4759
# 2 7.9624 113.2151 34.7683 8.0277 4.1805 18.6147
# 3 19.8373 34.7683 128.9119 3.8489 5.2710 6.1360
# 4 -7.7438 8.0277 3.8489 57.0898 4.9254 16.4608
# 5 22.5341 4.1805 5.2710 4.9254 33.6368 8.3382
# 6 12.4759 18.6147 6.1360 16.4608 8.3382 33.0195
#
#
#
# Elastic Compliance Matrix: (Units=1/GPa)
#
#
# Indices 1 2 3 4 5 6 
#
# 1 0.032919 0.001014 -0.004241 0.009811 -0.019959 -0.012072
# 2 0.001014 0.010564 -0.002727 0.000606 -0.000142 -0.006098
# 3 -0.004241 -0.002727 0.009041 -0.001451 0.001531 0.001797
# 4 0.009811 0.000606 -0.001451 0.023399 -0.006421 -0.013823
# 5 -0.019959 -0.000142 0.001531 -0.006421 0.043958 -0.000563
# 6 -0.012072 -0.006098 0.001797 -0.013823 -0.000563 0.044983
#
#
# Mechanical properties :
#
#
# Convention : Reuss Voigt Hill
#
# Bulk Modulus (GPa) = 24.62213 46.72186 35.67200
# Shear Modulus (GPa) = 26.27267 40.26873 33.27070
#
# Velocity S-wave (km/s) = 3.21532 3.98067 3.61829
# Velocity P-wave (km/s) = 4.84491 6.28591 5.61185
#
# Compressibility (1/GPa) = 0.04061387
#
# Stress axis : x y z
#
# Youngs Moduli (GPa) = 30.37739 94.66261 110.61171
#
# Poissons Ratio (x) = -0.09594 0.46913
# Poissons Ratio (y) = -0.03079 0.30165
# Poissons Ratio (z) = 0.12884 0.25816
#
# Static dielectric constant tensor:
#      x y z
#    x 4.436470 -0.128840 0.266750 
#    y -0.128840 5.667260 0.017020 
#    z 0.266750 0.017020 4.910780 
# 
# 
# High freq. dielectric constant tensor:
#      x y z
#    x 1.998090 0.004640 0.016370 
#    y 0.004640 2.040500 0.000780 
#    z 0.016370 0.000780 2.026300 
# 
# From -- ./inp_files/559621.got.cif
#   From: 2010.06.25/outbox.cif.g09.slc.cpg/sg2_280_cif.got.tgz:559621.got - 2010.06.27 13:26:56.
