data_PCOD8027239
_publ_section_title
;
Structure prediction by ZEFSAII (Michael W. Deem and Ramdas Pophale) SiO2 
 PCOD8027239
Probable space group: P -1
;
_chemical_formula_sum "Si O2"
_cell_formula_units_Z 14
_cell_length_a 8.814646
_cell_length_b 8.420761
_cell_length_c 11.963607
_cell_angle_alpha 51.524895
_cell_angle_beta 122.744618
_cell_angle_gamma 110.203943
_cell_volume 584.677084
_symmetry_space_group_name_H-M "P -1"
_symmetry_group_IT_number 2
_symmetry_cell_setting 'triclinic'
loop_
_space_group_symop_operation_xyz
x,y,z
-x,-y,-z
loop_
_atom_site_type_symbol
_atom_site_label
_atom_site_fract_x
_atom_site_fract_y
_atom_site_fract_z
Si Si1 0.695711 0.598357 0.531936
Si Si2 0.065822 0.425544 0.720478
Si Si3 0.401185 0.976084 0.795614
Si Si4 0.298426 0.206482 0.329690
Si Si5 0.318583 0.787555 0.616762
Si Si6 0.050770 0.343323 0.994628
Si Si7 0.772341 0.004829 0.051110
O O1 0.500000 0.500000 0.500000
O O2 0.673867 0.808724 0.366952
O O3 0.762185 0.628048 0.674519
O O4 0.852162 0.464444 0.595080
O O5 0.182924 0.598175 0.628031
O O6 0.121619 0.204623 0.796496
O O7 0.114199 0.450019 0.859849
O O8 0.292736 0.910997 0.891952
O O9 0.372122 0.811460 0.758323
O O10 0.611918 0.979228 0.909509
O O11 0.511876 0.239931 0.385542
O O12 0.215961 0.223186 0.166941
O O13 0.229534 0.993026 0.447252
O O14 0.897480 0.179614 0.972076
O O15 0.000000 0.500000 0.000000
#
# Coordination Sequence:
#
# PCOD8027239 Si02
#       7
#     2   2   2   2   2   2   2
#     4  11  25  44  69 101 142 182 231 289 353 410
#     4  12  26  43  75 106 137 185 239 289 342 423
#     4  10  24  45  67  98 143 189 223 294 342 418
#     4  10  24  44  71 100 140 184 228 294 347 418
#     4  10  24  46  72 102 137 186 237 283 352 415
#     4  12  24  43  70 100 137 186 228 289 344 420
#     4  11  26  43  69 106 143 181 235 290 352 408
#
# _framework density 23.944841
#
# number of rings (size 3 to 8) (size 9 to 14) (size 15 to 20)
#    0.000    1.143    1.429    3.000    4.000    8.571 
#    0.000    0.000    0.000    0.000    0.000    0.000 
#    0.000    0.000    0.000    0.000    0.000    0.000 
#
# Total GULP energy -173589.552818 kJ/mol
# GULP energy per Si atom -12399.253773 kJ/mol
# Density = 2.389034 g / cm^3
# Si number density = 23.944841 Si / 1000 Ang^3
#
#
#
# Elastic Constant Matrix: (Units=GPa)
#
#
# Indices 1 2 3 4 5 6 
#
# 1 86.9163 37.8226 25.1159 -14.0677 10.1365 13.4871
# 2 37.8226 77.7569 7.4869 -21.0051 6.7378 5.9864
# 3 25.1159 7.4869 87.7878 0.3364 5.1289 10.4328
# 4 -14.0677 -21.0051 0.3364 33.2636 -1.2383 -6.0097
# 5 10.1365 6.7378 5.1289 -1.2383 45.4404 -0.6365
# 6 13.4871 5.9864 10.4328 -6.0097 -0.6365 43.6246
#
#
#
# Elastic Compliance Matrix: (Units=1/GPa)
#
#
# Indices 1 2 3 4 5 6 
#
# 1 0.016571 -0.006682 -0.003683 0.002189 -0.002273 -0.003057
# 2 -0.006682 0.018544 0.000276 0.008965 -0.001036 0.000675
# 3 -0.003683 0.000276 0.012736 -0.001941 -0.000741 -0.002223
# 4 0.002189 0.008965 -0.001941 0.037316 -0.000530 0.003690
# 5 -0.002273 -0.001036 -0.000741 -0.000530 0.022755 0.001281
# 6 -0.003057 0.000675 -0.002223 0.003690 0.001281 0.024834
#
#
# Mechanical properties :
#
#
# Convention : Reuss Voigt Hill
#
# Bulk Modulus (GPa) = 36.13680 43.70129 39.91905
# Shear Modulus (GPa) = 30.83378 36.60141 33.71760
#
# Velocity S-wave (km/s) = 3.59235 3.91394 3.75659
# Velocity P-wave (km/s) = 5.68604 6.22219 5.96015
#
# Compressibility (1/GPa) = 0.02767262
#
# Stress axis : x y z
#
# Youngs Moduli (GPa) = 60.34509 53.92593 78.51574
#
# Poissons Ratio (x) = 0.36035 0.28921
# Poissons Ratio (y) = 0.40325 -0.02169
# Poissons Ratio (z) = 0.22228 -0.01490
#
# Static dielectric constant tensor:
#      x y z
#    x 4.275630 -0.106790 -0.019380 
#    y -0.106790 4.135130 0.128420 
#    z -0.019380 0.128420 4.646970 
# 
# 
# High freq. dielectric constant tensor:
#      x y z
#    x 1.955140 -0.007510 -0.004620 
#    y -0.007510 1.941390 0.003840 
#    z -0.004620 0.003840 1.964850 
# 
# From -- ./inp_files/158895.got.cif
#   From: 2010.06.25/outbox.cif.g09.slc.cpg/sg2_80_cif.got.tgz:158895.got - 2010.06.27 13:26:56.
