data_PCOD8027265
_publ_section_title
;
Structure prediction by ZEFSAII (Michael W. Deem and Ramdas Pophale) SiO2 
 PCOD8027265
Probable space group: P -1
;
_chemical_formula_sum "Si O2"
_cell_formula_units_Z 16
_cell_length_a 12.015575
_cell_length_b 8.292228
_cell_length_c 18.426234
_cell_angle_alpha 130.361381
_cell_angle_beta 140.845347
_cell_angle_gamma 77.483087
_cell_volume 711.034129
_symmetry_space_group_name_H-M "P -1"
_symmetry_group_IT_number 2
_symmetry_cell_setting 'triclinic'
loop_
_space_group_symop_operation_xyz
x,y,z
-x,-y,-z
loop_
_atom_site_type_symbol
_atom_site_label
_atom_site_fract_x
_atom_site_fract_y
_atom_site_fract_z
Si Si1 0.344618 0.205235 0.364652
Si Si2 0.406380 0.602334 0.316890
Si Si3 0.244941 0.979184 0.663259
Si Si4 0.133522 0.003739 0.980099
Si Si5 0.002430 0.494882 0.149451
Si Si6 0.108492 0.347196 0.720090
Si Si7 0.582883 0.205506 0.772886
Si Si8 0.443314 0.930410 0.033987
O O1 0.500000 0.500000 0.500000
O O2 0.378868 0.226589 0.475095
O O3 0.088032 0.056367 0.180936
O O4 0.427206 0.049669 0.323863
O O5 0.480868 0.698767 0.300736
O O6 0.235308 0.659156 0.274935
O O7 0.290229 0.292575 0.177636
O O8 0.155868 0.135331 0.696087
O O9 0.424828 0.152723 0.743333
O O10 0.344779 0.907285 0.758034
O O11 0.041536 0.715762 0.445191
O O12 0.076473 0.799000 0.955283
O O13 0.266099 0.983594 0.977408
O O14 0.021459 0.655170 0.276706
O O15 0.825132 0.455203 0.991279
O O16 0.339307 0.626515 0.906689
O O17 0.500000 0.000000 0.000000
#
# Coordination Sequence:
#
# PCOD8027265 Si02
#       8
#     2   2   2   2   2   2   2   2
#     4  12  25  42  68  95 136 178 220 263 335 401
#     4  12  25  42  65 101 139 169 220 275 330 391
#     4  11  24  46  69  95 133 175 223 272 333 394
#     4  11  24  43  66  98 129 180 221 266 334 396
#     4  11  21  42  69  93 136 175 221 267 328 403
#     4  10  24  44  71  95 126 180 223 269 334 391
#     4  12  25  42  68  99 135 174 218 278 329 395
#     4  11  26  45  70  97 134 171 226 278 331 389
#
# _framework density 22.502434999999998
#
# number of rings (size 3 to 8) (size 9 to 14) (size 15 to 20)
#    0.000    0.750    5.000    3.000    3.500    0.500 
#    4.500    0.000    0.000    0.000    0.000    0.000 
#    0.000    0.000    0.000    0.000    0.000    0.000 
#
# Total GULP energy -198464.311487 kJ/mol
# GULP energy per Si atom -12404.019468 kJ/mol
# Density = 2.245122 g / cm^3
# Si number density = 22.502435 Si / 1000 Ang^3
#
#
#
# Elastic Constant Matrix: (Units=GPa)
#
#
# Indices 1 2 3 4 5 6 
#
# 1 94.4516 29.7078 11.5964 -7.2304 -12.1715 13.0398
# 2 29.7078 54.9174 12.3027 -14.7054 -12.6111 -1.3143
# 3 11.5964 12.3027 98.4899 -19.7856 -19.0573 -8.4132
# 4 -7.2304 -14.7054 -19.7856 37.3908 -1.6542 -14.3127
# 5 -12.1715 -12.6111 -19.0573 -1.6542 35.0076 -4.0294
# 6 13.0398 -1.3143 -8.4132 -14.3127 -4.0294 35.2330
#
#
#
# Elastic Compliance Matrix: (Units=1/GPa)
#
#
# Indices 1 2 3 4 5 6 
#
# 1 0.014425 -0.009123 -0.002587 -0.005518 -0.000935 -0.008645
# 2 -0.009123 0.030556 0.004939 0.019189 0.013157 0.014995
# 3 -0.002587 0.004939 0.016357 0.015494 0.011980 0.012712
# 4 -0.005518 0.019189 0.015494 0.054010 0.019506 0.030629
# 5 -0.000935 0.013157 0.011980 0.019506 0.042318 0.016461
# 6 -0.008645 0.014995 0.012712 0.030629 0.016461 0.049502
#
#
# Mechanical properties :
#
#
# Convention : Reuss Voigt Hill
#
# Bulk Modulus (GPa) = 20.92192 39.45254 30.18723
# Shear Modulus (GPa) = 21.12889 34.47640 27.80264
#
# Velocity S-wave (km/s) = 3.06757 3.91848 3.51884
# Velocity P-wave (km/s) = 4.67594 6.16792 5.47301
#
# Compressibility (1/GPa) = 0.04779675
#
# Stress axis : x y z
#
# Youngs Moduli (GPa) = 69.32341 32.72636 61.13485
#
# Poissons Ratio (x) = 0.29857 0.15815
# Poissons Ratio (y) = 0.63244 -0.30194
# Poissons Ratio (z) = 0.17933 -0.16163
#
# Static dielectric constant tensor:
#      x y z
#    x 4.037200 -0.162960 -0.153630 
#    y -0.162960 3.933870 -0.230820 
#    z -0.153630 -0.230820 4.387210 
# 
# 
# High freq. dielectric constant tensor:
#      x y z
#    x 1.889620 -0.008940 -0.014010 
#    y -0.008940 1.869790 -0.011270 
#    z -0.014010 -0.011270 1.904280 
# 
# From -- ./inp_files/270105.got.cif
#   From: 2010.06.25/outbox.cif.g09.slc.cpg/sg2_136_cif.got.tgz:270105.got - 2010.06.27 13:26:56.
