data_PCOD8027180
_publ_section_title
;
Structure prediction by ZEFSAII (Michael W. Deem and Ramdas Pophale) SiO2 
 PCOD8027180
Probable space group: P -1
;
_chemical_formula_sum "Si O2"
_cell_formula_units_Z 14
_cell_length_a 20.406301
_cell_length_b 10.164942
_cell_length_c 9.134380
_cell_angle_alpha 44.323380
_cell_angle_beta 34.737167
_cell_angle_gamma 39.832758
_cell_volume 672.842542
_symmetry_space_group_name_H-M "P -1"
_symmetry_group_IT_number 2
_symmetry_cell_setting 'triclinic'
loop_
_space_group_symop_operation_xyz
x,y,z
-x,-y,-z
loop_
_atom_site_type_symbol
_atom_site_label
_atom_site_fract_x
_atom_site_fract_y
_atom_site_fract_z
Si Si1 0.635643 0.902210 0.751963
Si Si2 0.375804 0.678088 0.662862
Si Si3 0.381908 0.321167 0.332295
Si Si4 0.825091 0.781792 0.091571
Si Si5 0.832693 0.484988 0.824089
Si Si6 0.359543 0.753342 0.957879
Si Si7 0.993531 0.504608 0.257114
O O1 0.633528 0.765978 0.725790
O O2 0.744529 0.739076 0.790150
O O3 0.670840 0.089435 0.501380
O O4 0.500000 0.000000 0.000000
O O5 0.500000 0.500000 0.500000
O O6 0.419739 0.673286 0.752094
O O7 0.252742 0.636488 0.909565
O O8 0.295458 0.274063 0.646951
O O9 0.533164 0.206000 0.184752
O O10 0.330275 0.573963 0.228112
O O11 0.901073 0.701138 0.169448
O O12 0.773126 0.032931 0.976923
O O13 0.914866 0.685742 0.863231
O O14 0.926703 0.416547 0.845715
O O15 0.910892 0.424041 0.575138
#
# Coordination Sequence:
#
# PCOD8027180 Si02
#       7
#     2   2   2   2   2   2   2
#     4  12  23  40  67  95 132 168 209 270 338 381
#     4  12  23  39  66  98 128 166 210 270 329 392
#     4  11  23  40  65  97 133 162 213 277 325 390
#     4  11  22  44  67  93 127 174 223 261 324 380
#     4  11  23  46  64  95 137 164 222 266 320 393
#     4  11  23  39  65  99 129 165 212 274 332 379
#     4  10  24  44  69  90 133 182 212 270 313 386
#
# _framework density 20.807245000000002
#
# number of rings (size 3 to 8) (size 9 to 14) (size 15 to 20)
#    0.000    0.857    5.714    0.429    4.000    0.000 
#    0.000   15.714    0.000    0.000    0.000    0.000 
#    0.000    0.000    0.000    0.000    0.000    0.000 
#
# Total GULP energy -173630.619801 kJ/mol
# GULP energy per Si atom -12402.187129 kJ/mol
# Density = 2.075989 g / cm^3
# Si number density = 20.807245 Si / 1000 Ang^3
#
#
#
# Elastic Constant Matrix: (Units=GPa)
#
#
# Indices 1 2 3 4 5 6 
#
# 1 105.3722 54.0879 47.1778 -1.6087 -5.1499 -2.7574
# 2 54.0879 122.9674 48.4780 -1.9944 -8.7280 -8.8432
# 3 47.1778 48.4780 124.5633 0.2689 -16.2537 4.6431
# 4 -1.6087 -1.9944 0.2689 44.7395 5.8421 2.3922
# 5 -5.1499 -8.7280 -16.2537 5.8421 31.8658 -0.9762
# 6 -2.7574 -8.8432 4.6431 2.3922 -0.9762 22.5565
#
#
#
# Elastic Compliance Matrix: (Units=1/GPa)
#
#
# Indices 1 2 3 4 5 6 
#
# 1 0.013323 -0.004536 -0.003415 0.000388 -0.000888 0.000473
# 2 -0.004536 0.011666 -0.002844 -0.000026 0.001159 0.004657
# 3 -0.003415 -0.002844 0.011132 -0.000696 0.004366 -0.003561
# 4 0.000388 -0.000026 -0.000696 0.023103 -0.004611 -0.002469
# 5 -0.000888 0.001159 0.004366 -0.004611 0.034672 0.001437
# 6 0.000473 0.004657 -0.003561 -0.002469 0.001437 0.047274
#
#
# Mechanical properties :
#
#
# Convention : Reuss Voigt Hill
#
# Bulk Modulus (GPa) = 68.82495 72.48781 70.65638
# Shear Modulus (GPa) = 29.83246 33.37632 31.60439
#
# Velocity S-wave (km/s) = 3.79060 4.00943 3.90155
# Velocity P-wave (km/s) = 7.23239 7.50649 7.37071
#
# Compressibility (1/GPa) = 0.01452961
#
# Stress axis : x y z
#
# Youngs Moduli (GPa) = 75.06089 85.72136 89.82962
#
# Poissons Ratio (x) = 0.38887 0.30674
# Poissons Ratio (y) = 0.34051 0.25550
# Poissons Ratio (z) = 0.25631 0.24381
#
# Static dielectric constant tensor:
#      x y z
#    x 3.914270 -0.109830 0.019540 
#    y -0.109830 3.785660 0.033260 
#    z 0.019540 0.033260 4.023470 
# 
# 
# High freq. dielectric constant tensor:
#      x y z
#    x 1.817140 -0.008890 0.000500 
#    y -0.008890 1.815450 0.002840 
#    z 0.000500 0.002840 1.821700 
# 
# From -- ./inp_files/293914.got.cif
#   From: 2010.06.25/outbox.cif.g09.slc.cpg/sg2_147_cif.got.tgz:293914.got - 2010.06.27 13:26:56.
