data_PCOD8027695
_publ_section_title
;
Structure prediction by ZEFSAII (Michael W. Deem and Ramdas Pophale) SiO2 
 PCOD8027695
Probable space group: P -1
;
_chemical_formula_sum "Si O2"
_cell_formula_units_Z 14
_cell_length_a 12.807666
_cell_length_b 9.467001
_cell_length_c 11.307566
_cell_angle_alpha 55.882841
_cell_angle_beta 44.857578
_cell_angle_gamma 36.661329
_cell_volume 577.319413
_symmetry_space_group_name_H-M "P -1"
_symmetry_group_IT_number 2
_symmetry_cell_setting 'triclinic'
loop_
_space_group_symop_operation_xyz
x,y,z
-x,-y,-z
loop_
_atom_site_type_symbol
_atom_site_label
_atom_site_fract_x
_atom_site_fract_y
_atom_site_fract_z
Si Si1 0.143200 0.695128 0.342486
Si Si2 0.309735 0.041319 0.178352
Si Si3 0.875448 0.363742 0.346023
Si Si4 0.543851 0.889731 0.388769
Si Si5 0.693777 0.691316 0.766419
Si Si6 0.538648 0.555103 0.146194
Si Si7 0.246933 0.809813 0.652707
O O1 0.094550 0.739766 0.499192
O O2 0.145769 0.505377 0.368160
O O3 0.380054 0.565529 0.195308
O O4 0.988401 0.938863 0.279777
O O5 0.217116 0.205733 0.293751
O O6 0.106731 0.195789 0.184007
O O7 0.401533 0.778758 0.243164
O O8 0.500000 0.000000 0.000000
O O9 0.773048 0.632648 0.312551
O O10 0.731666 0.353795 0.388342
O O11 0.392147 0.855450 0.493205
O O12 0.500000 0.000000 0.500000
O O13 0.516977 0.070682 0.236145
O O14 0.658645 0.576360 0.947360
O O15 0.700179 0.314415 0.203898
#
# Coordination Sequence:
#
# PCOD8027695 Si02
#       7
#     2   2   2   2   2   2   2
#     4  12  25  43  75 106 143 194 245 296 371 422
#     4  10  24  46  71 103 146 189 238 302 364 423
#     4  12  24  45  75 109 143 190 250 298 360 435
#     4  12  25  44  72 112 145 186 242 302 364 424
#     4  11  25  46  68 101 155 185 236 311 359 425
#     4  11  24  50  68 104 145 194 242 299 359 440
#     4  12  26  43  77 105 145 193 246 295 354 441
#
# _framework density 24.250007
#
# number of rings (size 3 to 8) (size 9 to 14) (size 15 to 20)
#    0.000    0.571    4.286    3.000    4.000    1.714 
#    5.143    4.286    0.000    0.000    0.000    0.000 
#    0.000    0.000    0.000    0.000    0.000    0.000 
#
# Total GULP energy -173463.471095 kJ/mol
# GULP energy per Si atom -12390.247935 kJ/mol
# Density = 2.419481 g / cm^3
# Si number density = 24.250007 Si / 1000 Ang^3
#
#
#
# Elastic Constant Matrix: (Units=GPa)
#
#
# Indices 1 2 3 4 5 6 
#
# 1 111.7044 52.8278 23.5261 6.4665 1.0058 -1.6538
# 2 52.8278 178.4681 25.4915 -17.0104 15.8794 -20.3770
# 3 23.5261 25.4915 65.8556 -17.4789 1.5982 -19.8146
# 4 6.4665 -17.0104 -17.4789 36.9012 -7.4498 14.3017
# 5 1.0058 15.8794 1.5982 -7.4498 30.0284 0.3676
# 6 -1.6538 -20.3770 -19.8146 14.3017 0.3676 62.5199
#
#
#
# Elastic Compliance Matrix: (Units=1/GPa)
#
#
# Indices 1 2 3 4 5 6 
#
# 1 0.011897 -0.003530 -0.004655 -0.005424 0.000384 -0.001073
# 2 -0.003530 0.007414 -0.000350 0.002599 -0.003159 0.001636
# 3 -0.004655 -0.000350 0.020627 0.009083 0.001445 0.004214
# 4 -0.005424 0.002599 0.009083 0.036984 0.007560 -0.004922
# 5 0.000384 -0.003159 0.001445 0.007560 0.036789 -0.002507
# 6 -0.001073 0.001636 0.004214 -0.004922 -0.002507 0.018976
#
#
# Mechanical properties :
#
#
# Convention : Reuss Voigt Hill
#
# Bulk Modulus (GPa) = 43.73178 62.19099 52.96138
# Shear Modulus (GPa) = 31.77037 42.83541 37.30289
#
# Velocity S-wave (km/s) = 3.62348 4.20743 3.92632
# Velocity P-wave (km/s) = 5.96482 7.02173 6.51474
#
# Compressibility (1/GPa) = 0.02286667
#
# Stress axis : x y z
#
# Youngs Moduli (GPa) = 84.05621 134.88440 48.48065
#
# Poissons Ratio (x) = 0.47617 0.22569
# Poissons Ratio (y) = 0.29674 0.01697
# Poissons Ratio (z) = 0.39130 0.04721
#
# Static dielectric constant tensor:
#      x y z
#    x 5.034220 0.259710 -0.086300 
#    y 0.259710 4.936570 -0.087970 
#    z -0.086300 -0.087970 3.861060 
# 
# 
# High freq. dielectric constant tensor:
#      x y z
#    x 1.983400 0.010020 -0.005820 
#    y 0.010020 1.985270 -0.005020 
#    z -0.005820 -0.005020 1.924440 
# 
# From -- ./inp_files/419077.got.cif
#   From: 2010.06.25/outbox.cif.g09.slc.cpg/sg2_210_cif.got.tgz:419077.got - 2010.06.27 13:26:56.
