data_PCOD8027859
_publ_section_title
;
Structure prediction by ZEFSAII (Michael W. Deem and Ramdas Pophale) SiO2 
 PCOD8027859
Probable space group: P -1
;
_chemical_formula_sum "Si O2"
_cell_formula_units_Z 10
_cell_length_a 4.749843
_cell_length_b 8.794265
_cell_length_c 9.208851
_cell_angle_alpha 78.791618
_cell_angle_beta 110.595551
_cell_angle_gamma 104.418690
_cell_volume 346.311727
_symmetry_space_group_name_H-M "P -1"
_symmetry_group_IT_number 2
_symmetry_cell_setting 'triclinic'
loop_
_space_group_symop_operation_xyz
x,y,z
-x,-y,-z
loop_
_atom_site_type_symbol
_atom_site_label
_atom_site_fract_x
_atom_site_fract_y
_atom_site_fract_z
Si Si1 0.676150 0.044846 0.375555
Si Si2 0.744824 0.831662 0.924163
Si Si3 0.119949 0.673285 0.806498
Si Si4 0.070616 0.187645 0.726326
Si Si5 0.375899 0.601146 0.336684
O O1 0.393458 0.029210 0.209177
O O2 0.864759 0.227804 0.363054
O O3 0.500000 0.000000 0.500000
O O4 0.911435 0.929761 0.387036
O O5 0.471783 0.673498 0.916112
O O6 0.010086 0.780120 0.889950
O O7 0.878651 0.895012 0.094600
O O8 0.908272 0.501486 0.784735
O O9 0.345899 0.339787 0.733132
O O10 0.747093 0.248114 0.647675
O O11 0.500000 0.500000 0.500000
#
# Coordination Sequence:
#
# PCOD8027859 Si02
#       5
#     2   2   2   2   2
#     4  10  27  49  77 115 154 197 252 310 377 453
#     4  10  24  47  80 112 153 188 260 305 378 450
#     4  10  25  48  76 107 158 192 253 307 376 443
#     4  12  27  47  83 110 152 203 247 314 380 442
#     4  12  29  50  73 113 156 197 255 310 379 450
#
# _framework density 28.875720999999999
#
# number of rings (size 3 to 8) (size 9 to 14) (size 15 to 20)
#    1.200    0.000    0.000    3.600    5.600    8.000 
#    0.000    1.000    0.000    0.000    0.000    0.000 
#    0.000    0.000    0.000    0.000    0.000    0.000 
#
# Total GULP energy -123984.722671 kJ/mol
# GULP energy per Si atom -12398.472267 kJ/mol
# Density = 2.881000 g / cm^3
# Si number density = 28.875721 Si / 1000 Ang^3
#
#
#
# Elastic Constant Matrix: (Units=GPa)
#
#
# Indices 1 2 3 4 5 6 
#
# 1 150.1439 -3.1965 55.6269 -11.2139 -10.4444 -16.1491
# 2 -3.1965 76.1344 33.8386 3.5753 -9.3100 -14.0120
# 3 55.6269 33.8386 136.8403 -14.9953 -13.3540 -19.1009
# 4 -11.2139 3.5753 -14.9953 49.3727 4.2867 5.5917
# 5 -10.4444 -9.3100 -13.3540 4.2867 53.2672 2.7434
# 6 -16.1491 -14.0120 -19.1009 5.5917 2.7434 44.4287
#
#
#
# Elastic Compliance Matrix: (Units=1/GPa)
#
#
# Indices 1 2 3 4 5 6 
#
# 1 0.008363 0.002450 -0.003567 0.000302 0.001037 0.002177
# 2 0.002450 0.016449 -0.004539 -0.002695 0.002211 0.004329
# 3 -0.003567 -0.004539 0.010427 0.002453 0.000852 0.001393
# 4 0.000302 -0.002695 0.002453 0.021649 -0.001419 -0.002323
# 5 0.001037 0.002211 0.000852 -0.001419 0.019670 0.000405
# 6 0.002177 0.004329 0.001393 -0.002323 0.000405 0.025531
#
#
# Mechanical properties :
#
#
# Convention : Reuss Voigt Hill
#
# Bulk Modulus (GPa) = 41.79525 59.51741 50.65633
# Shear Modulus (GPa) = 41.19431 47.87036 44.53234
#
# Velocity S-wave (km/s) = 3.78114 4.07603 3.93135
# Velocity P-wave (km/s) = 5.79382 6.54281 6.17967
#
# Compressibility (1/GPa) = 0.02392616
#
# Stress axis : x y z
#
# Youngs Moduli (GPa) = 119.57574 60.79561 95.90738
#
# Poissons Ratio (x) = -0.14894 0.34213
# Poissons Ratio (y) = -0.29295 0.43529
# Poissons Ratio (z) = 0.42656 0.27593
#
# Static dielectric constant tensor:
#      x y z
#    x 5.821960 0.565960 0.207370 
#    y 0.565960 5.296720 0.023550 
#    z 0.207370 0.023550 5.366010 
# 
# 
# High freq. dielectric constant tensor:
#      x y z
#    x 2.207430 0.033840 0.006500 
#    y 0.033840 2.175520 0.002130 
#    z 0.006500 0.002130 2.181250 
# 
# From -- ./inp_files/359806.got.cif
#   From: 2010.06.25/outbox.cif.g09.slc.cpg/sg2_180_cif.got.tgz:359806.got - 2010.06.27 13:26:56.
