data_PCOD8027355
_publ_section_title
;
Structure prediction by ZEFSAII (Michael W. Deem and Ramdas Pophale) SiO2 
 PCOD8027355
Probable space group: P -1
;
_chemical_formula_sum "Si O2"
_cell_formula_units_Z 16
_cell_length_a 7.842876
_cell_length_b 22.189220
_cell_length_c 14.409422
_cell_angle_alpha 20.506461
_cell_angle_beta 63.026381
_cell_angle_gamma 71.784506
_cell_volume 730.545130
_symmetry_space_group_name_H-M "P -1"
_symmetry_group_IT_number 2
_symmetry_cell_setting 'triclinic'
loop_
_space_group_symop_operation_xyz
x,y,z
-x,-y,-z
loop_
_atom_site_type_symbol
_atom_site_label
_atom_site_fract_x
_atom_site_fract_y
_atom_site_fract_z
Si Si1 0.974418 0.059503 0.642966
Si Si2 0.030537 0.846631 0.776343
Si Si3 0.832401 0.650682 0.672740
Si Si4 0.624730 0.874006 0.323587
Si Si5 0.334995 0.525501 0.571983
Si Si6 0.670216 0.777960 0.254465
Si Si7 0.759522 0.240041 0.306767
Si Si8 0.053645 0.740850 0.304971
O O1 0.935950 0.196905 0.379526
O O2 0.130693 0.196784 0.476579
O O3 0.073867 0.925744 0.757227
O O4 0.767526 0.931159 0.930591
O O5 0.218114 0.795499 0.758288
O O6 0.822712 0.671031 0.074897
O O7 0.000000 0.000000 0.500000
O O8 0.642800 0.676071 0.628448
O O9 0.018080 0.695800 0.488497
O O10 0.778786 0.449114 0.018632
O O11 0.591135 0.870907 0.225516
O O12 0.448172 0.897863 0.396512
O O13 0.835009 0.041469 0.053405
O O14 0.500000 0.500000 0.500000
O O15 0.462039 0.628439 0.481937
O O16 0.205479 0.633671 0.394098
O O17 0.841049 0.689258 0.373197
#
# Coordination Sequence:
#
# PCOD8027355 Si02
#       8
#     2   2   2   2   2   2   2   2
#     4  11  21  41  68  92 133 177 223 276 337 391
#     4  10  24  45  63  93 140 176 220 280 335 403
#     4  11  21  42  66  99 135 173 223 285 337 391
#     4  11  23  40  68  99 136 173 219 286 339 399
#     4  12  25  42  71  98 129 180 232 273 330 406
#     4  11  23  42  69 106 130 169 231 283 334 394
#     4  11  24  39  66  96 135 183 223 276 336 401
#     4  11  23  43  71 100 140 170 220 296 334 385
#
# _framework density 21.901454000000001
#
# number of rings (size 3 to 8) (size 9 to 14) (size 15 to 20)
#    0.000    1.000    5.000    2.250    3.500    3.500 
#    0.000    0.625    0.000    0.000    0.000    0.000 
#    0.000    0.000    0.000    0.000    0.000    0.000 
#
# Total GULP energy -198245.613614 kJ/mol
# GULP energy per Si atom -12390.350851 kJ/mol
# Density = 2.185161 g / cm^3
# Si number density = 21.901454 Si / 1000 Ang^3
#
#
#
# Elastic Constant Matrix: (Units=GPa)
#
#
# Indices 1 2 3 4 5 6 
#
# 1 69.5700 10.9378 28.1557 -0.5544 9.7035 -8.4039
# 2 10.9378 138.9604 37.7562 9.1391 -4.4590 -16.8874
# 3 28.1557 37.7562 109.0949 -1.9127 7.6754 3.7630
# 4 -0.5544 9.1391 -1.9127 33.4799 -0.3537 -4.5156
# 5 9.7035 -4.4590 7.6754 -0.3537 27.8436 1.9466
# 6 -8.4039 -16.8874 3.7630 -4.5156 1.9466 33.1035
#
#
#
# Elastic Compliance Matrix: (Units=1/GPa)
#
#
# Indices 1 2 3 4 5 6 
#
# 1 0.017518 0.000282 -0.004430 0.000645 -0.005214 0.005489
# 2 0.000282 0.008869 -0.003472 -0.001973 0.001932 0.004608
# 3 -0.004430 -0.003472 0.011805 0.000990 -0.001975 -0.003986
# 4 0.000645 -0.001973 0.000990 0.030913 -0.000652 0.003300
# 5 -0.005214 0.001932 -0.001975 -0.000652 0.038751 -0.002481
# 6 0.005489 0.004608 -0.003986 0.003300 -0.002481 0.035002
#
#
# Mechanical properties :
#
#
# Convention : Reuss Voigt Hill
#
# Bulk Modulus (GPa) = 43.56734 52.36942 47.96838
# Shear Modulus (GPa) = 30.16632 34.93710 32.55171
#
# Velocity S-wave (km/s) = 3.71531 3.99832 3.85941
# Velocity P-wave (km/s) = 6.19196 6.72895 6.46603
#
# Compressibility (1/GPa) = 0.02295298
#
# Stress axis : x y z
#
# Youngs Moduli (GPa) = 57.08405 112.75090 84.71010
#
# Poissons Ratio (x) = -0.03181 0.37526
# Poissons Ratio (y) = -0.01610 0.29409
# Poissons Ratio (z) = 0.25288 0.39144
#
# Static dielectric constant tensor:
#      x y z
#    x 3.720540 -0.155290 0.053100 
#    y -0.155290 4.812920 0.020130 
#    z 0.053100 0.020130 4.026800 
# 
# 
# High freq. dielectric constant tensor:
#      x y z
#    x 1.835580 -0.008400 0.014250 
#    y -0.008400 1.874300 0.009080 
#    z 0.014250 0.009080 1.864340 
# 
# From -- ./inp_files/298736.got.cif
#   From: 2010.06.25/outbox.cif.g09.slc.cpg/sg2_150_cif.got.tgz:298736.got - 2010.06.27 13:26:56.
