data_PCOD8027573
_publ_section_title
;
Structure prediction by ZEFSAII (Michael W. Deem and Ramdas Pophale) SiO2 
 PCOD8027573
Probable space group: P -1
;
_chemical_formula_sum "Si O2"
_cell_formula_units_Z 12
_cell_length_a 20.763325
_cell_length_b 5.242720
_cell_length_c 8.335069
_cell_angle_alpha 81.800773
_cell_angle_beta 32.801676
_cell_angle_gamma 80.231712
_cell_volume 484.401395
_symmetry_space_group_name_H-M "P -1"
_symmetry_group_IT_number 2
_symmetry_cell_setting 'triclinic'
loop_
_space_group_symop_operation_xyz
x,y,z
-x,-y,-z
loop_
_atom_site_type_symbol
_atom_site_label
_atom_site_fract_x
_atom_site_fract_y
_atom_site_fract_z
Si Si1 0.909854 0.201722 0.764642
Si Si2 0.264816 0.438495 0.081464
Si Si3 0.669497 0.053576 0.219867
Si Si4 0.057546 0.724349 0.954817
Si Si5 0.305210 0.544159 0.331361
Si Si6 0.474784 0.165187 0.193876
O O1 0.867195 0.455024 0.721154
O O2 0.963448 0.302126 0.808321
O O3 0.000000 0.000000 0.500000
O O4 0.793337 0.047672 0.061985
O O5 0.315858 0.167431 0.925678
O O6 0.354214 0.661522 0.835994
O O7 0.256238 0.390032 0.295503
O O8 0.557849 0.008827 0.571714
O O9 0.197508 0.720501 0.621344
O O10 0.000000 0.500000 0.000000
O O11 0.000000 0.000000 0.000000
O O12 0.361430 0.369129 0.374863
O O13 0.405673 0.705413 0.028221
O O14 0.500000 0.000000 0.000000
#
# Coordination Sequence:
#
# PCOD8027573 Si02
#       6
#     2   2   2   2   2   2
#     4  10  24  45  73 103 148 192 244 297 367 432
#     4  10  25  44  72 101 147 185 243 298 362 433
#     4  10  25  45  70 101 141 187 237 299 363 424
#     4  12  29  45  76 109 150 193 244 305 365 442
#     4  11  27  47  72 111 144 193 251 296 373 431
#     4  11  26  46  77  99 150 193 242 308 359 442
#
# _framework density 24.772846000000001
#
# number of rings (size 3 to 8) (size 9 to 14) (size 15 to 20)
#    1.000    0.333    0.000    3.000   16.333    2.000 
#    0.000    0.000    0.000    0.000    0.000    0.000 
#    0.000    0.000    0.000    0.000    0.000    0.000 
#
# Total GULP energy -148756.833948 kJ/mol
# GULP energy per Si atom -12396.402829 kJ/mol
# Density = 2.471646 g / cm^3
# Si number density = 24.772846 Si / 1000 Ang^3
#
#
#
# Elastic Constant Matrix: (Units=GPa)
#
#
# Indices 1 2 3 4 5 6 
#
# 1 130.1755 24.7140 28.9460 12.0302 10.7293 18.3577
# 2 24.7140 118.3473 22.3569 8.5691 -5.9169 19.9195
# 3 28.9460 22.3569 98.7836 21.4797 3.9041 -1.7219
# 4 12.0302 8.5691 21.4797 38.2909 -0.6052 11.1809
# 5 10.7293 -5.9169 3.9041 -0.6052 40.1265 17.4540
# 6 18.3577 19.9195 -1.7219 11.1809 17.4540 35.1716
#
#
#
# Elastic Compliance Matrix: (Units=1/GPa)
#
#
# Indices 1 2 3 4 5 6 
#
# 1 0.009011 -0.000721 -0.002523 -0.000040 -0.000452 -0.004181
# 2 -0.000721 0.011084 -0.003324 0.002698 0.006634 -0.010213
# 3 -0.002523 -0.003324 0.013990 -0.009173 -0.005449 0.009505
# 4 -0.000040 0.002698 -0.009173 0.036178 0.009820 -0.018330
# 5 -0.000452 0.006634 -0.005449 0.009820 0.037881 -0.025708
# 6 -0.004181 -0.010213 0.009505 -0.018330 -0.025708 0.055449
#
#
# Mechanical properties :
#
#
# Convention : Reuss Voigt Hill
#
# Bulk Modulus (GPa) = 47.73743 55.48223 51.60983
# Shear Modulus (GPa) = 27.21664 40.80376 34.01020
#
# Velocity S-wave (km/s) = 3.31818 4.06287 3.70926
# Velocity P-wave (km/s) = 5.83029 6.66740 6.26285
#
# Compressibility (1/GPa) = 0.02094792
#
# Stress axis : x y z
#
# Youngs Moduli (GPa) = 110.98132 90.22386 71.47713
#
# Poissons Ratio (x) = 0.06504 0.18037
# Poissons Ratio (y) = 0.08000 0.23759
# Poissons Ratio (z) = 0.28005 0.29991
#
# Static dielectric constant tensor:
#      x y z
#    x 6.242260 0.835840 -1.437420 
#    y 0.835840 4.428930 -0.439610 
#    z -1.437420 -0.439610 5.178260 
# 
# 
# High freq. dielectric constant tensor:
#      x y z
#    x 1.999380 0.007610 -0.003130 
#    y 0.007610 1.980670 0.007060 
#    z -0.003130 0.007060 1.986190 
# 
# From -- ./inp_files/89736.got.cif
#   From: 2010.06.25/outbox.cif.g09.slc.cpg/sg2_45_cif.got.tgz:89736.got - 2010.06.27 13:26:56.
