data_PCOD8027120
_publ_section_title
;
Structure prediction by ZEFSAII (Michael W. Deem and Ramdas Pophale) SiO2 
 PCOD8027120
Probable space group: P -1
;
_chemical_formula_sum "Si O2"
_cell_formula_units_Z 16
_cell_length_a 19.186299
_cell_length_b 11.134135
_cell_length_c 11.214008
_cell_angle_alpha 39.110310
_cell_angle_beta 148.596786
_cell_angle_gamma 146.997320
_cell_volume 664.447959
_symmetry_space_group_name_H-M "P -1"
_symmetry_group_IT_number 2
_symmetry_cell_setting 'triclinic'
loop_
_space_group_symop_operation_xyz
x,y,z
-x,-y,-z
loop_
_atom_site_type_symbol
_atom_site_label
_atom_site_fract_x
_atom_site_fract_y
_atom_site_fract_z
Si Si1 0.832878 0.889021 0.278657
Si Si2 0.214018 0.229740 0.961767
Si Si3 0.810444 0.215076 0.665569
Si Si4 0.376526 0.603372 0.299069
Si Si5 0.818054 0.306615 0.869273
Si Si6 0.543660 0.608637 0.228308
Si Si7 0.607585 0.106564 0.230619
Si Si8 0.144100 0.488779 0.844285
O O1 0.836919 0.782522 0.240483
O O2 0.705690 0.691927 0.330870
O O3 0.000000 0.000000 0.500000
O O4 0.785513 0.070837 0.050614
O O5 0.128857 0.330762 0.834148
O O6 0.403959 0.389483 0.125879
O O7 0.157038 0.984176 0.117776
O O8 0.771292 0.286720 0.677584
O O9 0.661823 0.143586 0.419019
O O10 0.972639 0.424901 0.686447
O O11 0.295870 0.642616 0.264313
O O12 0.446087 0.458828 0.566414
O O13 0.515890 0.843994 0.265001
O O14 0.244511 0.460696 0.116576
O O15 0.000000 0.500000 0.000000
O O16 0.508081 0.804783 0.029568
O O17 0.762907 0.249091 0.263630
#
# Coordination Sequence:
#
# PCOD8027120 Si02
#       8
#     2   2   2   2   2   2   2   2
#     4  11  24  43  71 108 137 179 235 287 345 410
#     4  10  24  44  68 102 140 184 230 279 353 413
#     4  11  23  46  70 100 139 181 235 287 347 404
#     4  12  24  47  71 102 143 178 234 288 339 411
#     4  11  23  42  72 101 137 178 226 290 347 400
#     4  11  24  45  72 102 141 184 224 291 343 411
#     4  11  25  46  69 105 135 186 233 280 349 413
#     4  11  25  45  71  99 141 188 229 284 342 412
#
# _framework density 24.080141000000001
#
# number of rings (size 3 to 8) (size 9 to 14) (size 15 to 20)
#    0.000    1.000    3.750    2.250    1.750    7.500 
#    4.500    0.000    0.000    0.000    0.000    0.000 
#    0.000    0.000    0.000    0.000    0.000    0.000 
#
# Total GULP energy -198501.885749 kJ/mol
# GULP energy per Si atom -12406.367859 kJ/mol
# Density = 2.402533 g / cm^3
# Si number density = 24.080141 Si / 1000 Ang^3
#
#
#
# Elastic Constant Matrix: (Units=GPa)
#
#
# Indices 1 2 3 4 5 6 
#
# 1 62.1081 36.9095 19.3168 -4.1675 -23.7528 13.3668
# 2 36.9095 96.4684 19.9334 1.3394 -6.5430 11.5624
# 3 19.3168 19.9334 117.5274 6.0885 -30.5602 -8.9627
# 4 -4.1675 1.3394 6.0885 44.1888 -3.5201 -5.0314
# 5 -23.7528 -6.5430 -30.5602 -3.5201 39.4459 10.3227
# 6 13.3668 11.5624 -8.9627 -5.0314 10.3227 38.6127
#
#
#
# Elastic Compliance Matrix: (Units=1/GPa)
#
#
# Indices 1 2 3 4 5 6 
#
# 1 0.034214 -0.009985 0.000968 0.003640 0.023822 -0.014524
# 2 -0.009985 0.014286 -0.002111 -0.001521 -0.005397 -0.000067
# 3 0.000968 -0.002111 0.011007 -0.000623 0.008580 0.000477
# 4 0.003640 -0.001521 -0.000623 0.023505 0.003227 0.001251
# 5 0.023822 -0.005397 0.008580 0.003227 0.050363 -0.017683
# 6 -0.014524 -0.000067 0.000477 0.001251 -0.017683 0.035947
#
#
# Mechanical properties :
#
#
# Convention : Reuss Voigt Hill
#
# Bulk Modulus (GPa) = 26.84470 47.60261 37.22366
# Shear Modulus (GPa) = 24.51030 37.77909 31.14469
#
# Velocity S-wave (km/s) = 3.19386 3.96522 3.60026
# Velocity P-wave (km/s) = 4.97727 6.38555 5.72488
#
# Compressibility (1/GPa) = 0.03725130
#
# Stress axis : x y z
#
# Youngs Moduli (GPa) = 29.22766 70.00004 90.84817
#
# Poissons Ratio (x) = 0.69893 -0.08796
# Poissons Ratio (y) = 0.29183 0.19183
# Poissons Ratio (z) = -0.02830 0.14780
#
# Static dielectric constant tensor:
#      x y z
#    x 4.240800 -0.327400 0.033350 
#    y -0.327400 2.516220 1.342290 
#    z 0.033350 1.342290 3.337410 
# 
# 
# High freq. dielectric constant tensor:
#      x y z
#    x 1.960600 0.008700 -0.018780 
#    y 0.008700 1.963360 -0.000050 
#    z -0.018780 -0.000050 1.960790 
# 
# From -- ./inp_files/206978.got.cif
#   From: 2010.06.25/outbox.cif.g09.slc.cpg/sg2_104_cif.got.tgz:206978.got - 2010.06.27 13:26:56.
