data_PCOD8027631
_publ_section_title
;
Structure prediction by ZEFSAII (Michael W. Deem and Ramdas Pophale) SiO2 
 PCOD8027631
Probable space group: P -1
;
_chemical_formula_sum "Si O2"
_cell_formula_units_Z 14
_cell_length_a 16.823891
_cell_length_b 6.696844
_cell_length_c 9.150366
_cell_angle_alpha 47.204409
_cell_angle_beta 124.211144
_cell_angle_gamma 105.122108
_cell_volume 613.009210
_symmetry_space_group_name_H-M "P -1"
_symmetry_group_IT_number 2
_symmetry_cell_setting 'triclinic'
loop_
_space_group_symop_operation_xyz
x,y,z
-x,-y,-z
loop_
_atom_site_type_symbol
_atom_site_label
_atom_site_fract_x
_atom_site_fract_y
_atom_site_fract_z
Si Si1 0.573093 0.207825 0.724993
Si Si2 0.002908 0.005868 0.747804
Si Si3 0.294249 0.673657 0.421836
Si Si4 0.119183 0.155197 0.053338
Si Si5 0.554370 0.204065 0.257273
Si Si6 0.141144 0.737703 0.777115
Si Si7 0.322863 0.026253 0.773563
O O1 0.500000 0.500000 0.500000
O O2 0.679446 0.246040 0.755644
O O3 0.525488 0.984119 0.697237
O O4 0.590753 0.094866 0.963931
O O5 0.933834 0.199732 0.466167
O O6 0.090123 0.817948 0.840400
O O7 0.047727 0.188420 0.822349
O O8 0.942467 0.816665 0.873325
O O9 0.387772 0.744749 0.564979
O O10 0.286291 0.355557 0.591918
O O11 0.192143 0.857084 0.276998
O O12 0.178983 0.404313 0.985763
O O13 0.633911 0.041635 0.307445
O O14 0.500000 0.500000 0.000000
O O15 0.230317 0.887128 0.769827
#
# Coordination Sequence:
#
# PCOD8027631 Si02
#       7
#     2   2   2   2   2   2   2
#     4  12  25  45  71  95 137 180 224 273 331 390
#     4  10  24  46  68 100 136 170 218 276 336 392
#     4  12  27  45  66 102 136 176 222 277 329 394
#     4  11  25  43  72  99 132 174 226 268 329 405
#     4  12  25  45  71  95 137 180 224 273 331 390
#     4  11  25  43  72  98 134 175 219 274 335 393
#     4  12  27  46  64 103 140 170 221 283 329 388
#
# _framework density 22.838156000000001
#
# number of rings (size 3 to 8) (size 9 to 14) (size 15 to 20)
#    0.000    0.571    2.857    4.286    4.000   11.429 
#    0.000    0.000    0.000    0.000    0.000    0.000 
#    0.000    0.000    0.000    0.000    0.000    0.000 
#
# Total GULP energy -173635.109949 kJ/mol
# GULP energy per Si atom -12402.507854 kJ/mol
# Density = 2.278618 g / cm^3
# Si number density = 22.838156 Si / 1000 Ang^3
#
#
#
# Elastic Constant Matrix: (Units=GPa)
#
#
# Indices 1 2 3 4 5 6 
#
# 1 126.1350 37.9726 24.9483 -15.2209 -10.0709 10.0535
# 2 37.9726 97.0445 37.0016 -33.0440 -11.6745 18.2635
# 3 24.9483 37.0016 73.1169 -24.4313 -3.5647 2.7548
# 4 -15.2209 -33.0440 -24.4313 42.2486 -1.3733 -11.9740
# 5 -10.0709 -11.6745 -3.5647 -1.3733 36.1354 -1.8661
# 6 10.0535 18.2635 2.7548 -11.9740 -1.8661 44.9668
#
#
#
# Elastic Compliance Matrix: (Units=1/GPa)
#
#
# Indices 1 2 3 4 5 6 
#
# 1 0.009246 -0.002584 -0.001691 0.000153 0.001539 -0.000810
# 2 -0.002584 0.017389 -0.004478 0.009221 0.004623 -0.003564
# 3 -0.001691 -0.004478 0.019025 0.007789 0.000416 0.003122
# 4 0.000153 0.009221 0.007789 0.037293 0.005512 0.005903
# 5 0.001539 0.004623 0.000416 0.005512 0.029871 0.000460
# 6 -0.000810 -0.003564 0.003122 0.005903 0.000460 0.025267
#
#
# Mechanical properties :
#
#
# Convention : Reuss Voigt Hill
#
# Bulk Modulus (GPa) = 35.51613 55.12682 45.32148
# Shear Modulus (GPa) = 30.30679 37.76175 34.03427
#
# Velocity S-wave (km/s) = 3.64679 4.07068 3.86455
# Velocity P-wave (km/s) = 5.77209 6.80326 6.30878
#
# Compressibility (1/GPa) = 0.02815622
#
# Stress axis : x y z
#
# Youngs Moduli (GPa) = 108.15344 57.50674 52.56289
#
# Poissons Ratio (x) = 0.14857 0.08887
# Poissons Ratio (y) = 0.27941 0.23537
# Poissons Ratio (z) = 0.18285 0.25750
#
# Static dielectric constant tensor:
#      x y z
#    x 4.207630 -0.021970 -0.252160 
#    y -0.021970 4.258120 0.155040 
#    z -0.252160 0.155040 4.227250 
# 
# 
# High freq. dielectric constant tensor:
#      x y z
#    x 1.910280 0.002950 -0.009080 
#    y 0.002950 1.911430 0.004260 
#    z -0.009080 0.004260 1.908440 
# 
# From -- ./inp_files/48107.got.cif
#   From: 2010.06.25/outbox.cif.g09.slc.cpg/sg2_25_cif.got.tgz:48107.got - 2010.06.27 13:26:56.
