data_PCOD8027953
_publ_section_title
;
Structure prediction by ZEFSAII (Michael W. Deem and Ramdas Pophale) SiO2 
 PCOD8027953
Probable space group: P -1
;
_chemical_formula_sum "Si O2"
_cell_formula_units_Z 12
_cell_length_a 8.709675
_cell_length_b 22.084496
_cell_length_c 25.312204
_cell_angle_alpha 10.554430
_cell_angle_beta 147.063445
_cell_angle_gamma 147.284905
_cell_volume 478.352094
_symmetry_space_group_name_H-M "P -1"
_symmetry_group_IT_number 2
_symmetry_cell_setting 'triclinic'
loop_
_space_group_symop_operation_xyz
x,y,z
-x,-y,-z
loop_
_atom_site_type_symbol
_atom_site_label
_atom_site_fract_x
_atom_site_fract_y
_atom_site_fract_z
Si Si1 0.114593 0.782891 0.387679
Si Si2 0.898371 0.219966 0.398755
Si Si3 0.577247 0.118802 0.159119
Si Si4 0.612849 0.254281 0.673331
Si Si5 0.708585 0.210526 0.937274
Si Si6 0.577093 0.203539 0.429542
O O1 0.192417 0.842457 0.420619
O O2 0.945368 0.411787 0.643702
O O3 0.401158 0.847196 0.380968
O O4 0.904965 0.056878 0.082535
O O5 0.735290 0.264844 0.367404
O O6 0.672113 0.124808 0.367301
O O7 0.093721 0.929680 0.708347
O O8 0.104638 0.576329 0.144871
O O9 0.415085 0.054888 0.110743
O O10 0.578871 0.489800 0.861927
O O11 0.485523 0.108400 0.817652
O O12 0.454640 0.543096 0.354830
#
# Coordination Sequence:
#
# PCOD8027953 Si02
#       6
#     2   2   2   2   2   2
#     4  12  25  43  71 110 140 191 239 293 361 426
#     4  10  24  50  70 106 142 189 240 299 358 420
#     4  11  25  45  70 109 142 186 239 297 356 427
#     4  11  27  45  75 104 151 188 237 298 355 427
#     4  11  24  48  73 106 143 195 239 293 356 427
#     4  11  25  47  75 101 145 190 240 295 358 431
#
# _framework density 25.086122
#
# number of rings (size 3 to 8) (size 9 to 14) (size 15 to 20)
#    0.000    1.000    1.667    4.000    7.000    2.000 
#    6.000    0.000    0.000    0.000    0.000    0.000 
#    0.000    0.000    0.000    0.000    0.000    0.000 
#
# Total GULP energy -148763.533499 kJ/mol
# GULP energy per Si atom -12396.961125 kJ/mol
# Density = 2.502903 g / cm^3
# Si number density = 25.086122 Si / 1000 Ang^3
#
#
#
# Elastic Constant Matrix: (Units=GPa)
#
#
# Indices 1 2 3 4 5 6 
#
# 1 39.5420 17.1804 26.4264 7.2669 27.9250 -36.7074
# 2 17.1804 156.7946 16.7018 -31.7884 -4.3361 -29.2527
# 3 26.4264 16.7018 81.4059 -10.7755 -0.6052 4.2111
# 4 7.2669 -31.7884 -10.7755 22.8996 0.0218 -0.6360
# 5 27.9250 -4.3361 -0.6052 0.0218 43.2050 3.9012
# 6 -36.7074 -29.2527 4.2111 -0.6360 3.9012 15.7549
#
#
#
# Elastic Compliance Matrix: (Units=1/GPa)
#
#
# Indices 1 2 3 4 5 6 
#
# 1 -0.006720 -0.006325 0.004381 -0.005437 0.006518 -0.030405
# 2 -0.006325 0.012717 0.001805 0.020730 0.004650 0.008079
# 3 0.004381 0.001805 0.010711 0.006488 -0.003573 0.011841
# 4 -0.005437 0.020730 0.006488 0.077955 0.003260 0.026429
# 5 0.006518 0.004650 -0.003573 0.003260 0.017489 0.020576
# 6 -0.030405 0.008079 0.011841 0.026429 0.020576 0.000438
#
#
# Mechanical properties :
#
#
# Convention : Reuss Voigt Hill
#
# Bulk Modulus (GPa) = 60.86526 44.26219 52.56373
# Shear Modulus (GPa) = 42.24911 30.86748 36.55830
#
# Velocity S-wave (km/s) = 4.10831 3.51160 3.82162
# Velocity P-wave (km/s) = 6.84247 5.84159 6.36175
#
# Compressibility (1/GPa) = 0.01642973
#
# Stress axis : x y z
#
# Youngs Moduli (GPa) = -148.80619 78.63347 93.35904
#
# Poissons Ratio (x) = 0.49735 -0.40900
# Poissons Ratio (y) = -0.94119 -0.16848
# Poissons Ratio (z) = 0.65190 -0.14191
#
# Static dielectric constant tensor:
#      x y z
#    x 4.390380 -0.075190 0.252880 
#    y -0.075190 5.131450 -0.371470 
#    z 0.252880 -0.371470 4.305940 
# 
# 
# High freq. dielectric constant tensor:
#      x y z
#    x 1.996300 -0.000880 0.024980 
#    y -0.000880 2.018840 -0.015580 
#    z 0.024980 -0.015580 1.991770 
# 
# From -- ./inp_files/37053.got.cif
#   From: 2010.06.25/outbox.cif.g09.slc.cpg/sg2_19_cif.got.tgz:37053.got - 2010.06.27 13:26:56.
