data_PCOD8027219
_publ_section_title
;
Structure prediction by ZEFSAII (Michael W. Deem and Ramdas Pophale) SiO2 
 PCOD8027219
Probable space group: P -1
;
_chemical_formula_sum "Si O2"
_cell_formula_units_Z 16
_cell_length_a 13.249509
_cell_length_b 15.965572
_cell_length_c 8.150313
_cell_angle_alpha 134.569419
_cell_angle_beta 45.174932
_cell_angle_gamma 146.086633
_cell_volume 651.893692
_symmetry_space_group_name_H-M "P -1"
_symmetry_group_IT_number 2
_symmetry_cell_setting 'triclinic'
loop_
_space_group_symop_operation_xyz
x,y,z
-x,-y,-z
loop_
_atom_site_type_symbol
_atom_site_label
_atom_site_fract_x
_atom_site_fract_y
_atom_site_fract_z
Si Si1 0.592590 0.018829 0.152506
Si Si2 0.080714 0.447423 0.661445
Si Si3 0.338314 0.046821 0.667099
Si Si4 0.541494 0.656336 0.929306
Si Si5 0.922375 0.793042 0.806575
Si Si6 0.955236 0.316158 0.972277
Si Si7 0.245647 0.306717 0.798972
Si Si8 0.513480 0.286087 0.281758
O O1 0.419948 0.014134 0.380114
O O2 0.677195 0.029565 0.246612
O O3 0.747993 0.168076 0.069647
O O4 0.515821 0.867746 0.927563
O O5 0.058622 0.339199 0.394767
O O6 0.298850 0.588403 0.656204
O O7 0.955028 0.327701 0.791311
O O8 0.993831 0.523579 0.800291
O O9 0.472383 0.234659 0.791975
O O10 0.120435 0.963725 0.762375
O O11 0.763093 0.740265 0.782738
O O12 0.414911 0.483803 0.914143
O O13 0.463523 0.633681 0.805621
O O14 0.864674 0.802433 0.067210
O O15 0.106822 0.302610 0.834049
O O16 0.329921 0.238635 0.518718
#
# Coordination Sequence:
#
# PCOD8027219 Si02
#       8
#     2   2   2   2   2   2   2   2
#     4  10  24  47  70  99 139 185 228 283 343 413
#     4  11  26  44  69 103 140 180 236 282 342 407
#     4  10  24  44  70 103 140 179 229 282 351 402
#     4  11  23  44  71 101 140 181 225 285 344 410
#     4  12  25  44  68 105 139 180 230 288 340 413
#     4  11  25  45  69 103 136 183 233 280 344 406
#     4  12  24  44  72 104 137 183 230 283 347 406
#     4  11  24  47  70  99 142 184 226 281 345 410
#
# _framework density 24.543879
#
# number of rings (size 3 to 8) (size 9 to 14) (size 15 to 20)
#    0.000    1.000    3.750    1.875    5.250    2.500 
#    4.500    0.000    0.000    0.000    0.000    0.000 
#    0.000    0.000    0.000    0.000    0.000    0.000 
#
# Total GULP energy -198442.762068 kJ/mol
# GULP energy per Si atom -12402.672629 kJ/mol
# Density = 2.448802 g / cm^3
# Si number density = 24.543879 Si / 1000 Ang^3
#
#
#
# Elastic Constant Matrix: (Units=GPa)
#
#
# Indices 1 2 3 4 5 6 
#
# 1 41.1055 13.2708 13.8060 -8.9192 -9.2175 7.3886
# 2 13.2708 125.4144 50.6998 -14.9792 4.6075 1.7957
# 3 13.8060 50.6998 169.7812 -3.9451 -10.7959 -4.7200
# 4 -8.9192 -14.9792 -3.9451 39.8266 6.7104 -6.3544
# 5 -9.2175 4.6075 -10.7959 6.7104 25.9435 -1.0922
# 6 7.3886 1.7957 -4.7200 -6.3544 -1.0922 29.8916
#
#
#
# Elastic Compliance Matrix: (Units=1/GPa)
#
#
# Indices 1 2 3 4 5 6 
#
# 1 0.029418 -0.002560 -0.001138 0.002916 0.009412 -0.006333
# 2 -0.002560 0.010100 -0.003029 0.003784 -0.004935 0.000172
# 3 -0.001138 -0.003029 0.007122 -0.001027 0.003426 0.001495
# 4 0.002916 0.003784 -0.001027 0.029095 -0.007387 0.004805
# 5 0.009412 -0.004935 0.003426 -0.007387 0.046044 -0.001377
# 6 -0.006333 0.000172 0.001495 0.004805 -0.001377 0.036216
#
#
# Mechanical properties :
#
#
# Convention : Reuss Voigt Hill
#
# Bulk Modulus (GPa) = 30.13177 54.65049 42.39113
# Shear Modulus (GPa) = 27.39566 36.36731 31.88149
#
# Velocity S-wave (km/s) = 3.34457 3.85350 3.60802
# Velocity P-wave (km/s) = 5.21711 6.48953 5.88779
#
# Compressibility (1/GPa) = 0.03318756
#
# Stress axis : x y z
#
# Youngs Moduli (GPa) = 33.99288 99.01260 140.40071
#
# Poissons Ratio (x) = 0.25345 0.15972
# Poissons Ratio (y) = 0.08701 0.42526
# Poissons Ratio (z) = 0.03867 0.29990
#
# Static dielectric constant tensor:
#      x y z
#    x 4.316370 -0.029830 -0.337570 
#    y -0.029830 4.343810 0.048890 
#    z -0.337570 0.048890 4.641750 
# 
# 
# High freq. dielectric constant tensor:
#      x y z
#    x 1.968800 -0.000400 -0.018400 
#    y -0.000400 1.976910 0.000790 
#    z -0.018400 0.000790 1.985240 
# 
# From -- ./inp_files/318135.got.cif
#   From: 2010.06.25/outbox.cif.g09.slc.cpg/sg2_160_cif.got.tgz:318135.got - 2010.06.27 13:26:56.
