data_PCOD8027103
_publ_section_title
;
Structure prediction by ZEFSAII (Michael W. Deem and Ramdas Pophale) SiO2 
 PCOD8027103
Probable space group: P -1
;
_chemical_formula_sum "Si O2"
_cell_formula_units_Z 12
_cell_length_a 26.183126
_cell_length_b 15.787323
_cell_length_c 7.136898
_cell_angle_alpha 48.373489
_cell_angle_beta 40.281628
_cell_angle_gamma 17.001470
_cell_volume 523.424156
_symmetry_space_group_name_H-M "P -1"
_symmetry_group_IT_number 2
_symmetry_cell_setting 'triclinic'
loop_
_space_group_symop_operation_xyz
x,y,z
-x,-y,-z
loop_
_atom_site_type_symbol
_atom_site_label
_atom_site_fract_x
_atom_site_fract_y
_atom_site_fract_z
Si Si1 0.317979 0.683821 0.854916
Si Si2 0.284523 0.350968 0.645328
Si Si3 0.556250 0.615714 0.723609
Si Si4 0.768716 0.364123 0.118533
Si Si5 0.057523 0.295550 0.183789
Si Si6 0.939085 0.348277 0.809660
O O1 0.500000 0.500000 0.500000
O O2 0.326420 0.544750 0.948881
O O3 0.361964 0.603904 0.067828
O O4 0.102027 0.044134 0.903495
O O5 0.337869 0.410858 0.450546
O O6 0.102213 0.577958 0.662365
O O7 0.500000 0.000000 0.500000
O O8 0.192601 0.415875 0.000356
O O9 0.629474 0.496033 0.482746
O O10 0.299739 0.955577 0.939815
O O11 0.775218 0.490912 0.934290
O O12 0.000000 0.000000 0.000000
O O13 0.045238 0.294484 0.446376
O O14 0.000000 0.500000 0.000000
#
# Coordination Sequence:
#
# PCOD8027103 Si02
#       6
#     2   2   2   2   2   2
#     4  11  22  40  67 100 132 165 214 271 331 389
#     4  11  25  47  67  96 134 178 220 273 326 389
#     4  11  24  44  70  98 133 175 218 270 331 389
#     4   9  22  42  65  96 134 174 211 266 330 392
#     4  12  25  44  68  99 131 174 227 269 323 392
#     4  10  24  44  67  97 131 172 221 269 329 392
#
# _framework density 22.925958999999999
#
# number of rings (size 3 to 8) (size 9 to 14) (size 15 to 20)
#    0.000    1.333    3.333    1.000    2.333   10.667 
#    3.000    0.000    0.000    0.000    0.000    0.000 
#    0.000    0.000    0.000    0.000    0.000    0.000 
#
# Total GULP energy -148702.687749 kJ/mol
# GULP energy per Si atom -12391.890646 kJ/mol
# Density = 2.287378 g / cm^3
# Si number density = 22.925959 Si / 1000 Ang^3
#
#
#
# Elastic Constant Matrix: (Units=GPa)
#
#
# Indices 1 2 3 4 5 6 
#
# 1 51.5854 28.8702 5.7812 18.6276 6.3369 -10.0277
# 2 28.8702 107.2277 64.5311 7.7259 10.3108 -6.3419
# 3 5.7812 64.5311 163.1672 20.8031 31.0845 -0.3569
# 4 18.6276 7.7259 20.8031 45.9177 -0.2153 -1.2815
# 5 6.3369 10.3108 31.0845 -0.2153 41.1225 10.2986
# 6 -10.0277 -6.3419 -0.3569 -1.2815 10.2986 30.0109
#
#
#
# Elastic Compliance Matrix: (Units=1/GPa)
#
#
# Indices 1 2 3 4 5 6 
#
# 1 0.033340 -0.010278 0.006839 -0.014606 -0.010849 0.012149
# 2 -0.010278 0.015605 -0.007041 0.004718 0.003308 -0.001154
# 3 0.006839 -0.007041 0.011172 -0.006591 -0.008676 0.003626
# 4 -0.014606 0.004718 -0.006591 0.029784 0.007526 -0.005273
# 5 -0.010849 0.003308 -0.008676 0.007526 0.035486 -0.014885
# 6 0.012149 -0.001154 0.003626 -0.005273 -0.014885 0.042063
#
#
# Mechanical properties :
#
#
# Convention : Reuss Voigt Hill
#
# Bulk Modulus (GPa) = 25.53879 57.81614 41.67746
# Shear Modulus (GPa) = 24.81853 38.26338 31.54096
#
# Velocity S-wave (km/s) = 3.29378 4.08977 3.71317
# Velocity P-wave (km/s) = 5.06253 6.89746 6.04997
#
# Compressibility (1/GPa) = 0.03915613
#
# Stress axis : x y z
#
# Youngs Moduli (GPa) = 29.99406 64.08296 89.50692
#
# Poissons Ratio (x) = 0.65867 -0.61218
# Poissons Ratio (y) = 0.30829 0.63026
# Poissons Ratio (z) = -0.20514 0.45124
#
# Static dielectric constant tensor:
#      x y z
#    x 3.571420 -1.066670 -0.103800 
#    y -1.066670 3.178580 0.007630 
#    z -0.103800 0.007630 4.319340 
# 
# 
# High freq. dielectric constant tensor:
#      x y z
#    x 1.912590 -0.007060 0.004940 
#    y -0.007060 1.882580 0.011900 
#    z 0.004940 0.011900 1.929090 
# 
# From -- ./inp_files/33763.got.cif
#   From: 2010.06.25/outbox.cif.g09.slc.cpg/sg2_17_cif.got.tgz:33763.got - 2010.06.27 13:26:56.
