data_PCOD8027110
_publ_section_title
;
Structure prediction by ZEFSAII (Michael W. Deem and Ramdas Pophale) SiO2 
 PCOD8027110
Probable space group: P -1
;
_chemical_formula_sum "Si O2"
_cell_formula_units_Z 16
_cell_length_a 20.108520
_cell_length_b 17.596512
_cell_length_c 11.937949
_cell_angle_alpha 148.416505
_cell_angle_beta 41.858851
_cell_angle_gamma 159.418377
_cell_volume 745.173443
_symmetry_space_group_name_H-M "P -1"
_symmetry_group_IT_number 2
_symmetry_cell_setting 'triclinic'
loop_
_space_group_symop_operation_xyz
x,y,z
-x,-y,-z
loop_
_atom_site_type_symbol
_atom_site_label
_atom_site_fract_x
_atom_site_fract_y
_atom_site_fract_z
Si Si1 0.724841 0.739209 0.031143
Si Si2 0.266182 0.557599 0.245501
Si Si3 0.136995 0.958849 0.985319
Si Si4 0.520870 0.811650 0.691502
Si Si5 0.372955 0.979875 0.765997
Si Si6 0.880364 0.090394 0.491955
Si Si7 0.114757 0.166628 0.449268
Si Si8 0.718218 0.245715 0.173014
O O1 0.814686 0.868347 0.957533
O O2 0.840852 0.985256 0.283735
O O3 0.500000 0.500000 0.000000
O O4 0.753606 0.608775 0.862555
O O5 0.320429 0.754692 0.507023
O O6 0.079058 0.370824 0.176776
O O7 0.407323 0.707225 0.151672
O O8 0.258712 0.965908 0.833576
O O9 0.156699 0.063739 0.211172
O O10 0.334325 0.513583 0.623410
O O11 0.415562 0.775903 0.681520
O O12 0.665324 0.872441 0.533371
O O13 0.667708 0.097745 0.937110
O O14 0.342361 0.941314 0.888432
O O15 0.964791 0.069141 0.437417
O O16 0.046657 0.425818 0.701765
O O17 0.000000 0.000000 0.500000
#
# Coordination Sequence:
#
# PCOD8027110 Si02
#       8
#     2   2   2   2   2   2   2   2
#     4  12  24  43  74 101 139 178 234 280 346 419
#     4  11  25  44  66  99 137 178 228 281 344 412
#     4  12  25  44  69  99 137 184 225 281 348 408
#     4  10  24  44  70  96 138 180 234 289 344 406
#     4  11  26  42  66  99 139 178 227 282 350 406
#     4  11  24  44  73 103 132 188 232 286 347 411
#     4  11  27  44  68 105 139 178 238 288 344 412
#     4  10  24  44  67  99 137 179 235 282 344 417
#
# _framework density 21.471512000000001
#
# number of rings (size 3 to 8) (size 9 to 14) (size 15 to 20)
#    0.000    1.000    2.500    2.625    8.750    1.500 
#    0.000    0.000    0.000    0.000    0.000    0.000 
#    0.000    0.000    0.000    0.000    0.000    0.000 
#
# Total GULP energy -198335.044113 kJ/mol
# GULP energy per Si atom -12395.940257 kJ/mol
# Density = 2.142264 g / cm^3
# Si number density = 21.471512 Si / 1000 Ang^3
#
#
#
# Elastic Constant Matrix: (Units=GPa)
#
#
# Indices 1 2 3 4 5 6 
#
# 1 129.6976 80.5053 81.9676 15.3919 -7.1654 10.9047
# 2 80.5053 166.8737 108.4036 15.9503 -4.9628 16.6161
# 3 81.9676 108.4036 327.6438 58.5034 -14.7664 32.4712
# 4 15.3919 15.9503 58.5034 45.4473 0.6242 8.6980
# 5 -7.1654 -4.9628 -14.7664 0.6242 38.2112 -5.0480
# 6 10.9047 16.6161 32.4712 8.6980 -5.0480 55.7705
#
#
#
# Elastic Compliance Matrix: (Units=1/GPa)
#
#
# Indices 1 2 3 4 5 6 
#
# 1 0.011501 -0.004709 -0.001127 -0.000815 0.001128 0.000039
# 2 -0.004709 0.009624 -0.002150 0.001172 -0.000606 -0.000932
# 3 -0.001127 -0.002150 0.005179 -0.005322 0.001440 -0.001194
# 4 -0.000815 0.001172 -0.005322 0.029117 -0.002782 -0.001884
# 5 0.001128 -0.000606 0.001440 -0.002782 0.027171 0.002015
# 6 0.000039 -0.000932 -0.001194 -0.001884 0.002015 0.019372
#
#
# Mechanical properties :
#
#
# Convention : Reuss Voigt Hill
#
# Bulk Modulus (GPa) = 96.78905 129.55199 113.17052
# Shear Modulus (GPa) = 41.19269 51.44172 46.31720
#
# Velocity S-wave (km/s) = 4.38480 4.90001 4.64955
# Velocity P-wave (km/s) = 8.41493 9.61671 9.03582
#
# Compressibility (1/GPa) = 0.01033175
#
# Stress axis : x y z
#
# Youngs Moduli (GPa) = 86.94875 103.90721 193.09202
#
# Poissons Ratio (x) = 0.48930 0.21757
# Poissons Ratio (y) = 0.40944 0.41521
# Poissons Ratio (z) = 0.09797 0.22343
#
# Static dielectric constant tensor:
#      x y z
#    x 3.868640 0.151980 -0.050040 
#    y 0.151980 4.169430 0.136920 
#    z -0.050040 0.136920 3.842770 
# 
# 
# High freq. dielectric constant tensor:
#      x y z
#    x 1.844450 0.011140 -0.001440 
#    y 0.011140 1.859670 0.005550 
#    z -0.001440 0.005550 1.846410 
# 
# From -- ./inp_files/398222.got.cif
#   From: 2010.06.25/outbox.cif.g09.slc.cpg/sg2_200_cif.got.tgz:398222.got - 2010.06.27 13:26:56.
