data_PCOD8027400
_publ_section_title
;
Structure prediction by ZEFSAII (Michael W. Deem and Ramdas Pophale) SiO2 
 PCOD8027400
Probable space group: P -1
;
_chemical_formula_sum "Si O2"
_cell_formula_units_Z 16
_cell_length_a 21.608579
_cell_length_b 9.031287
_cell_length_c 11.524933
_cell_angle_alpha 135.918116
_cell_angle_beta 49.551108
_cell_angle_gamma 151.285810
_cell_volume 750.554022
_symmetry_space_group_name_H-M "P -1"
_symmetry_group_IT_number 2
_symmetry_cell_setting 'triclinic'
loop_
_space_group_symop_operation_xyz
x,y,z
-x,-y,-z
loop_
_atom_site_type_symbol
_atom_site_label
_atom_site_fract_x
_atom_site_fract_y
_atom_site_fract_z
Si Si1 0.378213 0.781068 0.948067
Si Si2 0.719837 0.547588 0.697335
Si Si3 0.554688 0.838955 0.146476
Si Si4 0.237389 0.684393 0.279047
Si Si5 0.768387 0.275126 0.324287
Si Si6 0.007135 0.257328 0.176774
Si Si7 0.957326 0.337842 0.836092
Si Si8 0.266774 0.113084 0.651912
O O1 0.355042 0.499975 0.764623
O O2 0.400511 0.980531 0.927892
O O3 0.276673 0.688647 0.104260
O O4 0.500000 0.000000 0.000000
O O5 0.567308 0.283526 0.721140
O O6 0.745778 0.479121 0.747779
O O7 0.751609 0.474769 0.506312
O O8 0.816757 0.943814 0.796543
O O9 0.684558 0.093188 0.207467
O O10 0.500000 0.500000 0.000000
O O11 0.089294 0.440302 0.298338
O O12 0.299109 0.026100 0.452069
O O13 0.923277 0.570876 0.293022
O O14 0.709558 0.976048 0.311473
O O15 0.060025 0.504314 0.144003
O O16 0.875491 0.084175 0.286442
O O17 0.000000 0.000000 0.000000
O O18 0.000000 0.500000 0.000000
#
# Coordination Sequence:
#
# PCOD8027400 Si02
#       8
#     2   2   2   2   2   2   2   2
#     4  12  25  44  67  95 131 177 221 267 328 391
#     4  11  24  45  65  97 135 172 216 275 327 390
#     4  12  26  43  68  96 133 173 220 270 329 392
#     4  11  24  43  69  97 133 172 217 273 330 389
#     4  10  24  45  67  97 131 173 218 273 326 392
#     4  11  22  40  69  99 132 171 218 273 328 393
#     4  11  24  39  68  98 129 174 220 265 332 390
#     4  10  24  45  68  98 133 170 220 272 328 391
#
# _framework density 21.317585000000001
#
# number of rings (size 3 to 8) (size 9 to 14) (size 15 to 20)
#    0.000    1.000    2.500    3.375    5.250    2.500 
#    2.250    0.000    0.000    0.000    0.000    0.000 
#    0.000    0.000    0.000    0.000    0.000    0.000 
#
# Total GULP energy -198270.183461 kJ/mol
# GULP energy per Si atom -12391.886466 kJ/mol
# Density = 2.126907 g / cm^3
# Si number density = 21.317585 Si / 1000 Ang^3
#
#
#
# Elastic Constant Matrix: (Units=GPa)
#
#
# Indices 1 2 3 4 5 6 
#
# 1 116.6638 30.2136 27.1454 13.7714 0.7390 7.9273
# 2 30.2136 84.9196 30.3217 16.7923 -2.6919 -9.1024
# 3 27.1454 30.3217 125.0110 10.2821 -7.7419 -13.8215
# 4 13.7714 16.7923 10.2821 36.3420 3.8541 -3.6648
# 5 0.7390 -2.6919 -7.7419 3.8541 33.0881 7.1442
# 6 7.9273 -9.1024 -13.8215 -3.6648 7.1442 32.1011
#
#
#
# Elastic Compliance Matrix: (Units=1/GPa)
#
#
# Indices 1 2 3 4 5 6 
#
# 1 0.010380 -0.003031 -0.001792 -0.002527 0.000383 -0.004568
# 2 -0.003031 0.014972 -0.002161 -0.004885 0.000622 0.003368
# 3 -0.001792 -0.002161 0.009452 -0.000794 0.001414 0.003494
# 4 -0.002527 -0.004885 -0.000794 0.031857 -0.005026 0.003653
# 5 0.000383 0.000622 0.001414 -0.005026 0.032728 -0.007167
# 6 -0.004568 0.003368 0.003494 0.003653 -0.007167 0.036751
#
#
# Mechanical properties :
#
#
# Convention : Reuss Voigt Hill
#
# Bulk Modulus (GPa) = 47.99387 55.77286 51.88336
# Shear Modulus (GPa) = 31.83629 36.23383 34.03506
#
# Velocity S-wave (km/s) = 3.86868 4.12723 4.00005
# Velocity P-wave (km/s) = 6.52060 6.99512 6.76202
#
# Compressibility (1/GPa) = 0.02083600
#
# Stress axis : x y z
#
# Youngs Moduli (GPa) = 96.34007 66.78977 105.80013
#
# Poissons Ratio (x) = 0.20243 0.18962
# Poissons Ratio (y) = 0.29200 0.22862
# Poissons Ratio (z) = 0.17267 0.14432
#
# Static dielectric constant tensor:
#      x y z
#    x 4.133640 0.239360 0.078690 
#    y 0.239360 4.114220 0.373820 
#    z 0.078690 0.373820 3.749530 
# 
# 
# High freq. dielectric constant tensor:
#      x y z
#    x 1.855950 0.010960 -0.004400 
#    y 0.010960 1.833900 -0.001350 
#    z -0.004400 -0.001350 1.849610 
# 
# From -- ./inp_files/319329.got.cif
#   From: 2010.06.25/outbox.cif.g09.slc.cpg/sg2_160_cif.got.tgz:319329.got - 2010.06.27 13:26:56.
