data_PCOD8027766
_publ_section_title
;
Structure prediction by ZEFSAII (Michael W. Deem and Ramdas Pophale) SiO2 
 PCOD8027766
Probable space group: P -1
;
_chemical_formula_sum "Si O2"
_cell_formula_units_Z 12
_cell_length_a 16.216001
_cell_length_b 8.495068
_cell_length_c 8.890555
_cell_angle_alpha 114.519758
_cell_angle_beta 151.534719
_cell_angle_gamma 63.419933
_cell_volume 521.367987
_symmetry_space_group_name_H-M "P -1"
_symmetry_group_IT_number 2
_symmetry_cell_setting 'triclinic'
loop_
_space_group_symop_operation_xyz
x,y,z
-x,-y,-z
loop_
_atom_site_type_symbol
_atom_site_label
_atom_site_fract_x
_atom_site_fract_y
_atom_site_fract_z
Si Si1 0.417879 0.675411 0.578048
Si Si2 0.020536 0.170167 0.506261
Si Si3 0.706102 0.658468 0.814141
Si Si4 0.658467 0.706104 0.414997
Si Si5 0.324589 0.582119 0.891468
Si Si6 0.170166 0.020535 0.375143
O O1 0.521669 0.749124 0.635686
O O2 0.288605 0.551876 0.255644
O O3 0.294586 0.832305 0.531264
O O4 0.562318 0.562319 0.874635
O O5 0.113571 0.113571 0.477142
O O6 0.832306 0.294587 0.222520
O O7 0.130469 0.292618 0.818756
O O8 0.000000 0.000000 0.500000
O O9 0.719959 0.719959 0.689917
O O10 0.749123 0.521672 0.405899
O O11 0.707380 0.869534 0.472580
O O12 0.448123 0.711395 0.074682
O O13 0.000000 0.000000 0.000000
#
# Coordination Sequence:
#
# PCOD8027766 Si02
#       6
#     2   2   2   2   2   2
#     4  10  25  48  75 104 143 194 235 289 361 428
#     4  12  29  46  74 109 146 182 245 299 353 415
#     4  10  24  46  76 103 143 190 238 287 359 424
#     4  10  24  46  76 103 143 190 238 287 359 424
#     4  10  25  48  75 104 143 194 235 289 361 428
#     4  12  29  46  74 109 146 182 245 299 353 415
#
# _framework density 23.016373000000002
#
# number of rings (size 3 to 8) (size 9 to 14) (size 15 to 20)
#    0.000    1.333    0.000    2.000   18.667    5.333 
#    0.000    0.000    0.000    0.000    0.000    0.000 
#    0.000    0.000    0.000    0.000    0.000    0.000 
#
# Total GULP energy -148786.287359 kJ/mol
# GULP energy per Si atom -12398.857280 kJ/mol
# Density = 2.296399 g / cm^3
# Si number density = 23.016373 Si / 1000 Ang^3
#
#
#
# Elastic Constant Matrix: (Units=GPa)
#
#
# Indices 1 2 3 4 5 6 
#
# 1 165.2233 77.3585 58.7359 -3.8801 -2.7351 -11.1301
# 2 77.3585 140.0913 88.5963 -17.9619 14.8162 -21.3123
# 3 58.7359 88.5963 127.5798 14.1189 -2.8403 0.8510
# 4 -3.8801 -17.9619 14.1189 40.2990 -0.0621 8.9273
# 5 -2.7351 14.8162 -2.8403 -0.0621 38.7319 6.7597
# 6 -11.1301 -21.3123 0.8510 8.9273 6.7597 47.5665
#
#
#
# Elastic Compliance Matrix: (Units=1/GPa)
#
#
# Indices 1 2 3 4 5 6 
#
# 1 0.008474 -0.005067 -0.000180 -0.001284 0.002593 -0.000412
# 2 -0.005067 0.026026 -0.017778 0.015140 -0.013311 0.009843
# 3 -0.000180 -0.017778 0.022087 -0.014086 0.009629 -0.007127
# 4 -0.001284 0.015140 -0.014086 0.036153 -0.007022 0.000948
# 5 0.002593 -0.013311 0.009629 -0.007022 0.033350 -0.008951
# 6 -0.000412 0.009843 -0.007127 0.000948 -0.008951 0.026559
#
#
# Mechanical properties :
#
#
# Convention : Reuss Voigt Hill
#
# Bulk Modulus (GPa) = 94.90075 98.03063 96.46569
# Shear Modulus (GPa) = 24.72657 39.19974 31.96315
#
# Velocity S-wave (km/s) = 3.28121 4.13137 3.73059
# Velocity P-wave (km/s) = 7.46167 8.08961 7.78198
#
# Compressibility (1/GPa) = 0.01053733
#
# Stress axis : x y z
#
# Youngs Moduli (GPa) = 118.01043 38.42339 45.27468
#
# Poissons Ratio (x) = 0.19470 0.00814
# Poissons Ratio (y) = 0.59798 0.80489
# Poissons Ratio (z) = 0.02121 0.68309
#
# Static dielectric constant tensor:
#      x y z
#    x 6.898550 0.033580 -1.182600 
#    y 0.033580 4.092170 0.236370 
#    z -1.182600 0.236370 4.843700 
# 
# 
# High freq. dielectric constant tensor:
#      x y z
#    x 1.933490 -0.008710 0.002820 
#    y -0.008710 1.899810 0.022920 
#    z 0.002820 0.022920 1.909020 
# 
# From -- ./inp_files/297579.got.cif
#   From: 2010.06.25/outbox.cif.g09.slc.cpg/sg2_149_cif.got.tgz:297579.got - 2010.06.27 13:26:56.
