data_PCOD8027371
_publ_section_title
;
Structure prediction by ZEFSAII (Michael W. Deem and Ramdas Pophale) SiO2 
 PCOD8027371
Probable space group: P -1
;
_chemical_formula_sum "Si O2"
_cell_formula_units_Z 16
_cell_length_a 9.744644
_cell_length_b 12.312924
_cell_length_c 22.020300
_cell_angle_alpha 153.547438
_cell_angle_beta 140.367073
_cell_angle_gamma 46.728628
_cell_volume 750.656891
_symmetry_space_group_name_H-M "P -1"
_symmetry_group_IT_number 2
_symmetry_cell_setting 'triclinic'
loop_
_space_group_symop_operation_xyz
x,y,z
-x,-y,-z
loop_
_atom_site_type_symbol
_atom_site_label
_atom_site_fract_x
_atom_site_fract_y
_atom_site_fract_z
Si Si1 0.592302 0.027978 0.288585
Si Si2 0.054522 0.342358 0.767039
Si Si3 0.178668 0.802195 0.972664
Si Si4 0.166595 0.800354 0.657316
Si Si5 0.849230 0.659176 0.067669
Si Si6 0.312046 0.394718 0.591207
Si Si7 0.618727 0.099026 0.464373
Si Si8 0.397037 0.455289 0.786192
O O1 0.736974 0.196441 0.376952
O O2 0.519728 0.152649 0.389774
O O3 0.732161 0.805423 0.251389
O O4 0.392783 0.937959 0.136043
O O5 0.090390 0.624990 0.905975
O O6 0.019635 0.316889 0.813637
O O7 0.844401 0.241991 0.611696
O O8 0.221089 0.642728 0.846515
O O9 0.000000 0.000000 0.000000
O O10 0.303180 0.621219 0.655819
O O11 0.920185 0.715754 0.526965
O O12 0.184178 0.064365 0.828361
O O13 0.622002 0.522134 0.928627
O O14 0.000000 0.500000 0.000000
O O15 0.456222 0.191210 0.506590
O O16 0.417738 0.485927 0.735898
O O17 0.666924 0.818900 0.355398
#
# Coordination Sequence:
#
# PCOD8027371 Si02
#       8
#     2   2   2   2   2   2   2   2
#     4  11  23  47  70  97 138 178 233 281 337 407
#     4  11  23  43  68 101 136 175 228 282 342 401
#     4  12  27  43  68 103 135 183 229 285 348 400
#     4  10  24  45  65  95 140 185 220 281 348 397
#     4  11  22  40  71  95 132 181 230 274 339 413
#     4  11  26  43  66 101 143 177 227 279 348 412
#     4  12  25  41  76 103 132 180 234 280 340 411
#     4  12  23  43  68  97 141 175 226 288 333 408
#
# _framework density 21.314664
#
# number of rings (size 3 to 8) (size 9 to 14) (size 15 to 20)
#    0.000    0.750    3.750    4.875    3.500    4.000 
#    0.000    0.000    0.000    0.000    0.000    0.000 
#    0.000    0.000    0.000    0.000    0.000    0.000 
#
# Total GULP energy -198409.454065 kJ/mol
# GULP energy per Si atom -12400.590879 kJ/mol
# Density = 2.126615 g / cm^3
# Si number density = 21.314664 Si / 1000 Ang^3
#
#
#
# Elastic Constant Matrix: (Units=GPa)
#
#
# Indices 1 2 3 4 5 6 
#
# 1 119.4083 58.8274 48.7646 7.1181 -21.9313 -2.1018
# 2 58.8274 111.4822 38.6019 7.5616 -0.7341 4.3062
# 3 48.7646 38.6019 91.7091 -1.8549 -3.2617 1.2585
# 4 7.1181 7.5616 -1.8549 31.6811 4.3323 -1.7104
# 5 -21.9313 -0.7341 -3.2617 4.3323 49.0783 1.3230
# 6 -2.1018 4.3062 1.2585 -1.7104 1.3230 33.2019
#
#
#
# Elastic Compliance Matrix: (Units=1/GPa)
#
#
# Indices 1 2 3 4 5 6 
#
# 1 0.014746 -0.005765 -0.005269 -0.003039 0.006382 0.001470
# 2 -0.005765 0.013067 -0.002526 -0.001757 -0.002341 -0.001961
# 3 -0.005269 -0.002526 0.014773 0.002859 -0.001653 -0.000353
# 4 -0.003039 -0.001757 0.002859 0.033507 -0.004201 0.001821
# 5 0.006382 -0.002341 -0.001653 -0.004201 0.023464 -0.000381
# 6 0.001470 -0.001961 -0.000353 0.001821 -0.000381 0.030589
#
#
# Mechanical properties :
#
#
# Convention : Reuss Voigt Hill
#
# Bulk Modulus (GPa) = 64.66410 68.33192 66.49801
# Shear Modulus (GPa) = 30.78450 34.55264 32.66857
#
# Velocity S-wave (km/s) = 3.80450 4.03062 3.91919
# Velocity P-wave (km/s) = 7.05001 7.33413 7.19347
#
# Compressibility (1/GPa) = 0.01546453
#
# Stress axis : x y z
#
# Youngs Moduli (GPa) = 67.81610 76.53101 67.69231
#
# Poissons Ratio (x) = 0.44123 0.35665
# Poissons Ratio (y) = 0.39099 0.17100
# Poissons Ratio (z) = 0.35730 0.19333
#
# Static dielectric constant tensor:
#      x y z
#    x 4.567780 0.041090 -0.508730 
#    y 0.041090 3.850890 0.118800 
#    z -0.508730 0.118800 3.989770 
# 
# 
# High freq. dielectric constant tensor:
#      x y z
#    x 1.849030 0.003900 -0.000940 
#    y 0.003900 1.830690 -0.000490 
#    z -0.000940 -0.000490 1.843810 
# 
# From -- ./inp_files/239739.got.cif
#   From: 2010.06.25/outbox.cif.g09.slc.cpg/sg2_120_cif.got.tgz:239739.got - 2010.06.27 13:26:56.
