data_PCOD8027325
_publ_section_title
;
Structure prediction by ZEFSAII (Michael W. Deem and Ramdas Pophale) SiO2 
 PCOD8027325
Probable space group: P -1
;
_chemical_formula_sum "Si O2"
_cell_formula_units_Z 14
_cell_length_a 14.392858
_cell_length_b 10.119767
_cell_length_c 11.151314
_cell_angle_alpha 55.255335
_cell_angle_beta 150.309566
_cell_angle_gamma 135.756225
_cell_volume 554.815309
_symmetry_space_group_name_H-M "P -1"
_symmetry_group_IT_number 2
_symmetry_cell_setting 'triclinic'
loop_
_space_group_symop_operation_xyz
x,y,z
-x,-y,-z
loop_
_atom_site_type_symbol
_atom_site_label
_atom_site_fract_x
_atom_site_fract_y
_atom_site_fract_z
Si Si1 0.152485 0.912044 0.710341
Si Si2 0.584280 0.191750 0.420456
Si Si3 0.255261 0.928249 0.551846
Si Si4 0.489707 0.640720 0.326296
Si Si5 0.013196 0.530954 0.858322
Si Si6 0.436191 0.303599 0.878512
Si Si7 0.238724 0.295805 0.900673
O O1 0.199426 0.852594 0.664934
O O2 0.042445 0.734352 0.767132
O O3 0.398125 0.090112 0.943880
O O4 0.000000 0.000000 0.500000
O O5 0.639454 0.167123 0.358254
O O6 0.396370 0.241479 0.174088
O O7 0.798410 0.363517 0.637246
O O8 0.500000 0.000000 0.500000
O O9 0.411303 0.157672 0.599129
O O10 0.011837 0.853437 0.258852
O O11 0.500000 0.500000 0.500000
O O12 0.624226 0.666440 0.341137
O O13 0.234170 0.547373 0.047642
O O14 0.000000 0.500000 0.000000
O O15 0.682121 0.483974 0.094751
O O16 0.256306 0.293307 0.776186
#
# Coordination Sequence:
#
# PCOD8027325 Si02
#       7
#     2   2   2   2   2   2   2
#     4  11  24  46  79 109 147 201 251 311 370 451
#     4  12  30  48  73 113 153 194 251 319 380 456
#     4  11  27  47  79 111 145 204 250 309 386 445
#     4  11  28  46  76 107 152 201 253 309 375 450
#     4  12  30  49  76 111 152 199 256 313 381 458
#     4  10  24  44  74 109 140 200 250 302 376 444
#     4  11  25  47  77 106 153 191 250 315 375 451
#
# _framework density 25.233622
#
# number of rings (size 3 to 8) (size 9 to 14) (size 15 to 20)
#    0.000    0.857    1.429    2.571   18.000    2.286 
#    0.000    0.000    0.000    0.000    0.000    0.000 
#    0.000    0.000    0.000    0.000    0.000    0.000 
#
# Total GULP energy -173534.462788 kJ/mol
# GULP energy per Si atom -12395.318771 kJ/mol
# Density = 2.517619 g / cm^3
# Si number density = 25.233622 Si / 1000 Ang^3
#
#
#
# Elastic Constant Matrix: (Units=GPa)
#
#
# Indices 1 2 3 4 5 6 
#
# 1 103.7326 45.7316 23.0616 3.9934 -25.3234 2.1771
# 2 45.7316 187.1853 51.0232 17.2133 -25.1545 17.3155
# 3 23.0616 51.0232 106.6115 16.8487 6.0149 4.6172
# 4 3.9934 17.2133 16.8487 49.7715 2.3356 -9.4865
# 5 -25.3234 -25.1545 6.0149 2.3356 46.0379 2.8740
# 6 2.1771 17.3155 4.6172 -9.4865 2.8740 46.1077
#
#
#
# Elastic Compliance Matrix: (Units=1/GPa)
#
#
# Indices 1 2 3 4 5 6 
#
# 1 0.012360 -0.001538 -0.002281 -0.000014 0.006267 -0.000171
# 2 -0.001538 0.007586 -0.003027 -0.002272 0.004008 -0.003190
# 3 -0.002281 -0.003027 0.011999 -0.002674 -0.004326 -0.000238
# 4 -0.000014 -0.002272 -0.002674 0.023045 -0.002444 0.006015
# 5 0.006267 0.004008 -0.004326 -0.002444 0.028275 -0.003633
# 6 -0.000171 -0.003190 -0.000238 0.006015 -0.003633 0.024382
#
#
# Mechanical properties :
#
#
# Convention : Reuss Voigt Hill
#
# Bulk Modulus (GPa) = 54.78973 70.79582 62.79277
# Shear Modulus (GPa) = 39.23921 46.89763 43.06842
#
# Velocity S-wave (km/s) = 3.94767 4.31575 4.13581
# Velocity P-wave (km/s) = 6.52219 7.27677 6.90979
#
# Compressibility (1/GPa) = 0.01825160
#
# Stress axis : x y z
#
# Youngs Moduli (GPa) = 80.90807 131.82401 83.34110
#
# Poissons Ratio (x) = 0.20281 0.19012
# Poissons Ratio (y) = 0.12447 0.25225
# Poissons Ratio (z) = 0.18457 0.39899
#
# Static dielectric constant tensor:
#      x y z
#    x 4.818850 -0.062440 0.077350 
#    y -0.062440 4.948520 0.733770 
#    z 0.077350 0.733770 4.718100 
# 
# 
# High freq. dielectric constant tensor:
#      x y z
#    x 2.014380 0.000650 -0.000720 
#    y 0.000650 2.022930 0.025600 
#    z -0.000720 0.025600 2.011900 
# 
# From -- ./inp_files/447008.got.cif
#   From: 2010.06.25/outbox.cif.g09.slc.cpg/sg2_224_cif.got.tgz:447008.got - 2010.06.27 13:26:56.
