data_PCOD8027981
_publ_section_title
;
Structure prediction by ZEFSAII (Michael W. Deem and Ramdas Pophale) SiO2 
 PCOD8027981
Probable space group: P -1
;
_chemical_formula_sum "Si O2"
_cell_formula_units_Z 14
_cell_length_a 12.098011
_cell_length_b 9.742575
_cell_length_c 8.352548
_cell_angle_alpha 59.761206
_cell_angle_beta 104.498061
_cell_angle_gamma 63.222822
_cell_volume 596.515075
_symmetry_space_group_name_H-M "P -1"
_symmetry_group_IT_number 2
_symmetry_cell_setting 'triclinic'
loop_
_space_group_symop_operation_xyz
x,y,z
-x,-y,-z
loop_
_atom_site_type_symbol
_atom_site_label
_atom_site_fract_x
_atom_site_fract_y
_atom_site_fract_z
Si Si1 0.862970 0.839807 0.714271
Si Si2 0.414828 0.534085 0.286461
Si Si3 0.984790 0.561923 0.211994
Si Si4 0.900863 0.366449 0.510674
Si Si5 0.510621 0.172213 0.359567
Si Si6 0.356621 0.524629 0.836800
Si Si7 0.121202 0.870860 0.807231
O O1 0.896985 0.664670 0.707302
O O2 0.991874 0.856062 0.755606
O O3 0.689331 0.068164 0.475922
O O4 0.857987 0.765905 0.931390
O O5 0.500000 0.500000 0.500000
O O6 0.426137 0.334118 0.387868
O O7 0.497799 0.514039 0.159134
O O8 0.230415 0.759472 0.074167
O O9 0.077365 0.616599 0.303843
O O10 0.891587 0.544398 0.314407
O O11 0.732917 0.445445 0.374891
O O12 0.040472 0.121139 0.633251
O O13 0.500000 0.000000 0.500000
O O14 0.418559 0.310338 0.082718
O O15 0.231843 0.747615 0.764238
#
# Coordination Sequence:
#
# PCOD8027981 Si02
#       7
#     2   2   2   2   2   2   2
#     4  11  24  44  70  99 135 181 225 273 339 406
#     4  11  28  46  66 101 139 176 230 284 337 406
#     4  10  25  40  67 101 138 165 228 283 332 393
#     4  11  23  43  70  99 134 173 228 281 336 394
#     4  11  25  44  72 100 139 183 222 273 347 403
#     4  11  24  46  68 100 137 182 226 279 337 412
#     4  11  24  43  72  96 131 184 228 272 338 407
#
# _framework density 23.469650999999999
#
# number of rings (size 3 to 8) (size 9 to 14) (size 15 to 20)
#    0.000    1.143    1.429    3.857   14.000    0.571 
#    0.000    1.429    0.000    0.000    0.000    0.000 
#    0.000    0.000    0.000    0.000    0.000    0.000 
#
# Total GULP energy -173504.228122 kJ/mol
# GULP energy per Si atom -12393.159152 kJ/mol
# Density = 2.341623 g / cm^3
# Si number density = 23.469651 Si / 1000 Ang^3
#
#
#
# Elastic Constant Matrix: (Units=GPa)
#
#
# Indices 1 2 3 4 5 6 
#
# 1 93.6332 30.1061 30.8717 -5.4877 10.5590 11.8203
# 2 30.1061 101.3931 56.4176 10.5778 0.1215 24.6494
# 3 30.8717 56.4176 122.6414 3.4404 19.7980 11.0221
# 4 -5.4877 10.5778 3.4404 35.5296 6.8232 1.7414
# 5 10.5590 0.1215 19.7980 6.8232 48.5320 3.4682
# 6 11.8203 24.6494 11.0221 1.7414 3.4682 32.6281
#
#
#
# Elastic Compliance Matrix: (Units=1/GPa)
#
#
# Indices 1 2 3 4 5 6 
#
# 1 0.012823 -0.002956 -0.001383 0.003583 -0.002589 -0.001861
# 2 -0.002956 0.017777 -0.007176 -0.005521 0.005029 -0.010175
# 3 -0.001383 -0.007176 0.012387 0.001598 -0.005116 0.002197
# 4 0.003583 -0.005521 0.001598 0.031259 -0.005905 0.001293
# 5 -0.002589 0.005029 -0.005116 -0.005905 0.024316 -0.003403
# 6 -0.001861 -0.010175 0.002197 0.001293 -0.003403 0.038560
#
#
# Mechanical properties :
#
#
# Convention : Reuss Voigt Hill
#
# Bulk Modulus (GPa) = 50.11076 61.38429 55.74753
# Shear Modulus (GPa) = 29.97509 36.68941 33.33225
#
# Velocity S-wave (km/s) = 3.57765 3.95811 3.77268
# Velocity P-wave (km/s) = 6.20192 6.86297 6.54080
#
# Compressibility (1/GPa) = 0.01995579
#
# Stress axis : x y z
#
# Youngs Moduli (GPa) = 77.98192 56.25286 80.73049
#
# Poissons Ratio (x) = 0.16629 0.11168
# Poissons Ratio (y) = 0.23052 0.57934
# Poissons Ratio (z) = 0.10788 0.40368
#
# Static dielectric constant tensor:
#      x y z
#    x 4.143580 0.206350 0.198910 
#    y 0.206350 4.191290 0.078360 
#    z 0.198910 0.078360 4.689300 
# 
# 
# High freq. dielectric constant tensor:
#      x y z
#    x 1.924170 0.020110 0.005280 
#    y 0.020110 1.918360 0.005640 
#    z 0.005280 0.005640 1.955130 
# 
# From -- ./inp_files/242629.got.cif
#   From: 2010.06.25/outbox.cif.g09.slc.cpg/sg2_122_cif.got.tgz:242629.got - 2010.06.27 13:26:56.
