data_PCOD8027708
_publ_section_title
;
Structure prediction by ZEFSAII (Michael W. Deem and Ramdas Pophale) SiO2 
 PCOD8027708
Probable space group: P -1
;
_chemical_formula_sum "Si O2"
_cell_formula_units_Z 16
_cell_length_a 10.843501
_cell_length_b 9.765347
_cell_length_c 9.751147
_cell_angle_alpha 135.432057
_cell_angle_beta 128.750879
_cell_angle_gamma 52.715180
_cell_volume 540.455519
_symmetry_space_group_name_H-M "P -1"
_symmetry_group_IT_number 2
_symmetry_cell_setting 'triclinic'
loop_
_space_group_symop_operation_xyz
x,y,z
-x,-y,-z
loop_
_atom_site_type_symbol
_atom_site_label
_atom_site_fract_x
_atom_site_fract_y
_atom_site_fract_z
Si Si1 0.734875 0.097768 0.704978
Si Si2 0.880370 0.303510 0.191365
Si Si3 0.817946 0.233512 0.576879
Si Si4 0.533614 0.719918 0.687144
Si Si5 0.138529 0.984185 0.820304
Si Si6 0.114735 0.396120 0.216125
Si Si7 0.375009 0.290503 0.662209
Si Si8 0.483018 0.170440 0.952152
O O1 0.842729 0.127949 0.668187
O O2 0.544147 0.238395 0.654193
O O3 0.727723 0.867715 0.556784
O O4 0.815396 0.169587 0.942339
O O5 0.968240 0.139568 0.255015
O O6 0.733480 0.480869 0.285346
O O7 0.009135 0.411953 0.292929
O O8 0.620932 0.374628 0.519938
O O9 0.871147 0.052385 0.373844
O O10 0.927798 0.388262 0.740580
O O11 0.689317 0.663826 0.650717
O O12 0.432516 0.960121 0.764755
O O13 0.597665 0.697519 0.875157
O O14 0.319423 0.884765 0.938935
O O15 0.077492 0.226363 0.971507
O O16 0.415955 0.293756 0.856034
#
# Coordination Sequence:
#
# PCOD8027708 Si02
#       8
#     2   2   2   2   2   2   2   2
#     4  11  26  44  72 105 138 178 230 287 344 408
#     4  12  27  46  68 102 144 187 221 280 348 422
#     4  11  24  44  73 106 127 182 237 290 335 398
#     4   9  19  38  69 100 135 166 233 286 332 390
#     4  10  24  46  71  99 138 177 232 292 338 394
#     4  11  26  43  70 102 139 186 230 276 347 414
#     4  11  24  45  72 101 141 178 231 280 348 407
#     4   9  17  38  69  98 126 178 222 287 337 386
#
# _framework density 29.604655000000001
#
# number of rings (size 3 to 8) (size 9 to 14) (size 15 to 20)
#    0.000    1.500    2.500    1.875    1.750    5.000 
#    0.000    1.250    0.000    0.000    0.000    0.000 
#    0.000    0.000    0.000    0.000    0.000    0.000 
#
# Total GULP energy -198494.191112 kJ/mol
# GULP energy per Si atom -12405.886944 kJ/mol
# Density = 2.953727 g / cm^3
# Si number density = 29.604655 Si / 1000 Ang^3
#
#
#
# Elastic Constant Matrix: (Units=GPa)
#
#
# Indices 1 2 3 4 5 6 
#
# 1 153.4847 15.5872 45.9340 12.9167 1.2328 27.5161
# 2 15.5872 93.8568 44.6058 19.8046 -1.5981 29.8781
# 3 45.9340 44.6058 106.1971 19.3183 5.8364 9.5737
# 4 12.9167 19.8046 19.3183 38.7087 -9.9901 5.6467
# 5 1.2328 -1.5981 5.8364 -9.9901 48.2645 10.1196
# 6 27.5161 29.8781 9.5737 5.6467 10.1196 46.8612
#
#
#
# Elastic Compliance Matrix: (Units=1/GPa)
#
#
# Indices 1 2 3 4 5 6 
#
# 1 0.008696 0.002793 -0.004294 -0.000889 0.001512 -0.006229
# 2 0.002793 0.018416 -0.007266 -0.004173 0.003082 -0.012060
# 3 -0.004294 -0.007266 0.014781 -0.004028 -0.003897 0.005462
# 4 -0.000889 -0.004173 -0.004028 0.032402 0.007392 -0.001495
# 5 0.001512 0.003082 -0.003897 0.007392 0.024512 -0.008241
# 6 -0.006229 -0.012060 0.005462 -0.001495 -0.008241 0.033530
#
#
# Mechanical properties :
#
#
# Convention : Reuss Voigt Hill
#
# Bulk Modulus (GPa) = 41.05531 62.86586 51.96059
# Shear Modulus (GPa) = 31.64714 43.26099 37.45406
#
# Velocity S-wave (km/s) = 3.27309 3.82683 3.56074
# Velocity P-wave (km/s) = 5.30868 6.38807 5.87322
#
# Compressibility (1/GPa) = 0.02435739
#
# Stress axis : x y z
#
# Youngs Moduli (GPa) = 114.99213 54.29960 67.65609
#
# Poissons Ratio (x) = -0.15165 0.29054
# Poissons Ratio (y) = -0.32116 0.49162
# Poissons Ratio (z) = 0.49382 0.39456
#
# Static dielectric constant tensor:
#      x y z
#    x 6.083370 -0.147140 0.285270 
#    y -0.147140 5.160090 0.202200 
#    z 0.285270 0.202200 5.538530 
# 
# 
# High freq. dielectric constant tensor:
#      x y z
#    x 2.230080 -0.004360 0.013060 
#    y -0.004360 2.210060 0.008450 
#    z 0.013060 0.008450 2.221870 
# 
# From -- ./inp_files/429133.got.cif
#   From: 2010.06.25/outbox.cif.g09.slc.cpg/sg2_215_cif.got.tgz:429133.got - 2010.06.27 13:26:56.
