data_PCOD8027762
_publ_section_title
;
Structure prediction by ZEFSAII (Michael W. Deem and Ramdas Pophale) SiO2 
 PCOD8027762
Probable space group: P -1
;
_chemical_formula_sum "Si O2"
_cell_formula_units_Z 12
_cell_length_a 5.048719
_cell_length_b 15.419393
_cell_length_c 18.856818
_cell_angle_alpha 22.628054
_cell_angle_beta 53.569938
_cell_angle_gamma 55.830053
_cell_volume 453.992109
_symmetry_space_group_name_H-M "P -1"
_symmetry_group_IT_number 2
_symmetry_cell_setting 'triclinic'
loop_
_space_group_symop_operation_xyz
x,y,z
-x,-y,-z
loop_
_atom_site_type_symbol
_atom_site_label
_atom_site_fract_x
_atom_site_fract_y
_atom_site_fract_z
Si Si1 0.296895 0.478653 0.829239
Si Si2 0.739360 0.408835 0.470187
Si Si3 0.450220 0.439578 0.133748
Si Si4 0.613020 0.021449 0.556351
Si Si5 0.118164 0.822105 0.056860
Si Si6 0.297052 0.097365 0.687017
O O1 0.313766 0.424798 0.952941
O O2 0.498650 0.712539 0.625324
O O3 0.515468 0.284064 0.901215
O O4 0.939499 0.501574 0.833522
O O5 0.500000 0.500000 0.500000
O O6 0.560271 0.261283 0.552848
O O7 0.871891 0.619180 0.246915
O O8 0.010868 0.252352 0.582381
O O9 0.531054 0.163347 0.336828
O O10 0.500000 0.500000 0.000000
O O11 0.482773 0.940431 0.716107
O O12 0.000000 0.000000 0.500000
O O13 0.130599 0.939039 0.890320
O O14 0.000000 0.000000 0.000000
#
# Coordination Sequence:
#
# PCOD8027762 Si02
#       6
#     2   2   2   2   2   2
#     4  11  25  45  70 106 148 193 246 312 374 452
#     4  12  28  51  78 112 156 201 262 322 385 455
#     4  11  24  45  72 107 144 192 252 306 378 455
#     4  10  24  46  75 106 151 196 245 311 380 448
#     4  12  28  51  80 115 155 206 262 318 385 465
#     4  12  28  50  78 113 154 205 252 322 390 453
#
# _framework density 26.432179000000001
#
# number of rings (size 3 to 8) (size 9 to 14) (size 15 to 20)
#    0.000    0.667    3.333    2.500    4.667    8.667 
#    0.000    0.000    0.000    0.000    0.000    0.000 
#    0.000    0.000    0.000    0.000    0.000    0.000 
#
# Total GULP energy -148718.226250 kJ/mol
# GULP energy per Si atom -12393.185521 kJ/mol
# Density = 2.637202 g / cm^3
# Si number density = 26.432179 Si / 1000 Ang^3
#
#
#
# Elastic Constant Matrix: (Units=GPa)
#
#
# Indices 1 2 3 4 5 6 
#
# 1 117.2199 23.6525 23.7024 -17.6316 2.2309 -10.0822
# 2 23.6525 195.0078 40.1016 -12.3892 6.4461 -12.0230
# 3 23.7024 40.1016 147.1140 5.1585 -2.0131 -19.9208
# 4 -17.6316 -12.3892 5.1585 53.5493 -2.0159 -2.5309
# 5 2.2309 6.4461 -2.0131 -2.0159 36.3250 -8.3614
# 6 -10.0822 -12.0230 -19.9208 -2.5309 -8.3614 29.9631
#
#
#
# Elastic Compliance Matrix: (Units=1/GPa)
#
#
# Indices 1 2 3 4 5 6 
#
# 1 0.009587 -0.000567 -0.001154 0.003266 0.000220 0.002569
# 2 -0.000567 0.005647 -0.001356 0.001274 -0.000723 0.001079
# 3 -0.001154 -0.001356 0.008075 -0.001175 0.001808 0.004841
# 4 0.003266 0.001274 -0.001175 0.020345 0.001308 0.002913
# 5 0.000220 -0.000723 0.001808 0.001308 0.029996 0.009467
# 6 0.002569 0.001079 0.004841 0.002913 0.009467 0.040778
#
#
# Mechanical properties :
#
#
# Convention : Reuss Voigt Hill
#
# Bulk Modulus (GPa) = 58.29491 70.47274 64.38383
# Shear Modulus (GPa) = 39.58846 48.75984 44.17415
#
# Velocity S-wave (km/s) = 3.87426 4.29967 4.09250
# Velocity P-wave (km/s) = 6.48965 7.16723 6.83684
#
# Compressibility (1/GPa) = 0.01715416
#
# Stress axis : x y z
#
# Youngs Moduli (GPa) = 104.31150 177.08182 123.84570
#
# Poissons Ratio (x) = 0.10039 0.14288
# Poissons Ratio (y) = 0.05914 0.16799
# Poissons Ratio (z) = 0.12035 0.24020
#
# Static dielectric constant tensor:
#      x y z
#    x 4.730360 0.031300 0.045550 
#    y 0.031300 5.418160 -0.153640 
#    z 0.045550 -0.153640 5.620710 
# 
# 
# High freq. dielectric constant tensor:
#      x y z
#    x 2.045770 0.010180 0.008550 
#    y 0.010180 2.089110 -0.001710 
#    z 0.008550 -0.001710 2.087630 
# 
# From -- ./inp_files/133696.got.cif
#   From: 2010.06.25/outbox.cif.g09.slc.cpg/sg2_67_cif.got.tgz:133696.got - 2010.06.27 13:26:56.
