data_PCOD8027031
_publ_section_title
;
Structure prediction by ZEFSAII (Michael W. Deem and Ramdas Pophale) SiO2 
 PCOD8027031
Probable space group: P -1
;
_chemical_formula_sum "Si O2"
_cell_formula_units_Z 16
_cell_length_a 21.466748
_cell_length_b 11.668983
_cell_length_c 9.887205
_cell_angle_alpha 70.324748
_cell_angle_beta 37.725028
_cell_angle_gamma 39.671648
_cell_volume 694.034460
_symmetry_space_group_name_H-M "P -1"
_symmetry_group_IT_number 2
_symmetry_cell_setting 'triclinic'
loop_
_space_group_symop_operation_xyz
x,y,z
-x,-y,-z
loop_
_atom_site_type_symbol
_atom_site_label
_atom_site_fract_x
_atom_site_fract_y
_atom_site_fract_z
Si Si1 0.993396 0.387231 0.146350
Si Si2 0.514153 0.734224 0.282602
Si Si3 0.854937 0.222585 0.993680
Si Si4 0.935990 0.875309 0.087140
Si Si5 0.391155 0.233972 0.148296
Si Si6 0.542276 0.097534 0.403105
Si Si7 0.475190 0.330510 0.178611
Si Si8 0.170012 0.848415 0.383573
O O1 0.819530 0.579898 0.483989
O O2 0.946209 0.324037 0.152048
O O3 0.000000 0.500000 0.000000
O O4 0.211290 0.136252 0.946857
O O5 0.533473 0.795208 0.358715
O O6 0.270748 0.978254 0.560195
O O7 0.629638 0.485657 0.210477
O O8 0.653893 0.644241 0.958637
O O9 0.893744 0.273315 0.032279
O O10 0.051664 0.039624 0.631527
O O11 0.839012 0.099463 0.106990
O O12 0.535210 0.166897 0.026684
O O13 0.500000 0.000000 0.000000
O O14 0.427887 0.304022 0.407975
O O15 0.500000 0.000000 0.500000
O O16 0.271987 0.616817 0.358209
O O17 0.655920 0.239871 0.934587
O O18 0.000000 0.000000 0.500000
#
# Coordination Sequence:
#
# PCOD8027031 Si02
#       8
#     2   2   2   2   2   2   2   2
#     4  11  25  46  77 101 144 197 243 299 371 442
#     4  11  25  43  68 102 147 178 235 297 363 422
#     4  11  24  39  72 100 143 180 242 286 358 428
#     4  10  24  44  65 105 139 190 232 291 355 432
#     4  12  25  48  73 106 147 189 245 314 363 437
#     4  11  26  47  72 107 144 196 247 303 370 451
#     4  11  26  46  75 105 153 193 247 304 377 445
#     4  11  26  45  73 110 148 198 247 308 374 448
#
# _framework density 23.053609000000002
#
# number of rings (size 3 to 8) (size 9 to 14) (size 15 to 20)
#    0.000    1.000    0.000    5.625   14.000    1.000 
#    0.000    1.250    0.000    0.000    0.000    0.000 
#    0.000    0.000    0.000    0.000    0.000    0.000 
#
# Total GULP energy -198348.400986 kJ/mol
# GULP energy per Si atom -12396.775062 kJ/mol
# Density = 2.300114 g / cm^3
# Si number density = 23.053609 Si / 1000 Ang^3
#
#
#
# Elastic Constant Matrix: (Units=GPa)
#
#
# Indices 1 2 3 4 5 6 
#
# 1 138.2864 61.8445 49.0991 -5.3980 14.7139 13.1936
# 2 61.8445 109.5157 47.0276 -12.4665 -7.0984 -13.4337
# 3 49.0991 47.0276 138.3521 -7.1636 20.2687 -3.6767
# 4 -5.3980 -12.4665 -7.1636 44.9022 -1.7827 2.9881
# 5 14.7139 -7.0984 20.2687 -1.7827 38.8520 0.3694
# 6 13.1936 -13.4337 -3.6767 2.9881 0.3694 37.0553
#
#
#
# Elastic Compliance Matrix: (Units=1/GPa)
#
#
# Indices 1 2 3 4 5 6 
#
# 1 0.012387 -0.007807 -0.001165 -0.000599 -0.005468 -0.007254
# 2 -0.007807 0.017073 -0.003853 0.002960 0.008143 0.008267
# 3 -0.001165 -0.003853 0.009741 0.000131 -0.005339 0.000027
# 4 -0.000599 0.002960 0.000131 0.023150 0.001767 -0.000585
# 5 -0.005468 0.008143 -0.005339 0.001767 0.032126 0.003907
# 6 -0.007254 0.008267 0.000027 -0.000585 0.003907 0.032577
#
#
# Mechanical properties :
#
#
# Convention : Reuss Voigt Hill
#
# Bulk Modulus (GPa) = 73.79464 78.01073 75.90268
# Shear Modulus (GPa) = 31.80224 39.37409 35.58817
#
# Velocity S-wave (km/s) = 3.71818 4.13720 3.93327
# Velocity P-wave (km/s) = 7.10723 7.53221 7.32280
#
# Compressibility (1/GPa) = 0.01355112
#
# Stress axis : x y z
#
# Youngs Moduli (GPa) = 80.72976 58.57134 102.66411
#
# Poissons Ratio (x) = 0.45728 0.11959
# Poissons Ratio (y) = 0.63027 0.39554
# Poissons Ratio (z) = 0.09404 0.22566
#
# Static dielectric constant tensor:
#      x y z
#    x 4.253360 -0.018150 0.174050 
#    y -0.018150 4.165710 0.103060 
#    z 0.174050 0.103060 4.306290 
# 
# 
# High freq. dielectric constant tensor:
#      x y z
#    x 1.916710 0.004480 0.003580 
#    y 0.004480 1.921220 0.001430 
#    z 0.003580 0.001430 1.917850 
# 
# From -- ./inp_files/346074.got.cif
#   From: 2010.06.25/outbox.cif.g09.slc.cpg/sg2_174_cif.got.tgz:346074.got - 2010.06.27 13:26:56.
