data_PCOD8027754
_publ_section_title
;
Structure prediction by ZEFSAII (Michael W. Deem and Ramdas Pophale) SiO2 
 PCOD8027754
Probable space group: P -1
;
_chemical_formula_sum "Si O2"
_cell_formula_units_Z 14
_cell_length_a 18.335002
_cell_length_b 8.818601
_cell_length_c 12.821269
_cell_angle_alpha 50.911031
_cell_angle_beta 28.208343
_cell_angle_gamma 37.864159
_cell_volume 586.074170
_symmetry_space_group_name_H-M "P -1"
_symmetry_group_IT_number 2
_symmetry_cell_setting 'triclinic'
loop_
_space_group_symop_operation_xyz
x,y,z
-x,-y,-z
loop_
_atom_site_type_symbol
_atom_site_label
_atom_site_fract_x
_atom_site_fract_y
_atom_site_fract_z
Si Si1 0.203844 0.677139 0.109104
Si Si2 0.513507 0.738767 0.323131
Si Si3 0.187848 0.432116 0.603306
Si Si4 0.435134 0.242779 0.167940
Si Si5 0.482502 0.387311 0.405227
Si Si6 0.043583 0.739512 0.075895
Si Si7 0.117846 0.003299 0.258045
O O1 0.329642 0.407189 0.125677
O O2 0.055934 0.690797 0.207036
O O3 0.074713 0.910293 0.250040
O O4 0.341483 0.717333 0.853406
O O5 0.399750 0.666612 0.427675
O O6 0.436964 0.794834 0.515205
O O7 0.469232 0.984555 0.223246
O O8 0.747937 0.493618 0.137332
O O9 0.302610 0.403630 0.365923
O O10 0.314964 0.387943 0.563270
O O11 0.138864 0.241353 0.748351
O O12 0.971450 0.709005 0.766161
O O13 0.645485 0.184019 0.939346
O O14 0.000000 0.000000 0.000000
O O15 0.000000 0.000000 0.500000
#
# Coordination Sequence:
#
# PCOD8027754 Si02
#       7
#     2   2   2   2   2   2   2
#     4  11  25  48  75 105 153 199 239 309 375 438
#     4  10  25  48  72 108 152 195 249 303 372 444
#     4  12  26  45  77 109 148 195 250 309 365 440
#     4  12  25  48  74 111 148 195 253 302 371 446
#     4  10  24  46  74 108 141 202 242 304 374 431
#     4  11  28  49  70 112 152 193 252 307 369 444
#     4  12  24  47  73 114 151 189 250 306 374 438
#
# _framework density 23.88776
#
# number of rings (size 3 to 8) (size 9 to 14) (size 15 to 20)
#    0.000    0.857    4.286    1.286    8.000    5.143 
#    2.571    0.000    0.000    0.000    0.000    0.000 
#    0.000    0.000    0.000    0.000    0.000    0.000 
#
# Total GULP energy -173600.660328 kJ/mol
# GULP energy per Si atom -12400.047166 kJ/mol
# Density = 2.383339 g / cm^3
# Si number density = 23.887760 Si / 1000 Ang^3
#
#
#
# Elastic Constant Matrix: (Units=GPa)
#
#
# Indices 1 2 3 4 5 6 
#
# 1 172.3148 39.6201 61.4656 -12.4856 -9.5838 21.2597
# 2 39.6201 123.8103 54.4937 -2.6201 3.3060 12.2264
# 3 61.4656 54.4937 119.2018 -8.5146 9.2374 14.7380
# 4 -12.4856 -2.6201 -8.5146 40.0724 6.9075 1.9021
# 5 -9.5838 3.3060 9.2374 6.9075 50.1627 -5.3670
# 6 21.2597 12.2264 14.7380 1.9021 -5.3670 26.0204
#
#
#
# Elastic Compliance Matrix: (Units=1/GPa)
#
#
# Indices 1 2 3 4 5 6 
#
# 1 0.007806 -0.000692 -0.003204 0.001646 0.001466 -0.004056
# 2 -0.000692 0.010303 -0.004112 -0.000283 -0.000226 -0.001973
# 3 -0.003204 -0.004112 0.012778 0.002198 -0.003376 -0.003545
# 4 0.001646 -0.000283 0.002198 0.026918 -0.004348 -0.005322
# 5 0.001466 -0.000226 -0.003376 -0.004348 0.022059 0.005688
# 6 -0.004056 -0.001973 -0.003545 -0.005322 0.005688 0.046243
#
#
# Mechanical properties :
#
#
# Convention : Reuss Voigt Hill
#
# Bulk Modulus (GPa) = 67.23942 80.72063 73.98002
# Shear Modulus (GPa) = 33.99514 40.56762 37.28138
#
# Velocity S-wave (km/s) = 3.77652 4.12547 3.95484
# Velocity P-wave (km/s) = 6.87207 7.52048 7.20357
#
# Compressibility (1/GPa) = 0.01487223
#
# Stress axis : x y z
#
# Youngs Moduli (GPa) = 128.09943 97.05889 78.26054
#
# Poissons Ratio (x) = 0.06715 0.25071
# Poissons Ratio (y) = 0.08862 0.32182
# Poissons Ratio (z) = 0.41037 0.39912
#
# Static dielectric constant tensor:
#      x y z
#    x 4.516880 0.132330 0.077690 
#    y 0.132330 4.514040 0.146490 
#    z 0.077690 0.146490 4.341480 
# 
# 
# High freq. dielectric constant tensor:
#      x y z
#    x 1.947720 0.012960 0.004890 
#    y 0.012960 1.956050 0.003150 
#    z 0.004890 0.003150 1.951820 
# 
# From -- ./inp_files/461851.got.cif
#   From: 2010.06.25/outbox.cif.g09.slc.cpg/sg2_231_cif.got.tgz:461851.got - 2010.06.27 13:26:56.
