data_PCOD8027752
_publ_section_title
;
Structure prediction by ZEFSAII (Michael W. Deem and Ramdas Pophale) SiO2 
 PCOD8027752
Probable space group: P -1
;
_chemical_formula_sum "Si O2"
_cell_formula_units_Z 14
_cell_length_a 11.393951
_cell_length_b 8.428458
_cell_length_c 10.133137
_cell_angle_alpha 33.726563
_cell_angle_beta 95.566902
_cell_angle_gamma 97.398694
_cell_volume 535.716934
_symmetry_space_group_name_H-M "P -1"
_symmetry_group_IT_number 2
_symmetry_cell_setting 'triclinic'
loop_
_space_group_symop_operation_xyz
x,y,z
-x,-y,-z
loop_
_atom_site_type_symbol
_atom_site_label
_atom_site_fract_x
_atom_site_fract_y
_atom_site_fract_z
Si Si1 0.129964 0.873941 0.246611
Si Si2 0.865796 0.755169 0.252801
Si Si3 0.211886 0.196132 0.514829
Si Si4 0.552599 0.764512 0.988959
Si Si5 0.405311 0.661935 0.299697
Si Si6 0.112993 0.328613 0.156186
Si Si7 0.660519 0.316678 0.167112
O O1 0.189014 0.580942 0.501433
O O2 0.005895 0.755943 0.247899
O O3 0.112064 0.056656 0.249057
O O4 0.190866 0.082405 0.990754
O O5 0.839040 0.931576 0.262918
O O6 0.286140 0.487266 0.363144
O O7 0.105321 0.243754 0.369368
O O8 0.293169 0.990108 0.584686
O O9 0.468937 0.765544 0.102694
O O10 0.639100 0.507520 0.163424
O O11 0.467692 0.755150 0.860435
O O12 0.630775 0.073008 0.794457
O O13 0.500000 0.500000 0.500000
O O14 0.239114 0.514102 0.028025
O O15 0.000000 0.500000 0.000000
#
# Coordination Sequence:
#
# PCOD8027752 Si02
#       7
#     2   2   2   2   2   2   2
#     4  10  25  48  71 107 148 208 262 323 383 457
#     4  10  25  46  77 104 150 200 270 319 384 468
#     4  12  27  45  76 112 151 203 260 323 396 467
#     4  10  24  46  74 107 150 192 254 318 397 466
#     4  11  23  45  74 109 143 195 250 323 389 467
#     4  12  29  47  73 109 159 206 258 317 398 468
#     4  11  25  46  72 107 150 199 252 322 388 474
#
# _framework density 26.133203000000002
#
# number of rings (size 3 to 8) (size 9 to 14) (size 15 to 20)
#    0.000    1.143    2.857    0.857   12.000    4.000 
#    0.000    0.000    0.000    0.000    0.000    0.000 
#    0.000    0.000    0.000    0.000    0.000    0.000 
#
# Total GULP energy -173450.479524 kJ/mol
# GULP energy per Si atom -12389.319966 kJ/mol
# Density = 2.607372 g / cm^3
# Si number density = 26.133203 Si / 1000 Ang^3
#
#
#
# Elastic Constant Matrix: (Units=GPa)
#
#
# Indices 1 2 3 4 5 6 
#
# 1 61.9280 45.6596 35.7846 -9.0610 16.4465 -6.3093
# 2 45.6596 176.0509 80.6752 -17.2222 16.1740 -14.4569
# 3 35.7846 80.6752 148.4129 -12.5455 13.2008 -1.2440
# 4 -9.0610 -17.2222 -12.5455 54.7985 -4.8704 7.4173
# 5 16.4465 16.1740 13.2008 -4.8704 45.1808 -4.5185
# 6 -6.3093 -14.4569 -1.2440 7.4173 -4.5185 46.4753
#
#
#
# Elastic Compliance Matrix: (Units=1/GPa)
#
#
# Indices 1 2 3 4 5 6 
#
# 1 0.022328 -0.003834 -0.002677 0.001227 -0.005740 0.001013
# 2 -0.003834 0.008619 -0.003634 0.000959 -0.000337 0.001877
# 3 -0.002677 -0.003634 0.009457 0.000722 -0.000551 -0.001409
# 4 0.001227 0.000959 0.000722 0.019333 0.000831 -0.002521
# 5 -0.005740 -0.000337 -0.000551 0.000831 0.024731 0.001373
# 6 0.001013 0.001877 -0.001409 -0.002521 0.001373 0.022736
#
#
# Mechanical properties :
#
#
# Convention : Reuss Voigt Hill
#
# Bulk Modulus (GPa) = 49.71467 78.95897 64.33682
# Shear Modulus (GPa) = 37.25822 44.24242 40.75032
#
# Velocity S-wave (km/s) = 3.77995 4.11902 3.95312
# Velocity P-wave (km/s) = 6.17378 7.27334 6.74600
#
# Compressibility (1/GPa) = 0.02011479
#
# Stress axis : x y z
#
# Youngs Moduli (GPa) = 44.78620 116.02845 105.74223
#
# Poissons Ratio (x) = 0.44481 0.28308
# Poissons Ratio (y) = 0.17170 0.38425
# Poissons Ratio (z) = 0.11989 0.42163
#
# Static dielectric constant tensor:
#      x y z
#    x 4.839460 -0.202280 -0.202240 
#    y -0.202280 5.004490 -0.370700 
#    z -0.202240 -0.370700 5.037900 
# 
# 
# High freq. dielectric constant tensor:
#      x y z
#    x 2.053640 0.001170 0.001060 
#    y 0.001170 2.060670 -0.019660 
#    z 0.001060 -0.019660 2.041510 
# 
# From -- ./inp_files/418735.got.cif
#   From: 2010.06.25/outbox.cif.g09.slc.cpg/sg2_210_cif.got.tgz:418735.got - 2010.06.27 13:26:56.
