data_PCOD8027353
_publ_section_title
;
Structure prediction by ZEFSAII (Michael W. Deem and Ramdas Pophale) SiO2 
 PCOD8027353
Probable space group: P -1
;
_chemical_formula_sum "Si O2"
_cell_formula_units_Z 14
_cell_length_a 9.100110
_cell_length_b 22.145665
_cell_length_c 18.296268
_cell_angle_alpha 161.911415
_cell_angle_beta 135.643760
_cell_angle_gamma 35.286937
_cell_volume 622.019725
_symmetry_space_group_name_H-M "P -1"
_symmetry_group_IT_number 2
_symmetry_cell_setting 'triclinic'
loop_
_space_group_symop_operation_xyz
x,y,z
-x,-y,-z
loop_
_atom_site_type_symbol
_atom_site_label
_atom_site_fract_x
_atom_site_fract_y
_atom_site_fract_z
Si Si1 0.960883 0.414673 0.106511
Si Si2 0.137832 0.070005 0.958214
Si Si3 0.490870 0.304750 0.229509
Si Si4 0.752391 0.618373 0.409612
Si Si5 0.221972 0.874227 0.604294
Si Si6 0.097368 0.513235 0.127596
Si Si7 0.311518 0.901852 0.086372
O O1 0.711399 0.573609 0.258135
O O2 0.195056 0.406456 0.219434
O O3 0.895349 0.542670 0.151450
O O4 0.048774 0.141511 0.810347
O O5 0.903212 0.063030 0.894910
O O6 0.376696 0.940078 0.953635
O O7 0.255150 0.905411 0.737048
O O8 0.024190 0.353330 0.231081
O O9 0.500000 0.500000 0.500000
O O10 0.663844 0.237657 0.139780
O O11 0.510617 0.685015 0.450534
O O12 0.783356 0.830976 0.666996
O O13 0.070192 0.760080 0.408076
O O14 0.398932 0.256457 0.952749
O O15 0.000000 0.500000 0.000000
#
# Coordination Sequence:
#
# PCOD8027353 Si02
#       7
#     2   2   2   2   2   2   2
#     4  10  24  45  62  94 136 169 209 271 316 368
#     4  11  24  39  68  94 128 178 215 251 317 382
#     4  11  22  39  65  96 132 177 217 256 310 377
#     4  11  22  41  67  89 131 173 207 261 320 372
#     4  11  22  44  65  93 133 166 209 270 314 377
#     4  11  23  43  73  95 122 169 215 265 330 388
#     4  11  22  44  62  91 136 167 208 275 319 366
#
# _framework density 22.507325999999999
#
# number of rings (size 3 to 8) (size 9 to 14) (size 15 to 20)
#    0.000    1.143    4.286    3.857    0.000    3.429 
#    0.000    3.571    0.000    0.000    0.000    0.000 
#    0.000    0.000    0.000    0.000    0.000    0.000 
#
# Total GULP energy -173590.108570 kJ/mol
# GULP energy per Si atom -12399.293469 kJ/mol
# Density = 2.245610 g / cm^3
# Si number density = 22.507326 Si / 1000 Ang^3
#
#
#
# Elastic Constant Matrix: (Units=GPa)
#
#
# Indices 1 2 3 4 5 6 
#
# 1 139.1981 41.2027 44.6834 -3.3687 -22.2767 38.4789
# 2 41.2027 98.3004 56.2443 -12.9353 -4.3811 35.8367
# 3 44.6834 56.2443 143.5923 0.7212 1.7261 14.8470
# 4 -3.3687 -12.9353 0.7212 16.8582 7.3640 -3.2839
# 5 -22.2767 -4.3811 1.7261 7.3640 50.3136 -1.6011
# 6 38.4789 35.8367 14.8470 -3.2839 -1.6011 30.6262
#
#
#
# Elastic Compliance Matrix: (Units=1/GPa)
#
#
# Indices 1 2 3 4 5 6 
#
# 1 0.013555 0.003640 -0.003722 -0.000681 0.005933 -0.019249
# 2 0.003640 0.026299 -0.008464 0.015050 0.001048 -0.029575
# 3 -0.003722 -0.008464 0.010574 -0.005232 -0.001702 0.008804
# 4 -0.000681 0.015050 -0.005232 0.073930 -0.009848 -0.006806
# 5 0.005933 0.001048 -0.001702 -0.009848 0.023850 -0.007665
# 6 -0.019249 -0.029575 0.008804 -0.006806 -0.007665 0.086044
#
#
# Mechanical properties :
#
#
# Convention : Reuss Voigt Hill
#
# Bulk Modulus (GPa) = 29.99683 73.92796 51.96239
# Shear Modulus (GPa) = 19.05084 35.49031 27.27057
#
# Velocity S-wave (km/s) = 2.91250 3.97524 3.48463
# Velocity P-wave (km/s) = 4.96656 7.34762 6.27114
#
# Compressibility (1/GPa) = 0.03333685
#
# Stress axis : x y z
#
# Youngs Moduli (GPa) = 73.77204 38.02406 94.57134
#
# Poissons Ratio (x) = -0.13840 0.35195
# Poissons Ratio (y) = -0.26852 0.80046
# Poissons Ratio (z) = 0.27454 0.32184
#
# Static dielectric constant tensor:
#      x y z
#    x 4.658940 0.383260 -0.124640 
#    y 0.383260 3.686120 0.208900 
#    z -0.124640 0.208900 4.323590 
# 
# 
# High freq. dielectric constant tensor:
#      x y z
#    x 1.915380 0.028240 -0.002570 
#    y 0.028240 1.840340 0.008810 
#    z -0.002570 0.008810 1.903060 
# 
# From -- ./inp_files/562799.got.cif
#   From: 2010.06.25/outbox.cif.g09.slc.cpg/sg2_282_cif.got.tgz:562799.got - 2010.06.27 13:26:56.
