data_PCOD8027267
_publ_section_title
;
Structure prediction by ZEFSAII (Michael W. Deem and Ramdas Pophale) SiO2 
 PCOD8027267
Probable space group: P -1
;
_chemical_formula_sum "Si O2"
_cell_formula_units_Z 14
_cell_length_a 8.474926
_cell_length_b 8.679342
_cell_length_c 14.708861
_cell_angle_alpha 129.679326
_cell_angle_beta 67.551111
_cell_angle_gamma 133.109184
_cell_volume 605.043856
_symmetry_space_group_name_H-M "P -1"
_symmetry_group_IT_number 2
_symmetry_cell_setting 'triclinic'
loop_
_space_group_symop_operation_xyz
x,y,z
-x,-y,-z
loop_
_atom_site_type_symbol
_atom_site_label
_atom_site_fract_x
_atom_site_fract_y
_atom_site_fract_z
Si Si1 0.922045 0.693408 0.073360
Si Si2 0.217916 0.602644 0.439553
Si Si3 0.964035 0.807345 0.314246
Si Si4 0.474663 0.174446 0.008419
Si Si5 0.856963 0.772695 0.824640
Si Si6 0.307672 0.057765 0.482268
Si Si7 0.105685 0.678689 0.854721
O O1 0.011126 0.806181 0.197134
O O2 0.685253 0.427796 0.015141
O O3 0.942237 0.923512 0.105215
O O4 0.076246 0.654145 0.964366
O O5 0.170302 0.352668 0.313344
O O6 0.431155 0.730779 0.505259
O O7 0.000000 0.500000 0.500000
O O8 0.261543 0.799689 0.427542
O O9 0.790312 0.856668 0.389875
O O10 0.862376 0.522932 0.264970
O O11 0.191270 0.014364 0.394553
O O12 0.367178 0.276127 0.126814
O O13 0.500000 0.000000 0.000000
O O14 0.311941 0.966737 0.888993
O O15 0.895660 0.630833 0.838913
#
# Coordination Sequence:
#
# PCOD8027267 Si02
#       7
#     2   2   2   2   2   2   2
#     4  11  23  42  69  97 135 177 224 271 339 411
#     4  11  23  46  68 101 132 179 234 281 339 406
#     4  11  21  44  70 101 137 182 223 283 342 398
#     4  11  23  40  66  99 131 176 224 273 340 402
#     4  11  25  43  67  96 141 176 221 287 336 402
#     4  10  24  44  71  96 138 179 228 287 340 392
#     4  11  24  43  64 101 143 173 221 280 334 413
#
# _framework density 23.138818000000001
#
# number of rings (size 3 to 8) (size 9 to 14) (size 15 to 20)
#    0.000    1.143    2.857    3.857    2.000    3.429 
#    2.571    9.286    0.000    0.000    0.000    0.000 
#    0.000    0.000    0.000    0.000    0.000    0.000 
#
# Total GULP energy -173460.594415 kJ/mol
# GULP energy per Si atom -12390.042458 kJ/mol
# Density = 2.308615 g / cm^3
# Si number density = 23.138818 Si / 1000 Ang^3
#
#
#
# Elastic Constant Matrix: (Units=GPa)
#
#
# Indices 1 2 3 4 5 6 
#
# 1 104.9140 20.8480 19.6225 4.7740 -6.5876 17.2032
# 2 20.8480 103.0945 18.5985 20.9162 -1.5914 30.3616
# 3 19.6225 18.5985 102.1243 23.0300 -6.3900 11.4836
# 4 4.7740 20.9162 23.0300 31.1428 -12.8429 5.1511
# 5 -6.5876 -1.5914 -6.3900 -12.8429 40.7451 10.8170
# 6 17.2032 30.3616 11.4836 5.1511 10.8170 37.0823
#
#
#
# Elastic Compliance Matrix: (Units=1/GPa)
#
#
# Indices 1 2 3 4 5 6 
#
# 1 0.011004 -0.000794 -0.001704 0.002516 0.003695 -0.005354
# 2 -0.000794 0.014597 0.000565 -0.007902 0.000943 -0.010935
# 3 -0.001704 0.000565 0.012258 -0.009132 -0.000678 -0.002002
# 4 0.002516 -0.007902 -0.009132 0.050792 0.015598 -0.003475
# 5 0.003695 0.000943 -0.000678 0.015598 0.033783 -0.014298
# 6 -0.005354 -0.010935 -0.002002 -0.003475 -0.014298 0.043677
#
#
# Mechanical properties :
#
#
# Convention : Reuss Voigt Hill
#
# Bulk Modulus (GPa) = 29.41845 47.58565 38.50205
# Shear Modulus (GPa) = 27.57733 38.53162 33.05447
#
# Velocity S-wave (km/s) = 3.45602 4.08516 3.78369
# Velocity P-wave (km/s) = 5.35415 6.54685 5.98031
#
# Compressibility (1/GPa) = 0.03399227
#
# Stress axis : x y z
#
# Youngs Moduli (GPa) = 90.87899 68.50878 81.57612
#
# Poissons Ratio (x) = 0.05443 0.13898
# Poissons Ratio (y) = 0.07220 -0.04608
# Poissons Ratio (z) = 0.15483 -0.03870
#
# Static dielectric constant tensor:
#      x y z
#    x 4.588020 0.156170 0.010150 
#    y 0.156170 4.299470 0.497970 
#    z 0.010150 0.497970 4.416300 
# 
# 
# High freq. dielectric constant tensor:
#      x y z
#    x 1.925290 -0.007810 -0.009030 
#    y -0.007810 1.900300 0.031160 
#    z -0.009030 0.031160 1.921490 
# 
# From -- ./inp_files/493839.got.cif
#   From: 2010.06.25/outbox.cif.g09.slc.cpg/sg2_247_cif.got.tgz:493839.got - 2010.06.27 13:26:56.
