data_PCOD8027394
_publ_section_title
;
Structure prediction by ZEFSAII (Michael W. Deem and Ramdas Pophale) SiO2 
 PCOD8027394
Probable space group: P -1
;
_chemical_formula_sum "Si O2"
_cell_formula_units_Z 14
_cell_length_a 13.796350
_cell_length_b 13.148430
_cell_length_c 12.907628
_cell_angle_alpha 132.521131
_cell_angle_beta 50.529848
_cell_angle_gamma 158.401406
_cell_volume 635.009926
_symmetry_space_group_name_H-M "P -1"
_symmetry_group_IT_number 2
_symmetry_cell_setting 'triclinic'
loop_
_space_group_symop_operation_xyz
x,y,z
-x,-y,-z
loop_
_atom_site_type_symbol
_atom_site_label
_atom_site_fract_x
_atom_site_fract_y
_atom_site_fract_z
Si Si1 0.021914 0.533640 0.292498
Si Si2 0.991991 0.629972 0.161560
Si Si3 0.992006 0.759042 0.603548
Si Si4 0.476194 0.241675 0.160377
Si Si5 0.207733 0.094586 0.877910
Si Si6 0.545135 0.612109 0.291091
Si Si7 0.530014 0.868675 0.137925
O O1 0.071653 0.677228 0.257606
O O2 0.027638 0.635880 0.459944
O O3 0.252320 0.642836 0.222008
O O4 0.740194 0.190499 0.237781
O O5 0.700386 0.412319 0.205832
O O6 0.191502 0.935561 0.190289
O O7 0.000000 0.500000 0.000000
O O8 0.699410 0.524811 0.616136
O O9 0.052572 0.826623 0.732534
O O10 0.197933 0.060799 0.612722
O O11 0.498331 0.424926 0.252051
O O12 0.514261 0.191476 0.995285
O O13 0.408711 0.368223 0.851136
O O14 0.372580 0.182115 0.916823
O O15 0.000000 0.000000 0.000000
#
# Coordination Sequence:
#
# PCOD8027394 Si02
#       7
#     2   2   2   2   2   2   2
#     4  12  26  44  66  96 139 172 221 266 329 389
#     4  12  23  43  64  99 132 174 215 274 324 383
#     4  10  24  46  65  93 141 173 211 272 323 390
#     4  12  23  41  70 100 129 166 227 273 324 379
#     4  10  26  43  71  98 132 172 217 270 331 382
#     4  10  24  45  67  95 135 168 219 272 319 389
#     4  12  25  39  70 101 130 176 217 268 330 390
#
# _framework density 22.046900000000001
#
# number of rings (size 3 to 8) (size 9 to 14) (size 15 to 20)
#    0.857    0.000    2.857    3.857    6.000    2.286 
#    0.000    4.286    0.000    0.000    0.000    0.000 
#    0.000    0.000    0.000    0.000    0.000    0.000 
#
# Total GULP energy -173628.218834 kJ/mol
# GULP energy per Si atom -12402.015631 kJ/mol
# Density = 2.199672 g / cm^3
# Si number density = 22.046900 Si / 1000 Ang^3
#
#
#
# Elastic Constant Matrix: (Units=GPa)
#
#
# Indices 1 2 3 4 5 6 
#
# 1 98.0962 12.6917 15.4224 -11.2815 -10.2509 14.2289
# 2 12.6917 98.8395 14.4586 -3.4750 -11.1371 21.1081
# 3 15.4224 14.4586 91.9074 -3.1483 -0.9394 20.5290
# 4 -11.2815 -3.4750 -3.1483 23.2955 -3.3687 -8.9588
# 5 -10.2509 -11.1371 -0.9394 -3.3687 18.2142 1.5542
# 6 14.2289 21.1081 20.5290 -8.9588 1.5542 30.5426
#
#
#
# Elastic Compliance Matrix: (Units=1/GPa)
#
#
# Indices 1 2 3 4 5 6 
#
# 1 0.012457 0.000674 -0.000918 0.005561 0.008786 -0.004468
# 2 0.000674 0.013197 0.000147 -0.000216 0.009276 -0.010069
# 3 -0.000918 0.000147 0.012962 -0.002048 0.000633 -0.009020
# 4 0.005561 -0.000216 -0.002048 0.052215 0.011383 0.013671
# 5 0.008786 0.009276 0.000633 0.011383 0.068602 -0.011081
# 6 -0.004468 -0.010069 -0.009020 0.013671 -0.011081 0.052418
#
#
# Mechanical properties :
#
#
# Convention : Reuss Voigt Hill
#
# Bulk Modulus (GPa) = 26.02566 41.55428 33.78997
# Shear Modulus (GPa) = 22.23689 30.82849 26.53269
#
# Velocity S-wave (km/s) = 3.17932 3.74346 3.47286
# Velocity P-wave (km/s) = 5.03068 6.12974 5.60720
#
# Compressibility (1/GPa) = 0.03842361
#
# Stress axis : x y z
#
# Youngs Moduli (GPa) = 80.27665 75.77348 77.14622
#
# Poissons Ratio (x) = -0.05110 0.07083
# Poissons Ratio (y) = -0.05414 -0.01136
# Poissons Ratio (z) = 0.07370 -0.01115
#
# Static dielectric constant tensor:
#      x y z
#    x 3.937850 0.037780 0.063890 
#    y 0.037780 4.142090 -0.024320 
#    z 0.063890 -0.024320 3.770350 
# 
# 
# High freq. dielectric constant tensor:
#      x y z
#    x 1.861720 0.005150 -0.008510 
#    y 0.005150 1.885140 0.002000 
#    z -0.008510 0.002000 1.855260 
# 
# From -- ./inp_files/411303.got.cif
#   From: 2010.06.25/outbox.cif.g09.slc.cpg/sg2_206_cif.got.tgz:411303.got - 2010.06.27 13:26:56.
