data_PCOD8027606
_publ_section_title
;
Structure prediction by ZEFSAII (Michael W. Deem and Ramdas Pophale) SiO2 
 PCOD8027606
Probable space group: P -1
;
_chemical_formula_sum "Si O2"
_cell_formula_units_Z 16
_cell_length_a 20.159270
_cell_length_b 11.777113
_cell_length_c 9.406179
_cell_angle_alpha 109.268751
_cell_angle_beta 40.946016
_cell_angle_gamma 140.213780
_cell_volume 751.239524
_symmetry_space_group_name_H-M "P -1"
_symmetry_group_IT_number 2
_symmetry_cell_setting 'triclinic'
loop_
_space_group_symop_operation_xyz
x,y,z
-x,-y,-z
loop_
_atom_site_type_symbol
_atom_site_label
_atom_site_fract_x
_atom_site_fract_y
_atom_site_fract_z
Si Si1 0.416488 0.041630 0.695848
Si Si2 0.480290 0.301875 0.482814
Si Si3 0.416942 0.074313 0.240736
Si Si4 0.915558 0.011915 0.951567
Si Si5 0.627188 0.223100 0.698479
Si Si6 0.016018 0.718099 0.258247
Si Si7 0.040006 0.683381 0.523859
Si Si8 0.892492 0.737667 0.971861
O O1 0.512605 0.228958 0.512189
O O2 0.475986 0.129923 0.798339
O O3 0.500000 0.000000 0.500000
O O4 0.192689 0.821504 0.953103
O O5 0.678878 0.566212 0.272416
O O6 0.435660 0.213152 0.358504
O O7 0.309849 0.213361 0.774692
O O8 0.397133 0.945106 0.330668
O O9 0.243593 0.905839 0.347037
O O10 0.598313 0.241566 0.914679
O O11 0.988820 0.152626 0.749232
O O12 0.997118 0.165321 0.018732
O O13 0.981507 0.937958 0.819425
O O14 0.831595 0.460599 0.409491
O O15 0.029567 0.740699 0.414921
O O16 0.000000 0.500000 0.500000
O O17 0.899986 0.616400 0.828094
#
# Coordination Sequence:
#
# PCOD8027606 Si02
#       8
#     2   2   2   2   2   2   2   2
#     4  11  23  35  56  89 129 162 199 254 314 377
#     4  11  22  40  64  94 124 164 210 260 315 370
#     4  11  22  38  60  91 130 163 210 254 309 380
#     4  10  24  46  64  96 123 166 220 261 307 372
#     4  11  22  38  58  87 129 170 202 252 312 379
#     4  11  24  41  62  89 130 164 211 262 310 371
#     4  12  24  41  65  97 128 168 210 257 320 380
#     4  11  24  43  72  89 125 170 213 262 314 374
#
# _framework density 21.298137000000001
#
# number of rings (size 3 to 8) (size 9 to 14) (size 15 to 20)
#    0.000    1.000    5.000    1.875    3.500    1.000 
#    0.000    0.000    0.000    1.500    0.000    0.000 
#    0.000    0.000    0.000    0.000    0.000    0.000 
#
# Total GULP energy -198360.060076 kJ/mol
# GULP energy per Si atom -12397.503755 kJ/mol
# Density = 2.124966 g / cm^3
# Si number density = 21.298137 Si / 1000 Ang^3
#
#
#
# Elastic Constant Matrix: (Units=GPa)
#
#
# Indices 1 2 3 4 5 6 
#
# 1 134.8942 43.2379 23.4141 -8.3663 19.1828 -3.2606
# 2 43.2379 63.4631 28.7888 -3.5822 2.9378 -11.6682
# 3 23.4141 28.7888 75.3790 -20.1048 6.0880 -6.8996
# 4 -8.3663 -3.5822 -20.1048 34.8786 5.0711 -3.6185
# 5 19.1828 2.9378 6.0880 5.0711 30.7673 -7.3912
# 6 -3.2606 -11.6682 -6.8996 -3.6185 -7.3912 28.7635
#
#
#
# Elastic Compliance Matrix: (Units=1/GPa)
#
#
# Indices 1 2 3 4 5 6 
#
# 1 0.011005 -0.007916 0.000701 0.002979 -0.007542 -0.003359
# 2 -0.007916 0.026009 -0.008309 -0.004097 0.006915 0.008922
# 3 0.000701 -0.008309 0.019907 0.011704 -0.005118 0.001641
# 4 0.002979 -0.004097 0.011704 0.037424 -0.009020 0.003873
# 5 -0.007542 0.006915 -0.005118 -0.009020 0.041507 0.010254
# 6 -0.003359 0.008922 0.001641 0.003873 0.010254 0.041520
#
#
# Mechanical properties :
#
#
# Convention : Reuss Voigt Hill
#
# Bulk Modulus (GPa) = 38.65016 51.62421 45.13718
# Shear Modulus (GPa) = 23.03675 30.76825 26.90250
#
# Velocity S-wave (km/s) = 3.29239 3.80497 3.55792
# Velocity P-wave (km/s) = 5.71311 6.60267 6.17393
#
# Compressibility (1/GPa) = 0.02587312
#
# Stress axis : x y z
#
# Youngs Moduli (GPa) = 90.86775 38.44870 50.23341
#
# Poissons Ratio (x) = 0.30437 -0.03523
# Poissons Ratio (y) = 0.71932 0.41739
# Poissons Ratio (z) = -0.06372 0.31947
#
# Static dielectric constant tensor:
#      x y z
#    x 4.776530 -0.173150 0.094590 
#    y -0.173150 3.749350 -0.154690 
#    z 0.094590 -0.154690 3.845140 
# 
# 
# High freq. dielectric constant tensor:
#      x y z
#    x 1.856120 0.010000 -0.001010 
#    y 0.010000 1.814600 -0.015050 
#    z -0.001010 -0.015050 1.830880 
# 
# From -- ./inp_files/346192.got.cif
#   From: 2010.06.25/outbox.cif.g09.slc.cpg/sg2_174_cif.got.tgz:346192.got - 2010.06.27 13:26:56.
