data_PCOD8027289
_publ_section_title
;
Structure prediction by ZEFSAII (Michael W. Deem and Ramdas Pophale) SiO2 
 PCOD8027289
Probable space group: P -1
;
_chemical_formula_sum "Si O2"
_cell_formula_units_Z 14
_cell_length_a 19.954650
_cell_length_b 15.469623
_cell_length_c 11.275486
_cell_angle_alpha 138.202699
_cell_angle_beta 21.821677
_cell_angle_gamma 150.827237
_cell_volume 588.580169
_symmetry_space_group_name_H-M "P -1"
_symmetry_group_IT_number 2
_symmetry_cell_setting 'triclinic'
loop_
_space_group_symop_operation_xyz
x,y,z
-x,-y,-z
loop_
_atom_site_type_symbol
_atom_site_label
_atom_site_fract_x
_atom_site_fract_y
_atom_site_fract_z
Si Si1 0.487930 0.251029 0.267672
Si Si2 0.196805 0.867020 0.891195
Si Si3 0.964859 0.499158 0.279623
Si Si4 0.887334 0.692982 0.439359
Si Si5 0.396240 0.361585 0.757776
Si Si6 0.238151 0.542007 0.197247
Si Si7 0.917410 0.921066 0.820424
O O1 0.463780 0.354097 0.507097
O O2 0.515059 0.309421 0.145192
O O3 0.207605 0.029722 0.501709
O O4 0.748736 0.307913 0.937922
O O5 0.027943 0.648839 0.915559
O O6 0.500000 0.000000 0.500000
O O7 0.150184 0.866578 0.108387
O O8 0.088299 0.933744 0.065920
O O9 0.914844 0.563062 0.314448
O O10 0.724714 0.395405 0.662251
O O11 0.644838 0.565027 0.616135
O O12 0.830083 0.771929 0.712244
O O13 0.169225 0.352711 0.113986
O O14 0.286698 0.190396 0.847819
O O15 0.000000 0.500000 0.500000
#
# Coordination Sequence:
#
# PCOD8027289 Si02
#       7
#     2   2   2   2   2   2   2
#     4  11  26  46  72 103 148 186 238 292 356 419
#     4  12  28  44  74 109 146 180 240 300 355 417
#     4  11  25  49  74 105 141 196 235 290 356 431
#     4  12  26  50  76 102 145 191 239 288 363 420
#     4  12  24  48  75 103 144 192 239 285 359 433
#     4  10  24  44  72 103 138 189 240 283 353 423
#     4  12  28  46  71 111 144 186 238 299 350 421
#
# _framework density 23.786052999999999
#
# number of rings (size 3 to 8) (size 9 to 14) (size 15 to 20)
#    0.000    0.571    2.857    3.857   10.000    0.571 
#    0.000    0.000    0.000    0.000    0.000    0.000 
#    0.000    0.000    0.000    0.000    0.000    0.000 
#
# Total GULP energy -173491.346570 kJ/mol
# GULP energy per Si atom -12392.239041 kJ/mol
# Density = 2.373191 g / cm^3
# Si number density = 23.786053 Si / 1000 Ang^3
#
#
#
# Elastic Constant Matrix: (Units=GPa)
#
#
# Indices 1 2 3 4 5 6 
#
# 1 94.7468 32.0165 52.1404 2.2447 9.9897 -9.1410
# 2 32.0165 85.1825 34.4261 11.3181 -9.9562 -8.9683
# 3 52.1404 34.4261 122.6456 0.0423 18.8023 -6.0139
# 4 2.2447 11.3181 0.0423 44.9504 2.5896 -7.6674
# 5 9.9897 -9.9562 18.8023 2.5896 42.4523 0.9088
# 6 -9.1410 -8.9683 -6.0139 -7.6674 0.9088 46.8633
#
#
#
# Elastic Compliance Matrix: (Units=1/GPa)
#
#
# Indices 1 2 3 4 5 6 
#
# 1 0.014896 -0.003836 -0.004812 0.000653 -0.002350 0.001706
# 2 -0.003836 0.016176 -0.003875 -0.004080 0.006639 0.001054
# 3 -0.004812 -0.003875 0.012100 0.001545 -0.005235 0.000227
# 4 0.000653 -0.004080 0.001545 0.024037 -0.003337 0.003542
# 5 -0.002350 0.006639 -0.005235 -0.003337 0.028208 -0.000953
# 6 0.001706 0.001054 0.000227 0.003542 -0.000953 0.022500
#
#
# Mechanical properties :
#
#
# Convention : Reuss Voigt Hill
#
# Bulk Modulus (GPa) = 55.16650 59.97119 57.56885
# Shear Modulus (GPa) = 33.55612 39.11933 36.33772
#
# Velocity S-wave (km/s) = 3.76007 4.05981 3.91281
# Velocity P-wave (km/s) = 6.48798 6.87339 6.68347
#
# Compressibility (1/GPa) = 0.01812694
#
# Stress axis : x y z
#
# Youngs Moduli (GPa) = 67.13337 61.81970 82.64373
#
# Poissons Ratio (x) = 0.23711 0.39771
# Poissons Ratio (y) = 0.25749 0.32021
# Poissons Ratio (z) = 0.32307 0.23953
#
# Static dielectric constant tensor:
#      x y z
#    x 4.712360 -0.048210 0.497160 
#    y -0.048210 4.099950 0.017470 
#    z 0.497160 0.017470 4.809090 
# 
# 
# High freq. dielectric constant tensor:
#      x y z
#    x 1.953130 -0.010960 0.016460 
#    y -0.010960 1.918550 0.003000 
#    z 0.016460 0.003000 1.966300 
# 
# From -- ./inp_files/471948.got.cif
#   From: 2010.06.25/outbox.cif.g09.slc.cpg/sg2_236_cif.got.tgz:471948.got - 2010.06.27 13:26:56.
