data_PCOD8027871
_publ_section_title
;
Structure prediction by ZEFSAII (Michael W. Deem and Ramdas Pophale) SiO2 
 PCOD8027871
Probable space group: P -1
;
_chemical_formula_sum "Si O2"
_cell_formula_units_Z 16
_cell_length_a 8.833978
_cell_length_b 6.798822
_cell_length_c 14.336965
_cell_angle_alpha 121.467850
_cell_angle_beta 108.658294
_cell_angle_gamma 72.212174
_cell_volume 685.555709
_symmetry_space_group_name_H-M "P -1"
_symmetry_group_IT_number 2
_symmetry_cell_setting 'triclinic'
loop_
_space_group_symop_operation_xyz
x,y,z
-x,-y,-z
loop_
_atom_site_type_symbol
_atom_site_label
_atom_site_fract_x
_atom_site_fract_y
_atom_site_fract_z
Si Si1 0.689864 0.605192 0.835604
Si Si2 0.648773 0.897852 0.337597
Si Si3 0.155120 0.985918 0.962598
Si Si4 0.406573 0.520661 0.888560
Si Si5 0.210818 0.377643 0.543313
Si Si6 0.927438 0.141849 0.399788
Si Si7 0.085374 0.865665 0.200860
Si Si8 0.315703 0.218115 0.321463
O O1 0.521427 0.567186 0.837486
O O2 0.834715 0.406066 0.851054
O O3 0.680988 0.603968 0.720512
O O4 0.719004 0.857143 0.937425
O O5 0.654399 0.723929 0.206558
O O6 0.641840 0.753481 0.396973
O O7 0.808612 0.015692 0.405984
O O8 0.496373 0.100011 0.352127
O O9 0.085684 0.087750 0.875039
O O10 0.248421 0.720609 0.910344
O O11 0.000000 0.000000 0.000000
O O12 0.500000 0.500000 0.000000
O O13 0.182303 0.653423 0.633003
O O14 0.244219 0.355540 0.433470
O O15 0.047259 0.278219 0.516206
O O16 0.044717 0.944720 0.317205
O O17 0.211986 0.019402 0.221062
#
# Coordination Sequence:
#
# PCOD8027871 Si02
#       8
#     2   2   2   2   2   2   2   2
#     4  12  26  47  71  99 147 188 232 294 355 411
#     4  12  25  44  73 103 141 191 237 285 358 420
#     4  12  25  44  73 103 140 183 240 289 351 419
#     4  12  28  48  73 106 147 185 234 291 353 424
#     4  10  24  48  68 105 143 182 239 296 349 417
#     4  10  25  42  74 102 141 181 242 286 357 410
#     4  11  24  45  69 106 140 186 235 293 349 421
#     4  11  25  45  70 102 146 181 237 291 350 420
#
# _framework density 23.338730000000002
#
# number of rings (size 3 to 8) (size 9 to 14) (size 15 to 20)
#    0.000    0.750    2.500    3.750    7.000    5.500 
#    0.000    0.000    0.000    0.000    0.000    0.000 
#    0.000    0.000    0.000    0.000    0.000    0.000 
#
# Total GULP energy -198395.559917 kJ/mol
# GULP energy per Si atom -12399.722495 kJ/mol
# Density = 2.328561 g / cm^3
# Si number density = 23.338730 Si / 1000 Ang^3
#
#
#
# Elastic Constant Matrix: (Units=GPa)
#
#
# Indices 1 2 3 4 5 6 
#
# 1 107.4213 45.6061 19.4339 -2.6456 -15.8179 -6.7018
# 2 45.6061 104.0981 33.6380 -13.4092 -2.0547 -20.7236
# 3 19.4339 33.6380 76.8218 -9.3269 -8.3133 5.9499
# 4 -2.6456 -13.4092 -9.3269 50.2631 -4.5583 1.4198
# 5 -15.8179 -2.0547 -8.3133 -4.5583 13.9337 7.8236
# 6 -6.7018 -20.7236 5.9499 1.4198 7.8236 46.0001
#
#
#
# Elastic Compliance Matrix: (Units=1/GPa)
#
#
# Indices 1 2 3 4 5 6 
#
# 1 0.014897 -0.007772 0.002389 0.001155 0.020463 -0.005156
# 2 -0.007772 0.017608 -0.008291 0.000915 -0.016891 0.010717
# 3 0.002389 -0.008291 0.019282 0.003509 0.019353 -0.009281
# 4 0.001155 0.000915 0.003509 0.022035 0.012227 -0.002633
# 5 0.020463 -0.016891 0.019353 0.012227 0.124124 -0.028620
# 6 -0.005156 0.010717 -0.009281 -0.002633 -0.028620 0.031966
#
#
# Mechanical properties :
#
#
# Convention : Reuss Voigt Hill
#
# Bulk Modulus (GPa) = 40.91811 53.96636 47.44224
# Shear Modulus (GPa) = 18.83904 34.68360 26.76132
#
# Velocity S-wave (km/s) = 2.84421 3.85917 3.38989
# Velocity P-wave (km/s) = 5.32507 6.55980 5.97442
#
# Compressibility (1/GPa) = 0.02443905
#
# Stress axis : x y z
#
# Youngs Moduli (GPa) = 67.12971 56.79086 51.86075
#
# Poissons Ratio (x) = 0.44137 -0.12388
# Poissons Ratio (y) = 0.52172 0.42998
# Poissons Ratio (z) = -0.16035 0.47085
#
# Static dielectric constant tensor:
#      x y z
#    x 4.216460 0.013390 0.138210 
#    y 0.013390 4.357230 0.049280 
#    z 0.138210 0.049280 4.211300 
# 
# 
# High freq. dielectric constant tensor:
#      x y z
#    x 1.925900 -0.008250 0.003600 
#    y -0.008250 1.934630 0.000800 
#    z 0.003600 0.000800 1.918230 
# 
# From -- ./inp_files/297265.got.cif
#   From: 2010.06.25/outbox.cif.g09.slc.cpg/sg2_149_cif.got.tgz:297265.got - 2010.06.27 13:26:56.
