data_PCOD8027493
_publ_section_title
;
Structure prediction by ZEFSAII (Michael W. Deem and Ramdas Pophale) SiO2 
 PCOD8027493
Probable space group: P -1
;
_chemical_formula_sum "Si O2"
_cell_formula_units_Z 16
_cell_length_a 8.525367
_cell_length_b 6.330629
_cell_length_c 13.521432
_cell_angle_alpha 91.313197
_cell_angle_beta 113.034387
_cell_angle_gamma 97.660150
_cell_volume 663.328607
_symmetry_space_group_name_H-M "P -1"
_symmetry_group_IT_number 2
_symmetry_cell_setting 'triclinic'
loop_
_space_group_symop_operation_xyz
x,y,z
-x,-y,-z
loop_
_atom_site_type_symbol
_atom_site_label
_atom_site_fract_x
_atom_site_fract_y
_atom_site_fract_z
Si Si1 0.705501 0.797881 0.713508
Si Si2 0.225699 0.354852 0.482441
Si Si3 0.882567 0.660150 0.028288
Si Si4 0.445488 0.523284 0.164788
Si Si5 0.154724 0.722150 0.594237
Si Si6 0.797470 0.432164 0.190400
Si Si7 0.065506 0.869936 0.905760
Si Si8 0.447826 0.104518 0.665181
O O1 0.751433 0.660991 0.629524
O O2 0.580179 0.643044 0.752638
O O3 0.880941 0.894161 0.813148
O O4 0.602726 0.990386 0.658574
O O5 0.228407 0.602871 0.517739
O O6 0.383738 0.259354 0.569614
O O7 0.039150 0.226504 0.470452
O O8 0.923279 0.596386 0.151022
O O9 0.714820 0.503139 0.948372
O O10 0.036359 0.677559 0.982280
O O11 0.848103 0.907527 0.022882
O O12 0.605176 0.481290 0.137181
O O13 0.481160 0.763634 0.218817
O O14 0.137847 0.553994 0.680605
O O15 0.283162 0.934328 0.655015
O O16 0.806593 0.195593 0.146629
#
# Coordination Sequence:
#
# PCOD8027493 Si02
#       8
#     2   2   2   2   2   2   2   2
#     4  11  24  43  67 100 138 177 220 275 332 390
#     4  11  24  46  69  98 134 179 222 280 331 391
#     4  10  25  45  69 101 134 175 220 273 340 397
#     4  11  26  44  67 102 137 174 222 277 330 400
#     4  11  25  45  69 100 135 174 225 279 331 393
#     4  12  22  44  69  97 134 178 215 280 331 393
#     4  10  24  45  70 101 135 170 226 274 329 406
#     4  12  24  44  67  98 139 176 229 266 333 399
#
# _framework density 24.120775999999999
#
# number of rings (size 3 to 8) (size 9 to 14) (size 15 to 20)
#    0.000    1.000    3.750    1.500    1.750    8.500 
#    4.500    0.000    0.000    0.000    0.000    0.000 
#    0.000    0.000    0.000    0.000    0.000    0.000 
#
# Total GULP energy -198388.881271 kJ/mol
# GULP energy per Si atom -12399.305079 kJ/mol
# Density = 2.406588 g / cm^3
# Si number density = 24.120776 Si / 1000 Ang^3
#
#
#
# Elastic Constant Matrix: (Units=GPa)
#
#
# Indices 1 2 3 4 5 6 
#
# 1 107.6966 30.3975 27.5613 19.8198 -17.3066 -29.8986
# 2 30.3975 58.9241 31.6537 20.4251 6.5390 5.5177
# 3 27.5613 31.6537 103.5081 19.0012 -7.9793 -0.1432
# 4 19.8198 20.4251 19.0012 45.2112 1.7664 3.5654
# 5 -17.3066 6.5390 -7.9793 1.7664 42.4508 0.9237
# 6 -29.8986 5.5177 -0.1432 3.5654 0.9237 35.6778
#
#
#
# Elastic Compliance Matrix: (Units=1/GPa)
#
#
# Indices 1 2 3 4 5 6 
#
# 1 0.020570 -0.011485 -0.000127 -0.005688 0.009947 0.019324
# 2 -0.011485 0.030138 -0.006112 -0.004549 -0.009988 -0.013597
# 3 -0.000127 -0.006112 0.012288 -0.002559 0.003283 0.001059
# 4 -0.005688 -0.004549 -0.002559 0.028404 -0.003132 -0.006831
# 5 0.009947 -0.009988 0.003283 -0.003132 0.029693 0.009438
# 6 0.019324 -0.013597 0.001059 -0.006831 0.009438 0.046768
#
#
# Mechanical properties :
#
#
# Convention : Reuss Voigt Hill
#
# Bulk Modulus (GPa) = 36.30075 49.92819 43.11447
# Shear Modulus (GPa) = 23.53051 36.70239 30.11645
#
# Velocity S-wave (km/s) = 3.12673 3.90501 3.53734
# Velocity P-wave (km/s) = 5.30260 6.40908 5.88192
#
# Compressibility (1/GPa) = 0.02754764
#
# Stress axis : x y z
#
# Youngs Moduli (GPa) = 48.61563 33.18116 81.37764
#
# Poissons Ratio (x) = 0.38108 0.01035
# Poissons Ratio (y) = 0.55834 0.49737
# Poissons Ratio (z) = 0.00619 0.20280
#
# Static dielectric constant tensor:
#      x y z
#    x 4.337700 -0.148390 -0.102230 
#    y -0.148390 4.241200 0.069600 
#    z -0.102230 0.069600 4.310290 
# 
# 
# High freq. dielectric constant tensor:
#      x y z
#    x 1.965370 -0.019000 -0.008280 
#    y -0.019000 1.950880 0.005700 
#    z -0.008280 0.005700 1.962200 
# 
# From -- ./inp_files/488599.got.cif
#   From: 2010.06.25/outbox.cif.g09.slc.cpg/sg2_245_cif.got.tgz:488599.got - 2010.06.27 13:26:56.
