data_PCOD8027423
_publ_section_title
;
Structure prediction by ZEFSAII (Michael W. Deem and Ramdas Pophale) SiO2 
 PCOD8027423
Probable space group: P -1
;
_chemical_formula_sum "Si O2"
_cell_formula_units_Z 14
_cell_length_a 8.888839
_cell_length_b 12.070638
_cell_length_c 8.672577
_cell_angle_alpha 104.073254
_cell_angle_beta 108.436489
_cell_angle_gamma 125.500993
_cell_volume 598.942738
_symmetry_space_group_name_H-M "P -1"
_symmetry_group_IT_number 2
_symmetry_cell_setting 'triclinic'
loop_
_space_group_symop_operation_xyz
x,y,z
-x,-y,-z
loop_
_atom_site_type_symbol
_atom_site_label
_atom_site_fract_x
_atom_site_fract_y
_atom_site_fract_z
Si Si1 0.588560 0.839175 0.564350
Si Si2 0.422511 0.071053 0.093069
Si Si3 0.056141 0.177538 0.277660
Si Si4 0.244403 0.408510 0.900969
Si Si5 0.160145 0.575177 0.727387
Si Si6 0.079613 0.915350 0.468236
Si Si7 0.183890 0.460784 0.240355
O O1 0.551517 0.918544 0.708597
O O2 0.788975 0.854339 0.677440
O O3 0.362526 0.649789 0.407859
O O4 0.661930 0.944529 0.466625
O O5 0.579051 0.257795 0.158435
O O6 0.500000 0.000000 0.000000
O O7 0.160382 0.964016 0.943774
O O8 0.206644 0.358127 0.316429
O O9 0.953838 0.166690 0.407155
O O10 0.168982 0.452869 0.754139
O O11 0.078148 0.216003 0.762871
O O12 0.500000 0.500000 0.000000
O O13 0.209072 0.447901 0.066075
O O14 0.000000 0.500000 0.500000
O O15 0.063950 0.613886 0.836511
O O16 0.000000 0.000000 0.500000
#
# Coordination Sequence:
#
# PCOD8027423 Si02
#       7
#     2   2   2   2   2   2   2
#     4  11  25  44  74 106 151 193 250 311 367 436
#     4  12  26  44  73 105 148 195 250 307 368 443
#     4  11  24  45  75 106 145 194 252 304 372 439
#     4  12  28  46  78 111 148 194 251 310 366 436
#     4  12  27  50  74 107 153 200 247 300 375 445
#     4  10  24  45  68 108 147 185 239 311 366 428
#     4  12  25  48  73 108 147 194 247 302 376 444
#
# _framework density 23.374521000000001
#
# number of rings (size 3 to 8) (size 9 to 14) (size 15 to 20)
#    0.000    0.571    2.857    4.714    8.000    0.000 
#    0.000    1.429    0.000    0.000    0.000    0.000 
#    0.000    0.000    0.000    0.000    0.000    0.000 
#
# Total GULP energy -173541.667627 kJ/mol
# GULP energy per Si atom -12395.833402 kJ/mol
# Density = 2.332132 g / cm^3
# Si number density = 23.374521 Si / 1000 Ang^3
#
#
#
# Elastic Constant Matrix: (Units=GPa)
#
#
# Indices 1 2 3 4 5 6 
#
# 1 85.8531 23.9777 27.1209 -11.6257 -20.6063 7.0019
# 2 23.9777 120.0604 46.8570 -5.9455 -6.9999 19.7122
# 3 27.1209 46.8570 129.3565 2.7737 -24.8358 8.9406
# 4 -11.6257 -5.9455 2.7737 41.2338 4.3442 2.1534
# 5 -20.6063 -6.9999 -24.8358 4.3442 46.0538 -3.5262
# 6 7.0019 19.7122 8.9406 2.1534 -3.5262 43.3295
#
#
#
# Elastic Compliance Matrix: (Units=1/GPa)
#
#
# Indices 1 2 3 4 5 6 
#
# 1 0.014309 -0.001667 -0.001445 0.003421 0.004969 -0.001021
# 2 -0.001667 0.010724 -0.003581 0.001690 -0.001519 -0.004078
# 3 -0.001445 -0.003581 0.010232 -0.002102 0.004543 0.000226
# 4 0.003421 0.001690 -0.002102 0.025931 -0.001971 -0.002337
# 5 0.004969 -0.001519 0.004543 -0.001971 0.026434 0.001200
# 6 -0.001021 -0.004078 0.000226 -0.002337 0.001200 0.025267
#
#
# Mechanical properties :
#
#
# Convention : Reuss Voigt Hill
#
# Bulk Modulus (GPa) = 45.70447 59.02014 52.36230
# Shear Modulus (GPa) = 37.43151 41.94437 39.68794
#
# Velocity S-wave (km/s) = 4.00607 4.24069 4.12505
# Velocity P-wave (km/s) = 6.40263 7.02015 6.71849
#
# Compressibility (1/GPa) = 0.02187970
#
# Stress axis : x y z
#
# Youngs Moduli (GPa) = 69.88602 93.24477 97.72827
#
# Poissons Ratio (x) = 0.15543 0.14121
# Poissons Ratio (y) = 0.11650 0.34999
# Poissons Ratio (z) = 0.10098 0.33393
#
# Static dielectric constant tensor:
#      x y z
#    x 2.699390 -0.511870 0.425940 
#    y -0.511870 4.220900 0.357440 
#    z 0.425940 0.357440 4.002780 
# 
# 
# High freq. dielectric constant tensor:
#      x y z
#    x 1.929390 0.019490 -0.018090 
#    y 0.019490 1.938000 0.011430 
#    z -0.018090 0.011430 1.926250 
# 
# From -- ./inp_files/159721.got.cif
#   From: 2010.06.25/outbox.cif.g09.slc.cpg/sg2_80_cif.got.tgz:159721.got - 2010.06.27 13:26:56.
