data_PCOD8027553
_publ_section_title
;
Structure prediction by ZEFSAII (Michael W. Deem and Ramdas Pophale) SiO2 
 PCOD8027553
Probable space group: P -1
;
_chemical_formula_sum "Si O2"
_cell_formula_units_Z 16
_cell_length_a 14.045330
_cell_length_b 5.602569
_cell_length_c 17.017584
_cell_angle_alpha 88.674150
_cell_angle_beta 33.759754
_cell_angle_gamma 79.039570
_cell_volume 707.889581
_symmetry_space_group_name_H-M "P -1"
_symmetry_group_IT_number 2
_symmetry_cell_setting 'triclinic'
loop_
_space_group_symop_operation_xyz
x,y,z
-x,-y,-z
loop_
_atom_site_type_symbol
_atom_site_label
_atom_site_fract_x
_atom_site_fract_y
_atom_site_fract_z
Si Si1 0.731985 0.228116 0.142840
Si Si2 0.215972 0.978721 0.599438
Si Si3 0.518819 0.301340 0.921432
Si Si4 0.865295 0.479360 0.431615
Si Si5 0.257123 0.194276 0.206816
Si Si6 0.567343 0.637060 0.765100
Si Si7 0.579636 0.617727 0.373318
Si Si8 0.889138 0.828610 0.166688
O O1 0.607348 0.173677 0.159258
O O2 0.600315 0.449426 0.283021
O O3 0.807660 0.977898 0.142939
O O4 0.899286 0.310673 0.992142
O O5 0.150947 0.258807 0.604560
O O6 0.134649 0.991501 0.742814
O O7 0.155021 0.755444 0.603003
O O8 0.434757 0.889946 0.452344
O O9 0.501274 0.407444 0.844386
O O10 0.720284 0.099423 0.793292
O O11 0.500000 0.500000 0.000000
O O12 0.354630 0.192719 0.055076
O O13 0.727343 0.534002 0.596030
O O14 0.059294 0.383972 0.340019
O O15 0.367740 0.246110 0.205183
O O16 0.500000 0.500000 0.500000
O O17 0.775460 0.636376 0.262674
#
# Coordination Sequence:
#
# PCOD8027553 Si02
#       8
#     2   2   2   2   2   2   2   2
#     4  11  25  45  69 110 144 194 247 307 371 446
#     4  12  27  46  75 111 149 196 246 306 369 443
#     4   9  22  43  68  98 138 188 239 296 371 427
#     4  12  28  45  76 110 146 193 253 301 370 440
#     4  10  24  45  72 101 144 194 240 305 367 447
#     4  11  24  43  69 105 144 189 242 307 369 432
#     4  12  23  46  73 102 151 199 242 309 375 438
#     4  11  26  44  73 103 150 192 252 301 373 446
#
# _framework density 22.602395000000001
#
# number of rings (size 3 to 8) (size 9 to 14) (size 15 to 20)
#    0.000    1.000    2.500    2.625    7.000    3.500 
#    0.000    0.000    0.000    0.000    0.000    0.000 
#    0.000    0.000    0.000    0.000    0.000    0.000 
#
# Total GULP energy -198239.457402 kJ/mol
# GULP energy per Si atom -12389.966088 kJ/mol
# Density = 2.255095 g / cm^3
# Si number density = 22.602395 Si / 1000 Ang^3
#
#
#
# Elastic Constant Matrix: (Units=GPa)
#
#
# Indices 1 2 3 4 5 6 
#
# 1 113.2981 55.3778 61.4266 0.4405 -17.1940 -15.4480
# 2 55.3778 117.9692 45.0059 4.4053 -5.2955 -6.3099
# 3 61.4266 45.0059 141.5328 -1.0100 -16.8010 -18.6232
# 4 0.4405 4.4053 -1.0100 38.3490 -6.1685 -4.9229
# 5 -17.1940 -5.2955 -16.8010 -6.1685 24.9210 2.9563
# 6 -15.4480 -6.3099 -18.6232 -4.9229 2.9563 33.8214
#
#
#
# Elastic Compliance Matrix: (Units=1/GPa)
#
#
# Indices 1 2 3 4 5 6 
#
# 1 0.014738 -0.005172 -0.003469 0.001878 0.006776 0.003538
# 2 -0.005172 0.011520 -0.001931 -0.001925 -0.002743 -0.001317
# 3 -0.003469 -0.001931 0.010137 0.001627 0.004015 0.003523
# 4 0.001878 -0.001925 0.001627 0.028286 0.008418 0.004776
# 5 0.006776 -0.002743 0.004015 0.008418 0.048802 0.001754
# 6 0.003538 -0.001317 0.003523 0.004776 0.001754 0.033419
#
#
# Mechanical properties :
#
#
# Convention : Reuss Voigt Hill
#
# Bulk Modulus (GPa) = 65.56747 77.38008 71.47377
# Shear Modulus (GPa) = 28.88037 33.48426 31.18232
#
# Velocity S-wave (km/s) = 3.57845 3.85313 3.71833
# Velocity P-wave (km/s) = 6.79307 7.35562 7.07994
#
# Compressibility (1/GPa) = 0.01525147
#
# Stress axis : x y z
#
# Youngs Moduli (GPa) = 67.85107 86.80811 98.65089
#
# Poissons Ratio (x) = 0.44896 0.34218
# Poissons Ratio (y) = 0.35092 0.19050
# Poissons Ratio (z) = 0.23535 0.16763
#
# Static dielectric constant tensor:
#      x y z
#    x 4.184330 -0.378940 0.183230 
#    y -0.378940 5.165980 -0.661230 
#    z 0.183230 -0.661230 4.892270 
# 
# 
# High freq. dielectric constant tensor:
#      x y z
#    x 1.887750 -0.008130 0.009630 
#    y -0.008130 1.891790 0.001660 
#    z 0.009630 0.001660 1.907410 
# 
# From -- ./inp_files/571659.got.cif
#   From: 2010.06.25/outbox.cif.g09.slc.cpg/sg2_286_cif.got.tgz:571659.got - 2010.06.27 13:26:56.
