data_PCOD8027991
_publ_section_title
;
Structure prediction by ZEFSAII (Michael W. Deem and Ramdas Pophale) SiO2 
 PCOD8027991
Probable space group: P -1
;
_chemical_formula_sum "Si O2"
_cell_formula_units_Z 16
_cell_length_a 9.516746
_cell_length_b 16.260150
_cell_length_c 9.181909
_cell_angle_alpha 74.232023
_cell_angle_beta 71.219883
_cell_angle_gamma 31.967142
_cell_volume 712.189606
_symmetry_space_group_name_H-M "P -1"
_symmetry_group_IT_number 2
_symmetry_cell_setting 'triclinic'
loop_
_space_group_symop_operation_xyz
x,y,z
-x,-y,-z
loop_
_atom_site_type_symbol
_atom_site_label
_atom_site_fract_x
_atom_site_fract_y
_atom_site_fract_z
Si Si1 0.531955 0.441890 0.361162
Si Si2 0.462573 0.757301 0.608511
Si Si3 0.009912 0.226962 0.673615
Si Si4 0.161095 0.366185 0.211643
Si Si5 0.014560 0.951047 0.175829
Si Si6 0.102752 0.201658 0.317781
Si Si7 0.444261 0.142017 0.702083
Si Si8 0.622023 0.692651 0.137024
O O1 0.500000 0.500000 0.500000
O O2 0.518873 0.345495 0.417727
O O3 0.290787 0.595850 0.268786
O O4 0.824153 0.330609 0.256230
O O5 0.726072 0.643769 0.676185
O O6 0.463126 0.824249 0.445817
O O7 0.186088 0.901598 0.721790
O O8 0.074157 0.104965 0.783547
O O9 0.049371 0.197795 0.502360
O O10 0.211894 0.200525 0.676211
O O11 0.235271 0.231066 0.255924
O O12 0.836128 0.530675 0.231106
O O13 0.307800 0.341295 0.039997
O O14 0.317905 0.805986 0.208891
O O15 0.000000 0.000000 0.000000
O O16 0.306129 0.038154 0.255319
O O17 0.344643 0.227789 0.848024
#
# Coordination Sequence:
#
# PCOD8027991 Si02
#       8
#     2   2   2   2   2   2   2   2
#     4  10  25  41  64 103 136 174 221 287 337 398
#     4  12  24  45  73 101 135 182 232 271 348 402
#     4  11  23  43  66 101 136 176 228 277 342 395
#     4  11  24  47  68  96 140 184 225 275 338 409
#     4  12  25  46  71  98 138 185 223 281 341 410
#     4  11  22  42  67  98 138 175 225 281 335 395
#     4  12  25  41  71 105 134 177 228 288 328 407
#     4  11  27  43  67 101 136 184 227 276 340 405
#
# _framework density 22.465928999999999
#
# number of rings (size 3 to 8) (size 9 to 14) (size 15 to 20)
#    0.000    0.750    3.750    3.375    7.000    2.500 
#    2.250    0.625    0.000    0.000    0.000    0.000 
#    0.000    0.000    0.000    0.000    0.000    0.000 
#
# Total GULP energy -198439.147075 kJ/mol
# GULP energy per Si atom -12402.446692 kJ/mol
# Density = 2.241480 g / cm^3
# Si number density = 22.465929 Si / 1000 Ang^3
#
#
#
# Elastic Constant Matrix: (Units=GPa)
#
#
# Indices 1 2 3 4 5 6 
#
# 1 103.4692 51.2197 24.9235 1.2834 -7.5495 20.5854
# 2 51.2197 140.0968 24.4514 5.7483 6.2785 4.8109
# 3 24.9235 24.4514 39.3244 2.6028 -0.5160 1.8065
# 4 1.2834 5.7483 2.6028 19.8946 8.1946 -2.5695
# 5 -7.5495 6.2785 -0.5160 8.1946 21.9759 2.0911
# 6 20.5854 4.8109 1.8065 -2.5695 2.0911 53.4162
#
#
#
# Elastic Compliance Matrix: (Units=1/GPa)
#
#
# Indices 1 2 3 4 5 6 
#
# 1 0.015132 -0.004486 -0.006247 -0.002865 0.007941 -0.005665
# 2 -0.004486 0.009491 -0.003164 -0.000075 -0.004409 0.001150
# 3 -0.006247 -0.003164 0.031477 -0.002770 0.000389 0.001480
# 4 -0.002865 -0.000075 -0.002770 0.061578 -0.024477 0.005125
# 5 0.007941 -0.004409 0.000389 -0.024477 0.059216 -0.006172
# 6 -0.005665 0.001150 0.001480 0.005125 -0.006172 0.021239
#
#
# Mechanical properties :
#
#
# Convention : Reuss Voigt Hill
#
# Bulk Modulus (GPa) = 35.32856 53.78661 44.55759
# Shear Modulus (GPa) = 21.24383 31.21039 26.22711
#
# Velocity S-wave (km/s) = 3.07840 3.73128 3.42046
# Velocity P-wave (km/s) = 5.32869 6.52355 5.95616
#
# Compressibility (1/GPa) = 0.02830571
#
# Stress axis : x y z
#
# Youngs Moduli (GPa) = 66.08483 105.35934 31.76919
#
# Poissons Ratio (x) = 0.47261 0.19847
# Poissons Ratio (y) = 0.29644 0.10053
# Poissons Ratio (z) = 0.41285 0.33339
#
# Static dielectric constant tensor:
#      x y z
#    x 4.311120 -0.384400 -0.018960 
#    y -0.384400 4.914060 0.243800 
#    z -0.018960 0.243800 3.782470 
# 
# 
# High freq. dielectric constant tensor:
#      x y z
#    x 1.898120 -0.005010 -0.001840 
#    y -0.005010 1.910700 0.003860 
#    z -0.001840 0.003860 1.855920 
# 
# From -- ./inp_files/206816.got.cif
#   From: 2010.06.25/outbox.cif.g09.slc.cpg/sg2_104_cif.got.tgz:206816.got - 2010.06.27 13:26:56.
