data_PCOD8027166
_publ_section_title
;
Structure prediction by ZEFSAII (Michael W. Deem and Ramdas Pophale) SiO2 
 PCOD8027166
Probable space group: P -1
;
_chemical_formula_sum "Si O2"
_cell_formula_units_Z 14
_cell_length_a 9.616099
_cell_length_b 20.315631
_cell_length_c 9.411686
_cell_angle_alpha 133.257148
_cell_angle_beta 44.147241
_cell_angle_gamma 150.923692
_cell_volume 613.095184
_symmetry_space_group_name_H-M "P -1"
_symmetry_group_IT_number 2
_symmetry_cell_setting 'triclinic'
loop_
_space_group_symop_operation_xyz
x,y,z
-x,-y,-z
loop_
_atom_site_type_symbol
_atom_site_label
_atom_site_fract_x
_atom_site_fract_y
_atom_site_fract_z
Si Si1 0.435162 0.536661 0.393430
Si Si2 0.974908 0.980615 0.156357
Si Si3 0.858393 0.276964 0.300838
Si Si4 0.145814 0.891832 0.088805
Si Si5 0.641445 0.146004 0.560149
Si Si6 0.123007 0.443579 0.778231
Si Si7 0.276496 0.186575 0.485266
O O1 0.307708 0.525304 0.621043
O O2 0.629730 0.509895 0.220862
O O3 0.658880 0.686563 0.388664
O O4 0.148420 0.437864 0.352176
O O5 0.630337 0.877813 0.300616
O O6 0.069330 0.911960 0.024324
O O7 0.191372 0.121648 0.296006
O O8 0.000000 0.000000 0.000000
O O9 0.799515 0.194085 0.361390
O O10 0.562757 0.232101 0.407164
O O11 0.972123 0.250904 0.049864
O O12 0.012141 0.911529 0.339349
O O13 0.500000 0.000000 0.000000
O O14 0.870479 0.276539 0.694879
O O15 0.500000 0.000000 0.500000
O O16 0.000000 0.500000 0.000000
#
# Coordination Sequence:
#
# PCOD8027166 Si02
#       7
#     2   2   2   2   2   2   2
#     4  10  25  43  71 104 143 193 240 300 361 437
#     4  12  26  42  71 103 140 186 242 297 365 431
#     4  11  24  45  72 101 146 190 241 294 365 438
#     4  12  25  45  73 102 145 193 235 300 370 431
#     4  11  23  44  70 106 145 189 242 306 365 432
#     4  10  24  44  69 101 151 189 244 303 363 435
#     4  12  25  47  71 105 149 186 242 304 363 438
#
# _framework density 22.834952000000001
#
# number of rings (size 3 to 8) (size 9 to 14) (size 15 to 20)
#    0.000    0.857    2.857    3.429    4.000    4.000 
#    0.000    0.000    0.000    0.000    0.000    0.000 
#    0.000    0.000    0.000    0.000    0.000    0.000 
#
# Total GULP energy -173434.979951 kJ/mol
# GULP energy per Si atom -12388.212854 kJ/mol
# Density = 2.278298 g / cm^3
# Si number density = 22.834952 Si / 1000 Ang^3
#
#
#
# Elastic Constant Matrix: (Units=GPa)
#
#
# Indices 1 2 3 4 5 6 
#
# 1 134.0049 43.4602 63.8655 1.1311 -12.0553 27.4491
# 2 43.4602 91.0716 30.7622 8.8197 -2.6291 23.1584
# 3 63.8655 30.7622 135.8330 14.0505 -21.5356 16.6406
# 4 1.1311 8.8197 14.0505 18.8467 9.2150 -6.2445
# 5 -12.0553 -2.6291 -21.5356 9.2150 42.7021 0.3350
# 6 27.4491 23.1584 16.6406 -6.2445 0.3350 43.4303
#
#
#
# Elastic Compliance Matrix: (Units=1/GPa)
#
#
# Indices 1 2 3 4 5 6 
#
# 1 0.011330 -0.003386 -0.004486 0.003160 0.000071 -0.003183
# 2 -0.003386 0.015678 0.000766 -0.011922 0.003033 -0.008251
# 3 -0.004486 0.000766 0.012858 -0.015491 0.008646 -0.004794
# 4 0.003160 -0.011922 -0.015491 0.091295 -0.027541 0.023634
# 5 0.000071 0.003033 0.008646 -0.027541 0.034000 -0.009197
# 6 -0.003183 -0.008251 -0.004794 0.023634 -0.009197 0.034743
#
#
# Mechanical properties :
#
#
# Convention : Reuss Voigt Hill
#
# Bulk Modulus (GPa) = 38.97981 70.78726 54.88354
# Shear Modulus (GPa) = 22.45506 35.85059 29.15282
#
# Velocity S-wave (km/s) = 3.13926 3.96661 3.57694
# Velocity P-wave (km/s) = 5.49975 7.21425 6.41454
#
# Compressibility (1/GPa) = 0.02565430
#
# Stress axis : x y z
#
# Youngs Moduli (GPa) = 88.25894 63.78521 77.77192
#
# Poissons Ratio (x) = 0.21599 0.34889
# Poissons Ratio (y) = 0.29887 -0.05961
# Poissons Ratio (z) = 0.39594 -0.04889
#
# Static dielectric constant tensor:
#      x y z
#    x 4.245550 0.192440 -0.058790 
#    y 0.192440 4.278950 0.151850 
#    z -0.058790 0.151850 4.624450 
# 
# 
# High freq. dielectric constant tensor:
#      x y z
#    x 1.913640 0.014030 -0.011640 
#    y 0.014030 1.902810 0.003810 
#    z -0.011640 0.003810 1.905490 
# 
# From -- ./inp_files/224007.got.cif
#   From: 2010.06.25/outbox.cif.g09.slc.cpg/sg2_113_cif.got.tgz:224007.got - 2010.06.27 13:26:56.
