data_PCOD8027636
_publ_section_title
;
Structure prediction by ZEFSAII (Michael W. Deem and Ramdas Pophale) SiO2 
 PCOD8027636
Probable space group: P -1
;
_chemical_formula_sum "Si O2"
_cell_formula_units_Z 16
_cell_length_a 8.827118
_cell_length_b 14.503112
_cell_length_c 11.270249
_cell_angle_alpha 43.478550
_cell_angle_beta 130.552143
_cell_angle_gamma 103.991017
_cell_volume 677.420515
_symmetry_space_group_name_H-M "P -1"
_symmetry_group_IT_number 2
_symmetry_cell_setting 'triclinic'
loop_
_space_group_symop_operation_xyz
x,y,z
-x,-y,-z
loop_
_atom_site_type_symbol
_atom_site_label
_atom_site_fract_x
_atom_site_fract_y
_atom_site_fract_z
Si Si1 0.440364 0.117073 0.986763
Si Si2 0.284943 0.838184 0.486161
Si Si3 0.600606 0.163174 0.715990
Si Si4 0.873786 0.300394 0.870883
Si Si5 0.745253 0.442211 0.227848
Si Si6 0.077907 0.944538 0.723637
Si Si7 0.323773 0.256036 0.043866
Si Si8 0.802639 0.628703 0.561163
O O1 0.694819 0.046354 0.141062
O O2 0.447420 0.151782 0.096110
O O3 0.361630 0.986386 0.052354
O O4 0.288561 0.266749 0.699113
O O5 0.322564 0.892494 0.326334
O O6 0.205887 0.709467 0.536848
O O7 0.514695 0.779455 0.728393
O O8 0.095451 0.963168 0.349300
O O9 0.727774 0.248923 0.759974
O O10 0.338022 0.281466 0.479515
O O11 0.770823 0.478573 0.666274
O O12 0.886433 0.226106 0.077251
O O13 0.115366 0.230166 0.000448
O O14 0.936940 0.409076 0.255234
O O15 0.500000 0.500000 0.000000
O O16 0.753934 0.570465 0.196654
O O17 0.000000 0.000000 0.500000
#
# Coordination Sequence:
#
# PCOD8027636 Si02
#       8
#     2   2   2   2   2   2   2   2
#     4  12  26  44  75 105 145 191 242 295 363 427
#     4  11  25  45  72 103 149 187 242 301 356 427
#     4  12  27  44  72 112 144 188 244 300 358 423
#     4  11  27  47  73 106 144 191 242 298 363 425
#     4   9  22  45  71 103 141 186 238 292 358 423
#     4  12  26  46  73 104 142 192 242 292 360 432
#     4  10  24  46  68 105 142 194 238 294 364 430
#     4  11  25  49  74 104 150 187 242 297 361 430
#
# _framework density 23.619008000000001
#
# number of rings (size 3 to 8) (size 9 to 14) (size 15 to 20)
#    0.000    1.000    2.500    2.250    7.000    3.000 
#    2.250    3.125    0.000    0.000    0.000    0.000 
#    0.000    0.000    0.000    0.000    0.000    0.000 
#
# Total GULP energy -198283.711024 kJ/mol
# GULP energy per Si atom -12392.731939 kJ/mol
# Density = 2.356525 g / cm^3
# Si number density = 23.619008 Si / 1000 Ang^3
#
#
#
# Elastic Constant Matrix: (Units=GPa)
#
#
# Indices 1 2 3 4 5 6 
#
# 1 170.8603 69.2388 64.2956 -6.7323 7.1212 -3.0120
# 2 69.2388 102.2944 53.9413 -16.7776 -13.7938 2.7946
# 3 64.2956 53.9413 113.9149 -18.4047 -16.3656 -1.8941
# 4 -6.7323 -16.7776 -18.4047 35.7812 6.1549 -3.8328
# 5 7.1212 -13.7938 -16.3656 6.1549 39.6111 -4.8832
# 6 -3.0120 2.7946 -1.8941 -3.8328 -4.8832 43.2092
#
#
#
# Elastic Compliance Matrix: (Units=1/GPa)
#
#
# Indices 1 2 3 4 5 6 
#
# 1 0.009662 -0.005476 -0.003871 -0.001877 -0.004935 0.000134
# 2 -0.005476 0.016627 -0.003467 0.004111 0.004614 -0.000723
# 3 -0.003871 -0.003467 0.013995 0.004177 0.004804 0.001481
# 4 -0.001877 0.004111 0.004177 0.032143 -0.001191 0.002503
# 5 -0.004935 0.004614 0.004804 -0.001191 0.030265 0.002883
# 6 0.000134 -0.000723 0.001481 0.002503 0.002883 0.023812
#
#
# Mechanical properties :
#
#
# Convention : Reuss Voigt Hill
#
# Bulk Modulus (GPa) = 68.23268 84.66900 76.45084
# Shear Modulus (GPa) = 31.84358 37.02657 34.43508
#
# Velocity S-wave (km/s) = 3.67579 3.96366 3.82244
# Velocity P-wave (km/s) = 6.85324 7.54143 7.20555
#
# Compressibility (1/GPa) = 0.01465573
#
# Stress axis : x y z
#
# Youngs Moduli (GPa) = 103.49308 60.14388 71.45597
#
# Poissons Ratio (x) = 0.32935 0.27659
# Poissons Ratio (y) = 0.56674 0.24776
# Poissons Ratio (z) = 0.40059 0.20854
#
# Static dielectric constant tensor:
#      x y z
#    x 4.637540 0.317940 0.038850 
#    y 0.317940 4.347820 -0.414420 
#    z 0.038850 -0.414420 4.508910 
# 
# 
# High freq. dielectric constant tensor:
#      x y z
#    x 1.956040 0.017980 0.010890 
#    y 0.017980 1.936130 -0.023260 
#    z 0.010890 -0.023260 1.933270 
# 
# From -- ./inp_files/398464.got.cif
#   From: 2010.06.25/outbox.cif.g09.slc.cpg/sg2_200_cif.got.tgz:398464.got - 2010.06.27 13:26:56.
