data_PCOD8027837
_publ_section_title
;
Structure prediction by ZEFSAII (Michael W. Deem and Ramdas Pophale) SiO2 
 PCOD8027837
Probable space group: P -1
;
_chemical_formula_sum "Si O2"
_cell_formula_units_Z 12
_cell_length_a 12.651142
_cell_length_b 15.545625
_cell_length_c 5.016753
_cell_angle_alpha 102.566925
_cell_angle_beta 116.922220
_cell_angle_gamma 36.212784
_cell_volume 498.863091
_symmetry_space_group_name_H-M "P -1"
_symmetry_group_IT_number 2
_symmetry_cell_setting 'triclinic'
loop_
_space_group_symop_operation_xyz
x,y,z
-x,-y,-z
loop_
_atom_site_type_symbol
_atom_site_label
_atom_site_fract_x
_atom_site_fract_y
_atom_site_fract_z
Si Si1 0.392887 0.419055 0.905466
Si Si2 0.736741 0.038702 0.511394
Si Si3 0.354427 0.706484 0.400804
Si Si4 0.049111 0.602425 0.279857
Si Si5 0.694943 0.689257 0.968878
Si Si6 0.962983 0.833469 0.130458
O O1 0.563492 0.344163 0.839167
O O2 0.167635 0.580675 0.644480
O O3 0.459793 0.424440 0.264651
O O4 0.380453 0.319896 0.864137
O O5 0.748516 0.136925 0.555026
O O6 0.504442 0.145392 0.277481
O O7 0.894523 0.902617 0.392714
O O8 0.799285 0.969178 0.828054
O O9 0.187527 0.732525 0.254629
O O10 0.206495 0.440552 0.210698
O O11 0.972711 0.721033 0.060277
O O12 0.855658 0.666759 0.220881
#
# Coordination Sequence:
#
# PCOD8027837 Si02
#       6
#     2   2   2   2   2   2
#     4  11  21  44  70  99 126 175 226 268 324 394
#     4  11  23  45  66  97 137 177 218 268 333 398
#     4  11  23  43  72  96 134 179 219 267 330 403
#     4  11  25  45  70 101 133 174 224 280 325 392
#     4  10  24  47  73  93 133 181 225 267 334 395
#     4  12  27  42  68 104 137 169 222 276 332 387
#
# _framework density 24.054694999999999
#
# number of rings (size 3 to 8) (size 9 to 14) (size 15 to 20)
#    0.000    1.000    3.333    4.500    2.333    2.667 
#    0.000    0.000    0.000    0.000    0.000    0.000 
#    0.000    0.000    0.000    0.000    0.000    0.000 
#
# Total GULP energy -148800.693696 kJ/mol
# GULP energy per Si atom -12400.057808 kJ/mol
# Density = 2.399995 g / cm^3
# Si number density = 24.054695 Si / 1000 Ang^3
#
#
#
# Elastic Constant Matrix: (Units=GPa)
#
#
# Indices 1 2 3 4 5 6 
#
# 1 94.3650 16.2933 8.6886 -6.0698 -2.7117 -19.0311
# 2 16.2933 30.0550 10.7944 -12.7882 -6.6702 -4.6500
# 3 8.6886 10.7944 96.2456 -14.3501 -13.8813 -4.6279
# 4 -6.0698 -12.7882 -14.3501 30.1072 -8.4677 -6.3235
# 5 -2.7117 -6.6702 -13.8813 -8.4677 32.5010 -7.8870
# 6 -19.0311 -4.6500 -4.6279 -6.3235 -7.8870 24.0885
#
#
#
# Elastic Compliance Matrix: (Units=1/GPa)
#
#
# Indices 1 2 3 4 5 6 
#
# 1 0.015043 0.001035 0.002642 0.011594 0.010223 0.018983
# 2 0.001035 0.070000 0.008870 0.055931 0.043742 0.045039
# 3 0.002642 0.008870 0.015906 0.021072 0.018826 0.018551
# 4 0.011594 0.055931 0.021072 0.103172 0.065965 0.072687
# 5 0.010223 0.043742 0.018826 0.065965 0.081380 0.064099
# 6 0.018983 0.045039 0.018551 0.072687 0.064099 0.108837
#
#
# Mechanical properties :
#
#
# Convention : Reuss Voigt Hill
#
# Bulk Modulus (GPa) = 7.93391 32.46870 20.20131
# Shear Modulus (GPa) = 12.15773 29.66529 20.91151
#
# Velocity S-wave (km/s) = 2.25059 3.51557 2.95164
# Velocity P-wave (km/s) = 3.17159 5.47778 4.47577
#
# Compressibility (1/GPa) = 0.12604122
#
# Stress axis : x y z
#
# Youngs Moduli (GPa) = 66.47588 14.28566 62.86960
#
# Poissons Ratio (x) = -0.01478 -0.16608
# Poissons Ratio (y) = -0.06879 -0.55762
# Poissons Ratio (z) = -0.17561 -0.12671
#
# Static dielectric constant tensor:
#      x y z
#    x 4.520360 -0.018500 -0.053500 
#    y -0.018500 4.011710 -0.258480 
#    z -0.053500 -0.258480 4.546930 
# 
# 
# High freq. dielectric constant tensor:
#      x y z
#    x 1.964890 -0.009380 -0.006550 
#    y -0.009380 1.934800 -0.015090 
#    z -0.006550 -0.015090 1.963760 
# 
# From -- ./inp_files/76154.got.cif
#   From: 2010.06.25/outbox.cif.g09.slc.cpg/sg2_39_cif.got.tgz:76154.got - 2010.06.27 13:26:56.
