data_PCOD8027169
_publ_section_title
;
Structure prediction by ZEFSAII (Michael W. Deem and Ramdas Pophale) SiO2 
 PCOD8027169
Probable space group: P -1
;
_chemical_formula_sum "Si O2"
_cell_formula_units_Z 16
_cell_length_a 19.035762
_cell_length_b 5.173885
_cell_length_c 9.097250
_cell_angle_alpha 76.551861
_cell_angle_beta 102.286895
_cell_angle_gamma 128.485975
_cell_volume 679.373267
_symmetry_space_group_name_H-M "P -1"
_symmetry_group_IT_number 2
_symmetry_cell_setting 'triclinic'
loop_
_space_group_symop_operation_xyz
x,y,z
-x,-y,-z
loop_
_atom_site_type_symbol
_atom_site_label
_atom_site_fract_x
_atom_site_fract_y
_atom_site_fract_z
Si Si1 0.055923 0.394090 0.468528
Si Si2 0.393188 0.263249 0.515018
Si Si3 0.838226 0.649401 0.255474
Si Si4 0.559337 0.381048 0.012802
Si Si5 0.189879 0.444965 0.072860
Si Si6 0.289345 0.130014 0.197472
Si Si7 0.662262 0.428189 0.327183
Si Si8 0.023138 0.316093 0.145058
O O1 0.142172 0.547543 0.594535
O O2 0.000000 0.500000 0.500000
O O3 0.080386 0.522620 0.292076
O O4 0.000000 0.000000 0.500000
O O5 0.500000 0.500000 0.500000
O O6 0.325922 0.095852 0.369941
O O7 0.365753 0.478590 0.551186
O O8 0.370820 0.950941 0.639597
O O9 0.769327 0.684732 0.308621
O O10 0.928934 0.002178 0.205063
O O11 0.794026 0.460292 0.106166
O O12 0.622956 0.558090 0.879863
O O13 0.500000 0.500000 0.000000
O O14 0.615924 0.477536 0.170100
O O15 0.500000 0.000000 0.000000
O O16 0.217314 0.209765 0.165531
O O17 0.083486 0.236274 0.093757
O O18 0.247483 0.793213 0.135085
O O19 0.000000 0.500000 0.000000
#
# Coordination Sequence:
#
# PCOD8027169 Si02
#       8
#     2   2   2   2   2   2   2   2
#     4  10  24  44  69 102 142 190 242 298 360 426
#     4  12  28  51  76 108 150 194 246 305 383 452
#     4  11  26  49  71 112 152 195 252 302 372 439
#     4  12  25  47  76 108 144 190 244 304 377 444
#     4  12  26  46  75 108 151 196 250 306 366 432
#     4  12  27  47  75 110 149 189 254 306 365 451
#     4  12  27  47  78 110 148 196 241 311 369 440
#     4  11  25  47  77 108 149 205 248 305 364 439
#
# _framework density 23.551117999999999
#
# number of rings (size 3 to 8) (size 9 to 14) (size 15 to 20)
#    0.000    0.500    1.250    6.000    5.250    6.000 
#    0.000    0.000    0.000    0.000    0.000    0.000 
#    0.000    0.000    0.000    0.000    0.000    0.000 
#
# Total GULP energy -198366.472061 kJ/mol
# GULP energy per Si atom -12397.904504 kJ/mol
# Density = 2.349751 g / cm^3
# Si number density = 23.551118 Si / 1000 Ang^3
#
#
#
# Elastic Constant Matrix: (Units=GPa)
#
#
# Indices 1 2 3 4 5 6 
#
# 1 203.7853 30.8651 59.3123 0.5483 -0.6807 3.7612
# 2 30.8651 111.2177 44.8045 11.3106 4.2095 -0.8823
# 3 59.3123 44.8045 190.0160 16.4195 33.8495 2.0515
# 4 0.5483 11.3106 16.4195 42.3718 7.3662 -4.6127
# 5 -0.6807 4.2095 33.8495 7.3662 58.2578 -2.3988
# 6 3.7612 -0.8823 2.0515 -4.6127 -2.3988 46.9245
#
#
#
# Elastic Compliance Matrix: (Units=1/GPa)
#
#
# Indices 1 2 3 4 5 6 
#
# 1 0.005569 -0.000946 -0.001757 0.000647 0.001062 -0.000269
# 2 -0.000946 0.010273 -0.002083 -0.002027 0.000721 0.000198
# 3 -0.001757 -0.002083 0.007128 -0.001578 -0.003835 -0.000561
# 4 0.000647 -0.002027 -0.001578 0.025357 -0.002038 0.002367
# 5 0.001062 0.000721 -0.003835 -0.002038 0.019648 0.000900
# 6 -0.000269 0.000198 -0.000561 0.002367 0.000900 0.021639
#
#
# Mechanical properties :
#
#
# Convention : Reuss Voigt Hill
#
# Bulk Modulus (GPa) = 74.63510 86.10917 80.37214
# Shear Modulus (GPa) = 48.23846 54.17997 51.20921
#
# Velocity S-wave (km/s) = 4.53066 4.80158 4.66809
# Velocity P-wave (km/s) = 7.68952 8.20867 7.95333
#
# Compressibility (1/GPa) = 0.01339852
#
# Stress axis : x y z
#
# Youngs Moduli (GPa) = 179.57803 97.34070 140.29287
#
# Poissons Ratio (x) = 0.09204 0.24655
# Poissons Ratio (y) = 0.16981 0.29218
# Poissons Ratio (z) = 0.31559 0.20273
#
# Static dielectric constant tensor:
#      x y z
#    x 4.560290 0.159800 0.099050 
#    y 0.159800 4.118830 0.176770 
#    z 0.099050 0.176770 5.480510 
# 
# 
# High freq. dielectric constant tensor:
#      x y z
#    x 1.953750 0.006220 0.007030 
#    y 0.006220 1.925010 0.004520 
#    z 0.007030 0.004520 1.958880 
# 
# From -- ./inp_files/323576.got.cif
#   From: 2010.06.25/outbox.cif.g09.slc.cpg/sg2_162_cif.got.tgz:323576.got - 2010.06.27 13:26:56.
