data_PCOD8027659
_publ_section_title
;
Structure prediction by ZEFSAII (Michael W. Deem and Ramdas Pophale) SiO2 
 PCOD8027659
Probable space group: P -1
;
_chemical_formula_sum "Si O2"
_cell_formula_units_Z 14
_cell_length_a 8.736381
_cell_length_b 17.747263
_cell_length_c 14.500814
_cell_angle_alpha 21.025651
_cell_angle_beta 129.116277
_cell_angle_gamma 129.486327
_cell_volume 616.874928
_symmetry_space_group_name_H-M "P -1"
_symmetry_group_IT_number 2
_symmetry_cell_setting 'triclinic'
loop_
_space_group_symop_operation_xyz
x,y,z
-x,-y,-z
loop_
_atom_site_type_symbol
_atom_site_label
_atom_site_fract_x
_atom_site_fract_y
_atom_site_fract_z
Si Si1 0.326145 0.561715 0.740744
Si Si2 0.312257 0.898979 0.200053
Si Si3 0.299992 0.342119 0.629435
Si Si4 0.937704 0.306727 0.815596
Si Si5 0.265545 0.105420 0.705332
Si Si6 0.259457 0.581453 0.905602
Si Si7 0.010317 0.203574 0.333536
O O1 0.331376 0.784962 0.434597
O O2 0.269693 0.617759 0.758870
O O3 0.173219 0.368735 0.856425
O O4 0.536801 0.480588 0.907862
O O5 0.108295 0.795220 0.187383
O O6 0.494407 0.866688 0.238662
O O7 0.327121 0.154210 0.927396
O O8 0.500000 0.500000 0.500000
O O9 0.143318 0.471338 0.466564
O O10 0.204055 0.229439 0.629042
O O11 0.835143 0.142862 0.041868
O O12 0.188129 0.208858 0.467954
O O13 0.200873 0.786430 0.704502
O O14 0.069358 0.399429 0.062285
O O15 0.000000 0.000000 0.500000
#
# Coordination Sequence:
#
# PCOD8027659 Si02
#       7
#     2   2   2   2   2   2   2
#     4  11  23  45  67  99 146 179 212 285 351 396
#     4  11  22  40  63  99 139 172 223 273 327 416
#     4  11  20  38  66  97 132 176 226 270 331 391
#     4  11  22  40  66  97 137 179 218 273 338 404
#     4  11  21  39  67  98 131 170 230 282 317 406
#     4  10  24  46  69  96 136 177 228 280 338 401
#     4  11  23  45  72 100 125 178 239 281 326 397
#
# _framework density 22.695038
#
# number of rings (size 3 to 8) (size 9 to 14) (size 15 to 20)
#    0.000    1.143    4.286    3.000    0.000    1.714 
#    2.571   12.143    0.000    0.000    0.000    0.000 
#    0.000    0.000    0.000    0.000    0.000    0.000 
#
# Total GULP energy -173592.251015 kJ/mol
# GULP energy per Si atom -12399.446501 kJ/mol
# Density = 2.264338 g / cm^3
# Si number density = 22.695038 Si / 1000 Ang^3
#
#
#
# Elastic Constant Matrix: (Units=GPa)
#
#
# Indices 1 2 3 4 5 6 
#
# 1 110.6223 44.4546 51.9173 -0.7539 -0.1502 -0.6345
# 2 44.4546 100.2186 59.1256 2.4677 -4.1933 4.4774
# 3 51.9173 59.1256 139.3781 -2.4858 -12.8166 -13.7178
# 4 -0.7539 2.4677 -2.4858 35.0772 -8.7870 -1.4194
# 5 -0.1502 -4.1933 -12.8166 -8.7870 42.5685 1.0013
# 6 -0.6345 4.4774 -13.7178 -1.4194 1.0013 31.8614
#
#
#
# Elastic Compliance Matrix: (Units=1/GPa)
#
#
# Indices 1 2 3 4 5 6 
#
# 1 0.011894 -0.003446 -0.003143 -0.000060 -0.001242 -0.000596
# 2 -0.003446 0.015075 -0.005652 -0.001850 -0.000500 -0.004687
# 3 -0.003143 -0.005652 0.011647 0.002204 0.003259 0.005742
# 4 -0.000060 -0.001850 0.002204 0.030577 0.006737 0.002358
# 5 -0.001242 -0.000500 0.003259 0.006737 0.025788 0.000938
# 6 -0.000596 -0.004687 0.005742 0.002358 0.000938 0.034581
#
#
# Mechanical properties :
#
#
# Convention : Reuss Voigt Hill
#
# Bulk Modulus (GPa) = 70.74297 73.46820 72.10559
# Shear Modulus (GPa) = 31.49551 34.88285 33.18918
#
# Velocity S-wave (km/s) = 3.72932 3.92474 3.82828
# Velocity P-wave (km/s) = 7.05568 7.27876 7.16809
#
# Compressibility (1/GPa) = 0.01413568
#
# Stress axis : x y z
#
# Youngs Moduli (GPa) = 84.07742 66.33494 85.85924
#
# Poissons Ratio (x) = 0.22857 0.26982
# Poissons Ratio (y) = 0.28971 0.48526
# Poissons Ratio (z) = 0.26422 0.37491
#
# Static dielectric constant tensor:
#      x y z
#    x 4.421050 0.621080 0.436030 
#    y 0.621080 4.875710 0.792500 
#    z 0.436030 0.792500 5.046400 
# 
# 
# High freq. dielectric constant tensor:
#      x y z
#    x 1.896440 0.002550 -0.006190 
#    y 0.002550 1.882440 0.006140 
#    z -0.006190 0.006140 1.908110 
# 
# From -- ./inp_files/116838.got.cif
#   From: 2010.06.25/outbox.cif.g09.slc.cpg/sg2_59_cif.got.tgz:116838.got - 2010.06.27 13:26:56.
