data_PCOD8027211
_publ_section_title
;
Structure prediction by ZEFSAII (Michael W. Deem and Ramdas Pophale) SiO2 
 PCOD8027211
Probable space group: P -1
;
_chemical_formula_sum "Si O2"
_cell_formula_units_Z 16
_cell_length_a 14.932482
_cell_length_b 11.910424
_cell_length_c 10.095291
_cell_angle_alpha 108.290534
_cell_angle_beta 101.558410
_cell_angle_gamma 24.607510
_cell_volume 693.274585
_symmetry_space_group_name_H-M "P -1"
_symmetry_group_IT_number 2
_symmetry_cell_setting 'triclinic'
loop_
_space_group_symop_operation_xyz
x,y,z
-x,-y,-z
loop_
_atom_site_type_symbol
_atom_site_label
_atom_site_fract_x
_atom_site_fract_y
_atom_site_fract_z
Si Si1 0.311011 0.089223 0.703927
Si Si2 0.837486 0.247642 0.148620
Si Si3 0.943946 0.833180 0.302443
Si Si4 0.894926 0.956826 0.618958
Si Si5 0.408742 0.229816 0.820691
Si Si6 0.451705 0.597948 0.752458
Si Si7 0.394332 0.333289 0.132081
Si Si8 0.782415 0.833268 0.582777
O O1 0.104171 0.251822 0.748234
O O2 0.258775 0.290275 0.772210
O O3 0.364566 0.993256 0.531280
O O4 0.519536 0.817667 0.758374
O O5 0.737193 0.486072 0.152359
O O6 0.643428 0.382240 0.162311
O O7 0.958232 0.130317 0.280047
O O8 0.000000 0.000000 0.000000
O O9 0.129530 0.645052 0.180500
O O10 0.019404 0.783435 0.453520
O O11 0.723940 0.164262 0.324613
O O12 0.667273 0.288436 0.635608
O O13 0.850112 0.887406 0.658496
O O14 0.633942 0.955266 0.701544
O O15 0.470984 0.161101 0.969141
O O16 0.518799 0.638129 0.864822
O O17 0.000000 0.500000 0.500000
#
# Coordination Sequence:
#
# PCOD8027211 Si02
#       8
#     2   2   2   2   2   2   2   2
#     4  10  25  46  72 101 141 180 235 290 340 420
#     4  12  27  43  69 105 144 182 233 286 349 419
#     4  10  24  44  70 102 142 181 238 284 347 413
#     4  11  24  42  71 100 138 191 228 289 350 410
#     4  12  25  46  73 104 142 186 230 288 358 405
#     4  11  23  45  66 103 141 182 235 287 344 411
#     4  11  26  46  72 103 142 186 230 292 342 419
#     4  11  25  46  72 107 139 184 234 291 346 416
#
# _framework density 23.078880000000002
#
# number of rings (size 3 to 8) (size 9 to 14) (size 15 to 20)
#    0.000    1.000    1.250    4.125    7.000    4.500 
#    4.500    0.000    0.000    0.000    0.000    0.000 
#    0.000    0.000    0.000    0.000    0.000    0.000 
#
# Total GULP energy -198447.137411 kJ/mol
# GULP energy per Si atom -12402.946088 kJ/mol
# Density = 2.302635 g / cm^3
# Si number density = 23.078880 Si / 1000 Ang^3
#
#
#
# Elastic Constant Matrix: (Units=GPa)
#
#
# Indices 1 2 3 4 5 6 
#
# 1 151.8079 32.4892 50.6425 8.4717 10.9741 3.8343
# 2 32.4892 103.7171 43.6207 9.1553 -5.7353 -0.1494
# 3 50.6425 43.6207 133.6568 4.3374 -0.8696 -15.4382
# 4 8.4717 9.1553 4.3374 29.7842 2.7115 3.2411
# 5 10.9741 -5.7353 -0.8696 2.7115 31.6613 1.0552
# 6 3.8343 -0.1494 -15.4382 3.2411 1.0552 34.8993
#
#
#
# Elastic Compliance Matrix: (Units=1/GPa)
#
#
# Indices 1 2 3 4 5 6 
#
# 1 0.008167 -0.001449 -0.002838 -0.000974 -0.003022 -0.001977
# 2 -0.001449 0.011919 -0.003354 -0.002904 0.002854 -0.001090
# 3 -0.002838 -0.003354 0.010219 -0.000222 0.000515 0.004823
# 4 -0.000974 -0.002904 -0.000222 0.035409 -0.003120 -0.003198
# 5 -0.003022 0.002854 0.000515 -0.003120 0.033435 -0.000149
# 6 -0.001977 -0.001090 0.004823 -0.003198 -0.000149 0.031301
#
#
# Mechanical properties :
#
#
# Convention : Reuss Voigt Hill
#
# Bulk Modulus (GPa) = 66.56204 71.40962 68.98583
# Shear Modulus (GPa) = 33.16978 36.76425 34.96701
#
# Velocity S-wave (km/s) = 3.79520 3.99555 3.89666
# Velocity P-wave (km/s) = 6.93603 7.23150 7.08530
#
# Compressibility (1/GPa) = 0.01502358
#
# Stress axis : x y z
#
# Youngs Moduli (GPa) = 122.44714 83.90237 97.85250
#
# Poissons Ratio (x) = 0.12154 0.27771
# Poissons Ratio (y) = 0.17737 0.32820
# Poissons Ratio (z) = 0.34751 0.28141
#
# Static dielectric constant tensor:
#      x y z
#    x 4.447670 0.108520 0.131210 
#    y 0.108520 3.995420 -0.130990 
#    z 0.131210 -0.130990 4.076410 
# 
# 
# High freq. dielectric constant tensor:
#      x y z
#    x 1.930960 0.009190 0.007030 
#    y 0.009190 1.905030 -0.008260 
#    z 0.007030 -0.008260 1.907020 
# 
# From -- ./inp_files/308082.got.cif
#   From: 2010.06.25/outbox.cif.g09.slc.cpg/sg2_155_cif.got.tgz:308082.got - 2010.06.27 13:26:56.
