data_PCOD8027577
_publ_section_title
;
Structure prediction by ZEFSAII (Michael W. Deem and Ramdas Pophale) SiO2 
 PCOD8027577
Probable space group: P -1
;
_chemical_formula_sum "Si O2"
_cell_formula_units_Z 12
_cell_length_a 5.076236
_cell_length_b 12.811420
_cell_length_c 11.884339
_cell_angle_alpha 126.521432
_cell_angle_beta 64.817899
_cell_angle_gamma 81.720572
_cell_volume 470.835092
_symmetry_space_group_name_H-M "P -1"
_symmetry_group_IT_number 2
_symmetry_cell_setting 'triclinic'
loop_
_space_group_symop_operation_xyz
x,y,z
-x,-y,-z
loop_
_atom_site_type_symbol
_atom_site_label
_atom_site_fract_x
_atom_site_fract_y
_atom_site_fract_z
Si Si1 0.628244 0.028062 0.108775
Si Si2 0.833950 0.560960 0.289731
Si Si3 0.356209 0.360216 0.391328
Si Si4 0.309995 0.893049 0.218082
Si Si5 0.576472 0.132843 0.569532
Si Si6 0.601745 0.365254 0.118933
O O1 0.358264 0.204352 0.311589
O O2 0.615571 0.913017 0.128015
O O3 0.500000 0.000000 0.000000
O O4 0.000000 0.000000 0.000000
O O5 0.580371 0.592180 0.465072
O O6 0.717583 0.720950 0.352599
O O7 0.817822 0.447485 0.129134
O O8 0.216382 0.489446 0.223365
O O9 0.635508 0.317807 0.214617
O O10 0.000000 0.500000 0.500000
O O11 0.419585 0.814081 0.269755
O O12 0.952405 0.062321 0.397999
O O13 0.234661 0.787488 0.084313
O O14 0.500000 0.000000 0.500000
#
# Coordination Sequence:
#
# PCOD8027577 Si02
#       6
#     2   2   2   2   2   2
#     4  12  28  46  78 113 147 195 249 312 377 445
#     4  11  27  46  74 107 150 200 249 302 378 445
#     4  10  24  45  73 108 154 191 249 302 380 439
#     4  11  28  50  75 112 151 197 258 308 377 444
#     4  11  28  50  80 106 151 204 253 314 367 452
#     4  11  26  46  73 109 150 196 248 312 371 446
#
# _framework density 25.486630000000002
#
# number of rings (size 3 to 8) (size 9 to 14) (size 15 to 20)
#    0.000    1.000    1.667    1.500   18.667    1.333 
#    0.000    0.000    0.000    0.000    0.000    0.000 
#    0.000    0.000    0.000    0.000    0.000    0.000 
#
# Total GULP energy -148750.238703 kJ/mol
# GULP energy per Si atom -12395.853225 kJ/mol
# Density = 2.542862 g / cm^3
# Si number density = 25.486630 Si / 1000 Ang^3
#
#
#
# Elastic Constant Matrix: (Units=GPa)
#
#
# Indices 1 2 3 4 5 6 
#
# 1 112.7879 32.5673 33.7993 -7.1807 22.6445 6.7886
# 2 32.5673 135.4792 54.2512 5.6494 8.5141 1.2393
# 3 33.7993 54.2512 143.6150 -11.4199 31.9435 5.8606
# 4 -7.1807 5.6494 -11.4199 39.5503 3.7424 1.6353
# 5 22.6445 8.5141 31.9435 3.7424 46.4823 -2.8574
# 6 6.7886 1.2393 5.8606 1.6353 -2.8574 31.5971
#
#
#
# Elastic Compliance Matrix: (Units=1/GPa)
#
#
# Indices 1 2 3 4 5 6 
#
# 1 0.010999 -0.002328 -0.000208 0.002879 -0.005196 -0.002852
# 2 -0.002328 0.009456 -0.003855 -0.003162 0.002381 0.001223
# 3 -0.000208 -0.003855 0.010443 0.004286 -0.006873 -0.002584
# 4 0.002879 -0.003162 0.004286 0.028224 -0.006245 -0.003315
# 5 -0.005196 0.002381 -0.006873 -0.006245 0.029158 0.005258
# 6 -0.002852 0.001223 -0.002584 -0.003315 0.005258 0.033340
#
#
# Mechanical properties :
#
#
# Convention : Reuss Voigt Hill
#
# Bulk Modulus (GPa) = 55.20144 70.34638 62.77391
# Shear Modulus (GPa) = 35.60226 41.61023 38.60625
#
# Velocity S-wave (km/s) = 3.74157 4.04497 3.89622
# Velocity P-wave (km/s) = 6.35388 7.03398 6.70256
#
# Compressibility (1/GPa) = 0.01811547
#
# Stress axis : x y z
#
# Youngs Moduli (GPa) = 90.91779 105.75771 95.75511
#
# Poissons Ratio (x) = 0.24621 0.01992
# Poissons Ratio (y) = 0.21166 0.36914
# Poissons Ratio (z) = 0.01892 0.40770
#
# Static dielectric constant tensor:
#      x y z
#    x 4.494590 0.033390 0.017490 
#    y 0.033390 4.895930 -0.255900 
#    z 0.017490 -0.255900 5.224110 
# 
# 
# High freq. dielectric constant tensor:
#      x y z
#    x 2.002320 -0.007200 0.012950 
#    y -0.007200 2.024440 0.000010 
#    z 0.012950 0.000010 2.036370 
# 
# From -- ./inp_files/365854.got.cif
#   From: 2010.06.25/outbox.cif.g09.slc.cpg/sg2_183_cif.got.tgz:365854.got - 2010.06.27 13:26:56.
