data_PCOD8027179
_publ_section_title
;
Structure prediction by ZEFSAII (Michael W. Deem and Ramdas Pophale) SiO2 
 PCOD8027179
Probable space group: P -1
;
_chemical_formula_sum "Si O2"
_cell_formula_units_Z 12
_cell_length_a 5.196249
_cell_length_b 11.323111
_cell_length_c 9.157768
_cell_angle_alpha 86.138137
_cell_angle_beta 74.571914
_cell_angle_gamma 115.937417
_cell_volume 456.477869
_symmetry_space_group_name_H-M "P -1"
_symmetry_group_IT_number 2
_symmetry_cell_setting 'triclinic'
loop_
_space_group_symop_operation_xyz
x,y,z
-x,-y,-z
loop_
_atom_site_type_symbol
_atom_site_label
_atom_site_fract_x
_atom_site_fract_y
_atom_site_fract_z
Si Si1 0.391867 0.629463 0.703009
Si Si2 0.065153 0.653269 0.240001
Si Si3 0.659404 0.131651 0.065960
Si Si4 0.250017 0.447943 0.164022
Si Si5 0.031661 0.079944 0.265733
Si Si6 0.895966 0.819431 0.442792
O O1 0.277251 0.470360 0.707987
O O2 0.696313 0.663865 0.748736
O O3 0.532070 0.722056 0.531646
O O4 0.108932 0.640685 0.822555
O O5 0.075931 0.739518 0.371756
O O6 0.141150 0.738745 0.073224
O O7 0.277595 0.580193 0.234212
O O8 0.128445 0.889112 0.846813
O O9 0.500000 0.000000 0.000000
O O10 0.401274 0.156025 0.185767
O O11 0.500000 0.500000 0.000000
O O12 0.923589 0.919895 0.298845
O O13 0.939275 0.107302 0.438179
#
# Coordination Sequence:
#
# PCOD8027179 Si02
#       6
#     2   2   2   2   2   2
#     4  10  25  43  74 108 147 197 243 308 377 439
#     4  10  26  46  79 110 149 196 257 309 376 439
#     4  12  26  51  77 111 146 202 256 312 364 450
#     4  10  24  44  69 110 147 193 251 305 375 436
#     4  11  29  48  77 111 151 204 246 307 380 447
#     4  11  25  52  72 117 155 198 248 310 380 456
#
# _framework density 26.288239999999998
#
# number of rings (size 3 to 8) (size 9 to 14) (size 15 to 20)
#    1.000    0.333    1.667    1.500    4.667    6.000 
#    3.000    0.000    0.000    0.000    0.000    0.000 
#    0.000    0.000    0.000    0.000    0.000    0.000 
#
# Total GULP energy -148658.158733 kJ/mol
# GULP energy per Si atom -12388.179894 kJ/mol
# Density = 2.622841 g / cm^3
# Si number density = 26.288240 Si / 1000 Ang^3
#
#
#
# Elastic Constant Matrix: (Units=GPa)
#
#
# Indices 1 2 3 4 5 6 
#
# 1 182.7425 43.0732 57.4506 -6.1622 -24.0680 -17.3013
# 2 43.0732 75.9805 39.5861 -24.9983 -24.1280 -16.4208
# 3 57.4506 39.5861 140.0414 -7.2038 -35.6507 -6.0434
# 4 -6.1622 -24.9983 -7.2038 70.9612 -4.1768 -10.9365
# 5 -24.0680 -24.1280 -35.6507 -4.1768 39.1245 5.0020
# 6 -17.3013 -16.4208 -6.0434 -10.9365 5.0020 34.2143
#
#
#
# Elastic Compliance Matrix: (Units=1/GPa)
#
#
# Indices 1 2 3 4 5 6 
#
# 1 0.006892 -0.002228 -0.001887 -0.000026 0.000895 0.001943
# 2 -0.002228 0.025980 -0.002168 0.011437 0.012258 0.012823
# 3 -0.001887 -0.002168 0.010298 0.000365 0.007064 -0.001092
# 4 -0.000026 0.011437 0.000365 0.020306 0.008152 0.010839
# 5 0.000895 0.012258 0.007064 0.008152 0.040429 0.004278
# 6 0.001943 0.012823 -0.001092 0.010839 0.004278 0.039011
#
#
# Mechanical properties :
#
#
# Convention : Reuss Voigt Hill
#
# Bulk Modulus (GPa) = 32.67588 75.44267 54.05927
# Shear Modulus (GPa) = 30.17805 46.10361 38.14083
#
# Velocity S-wave (km/s) = 3.39184 4.19235 3.81316
# Velocity P-wave (km/s) = 5.27222 7.22461 6.32421
#
# Compressibility (1/GPa) = 0.03060361
#
# Stress axis : x y z
#
# Youngs Moduli (GPa) = 145.10554 38.49073 97.10870
#
# Poissons Ratio (x) = 0.08576 0.18325
# Poissons Ratio (y) = 0.32331 0.21051
# Poissons Ratio (z) = 0.27383 0.08344
#
# Static dielectric constant tensor:
#      x y z
#    x 4.874400 -0.210270 -0.077580 
#    y -0.210270 5.619170 -0.283030 
#    z -0.077580 -0.283030 4.819760 
# 
# 
# High freq. dielectric constant tensor:
#      x y z
#    x 2.027010 -0.011150 -0.018310 
#    y -0.011150 2.101380 -0.010810 
#    z -0.018310 -0.010810 2.056800 
# 
# From -- ./inp_files/73285.got.cif
#   From: 2010.06.25/outbox.cif.g09.slc.cpg/sg2_37_cif.got.tgz:73285.got - 2010.06.27 13:26:56.
