data_PCOD8027421
_publ_section_title
;
Structure prediction by ZEFSAII (Michael W. Deem and Ramdas Pophale) SiO2 
 PCOD8027421
Probable space group: P -1
;
_chemical_formula_sum "Si O2"
_cell_formula_units_Z 14
_cell_length_a 8.534166
_cell_length_b 16.109800
_cell_length_c 6.592855
_cell_angle_alpha 63.854464
_cell_angle_beta 49.076623
_cell_angle_gamma 63.438848
_cell_volume 597.770976
_symmetry_space_group_name_H-M "P -1"
_symmetry_group_IT_number 2
_symmetry_cell_setting 'triclinic'
loop_
_space_group_symop_operation_xyz
x,y,z
-x,-y,-z
loop_
_atom_site_type_symbol
_atom_site_label
_atom_site_fract_x
_atom_site_fract_y
_atom_site_fract_z
Si Si1 0.223214 0.151364 0.035993
Si Si2 0.315024 0.302272 0.510741
Si Si3 0.672156 0.558487 0.334122
Si Si4 0.942293 0.606950 0.703568
Si Si5 0.972800 0.188482 0.563728
Si Si6 0.533698 0.160539 0.136891
Si Si7 0.219892 0.032879 0.795593
O O1 0.395623 0.161231 0.050133
O O2 0.270586 0.056924 0.959748
O O3 0.003681 0.152674 0.342577
O O4 0.189862 0.239175 0.815393
O O5 0.435792 0.358119 0.504991
O O6 0.141731 0.386679 0.461385
O O7 0.460927 0.243230 0.274936
O O8 0.500000 0.500000 0.500000
O O9 0.878496 0.488140 0.327441
O O10 0.743582 0.607436 0.022051
O O11 0.029251 0.701137 0.562654
O O12 0.760390 0.171985 0.853002
O O13 0.186550 0.127079 0.575270
O O14 0.583432 0.058330 0.325409
O O15 0.000000 0.000000 0.000000
#
# Coordination Sequence:
#
# PCOD8027421 Si02
#       7
#     2   2   2   2   2   2   2
#     4  12  23  45  72  98 146 186 239 285 341 412
#     4  12  24  48  71 106 141 182 231 290 356 413
#     4  11  27  49  76 103 137 179 234 290 355 425
#     4  11  24  49  70 104 138 181 230 288 353 420
#     4  11  24  46  71 100 145 185 236 288 345 413
#     4  11  26  43  70 107 142 186 240 286 345 407
#     4  10  24  45  68 105 143 191 238 284 344 408
#
# _framework density 23.420339999999999
#
# number of rings (size 3 to 8) (size 9 to 14) (size 15 to 20)
#    0.000    0.857    4.286    0.857    4.000    8.571 
#    5.143    0.000    0.000    0.000    0.000    0.000 
#    0.000    0.000    0.000    0.000    0.000    0.000 
#
# Total GULP energy -173481.090135 kJ/mol
# GULP energy per Si atom -12391.506438 kJ/mol
# Density = 2.336703 g / cm^3
# Si number density = 23.420340 Si / 1000 Ang^3
#
#
#
# Elastic Constant Matrix: (Units=GPa)
#
#
# Indices 1 2 3 4 5 6 
#
# 1 88.9674 38.0857 52.6717 9.7029 14.0621 14.4460
# 2 38.0857 111.5455 60.1679 8.4119 12.0809 19.5500
# 3 52.6717 60.1679 136.8264 -0.6298 17.9912 -4.6670
# 4 9.7029 8.4119 -0.6298 48.5849 4.3625 9.6610
# 5 14.0621 12.0809 17.9912 4.3625 26.9724 1.1983
# 6 14.4460 19.5500 -4.6670 9.6610 1.1983 42.5231
#
#
#
# Elastic Compliance Matrix: (Units=1/GPa)
#
#
# Indices 1 2 3 4 5 6 
#
# 1 0.016727 -0.001235 -0.005565 -0.001811 -0.003932 -0.005203
# 2 -0.001235 0.013713 -0.005594 -0.000831 -0.001353 -0.006272
# 3 -0.005565 -0.005594 0.012563 0.001437 -0.003455 0.005612
# 4 -0.001811 -0.000831 0.001437 0.022134 -0.003054 -0.003787
# 5 -0.003932 -0.001353 -0.003455 -0.003054 0.042481 0.001075
# 6 -0.005203 -0.006272 0.005612 -0.003787 0.001075 0.029614
#
#
# Mechanical properties :
#
#
# Convention : Reuss Voigt Hill
#
# Bulk Modulus (GPa) = 54.90225 71.02111 62.96168
# Shear Modulus (GPa) = 29.74547 36.04367 32.89457
#
# Velocity S-wave (km/s) = 3.56767 3.92725 3.75177
# Velocity P-wave (km/s) = 6.36114 7.13826 6.76087
#
# Compressibility (1/GPa) = 0.01821419
#
# Stress axis : x y z
#
# Youngs Moduli (GPa) = 59.78263 72.92448 79.59832
#
# Poissons Ratio (x) = 0.09008 0.44295
# Poissons Ratio (y) = 0.07385 0.44530
# Poissons Ratio (z) = 0.33268 0.40796
#
# Static dielectric constant tensor:
#      x y z
#    x 4.299840 -0.196160 0.295340 
#    y -0.196160 4.714150 -0.299490 
#    z 0.295340 -0.299490 5.082770 
# 
# 
# High freq. dielectric constant tensor:
#      x y z
#    x 1.918060 0.001640 0.006320 
#    y 0.001640 1.946390 -0.012160 
#    z 0.006320 -0.012160 1.948840 
# 
# From -- ./inp_files/40618.got.cif
#   From: 2010.06.25/outbox.cif.g09.slc.cpg/sg2_21_cif.got.tgz:40618.got - 2010.06.27 13:26:56.
