data_PCOD8027012
_publ_section_title
;
Structure prediction by ZEFSAII (Michael W. Deem and Ramdas Pophale) SiO2 
 PCOD8027012
Probable space group: P -1
;
_chemical_formula_sum "Si O2"
_cell_formula_units_Z 16
_cell_length_a 24.187394
_cell_length_b 8.943529
_cell_length_c 8.234266
_cell_angle_alpha 72.693709
_cell_angle_beta 124.846133
_cell_angle_gamma 146.787984
_cell_volume 733.277257
_symmetry_space_group_name_H-M "P -1"
_symmetry_group_IT_number 2
_symmetry_cell_setting 'triclinic'
loop_
_space_group_symop_operation_xyz
x,y,z
-x,-y,-z
loop_
_atom_site_type_symbol
_atom_site_label
_atom_site_fract_x
_atom_site_fract_y
_atom_site_fract_z
Si Si1 0.771226 0.093411 0.398311
Si Si2 0.226663 0.314834 0.272062
Si Si3 0.981220 0.363712 0.851128
Si Si4 0.622742 0.391277 0.906376
Si Si5 0.765737 0.309431 0.842871
Si Si6 0.385422 0.979910 0.004543
Si Si7 0.665717 0.599126 0.241679
Si Si8 0.591922 0.799763 0.463531
O O1 0.739477 0.910202 0.259627
O O2 0.672742 0.853633 0.456349
O O3 0.917830 0.357870 0.615743
O O4 0.737422 0.202054 0.248164
O O5 0.184296 0.412918 0.179391
O O6 0.299087 0.427937 0.527479
O O7 0.105922 0.962072 0.163377
O O8 0.311119 0.451068 0.207902
O O9 0.000000 0.500000 0.000000
O O10 0.116089 0.567126 0.944447
O O11 0.581956 0.132718 0.947164
O O12 0.708648 0.603737 0.141099
O O13 0.494264 0.239627 0.754452
O O14 0.702813 0.113352 0.641182
O O15 0.650531 0.074347 0.851606
O O16 0.513420 0.331691 0.073664
O O17 0.500000 0.500000 0.500000
#
# Coordination Sequence:
#
# PCOD8027012 Si02
#       8
#     2   2   2   2   2   2   2   2
#     4  11  24  39  60  93 128 161 220 260 313 381
#     4  10  24  44  64 100 127 165 226 259 320 394
#     4  11  23  43  66  91 123 177 219 267 313 372
#     4  11  24  39  67  96 131 167 206 263 332 385
#     4  11  24  41  68  88 131 176 208 272 320 367
#     4  11  23  40  60  98 129 165 212 258 328 390
#     4  11  22  39  66  93 135 167 201 270 323 383
#     4  12  23  38  66  99 126 167 213 260 324 390
#
# _framework density 21.819852000000001
#
# number of rings (size 3 to 8) (size 9 to 14) (size 15 to 20)
#    0.000    1.000    2.500    4.875    3.500    2.500 
#    0.000    1.250    0.000    8.250    0.000    0.000 
#    0.000    0.000    0.000    0.000    0.000    0.000 
#
# Total GULP energy -198309.664100 kJ/mol
# GULP energy per Si atom -12394.354006 kJ/mol
# Density = 2.177019 g / cm^3
# Si number density = 21.819852 Si / 1000 Ang^3
#
#
#
# Elastic Constant Matrix: (Units=GPa)
#
#
# Indices 1 2 3 4 5 6 
#
# 1 98.6315 5.3928 52.5288 2.5381 -1.7202 -7.8089
# 2 5.3928 49.0271 29.0614 1.3143 -0.5258 -14.3681
# 3 52.5288 29.0614 136.2092 -4.6328 -2.2058 -12.7116
# 4 2.5381 1.3143 -4.6328 36.1337 -4.6185 -3.3230
# 5 -1.7202 -0.5258 -2.2058 -4.6185 41.3871 -4.3859
# 6 -7.8089 -14.3681 -12.7116 -3.3230 -4.3859 28.1504
#
#
#
# Elastic Compliance Matrix: (Units=1/GPa)
#
#
# Indices 1 2 3 4 5 6 
#
# 1 0.013116 0.002501 -0.005415 -0.001441 0.000377 0.002358
# 2 0.002501 0.027016 -0.005597 -0.000589 0.001365 0.012098
# 3 -0.005415 -0.005597 0.010786 0.002123 0.000606 0.000857
# 4 -0.001441 -0.000589 0.002123 0.028937 0.003726 0.004255
# 5 0.000377 0.001365 0.000606 0.003726 0.025220 0.005444
# 6 0.002358 0.012098 0.000857 0.004255 0.005444 0.044090
#
#
# Mechanical properties :
#
#
# Convention : Reuss Voigt Hill
#
# Bulk Modulus (GPa) = 29.50255 50.87042 40.18649
# Shear Modulus (GPa) = 28.17126 34.25991 31.21558
#
# Velocity S-wave (km/s) = 3.59706 3.96678 3.78644
# Velocity P-wave (km/s) = 5.54997 6.65920 6.12972
#
# Compressibility (1/GPa) = 0.03389538
#
# Stress axis : x y z
#
# Youngs Moduli (GPa) = 76.24231 37.01567 92.71308
#
# Poissons Ratio (x) = -0.09256 0.50200
# Poissons Ratio (y) = -0.19066 0.51894
# Poissons Ratio (z) = 0.41282 0.20719
#
# Static dielectric constant tensor:
#      x y z
#    x 4.191590 -0.179570 -0.048780 
#    y -0.179570 3.731790 -0.119560 
#    z -0.048780 -0.119560 4.105720 
# 
# 
# High freq. dielectric constant tensor:
#      x y z
#    x 1.874710 -0.011840 -0.007100 
#    y -0.011840 1.840340 -0.010780 
#    z -0.007100 -0.010780 1.863320 
# 
# From -- ./inp_files/205901.got.cif
#   From: 2010.06.25/outbox.cif.g09.slc.cpg/sg2_103_cif.got.tgz:205901.got - 2010.06.27 13:26:56.
