data_PCOD8027726
_publ_section_title
;
Structure prediction by ZEFSAII (Michael W. Deem and Ramdas Pophale) SiO2 
 PCOD8027726
Probable space group: P -1
;
_chemical_formula_sum "Si O2"
_cell_formula_units_Z 12
_cell_length_a 10.730081
_cell_length_b 17.314389
_cell_length_c 10.362680
_cell_angle_alpha 150.950582
_cell_angle_beta 39.850009
_cell_angle_gamma 150.146821
_cell_volume 464.972948
_symmetry_space_group_name_H-M "P -1"
_symmetry_group_IT_number 2
_symmetry_cell_setting 'triclinic'
loop_
_space_group_symop_operation_xyz
x,y,z
-x,-y,-z
loop_
_atom_site_type_symbol
_atom_site_label
_atom_site_fract_x
_atom_site_fract_y
_atom_site_fract_z
Si Si1 0.757801 0.767790 0.824207
Si Si2 0.751055 0.274598 0.358523
Si Si3 0.080263 0.743641 0.051445
Si Si4 0.970592 0.376412 0.713480
Si Si5 0.461227 0.427795 0.779240
Si Si6 0.532316 0.083866 0.780129
O O1 0.635312 0.631732 0.851717
O O2 0.827380 0.661033 0.514688
O O3 0.556073 0.779069 0.932315
O O4 0.000000 0.000000 0.000000
O O5 0.795476 0.160788 0.047930
O O6 0.530673 0.278677 0.493691
O O7 0.000000 0.500000 0.500000
O O8 0.697360 0.158467 0.370444
O O9 0.993941 0.511814 0.775568
O O10 0.286126 0.878442 0.193208
O O11 0.831820 0.718153 0.239575
O O12 0.691857 0.150723 0.617110
O O13 0.000000 0.500000 0.000000
O O14 0.500000 0.500000 0.000000
#
# Coordination Sequence:
#
# PCOD8027726 Si02
#       6
#     2   2   2   2   2   2
#     4  12  27  45  76 111 146 195 251 306 368 440
#     4  12  25  45  72 103 149 194 242 303 373 436
#     4  11  24  46  70 105 145 194 241 305 367 435
#     4  10  24  46  72 108 146 191 241 304 373 430
#     4  12  26  44  72 104 146 194 243 300 373 443
#     4  11  27  45  73 109 146 188 253 305 366 440
#
# _framework density 25.807950999999999
#
# number of rings (size 3 to 8) (size 9 to 14) (size 15 to 20)
#    0.000    0.667    5.000    1.500    2.333    6.667 
#    0.000    0.000    0.000    0.000    0.000    0.000 
#    0.000    0.000    0.000    0.000    0.000    0.000 
#
# Total GULP energy -148732.667087 kJ/mol
# GULP energy per Si atom -12394.388924 kJ/mol
# Density = 2.574921 g / cm^3
# Si number density = 25.807951 Si / 1000 Ang^3
#
#
#
# Elastic Constant Matrix: (Units=GPa)
#
#
# Indices 1 2 3 4 5 6 
#
# 1 68.4303 26.7278 27.7080 -17.8861 -33.7737 -4.0346
# 2 26.7278 160.7139 45.1570 -10.8617 -22.3053 -24.8069
# 3 27.7080 45.1570 94.1620 -22.9600 -37.3621 3.1680
# 4 -17.8861 -10.8617 -22.9600 48.1470 6.0782 -14.8196
# 5 -33.7737 -22.3053 -37.3621 6.0782 51.2775 -5.3527
# 6 -4.0346 -24.8069 3.1680 -14.8196 -5.3527 46.8786
#
#
#
# Elastic Compliance Matrix: (Units=1/GPa)
#
#
# Indices 1 2 3 4 5 6 
#
# 1 0.025966 -0.000615 0.002022 0.010407 0.017815 0.007097
# 2 -0.000615 0.008274 -0.003039 0.001620 0.001330 0.005195
# 3 0.002022 -0.003039 0.018258 0.007543 0.012539 0.001148
# 4 0.010407 0.001620 0.007543 0.031029 0.010658 0.012269
# 5 0.017815 0.001330 0.012539 0.010658 0.040669 0.009403
# 6 0.007097 0.005195 0.001148 0.012269 0.009403 0.029566
#
#
# Mechanical properties :
#
#
# Convention : Reuss Voigt Hill
#
# Bulk Modulus (GPa) = 20.31109 58.05463 39.18286
# Shear Modulus (GPa) = 28.82851 44.17486 36.50168
#
# Velocity S-wave (km/s) = 3.34584 4.14173 3.76488
# Velocity P-wave (km/s) = 4.77633 6.73911 5.84076
#
# Compressibility (1/GPa) = 0.04923419
#
# Stress axis : x y z
#
# Youngs Moduli (GPa) = 38.51146 120.85424 54.76945
#
# Poissons Ratio (x) = 0.07434 -0.11074
# Poissons Ratio (y) = 0.02369 0.16645
# Poissons Ratio (z) = -0.07787 0.36730
#
# Static dielectric constant tensor:
#      x y z
#    x 4.572290 0.242930 -0.710770 
#    y 0.242930 4.380630 1.127200 
#    z -0.710770 1.127200 3.766190 
# 
# 
# High freq. dielectric constant tensor:
#      x y z
#    x 2.030840 -0.002800 -0.008670 
#    y -0.002800 2.074710 -0.003820 
#    z -0.008670 -0.003820 2.017830 
# 
# From -- ./inp_files/435116.got.cif
#   From: 2010.06.25/outbox.cif.g09.slc.cpg/sg2_218_cif.got.tgz:435116.got - 2010.06.27 13:26:56.
