data_PCOD8027753
_publ_section_title
;
Structure prediction by ZEFSAII (Michael W. Deem and Ramdas Pophale) SiO2 
 PCOD8027753
Probable space group: P -1
;
_chemical_formula_sum "Si O2"
_cell_formula_units_Z 10
_cell_length_a 14.274544
_cell_length_b 10.824749
_cell_length_c 14.650546
_cell_angle_alpha 28.558703
_cell_angle_beta 20.224367
_cell_angle_gamma 28.320139
_cell_volume 351.876770
_symmetry_space_group_name_H-M "P -1"
_symmetry_group_IT_number 2
_symmetry_cell_setting 'triclinic'
loop_
_space_group_symop_operation_xyz
x,y,z
-x,-y,-z
loop_
_atom_site_type_symbol
_atom_site_label
_atom_site_fract_x
_atom_site_fract_y
_atom_site_fract_z
Si Si1 0.329402 0.310970 0.837008
Si Si2 0.546429 0.125212 0.576464
Si Si3 0.993436 0.991272 0.118781
Si Si4 0.951688 0.558963 0.637352
Si Si5 0.493127 0.665755 0.137942
O O1 0.460995 0.392068 0.756802
O O2 0.517386 0.322265 0.564252
O O3 0.000000 0.500000 0.000000
O O4 0.355347 0.992204 0.031653
O O5 0.810481 0.852027 0.532320
O O6 0.682929 0.195151 0.311324
O O7 0.247617 0.074496 0.875775
O O8 0.048067 0.666082 0.294356
O O9 0.000000 0.000000 0.000000
O O10 0.271490 0.518034 0.405152
O O11 0.787516 0.530141 0.900114
#
# Coordination Sequence:
#
# PCOD8027753 Si02
#       5
#     2   2   2   2   2
#     4  10  24  47  75 107 146 188 238 296 348 428
#     4  11  24  45  73 102 139 192 237 281 362 427
#     4  12  26  45  71 106 145 180 238 302 351 420
#     4  11  23  47  74 101 144 186 232 293 355 429
#     4  10  24  46  74 108 141 188 236 288 362 421
#
# _framework density 28.419039999999999
#
# number of rings (size 3 to 8) (size 9 to 14) (size 15 to 20)
#    0.000    1.200    0.000    5.400    2.800    8.800 
#    3.600   10.000    0.000    0.000    0.000    0.000 
#    0.000    0.000    0.000    0.000    0.000    0.000 
#
# Total GULP energy -124025.671540 kJ/mol
# GULP energy per Si atom -12402.567154 kJ/mol
# Density = 2.835436 g / cm^3
# Si number density = 28.419040 Si / 1000 Ang^3
#
#
#
# Elastic Constant Matrix: (Units=GPa)
#
#
# Indices 1 2 3 4 5 6 
#
# 1 161.7956 75.6698 64.5541 24.3949 -1.2678 28.3626
# 2 75.6698 162.6847 50.2378 30.1784 2.2913 39.7663
# 3 64.5541 50.2378 150.0906 35.6662 8.4005 17.6668
# 4 24.3949 30.1784 35.6662 50.0601 -2.5188 -0.0526
# 5 -1.2678 2.2913 8.4005 -2.5188 77.0648 -1.7539
# 6 28.3626 39.7663 17.6668 -0.0526 -1.7539 70.5024
#
#
#
# Elastic Compliance Matrix: (Units=1/GPa)
#
#
# Indices 1 2 3 4 5 6 
#
# 1 0.008899 -0.002903 -0.002552 -0.000747 0.000457 -0.001292
# 2 -0.002903 0.009352 -0.000447 -0.003934 -0.000497 -0.004010
# 3 -0.002552 -0.000447 0.009347 -0.005210 -0.001243 -0.001098
# 4 -0.000747 -0.003934 -0.005210 0.026509 0.001627 0.003885
# 5 0.000457 -0.000497 -0.001243 0.001627 0.013204 0.000738
# 6 -0.001292 -0.004010 -0.001098 0.003885 0.000738 0.017262
#
#
# Mechanical properties :
#
#
# Convention : Reuss Voigt Hill
#
# Bulk Modulus (GPa) = 63.31497 95.05492 79.18494
# Shear Modulus (GPa) = 49.19185 58.46609 53.82897
#
# Velocity S-wave (km/s) = 4.16498 4.54065 4.35687
# Velocity P-wave (km/s) = 6.74217 7.81091 7.29613
#
# Compressibility (1/GPa) = 0.01579405
#
# Stress axis : x y z
#
# Youngs Moduli (GPa) = 112.36757 106.92447 106.99016
#
# Poissons Ratio (x) = 0.31044 0.27302
# Poissons Ratio (y) = 0.32625 0.04782
# Poissons Ratio (z) = 0.28674 0.04779
#
# Static dielectric constant tensor:
#      x y z
#    x -9.842100 -17.745260 13.829620 
#    y -17.745260 -14.187570 14.329950 
#    z 13.829620 14.329950 -5.313370 
# 
# 
# High freq. dielectric constant tensor:
#      x y z
#    x 2.178180 0.011620 0.033690 
#    y 0.011620 2.219190 -0.030320 
#    z 0.033690 -0.030320 2.177340 
# 
# From -- ./inp_files/34871.got.cif
#   From: 2010.06.25/outbox.cif.g09.slc.cpg/sg2_18_cif.got.tgz:34871.got - 2010.06.27 13:26:56.
