data_PCOD8027470
_publ_section_title
;
Structure prediction by ZEFSAII (Michael W. Deem and Ramdas Pophale) SiO2 
 PCOD8027470
Probable space group: P -1
;
_chemical_formula_sum "Si O2"
_cell_formula_units_Z 16
_cell_length_a 15.450416
_cell_length_b 9.338123
_cell_length_c 15.308979
_cell_angle_alpha 90.846117
_cell_angle_beta 151.461927
_cell_angle_gamma 70.256088
_cell_volume 773.580942
_symmetry_space_group_name_H-M "P -1"
_symmetry_group_IT_number 2
_symmetry_cell_setting 'triclinic'
loop_
_space_group_symop_operation_xyz
x,y,z
-x,-y,-z
loop_
_atom_site_type_symbol
_atom_site_label
_atom_site_fract_x
_atom_site_fract_y
_atom_site_fract_z
Si Si1 0.882358 0.878684 0.476503
Si Si2 0.939950 0.887628 0.723396
Si Si3 0.633120 0.278198 0.180455
Si Si4 0.758021 0.786494 0.710341
Si Si5 0.717932 0.675343 0.273204
Si Si6 0.365171 0.663024 0.513159
Si Si7 0.504007 0.423368 0.802799
Si Si8 0.810194 0.448683 0.785224
O O1 0.703197 0.855134 0.274677
O O2 0.888944 0.844059 0.584543
O O3 0.162571 0.730703 0.685704
O O4 0.766767 0.096252 0.361190
O O5 0.897292 0.789354 0.756060
O O6 0.225487 0.781160 0.983531
O O7 0.761439 0.117535 0.580485
O O8 0.469202 0.472885 0.095300
O O9 0.466909 0.278826 0.965358
O O10 0.733981 0.631297 0.664086
O O11 0.500000 0.000000 0.500000
O O12 0.908231 0.707991 0.934046
O O13 0.654320 0.627486 0.306147
O O14 0.000000 0.500000 0.500000
O O15 0.362090 0.568758 0.596402
O O16 0.644583 0.531333 0.726715
O O17 0.214463 0.671745 0.301334
#
# Coordination Sequence:
#
# PCOD8027470 Si02
#       8
#     2   2   2   2   2   2   2   2
#     4  11  24  43  70 100 135 179 230 282 336 403
#     4  12  24  43  67  99 136 178 225 278 340 400
#     4  11  23  46  70  93 141 182 222 285 342 396
#     4  11  23  43  69  99 135 175 219 277 340 404
#     4  12  24  42  66  99 133 184 233 271 340 406
#     4  11  24  45  67  99 130 174 225 281 338 401
#     4  12  24  44  67  98 139 180 225 281 340 400
#     4  10  24  45  69  96 133 173 224 277 342 405
#
# _framework density 20.683033999999999
#
# number of rings (size 3 to 8) (size 9 to 14) (size 15 to 20)
#    0.000    0.750    6.250    1.500    1.750    1.500 
#    2.250    0.000    0.000    0.000    0.000    0.000 
#    0.000    0.000    0.000    0.000    0.000    0.000 
#
# Total GULP energy -198415.398491 kJ/mol
# GULP energy per Si atom -12400.962406 kJ/mol
# Density = 2.063596 g / cm^3
# Si number density = 20.683034 Si / 1000 Ang^3
#
#
#
# Elastic Constant Matrix: (Units=GPa)
#
#
# Indices 1 2 3 4 5 6 
#
# 1 124.2151 36.4128 32.4853 5.0248 1.0927 13.9120
# 2 36.4128 78.0977 26.2552 6.7400 4.2564 -0.7275
# 3 32.4853 26.2552 89.3490 3.7391 2.6440 1.3512
# 4 5.0248 6.7400 3.7391 30.1120 8.7557 3.2341
# 5 1.0927 4.2564 2.6440 8.7557 31.0997 -0.8348
# 6 13.9120 -0.7275 1.3512 3.2341 -0.8348 31.4036
#
#
#
# Elastic Compliance Matrix: (Units=1/GPa)
#
#
# Indices 1 2 3 4 5 6 
#
# 1 0.010416 -0.004055 -0.002531 -0.000116 0.000314 -0.004579
# 2 -0.004055 0.016047 -0.003145 -0.002502 -0.001014 0.002534
# 3 -0.002531 -0.003145 0.013059 -0.000417 -0.000460 0.000517
# 4 -0.000116 -0.002502 -0.000417 0.037251 -0.010215 -0.004097
# 5 0.000314 -0.001014 -0.000460 -0.010215 0.035247 0.001846
# 6 -0.004579 0.002534 0.000517 -0.004097 0.001846 0.034380
#
#
# Mechanical properties :
#
#
# Convention : Reuss Voigt Hill
#
# Bulk Modulus (GPa) = 49.84694 53.55207 51.69951
# Shear Modulus (GPa) = 28.97736 31.62361 30.30049
#
# Velocity S-wave (km/s) = 3.74708 3.91444 3.83167
# Velocity P-wave (km/s) = 6.54779 6.81017 6.68027
#
# Compressibility (1/GPa) = 0.02006141
#
# Stress axis : x y z
#
# Youngs Moduli (GPa) = 96.00656 62.31576 76.57320
#
# Poissons Ratio (x) = 0.25272 0.19377
# Poissons Ratio (y) = 0.38935 0.24080
# Poissons Ratio (z) = 0.24295 0.19596
#
# Static dielectric constant tensor:
#      x y z
#    x 3.958640 0.184920 0.071050 
#    y 0.184920 3.890440 0.033740 
#    z 0.071050 0.033740 3.734760 
# 
# 
# High freq. dielectric constant tensor:
#      x y z
#    x 1.818720 0.009730 -0.002710 
#    y 0.009730 1.812510 -0.008360 
#    z -0.002710 -0.008360 1.812560 
# 
# From -- ./inp_files/529818.got.cif
#   From: 2010.06.25/outbox.cif.g09.slc.cpg/sg2_265_cif.got.tgz:529818.got - 2010.06.27 13:26:56.
