data_PCOD8027494
_publ_section_title
;
Structure prediction by ZEFSAII (Michael W. Deem and Ramdas Pophale) SiO2 
 PCOD8027494
Probable space group: P -1
;
_chemical_formula_sum "Si O2"
_cell_formula_units_Z 16
_cell_length_a 5.080199
_cell_length_b 15.412670
_cell_length_c 8.852429
_cell_angle_alpha 84.704441
_cell_angle_beta 80.723177
_cell_angle_gamma 67.889933
_cell_volume 633.390414
_symmetry_space_group_name_H-M "P -1"
_symmetry_group_IT_number 2
_symmetry_cell_setting 'triclinic'
loop_
_space_group_symop_operation_xyz
x,y,z
-x,-y,-z
loop_
_atom_site_type_symbol
_atom_site_label
_atom_site_fract_x
_atom_site_fract_y
_atom_site_fract_z
Si Si1 0.510274 0.417500 0.719229
Si Si2 0.906012 0.607260 0.458397
Si Si3 0.130482 0.630494 0.733137
Si Si4 0.712892 0.681554 0.015838
Si Si5 0.295985 0.792931 0.783861
Si Si6 0.045885 0.094826 0.953037
Si Si7 0.323473 0.933329 0.514157
Si Si8 0.493187 0.846026 0.205071
O O1 0.851679 0.378494 0.674540
O O2 0.378782 0.530195 0.691446
O O3 0.390488 0.363616 0.612023
O O4 0.430702 0.390659 0.898082
O O5 0.888673 0.656783 0.616659
O O6 0.000000 0.500000 0.500000
O O7 0.262925 0.710971 0.698226
O O8 0.013692 0.623878 0.914474
O O9 0.546106 0.750720 0.887574
O O10 0.731532 0.745574 0.147102
O O11 0.005292 0.844474 0.898336
O O12 0.354916 0.873103 0.671351
O O13 0.809988 0.146156 0.838910
O O14 0.369729 0.077142 0.870730
O O15 0.000000 0.000000 0.000000
O O16 0.453194 0.854870 0.386132
O O17 0.500000 0.000000 0.500000
O O18 0.000000 0.000000 0.500000
#
# Coordination Sequence:
#
# PCOD8027494 Si02
#       8
#     2   2   2   2   2   2   2   2
#     4  11  26  46  74 101 147 199 240 287 355 424
#     4  10  24  45  70 101 138 193 244 290 351 413
#     4  11  24  45  71 105 149 186 244 297 352 418
#     4  11  27  44  69 108 147 189 239 291 357 419
#     4  11  27  44  72 109 142 184 239 300 361 419
#     4  11  22  44  71  96 136 178 222 284 359 429
#     4  12  28  50  75 105 140 186 238 294 368 434
#     4  11  24  44  66 101 137 176 230 286 344 422
#
# _framework density 25.26088
#
# number of rings (size 3 to 8) (size 9 to 14) (size 15 to 20)
#    0.000    1.000    1.250    4.500   10.500    1.500 
#    0.000    0.000    0.000    0.000    0.000    0.000 
#    0.000    0.000    0.000    0.000    0.000    0.000 
#
# Total GULP energy -198325.109731 kJ/mol
# GULP energy per Si atom -12395.319358 kJ/mol
# Density = 2.520338 g / cm^3
# Si number density = 25.260880 Si / 1000 Ang^3
#
#
#
# Elastic Constant Matrix: (Units=GPa)
#
#
# Indices 1 2 3 4 5 6 
#
# 1 109.4514 23.7514 23.2515 -1.6844 -4.7063 21.5332
# 2 23.7514 87.9794 36.9896 6.0848 9.0536 20.8885
# 3 23.2515 36.9896 123.0796 5.5225 -5.6609 6.6348
# 4 -1.6844 6.0848 5.5225 60.4744 3.6762 -5.2987
# 5 -4.7063 9.0536 -5.6609 3.6762 38.3153 -0.1159
# 6 21.5332 20.8885 6.6348 -5.2987 -0.1159 32.0060
#
#
#
# Elastic Compliance Matrix: (Units=1/GPa)
#
#
# Indices 1 2 3 4 5 6 
#
# 1 0.010969 -0.000987 -0.001358 -0.000121 0.001372 -0.006469
# 2 -0.000987 0.016256 -0.004317 -0.001819 -0.004454 -0.009368
# 3 -0.001358 -0.004317 0.009720 -0.000489 0.002341 0.001644
# 4 -0.000121 -0.001819 -0.000489 0.017208 -0.001296 0.004214
# 5 0.001372 -0.004454 0.002341 -0.001296 0.027795 0.001385
# 6 -0.006469 -0.009368 0.001644 0.004214 0.001385 0.042072
#
#
# Mechanical properties :
#
#
# Convention : Reuss Voigt Hill
#
# Bulk Modulus (GPa) = 42.33719 54.27727 48.30723
# Shear Modulus (GPa) = 34.43074 41.92701 38.17887
#
# Velocity S-wave (km/s) = 3.69590 4.07844 3.89187
# Velocity P-wave (km/s) = 5.91686 6.61147 6.27378
#
# Compressibility (1/GPa) = 0.02361990
#
# Stress axis : x y z
#
# Youngs Moduli (GPa) = 91.16535 61.51498 102.88124
#
# Poissons Ratio (x) = 0.06072 0.13974
# Poissons Ratio (y) = 0.08998 0.44417
# Poissons Ratio (z) = 0.12383 0.26558
#
# Static dielectric constant tensor:
#      x y z
#    x 4.933980 0.139330 0.345320 
#    y 0.139330 4.662490 0.481860 
#    z 0.345320 0.481860 5.661880 
# 
# 
# High freq. dielectric constant tensor:
#      x y z
#    x 2.001470 0.014480 -0.011380 
#    y 0.014480 2.004780 0.008190 
#    z -0.011380 0.008190 2.020990 
# 
# From -- ./inp_files/135121.got.cif
#   From: 2010.06.25/outbox.cif.g09.slc.cpg/sg2_68_cif.got.tgz:135121.got - 2010.06.27 13:26:56.
