data_PCOD8027221
_publ_section_title
;
Structure prediction by ZEFSAII (Michael W. Deem and Ramdas Pophale) SiO2 
 PCOD8027221
Probable space group: P -1
;
_chemical_formula_sum "Si O2"
_cell_formula_units_Z 14
_cell_length_a 11.660190
_cell_length_b 25.120911
_cell_length_c 9.306512
_cell_angle_alpha 152.701276
_cell_angle_beta 141.739696
_cell_angle_gamma 30.850479
_cell_volume 638.226139
_symmetry_space_group_name_H-M "P -1"
_symmetry_group_IT_number 2
_symmetry_cell_setting 'triclinic'
loop_
_space_group_symop_operation_xyz
x,y,z
-x,-y,-z
loop_
_atom_site_type_symbol
_atom_site_label
_atom_site_fract_x
_atom_site_fract_y
_atom_site_fract_z
Si Si1 0.602157 0.857264 0.175500
Si Si2 0.331163 0.479220 0.869291
Si Si3 0.691344 0.505116 0.780751
Si Si4 0.806442 0.710670 0.303662
Si Si5 0.664715 0.181446 0.392075
Si Si6 0.974598 0.755343 0.074873
Si Si7 0.263897 0.078801 0.031454
O O1 0.755696 0.730888 0.132867
O O2 0.744957 0.851594 0.166781
O O3 0.500000 0.000000 0.500000
O O4 0.403224 0.846057 0.895284
O O5 0.432043 0.312977 0.553087
O O6 0.500000 0.500000 0.000000
O O7 0.316757 0.521840 0.123485
O O8 0.087073 0.588046 0.813627
O O9 0.500000 0.500000 0.500000
O O10 0.925573 0.391106 0.660607
O O11 0.667438 0.652532 0.094713
O O12 0.725029 0.855605 0.650940
O O13 0.847541 0.214137 0.619108
O O14 0.781191 0.040840 0.267054
O O15 0.928133 0.796169 0.958752
O O16 0.500000 0.000000 0.000000
#
# Coordination Sequence:
#
# PCOD8027221 Si02
#       7
#     2   2   2   2   2   2   2
#     4  12  24  46  67 101 138 178 229 286 349 413
#     4  10  24  44  70 104 133 179 239 281 340 409
#     4  11  26  46  70 103 141 182 229 285 349 415
#     4  11  26  44  70 103 141 180 227 285 356 406
#     4  11  25  43  72 101 136 182 236 283 343 411
#     4  11  25  44  71 100 139 183 234 285 344 409
#     4  12  23  47  69 103 141 184 230 288 346 413
#
# _framework density 21.935797000000001
#
# number of rings (size 3 to 8) (size 9 to 14) (size 15 to 20)
#    0.000    0.857    4.286    1.286    8.000    2.286 
#    5.143    0.000    0.000    0.000    0.000    0.000 
#    0.000    0.000    0.000    0.000    0.000    0.000 
#
# Total GULP energy -173587.469553 kJ/mol
# GULP energy per Si atom -12399.104968 kJ/mol
# Density = 2.188587 g / cm^3
# Si number density = 21.935797 Si / 1000 Ang^3
#
#
#
# Elastic Constant Matrix: (Units=GPa)
#
#
# Indices 1 2 3 4 5 6 
#
# 1 90.1238 22.4892 31.7312 -0.8172 0.2470 11.0055
# 2 22.4892 122.1358 40.8202 -7.2701 1.3674 25.1172
# 3 31.7312 40.8202 110.8703 1.5758 -3.0637 1.5608
# 4 -0.8172 -7.2701 1.5758 42.6272 -0.0742 0.2313
# 5 0.2470 1.3674 -3.0637 -0.0742 35.6156 -3.0841
# 6 11.0055 25.1172 1.5608 0.2313 -3.0841 41.1197
#
#
#
# Elastic Compliance Matrix: (Units=1/GPa)
#
#
# Indices 1 2 3 4 5 6 
#
# 1 0.012819 -0.000570 -0.003438 0.000291 -0.000622 -0.003001
# 2 -0.000570 0.011083 -0.003891 0.002057 -0.001322 -0.006581
# 3 -0.003438 -0.003891 0.011450 -0.001166 0.001413 0.002975
# 4 0.000291 0.002057 -0.001166 0.023866 -0.000257 -0.001443
# 5 -0.000622 -0.001322 0.001413 -0.000257 0.028519 0.003061
# 6 -0.003001 -0.006581 0.002975 -0.001443 0.003061 0.029267
#
#
# Mechanical properties :
#
#
# Convention : Reuss Voigt Hill
#
# Bulk Modulus (GPa) = 51.13805 57.02347 54.08076
# Shear Modulus (GPa) = 35.88863 39.07846 37.48354
#
# Velocity S-wave (km/s) = 4.04923 4.22535 4.13823
# Velocity P-wave (km/s) = 6.72495 7.06094 6.89499
#
# Compressibility (1/GPa) = 0.01955491
#
# Stress axis : x y z
#
# Youngs Moduli (GPa) = 78.00701 90.22495 87.33806
#
# Poissons Ratio (x) = 0.05143 0.30028
# Poissons Ratio (y) = 0.04447 0.33980
# Poissons Ratio (z) = 0.26820 0.35103
#
# Static dielectric constant tensor:
#      x y z
#    x 3.917150 0.309530 -0.095580 
#    y 0.309530 4.770810 0.277990 
#    z -0.095580 0.277990 3.728270 
# 
# 
# High freq. dielectric constant tensor:
#      x y z
#    x 1.861090 0.009440 -0.000600 
#    y 0.009440 1.880500 0.007420 
#    z -0.000600 0.007420 1.860390 
# 
# From -- ./inp_files/259718.got.cif
#   From: 2010.06.25/outbox.cif.g09.slc.cpg/sg2_130_cif.got.tgz:259718.got - 2010.06.27 13:26:56.
