data_PCOD8027167
_publ_section_title
;
Structure prediction by ZEFSAII (Michael W. Deem and Ramdas Pophale) SiO2 
 PCOD8027167
Probable space group: P -1
;
_chemical_formula_sum "Si O2"
_cell_formula_units_Z 14
_cell_length_a 12.930419
_cell_length_b 5.196900
_cell_length_c 19.538615
_cell_angle_alpha 92.863975
_cell_angle_beta 27.530003
_cell_angle_gamma 86.031984
_cell_volume 587.500814
_symmetry_space_group_name_H-M "P -1"
_symmetry_group_IT_number 2
_symmetry_cell_setting 'triclinic'
loop_
_space_group_symop_operation_xyz
x,y,z
-x,-y,-z
loop_
_atom_site_type_symbol
_atom_site_label
_atom_site_fract_x
_atom_site_fract_y
_atom_site_fract_z
Si Si1 0.275352 0.985797 0.991823
Si Si2 0.230194 0.023240 0.278336
Si Si3 0.996428 0.571654 0.190024
Si Si4 0.094569 0.275776 0.495091
Si Si5 0.851968 0.419794 0.417547
Si Si6 0.390330 0.299034 0.690815
Si Si7 0.267200 0.857239 0.842892
O O1 0.152999 0.784613 0.100373
O O2 0.115658 0.283653 0.084558
O O3 0.504673 0.010006 0.899505
O O4 0.350986 0.856760 0.871950
O O5 0.225717 0.040643 0.365656
O O6 0.074463 0.250327 0.325295
O O7 0.119285 0.771787 0.333234
O O8 0.933874 0.545084 0.304700
O O9 0.764085 0.688911 0.285853
O O10 0.264020 0.354758 0.454054
O O11 0.000000 0.500000 0.500000
O O12 0.656174 0.268871 0.511043
O O13 0.297172 0.556279 0.796037
O O14 0.397824 0.027443 0.721885
O O15 0.000000 0.000000 0.000000
#
# Coordination Sequence:
#
# PCOD8027167 Si02
#       7
#     2   2   2   2   2   2   2
#     4  12  27  44  72 100 140 178 226 282 341 406
#     4  10  24  44  69 102 132 175 230 286 339 397
#     4  12  27  47  66 101 140 186 225 272 336 414
#     4   9  21  43  66 100 130 171 229 279 338 389
#     4  11  27  43  70  97 140 181 226 275 338 408
#     4  12  25  45  72 102 134 181 229 284 335 394
#     4  12  23  45  72 103 137 173 230 285 343 391
#
# _framework density 23.829751999999999
#
# number of rings (size 3 to 8) (size 9 to 14) (size 15 to 20)
#    0.000    0.857    2.857    2.571   14.000    1.143 
#    0.000    2.857    0.000    0.000    0.000    0.000 
#    0.000    0.000    0.000    0.000    0.000    0.000 
#
# Total GULP energy -173482.988938 kJ/mol
# GULP energy per Si atom -12391.642067 kJ/mol
# Density = 2.377551 g / cm^3
# Si number density = 23.829752 Si / 1000 Ang^3
#
#
#
# Elastic Constant Matrix: (Units=GPa)
#
#
# Indices 1 2 3 4 5 6 
#
# 1 83.9517 18.1046 56.3098 -16.2033 -0.3705 -18.8534
# 2 18.1046 97.5418 20.9841 -28.6674 -0.0275 -8.0368
# 3 56.3098 20.9841 101.0298 -41.4743 -19.5522 -19.7769
# 4 -16.2033 -28.6674 -41.4743 49.7068 2.4884 2.5290
# 5 -0.3705 -0.0275 -19.5522 2.4884 47.8319 -5.8678
# 6 -18.8534 -8.0368 -19.7769 2.5290 -5.8678 30.5879
#
#
#
# Elastic Compliance Matrix: (Units=1/GPa)
#
#
# Indices 1 2 3 4 5 6 
#
# 1 0.021637 -0.002561 -0.014686 -0.006558 -0.005162 0.002720
# 2 -0.002561 0.013021 0.003562 0.009391 0.001401 0.003638
# 3 -0.014686 0.003562 0.031624 0.022327 0.013252 0.013026
# 4 -0.006558 0.009391 0.022327 0.041047 0.008302 0.011060
# 5 -0.005162 0.001401 0.013252 0.008302 0.027112 0.010269
# 6 0.002720 0.003638 0.013026 0.011060 0.010269 0.044802
#
#
# Mechanical properties :
#
#
# Convention : Reuss Voigt Hill
#
# Bulk Modulus (GPa) = 25.70035 52.59117 39.14576
# Shear Modulus (GPa) = 22.77012 38.10031 30.43522
#
# Velocity S-wave (km/s) = 3.09452 4.00291 3.57766
# Velocity P-wave (km/s) = 4.85556 6.59407 5.79044
#
# Compressibility (1/GPa) = 0.03890997
#
# Stress axis : x y z
#
# Youngs Moduli (GPa) = 46.21724 76.79640 31.62171
#
# Poissons Ratio (x) = 0.19670 0.46441
# Poissons Ratio (y) = 0.11837 -0.11262
# Poissons Ratio (z) = 0.67876 -0.27351
#
# Static dielectric constant tensor:
#      x y z
#    x -1.095520 -0.938920 -1.407100 
#    y -0.938920 4.235790 -0.334110 
#    z -1.407100 -0.334110 4.165020 
# 
# 
# High freq. dielectric constant tensor:
#      x y z
#    x 1.955610 -0.000660 -0.018150 
#    y -0.000660 1.949590 -0.018350 
#    z -0.018150 -0.018350 1.943570 
# 
# From -- ./inp_files/106914.got.cif
#   From: 2010.06.25/outbox.cif.g09.slc.cpg/sg2_54_cif.got.tgz:106914.got - 2010.06.27 13:26:56.
