data_PCOD8027206
_publ_section_title
;
Structure prediction by ZEFSAII (Michael W. Deem and Ramdas Pophale) SiO2 
 PCOD8027206
Probable space group: P -1
;
_chemical_formula_sum "Si O2"
_cell_formula_units_Z 16
_cell_length_a 5.082769
_cell_length_b 12.544602
_cell_length_c 14.767406
_cell_angle_alpha 57.917468
_cell_angle_beta 61.629451
_cell_angle_gamma 82.920648
_cell_volume 691.361089
_symmetry_space_group_name_H-M "P -1"
_symmetry_group_IT_number 2
_symmetry_cell_setting 'triclinic'
loop_
_space_group_symop_operation_xyz
x,y,z
-x,-y,-z
loop_
_atom_site_type_symbol
_atom_site_label
_atom_site_fract_x
_atom_site_fract_y
_atom_site_fract_z
Si Si1 0.603791 0.949694 0.622317
Si Si2 0.543739 0.720791 0.217621
Si Si3 0.388499 0.186161 0.492339
Si Si4 0.699663 0.576304 0.856766
Si Si5 0.898482 0.853055 0.779059
Si Si6 0.078272 0.180216 0.731063
Si Si7 0.353223 0.546543 0.742194
Si Si8 0.242225 0.074061 0.042935
O O1 0.746552 0.868541 0.558054
O O2 0.799642 0.953603 0.679458
O O3 0.254754 0.886684 0.726840
O O4 0.635119 0.097001 0.518910
O O5 0.641458 0.735025 0.300385
O O6 0.515158 0.574111 0.261532
O O7 0.219348 0.758059 0.234586
O O8 0.795805 0.815376 0.073308
O O9 0.135131 0.173778 0.617607
O O10 0.548256 0.333334 0.394476
O O11 0.829533 0.715770 0.807885
O O12 0.486991 0.583217 0.802514
O O13 0.988263 0.508805 0.819035
O O14 0.500000 0.500000 0.000000
O O15 0.696396 0.855831 0.901554
O O16 0.050001 0.037475 0.843428
O O17 0.500000 0.000000 0.000000
#
# Coordination Sequence:
#
# PCOD8027206 Si02
#       8
#     2   2   2   2   2   2   2   2
#     4  11  26  42  70 105 136 181 226 286 345 416
#     4  11  26  46  69 100 140 183 242 283 344 413
#     4  11  25  46  71 103 146 179 235 288 344 419
#     4  12  25  45  70 103 139 184 232 283 348 416
#     4  12  23  45  69 104 135 179 230 277 356 412
#     4  11  25  44  71 101 136 189 231 288 349 401
#     4  12  26  47  69 102 142 187 228 290 346 407
#     4  10  24  44  70 101 138 178 229 293 341 408
#
# _framework density 23.142754
#
# number of rings (size 3 to 8) (size 9 to 14) (size 15 to 20)
#    0.000    0.750    3.750    2.250    3.500   10.000 
#    0.000    0.000    0.000    0.000    0.000    0.000 
#    0.000    0.000    0.000    0.000    0.000    0.000 
#
# Total GULP energy -198390.042585 kJ/mol
# GULP energy per Si atom -12399.377662 kJ/mol
# Density = 2.309008 g / cm^3
# Si number density = 23.142754 Si / 1000 Ang^3
#
#
#
# Elastic Constant Matrix: (Units=GPa)
#
#
# Indices 1 2 3 4 5 6 
#
# 1 80.6117 13.1271 21.1694 2.5441 6.6936 2.5703
# 2 13.1271 132.2662 53.0425 -3.0032 11.5672 -7.8171
# 3 21.1694 53.0425 128.8590 -0.7410 1.5903 -6.9104
# 4 2.5441 -3.0032 -0.7410 48.6051 4.1282 9.3568
# 5 6.6936 11.5672 1.5903 4.1282 28.2760 3.9272
# 6 2.5703 -7.8171 -6.9104 9.3568 3.9272 27.0584
#
#
#
# Elastic Compliance Matrix: (Units=1/GPa)
#
#
# Indices 1 2 3 4 5 6 
#
# 1 0.013282 -0.000339 -0.002088 -0.000249 -0.002655 -0.001421
# 2 -0.000339 0.009579 -0.003713 0.000456 -0.004012 0.002276
# 3 -0.002088 -0.003713 0.009696 -0.000381 0.001309 0.001544
# 4 -0.000249 0.000456 -0.000381 0.022210 -0.002337 -0.007283
# 5 -0.002655 -0.004012 0.001309 -0.002337 0.038649 -0.005374
# 6 -0.001421 0.002276 0.001544 -0.007283 -0.005374 0.041442
#
#
# Mechanical properties :
#
#
# Convention : Reuss Voigt Hill
#
# Bulk Modulus (GPa) = 49.31282 57.37944 53.34613
# Shear Modulus (GPa) = 32.48927 37.74775 35.11851
#
# Velocity S-wave (km/s) = 3.75088 4.04305 3.89970
# Velocity P-wave (km/s) = 6.33350 6.82953 6.58619
#
# Compressibility (1/GPa) = 0.02027870
#
# Stress axis : x y z
#
# Youngs Moduli (GPa) = 75.28947 104.39559 103.13236
#
# Poissons Ratio (x) = 0.03534 0.21529
# Poissons Ratio (y) = 0.02549 0.38295
# Poissons Ratio (z) = 0.15717 0.38764
#
# Static dielectric constant tensor:
#      x y z
#    x 3.993180 -0.055950 0.123820 
#    y -0.055950 4.377040 0.040980 
#    z 0.123820 0.040980 4.459920 
# 
# 
# High freq. dielectric constant tensor:
#      x y z
#    x 1.903210 0.000040 0.005560 
#    y 0.000040 1.927250 0.004220 
#    z 0.005560 0.004220 1.923110 
# 
# From -- ./inp_files/482712.got.cif
#   From: 2010.06.25/outbox.cif.g09.slc.cpg/sg2_242_cif.got.tgz:482712.got - 2010.06.27 13:26:56.
