data_PCOD8027412
_publ_section_title
;
Structure prediction by ZEFSAII (Michael W. Deem and Ramdas Pophale) SiO2 
 PCOD8027412
Probable space group: P -1
;
_chemical_formula_sum "Si O2"
_cell_formula_units_Z 16
_cell_length_a 11.408783
_cell_length_b 6.474353
_cell_length_c 11.923742
_cell_angle_alpha 56.437761
_cell_angle_beta 97.481347
_cell_angle_gamma 86.018234
_cell_volume 716.922048
_symmetry_space_group_name_H-M "P -1"
_symmetry_group_IT_number 2
_symmetry_cell_setting 'triclinic'
loop_
_space_group_symop_operation_xyz
x,y,z
-x,-y,-z
loop_
_atom_site_type_symbol
_atom_site_label
_atom_site_fract_x
_atom_site_fract_y
_atom_site_fract_z
Si Si1 0.488728 0.084102 0.101476
Si Si2 0.733798 0.151918 0.212395
Si Si3 0.689994 0.992118 0.484955
Si Si4 0.470843 0.792241 0.406465
Si Si5 0.903029 0.779833 0.216328
Si Si6 0.048227 0.237587 0.384577
Si Si7 0.040567 0.216039 0.132654
Si Si8 0.768672 0.666786 0.014771
O O1 0.606051 0.186835 0.124212
O O2 0.459521 0.876266 0.249734
O O3 0.374147 0.303490 0.020904
O O4 0.500000 0.000000 0.000000
O O5 0.807642 0.361203 0.109556
O O6 0.718556 0.191207 0.333554
O O7 0.814287 0.878235 0.279700
O O8 0.583310 0.874095 0.455887
O O9 0.808839 0.782002 0.577158
O O10 0.650280 0.116905 0.562843
O O11 0.500000 0.500000 0.500000
O O12 0.816305 0.770712 0.103550
O O13 0.981645 0.509185 0.340644
O O14 0.986507 0.988291 0.136313
O O15 0.017297 0.211215 0.260758
O O16 0.000000 0.000000 0.500000
O O17 0.181593 0.182846 0.126131
O O18 0.000000 0.500000 0.000000
#
# Coordination Sequence:
#
# PCOD8027412 Si02
#       8
#     2   2   2   2   2   2   2   2
#     4  11  24  43  70 107 131 180 235 287 354 418
#     4  11  24  44  71 102 143 183 234 294 347 420
#     4  10  24  45  68 101 136 185 230 282 351 411
#     4  10  24  47  71  98 140 178 229 288 348 413
#     4  12  24  44  71 102 143 186 235 290 350 417
#     4  12  27  45  70 103 142 186 237 288 350 420
#     4  12  25  44  67 101 139 185 233 292 350 413
#     4  12  24  43  68 102 141 181 232 290 356 413
#
# _framework density 22.317627000000002
#
# number of rings (size 3 to 8) (size 9 to 14) (size 15 to 20)
#    0.000    0.750    3.750    3.000    1.750    6.000 
#    4.500    0.000    0.000    0.000    0.000    0.000 
#    0.000    0.000    0.000    0.000    0.000    0.000 
#
# Total GULP energy -198262.562581 kJ/mol
# GULP energy per Si atom -12391.410161 kJ/mol
# Density = 2.226683 g / cm^3
# Si number density = 22.317627 Si / 1000 Ang^3
#
#
#
# Elastic Constant Matrix: (Units=GPa)
#
#
# Indices 1 2 3 4 5 6 
#
# 1 135.9942 51.5226 52.7072 -9.3571 2.6158 -16.2759
# 2 51.5226 117.0604 70.1208 -15.5581 -10.6794 -12.1585
# 3 52.7072 70.1208 150.8133 3.3863 -18.7784 -5.4612
# 4 -9.3571 -15.5581 3.3863 42.9428 -2.9261 -6.5899
# 5 2.6158 -10.6794 -18.7784 -2.9261 47.8397 -1.9638
# 6 -16.2759 -12.1585 -5.4612 -6.5899 -1.9638 32.7155
#
#
#
# Elastic Compliance Matrix: (Units=1/GPa)
#
#
# Indices 1 2 3 4 5 6 
#
# 1 0.009833 -0.002342 -0.002468 0.001968 -0.001749 0.003901
# 2 -0.002342 0.014349 -0.005614 0.005940 0.001677 0.004527
# 3 -0.002468 -0.005614 0.010439 -0.003538 0.002676 -0.002124
# 4 0.001968 0.005940 -0.003538 0.027540 0.001853 0.008255
# 5 -0.001749 0.001677 0.002676 0.001853 0.022616 0.001931
# 6 0.003901 0.004527 -0.002124 0.008255 0.001931 0.035614
#
#
# Mechanical properties :
#
#
# Convention : Reuss Voigt Hill
#
# Bulk Modulus (GPa) = 72.60565 83.61879 78.11222
# Shear Modulus (GPa) = 34.28660 40.00076 37.14368
#
# Velocity S-wave (km/s) = 3.92382 4.23820 4.08403
# Velocity P-wave (km/s) = 7.28917 7.84211 7.57069
#
# Compressibility (1/GPa) = 0.01377303
#
# Stress axis : x y z
#
# Youngs Moduli (GPa) = 101.69663 69.69252 95.79405
#
# Poissons Ratio (x) = 0.16324 0.23644
# Poissons Ratio (y) = 0.23820 0.53774
# Poissons Ratio (z) = 0.25101 0.39122
#
# Static dielectric constant tensor:
#      x y z
#    x 4.151530 -0.732990 -0.192010 
#    y -0.732990 3.542260 0.112480 
#    z -0.192010 0.112480 4.064400 
# 
# 
# High freq. dielectric constant tensor:
#      x y z
#    x 1.910250 -0.004480 -0.002190 
#    y -0.004480 1.868270 0.004910 
#    z -0.002190 0.004910 1.882660 
# 
# From -- ./inp_files/409887.got.cif
#   From: 2010.06.25/outbox.cif.g09.slc.cpg/sg2_205_cif.got.tgz:409887.got - 2010.06.27 13:26:56.
