data_PCOD8027035
_publ_section_title
;
Structure prediction by ZEFSAII (Michael W. Deem and Ramdas Pophale) SiO2 
 PCOD8027035
Probable space group: P -1
;
_chemical_formula_sum "Si O2"
_cell_formula_units_Z 16
_cell_length_a 10.592087
_cell_length_b 14.758461
_cell_length_c 8.475665
_cell_angle_alpha 95.598983
_cell_angle_beta 68.786676
_cell_angle_gamma 45.655523
_cell_volume 751.417898
_symmetry_space_group_name_H-M "P -1"
_symmetry_group_IT_number 2
_symmetry_cell_setting 'triclinic'
loop_
_space_group_symop_operation_xyz
x,y,z
-x,-y,-z
loop_
_atom_site_type_symbol
_atom_site_label
_atom_site_fract_x
_atom_site_fract_y
_atom_site_fract_z
Si Si1 0.900425 0.636133 0.741392
Si Si2 0.029663 0.367545 0.631189
Si Si3 0.317879 0.447060 0.737414
Si Si4 0.485985 0.114484 0.531417
Si Si5 0.296138 0.839751 0.691649
Si Si6 0.805730 0.141726 0.914533
Si Si7 0.536059 0.775888 0.137008
Si Si8 0.265346 0.615753 0.047357
O O1 0.887986 0.700650 0.595750
O O2 0.887814 0.534191 0.700140
O O3 0.116500 0.549406 0.725148
O O4 0.674850 0.771737 0.964038
O O5 0.233647 0.278851 0.640890
O O6 0.885881 0.363504 0.766034
O O7 0.548721 0.305932 0.515148
O O8 0.299727 0.384285 0.878741
O O9 0.301370 0.554889 0.845309
O O10 0.638147 0.087926 0.333725
O O11 0.569721 0.102869 0.662305
O O12 0.500000 0.000000 0.500000
O O13 0.328223 0.794866 0.850500
O O14 0.039465 0.964121 0.780062
O O15 0.659566 0.174478 0.850260
O O16 0.850183 0.224635 0.880808
O O17 0.500000 0.500000 0.000000
#
# Coordination Sequence:
#
# PCOD8027035 Si02
#       8
#     2   2   2   2   2   2   2   2
#     4  11  21  38  66  95 124 159 213 260 321 377
#     4  11  22  38  64  93 127 162 203 269 319 362
#     4  11  22  38  65  98 128 165 215 262 321 376
#     4  11  23  42  66  95 126 160 216 261 315 380
#     4  10  24  44  65  91 129 179 207 260 318 384
#     4  11  24  45  65  89 133 173 219 252 316 386
#     4  11  21  40  68  92 124 170 205 260 322 378
#     4  12  24  40  63  97 129 166 214 267 309 373
#
# _framework density 21.293078000000001
#
# number of rings (size 3 to 8) (size 9 to 14) (size 15 to 20)
#    0.000    1.000    5.000    2.625    3.500    2.500 
#    2.250    3.750    0.000    0.000    0.000    0.000 
#    0.000    0.000    0.000    0.000    0.000    0.000 
#
# Total GULP energy -198372.737494 kJ/mol
# GULP energy per Si atom -12398.296093 kJ/mol
# Density = 2.124461 g / cm^3
# Si number density = 21.293078 Si / 1000 Ang^3
#
#
#
# Elastic Constant Matrix: (Units=GPa)
#
#
# Indices 1 2 3 4 5 6 
#
# 1 133.7173 50.3020 62.6589 -13.0219 11.1427 -7.8842
# 2 50.3020 62.1547 33.1575 -14.0230 3.8782 0.3703
# 3 62.6589 33.1575 120.7042 -23.4142 -13.9832 2.9060
# 4 -13.0219 -14.0230 -23.4142 34.3179 0.8690 -1.0239
# 5 11.1427 3.8782 -13.9832 0.8690 34.5973 1.3307
# 6 -7.8842 0.3703 2.9060 -1.0239 1.3307 33.4341
#
#
#
# Elastic Compliance Matrix: (Units=1/GPa)
#
#
# Indices 1 2 3 4 5 6 
#
# 1 0.014033 -0.008093 -0.006269 -0.001978 -0.006256 0.004132
# 2 -0.008093 0.024875 -0.001521 0.006023 -0.000877 -0.001832
# 3 -0.006269 -0.001521 0.014175 0.006388 0.007867 -0.002811
# 4 -0.001978 0.006023 0.006388 0.035164 0.001663 -0.000078
# 5 -0.006256 -0.000877 0.007867 0.001663 0.034288 -0.003463
# 6 0.004132 -0.001832 -0.002811 -0.000078 -0.003463 0.031284
#
#
# Mechanical properties :
#
#
# Convention : Reuss Voigt Hill
#
# Bulk Modulus (GPa) = 46.91339 67.64588 57.27964
# Shear Modulus (GPa) = 25.94836 31.83372 28.89104
#
# Velocity S-wave (km/s) = 3.49467 3.87075 3.68751
# Velocity P-wave (km/s) = 6.19384 7.19826 6.71486
#
# Compressibility (1/GPa) = 0.02131588
#
# Stress axis : x y z
#
# Youngs Moduli (GPa) = 71.26076 40.20175 70.54602
#
# Poissons Ratio (x) = 0.32535 0.44228
# Poissons Ratio (y) = 0.57671 0.10730
# Poissons Ratio (z) = 0.44676 0.06115
#
# Static dielectric constant tensor:
#      x y z
#    x 3.416020 -0.115730 0.252440 
#    y -0.115730 3.845010 -0.158230 
#    z 0.252440 -0.158230 4.022850 
# 
# 
# High freq. dielectric constant tensor:
#      x y z
#    x 1.834870 -0.014500 -0.003700 
#    y -0.014500 1.821440 -0.012290 
#    z -0.003700 -0.012290 1.844790 
# 
# From -- ./inp_files/207660.got.cif
#   From: 2010.06.25/outbox.cif.g09.slc.cpg/sg2_104_cif.got.tgz:207660.got - 2010.06.27 13:26:56.
