data_PCOD8027790
_publ_section_title
;
Structure prediction by ZEFSAII (Michael W. Deem and Ramdas Pophale) SiO2 
 PCOD8027790
Probable space group: P -1
;
_chemical_formula_sum "Si O2"
_cell_formula_units_Z 16
_cell_length_a 11.031197
_cell_length_b 8.874902
_cell_length_c 19.701198
_cell_angle_alpha 125.736983
_cell_angle_beta 33.278515
_cell_angle_gamma 138.813433
_cell_volume 691.476071
_symmetry_space_group_name_H-M "P -1"
_symmetry_group_IT_number 2
_symmetry_cell_setting 'triclinic'
loop_
_space_group_symop_operation_xyz
x,y,z
-x,-y,-z
loop_
_atom_site_type_symbol
_atom_site_label
_atom_site_fract_x
_atom_site_fract_y
_atom_site_fract_z
Si Si1 0.717062 0.149005 0.828007
Si Si2 0.956753 0.947568 0.740501
Si Si3 0.025365 0.303922 0.457962
Si Si4 0.713213 0.768630 0.949448
Si Si5 0.790049 0.799520 0.102137
Si Si6 0.087206 0.602681 0.851582
Si Si7 0.359564 0.412116 0.738505
Si Si8 0.401390 0.915269 0.282323
O O1 0.756800 0.117613 0.722092
O O2 0.948308 0.413041 0.808034
O O3 0.722768 0.967621 0.824029
O O4 0.420767 0.095892 0.962255
O O5 0.850661 0.793322 0.818508
O O6 0.037109 0.837204 0.618615
O O7 0.231328 0.203878 0.690313
O O8 0.801916 0.148871 0.578221
O O9 0.000000 0.500000 0.500000
O O10 0.319979 0.399953 0.377534
O O11 0.500000 0.500000 0.000000
O O12 0.947235 0.924055 0.940021
O O13 0.669787 0.694501 0.203362
O O14 0.535982 0.774488 0.176131
O O15 0.867223 0.641089 0.991669
O O16 0.196127 0.525788 0.841500
O O17 0.348155 0.822616 0.751454
#
# Coordination Sequence:
#
# PCOD8027790 Si02
#       8
#     2   2   2   2   2   2   2   2
#     4  11  25  42  69 104 140 184 221 286 354 410
#     4  10  26  47  68 101 141 180 235 282 344 413
#     4  12  27  46  73  97 138 191 233 282 338 415
#     4  11  24  41  72 106 140 180 225 288 351 411
#     4  11  23  44  68 103 143 176 226 290 345 412
#     4  11  24  42  72 101 140 174 225 291 351 406
#     4  10  24  47  68 103 133 181 229 284 351 406
#     4  12  26  45  65 105 140 180 240 277 341 408
#
# _framework density 23.138907
#
# number of rings (size 3 to 8) (size 9 to 14) (size 15 to 20)
#    0.000    1.000    2.500    2.625    5.250    3.500 
#    0.000    2.500    0.000    0.000    0.000    0.000 
#    0.000    0.000    0.000    0.000    0.000    0.000 
#
# Total GULP energy -198405.087048 kJ/mol
# GULP energy per Si atom -12400.317940 kJ/mol
# Density = 2.308624 g / cm^3
# Si number density = 23.138907 Si / 1000 Ang^3
#
#
#
# Elastic Constant Matrix: (Units=GPa)
#
#
# Indices 1 2 3 4 5 6 
#
# 1 82.2563 15.3152 8.1632 13.1372 -13.6615 3.0895
# 2 15.3152 90.8053 38.5210 6.4102 -0.2943 1.1678
# 3 8.1632 38.5210 95.9311 8.7288 6.0506 11.6486
# 4 13.1372 6.4102 8.7288 31.7003 3.8963 -4.8735
# 5 -13.6615 -0.2943 6.0506 3.8963 33.8119 4.8820
# 6 3.0895 1.1678 11.6486 -4.8735 4.8820 27.4265
#
#
#
# Elastic Compliance Matrix: (Units=1/GPa)
#
#
# Indices 1 2 3 4 5 6 
#
# 1 0.015138 -0.002061 0.000287 -0.007545 0.007556 -0.004425
# 2 -0.002061 0.013699 -0.005561 -0.000078 0.000002 0.001996
# 3 0.000287 -0.005561 0.013767 -0.003585 -0.001105 -0.006083
# 4 -0.007545 -0.000078 -0.003585 0.038345 -0.008368 0.010679
# 5 0.007556 0.000002 -0.001105 -0.008368 0.034959 -0.008092
# 6 -0.004425 0.001996 -0.006083 0.010679 -0.008092 0.042796
#
#
# Mechanical properties :
#
#
# Convention : Reuss Voigt Hill
#
# Bulk Modulus (GPa) = 35.79819 43.66572 39.73195
# Shear Modulus (GPa) = 27.36933 32.38729 29.87831
#
# Velocity S-wave (km/s) = 3.44296 3.74530 3.59731
# Velocity P-wave (km/s) = 5.59552 6.13312 5.87048
#
# Compressibility (1/GPa) = 0.02793437
#
# Stress axis : x y z
#
# Youngs Moduli (GPa) = 66.05706 72.99781 72.63627
#
# Poissons Ratio (x) = 0.15044 -0.02082
# Poissons Ratio (y) = 0.13613 0.40392
# Poissons Ratio (z) = -0.01893 0.40593
#
# Static dielectric constant tensor:
#      x y z
#    x 4.818240 0.050190 -0.155780 
#    y 0.050190 4.404800 -0.021920 
#    z -0.155780 -0.021920 4.237060 
# 
# 
# High freq. dielectric constant tensor:
#      x y z
#    x 1.939260 -0.002700 -0.001470 
#    y -0.002700 1.926050 0.002070 
#    z -0.001470 0.002070 1.895410 
# 
# From -- ./inp_files/567034.got.cif
#   From: 2010.06.25/outbox.cif.g09.slc.cpg/sg2_284_cif.got.tgz:567034.got - 2010.06.27 13:26:56.
