data_PCOD8027655
_publ_section_title
;
Structure prediction by ZEFSAII (Michael W. Deem and Ramdas Pophale) SiO2 
 PCOD8027655
Probable space group: P -1
;
_chemical_formula_sum "Si O2"
_cell_formula_units_Z 14
_cell_length_a 11.893816
_cell_length_b 9.086775
_cell_length_c 11.499256
_cell_angle_alpha 142.666312
_cell_angle_beta 51.719914
_cell_angle_gamma 119.858263
_cell_volume 591.614005
_symmetry_space_group_name_H-M "P -1"
_symmetry_group_IT_number 2
_symmetry_cell_setting 'triclinic'
loop_
_space_group_symop_operation_xyz
x,y,z
-x,-y,-z
loop_
_atom_site_type_symbol
_atom_site_label
_atom_site_fract_x
_atom_site_fract_y
_atom_site_fract_z
Si Si1 0.472209 0.871494 0.313684
Si Si2 0.280035 0.473680 0.105659
Si Si3 0.169413 0.480078 0.568843
Si Si4 0.790426 0.009424 0.847073
Si Si5 0.412214 0.746486 0.695394
Si Si6 0.047114 0.187532 0.184716
Si Si7 0.055945 0.612886 0.154887
O O1 0.316542 0.739567 0.307726
O O2 0.500000 0.000000 0.500000
O O3 0.491394 0.056186 0.309522
O O4 0.577702 0.647508 0.107146
O O5 0.207183 0.298805 0.137618
O O6 0.171814 0.462863 0.058889
O O7 0.273239 0.697968 0.675392
O O8 0.065948 0.589325 0.603089
O O9 0.081615 0.364653 0.660541
O O10 0.265442 0.258905 0.321634
O O11 0.857140 0.141044 0.774854
O O12 0.933913 0.970217 0.810045
O O13 0.654115 0.150910 0.076928
O O14 0.500000 0.500000 0.500000
O O15 0.000000 0.000000 0.000000
O O16 0.000000 0.500000 0.000000
#
# Coordination Sequence:
#
# PCOD8027655 Si02
#       7
#     2   2   2   2   2   2   2
#     4  11  26  47  72  98 143 196 246 293 349 432
#     4  10  24  46  69 105 142 183 242 293 363 425
#     4  11  25  44  72 104 138 186 238 295 371 424
#     4  12  24  44  71 102 143 182 234 303 355 430
#     4  12  28  47  68 104 145 191 243 291 363 428
#     4  11  20  46  72 104 140 181 237 305 361 432
#     4  11  23  46  73 107 144 183 232 306 377 429
#
# _framework density 23.664078
#
# number of rings (size 3 to 8) (size 9 to 14) (size 15 to 20)
#    0.000    0.857    4.286    1.714    6.000    0.571 
#   10.286    0.000    0.000    0.000    0.000    0.000 
#    0.000    0.000    0.000    0.000    0.000    0.000 
#
# Total GULP energy -173469.211947 kJ/mol
# GULP energy per Si atom -12390.657996 kJ/mol
# Density = 2.361022 g / cm^3
# Si number density = 23.664078 Si / 1000 Ang^3
#
#
#
# Elastic Constant Matrix: (Units=GPa)
#
#
# Indices 1 2 3 4 5 6 
#
# 1 80.9876 19.3138 26.0403 -2.8747 8.8135 6.8331
# 2 19.3138 109.7355 22.2401 6.0348 3.1899 14.1251
# 3 26.0403 22.2401 118.4711 15.3285 -8.2245 1.6250
# 4 -2.8747 6.0348 15.3285 25.7440 3.0892 3.6165
# 5 8.8135 3.1899 -8.2245 3.0892 34.8756 8.1561
# 6 6.8331 14.1251 1.6250 3.6165 8.1561 45.6749
#
#
#
# Elastic Compliance Matrix: (Units=1/GPa)
#
#
# Indices 1 2 3 4 5 6 
#
# 1 0.014816 -0.001826 -0.003886 0.005111 -0.004694 -0.001080
# 2 -0.001826 0.010119 -0.001276 -0.001437 -0.000007 -0.002696
# 3 -0.003886 -0.001276 0.010734 -0.007083 0.004161 0.000412
# 4 0.005111 -0.001437 -0.007083 0.045072 -0.006233 -0.002524
# 5 -0.004694 -0.000007 0.004161 -0.006233 0.032505 -0.004754
# 6 -0.001080 -0.002696 0.000412 -0.002524 -0.004754 0.023923
#
#
# Mechanical properties :
#
#
# Convention : Reuss Voigt Hill
#
# Bulk Modulus (GPa) = 46.09668 49.37585 47.73626
# Shear Modulus (GPa) = 31.57037 37.36559 34.46798
#
# Velocity S-wave (km/s) = 3.65650 3.97797 3.82062
# Velocity P-wave (km/s) = 6.11135 6.48149 6.29914
#
# Compressibility (1/GPa) = 0.02169354
#
# Stress axis : x y z
#
# Youngs Moduli (GPa) = 67.49527 98.82451 93.15890
#
# Poissons Ratio (x) = 0.18042 0.36203
# Poissons Ratio (y) = 0.12322 0.11887
# Poissons Ratio (z) = 0.26230 0.12610
#
# Static dielectric constant tensor:
#      x y z
#    x 4.594470 -0.176840 0.112390 
#    y -0.176840 5.291250 0.112930 
#    z 0.112390 0.112930 4.240400 
# 
# 
# High freq. dielectric constant tensor:
#      x y z
#    x 1.941670 0.000230 0.008890 
#    y 0.000230 1.948060 0.015490 
#    z 0.008890 0.015490 1.931290 
# 
# From -- ./inp_files/420156.got.cif
#   From: 2010.06.25/outbox.cif.g09.slc.cpg/sg2_211_cif.got.tgz:420156.got - 2010.06.27 13:26:56.
