data_PCOD8027043
_publ_section_title
;
Structure prediction by ZEFSAII (Michael W. Deem and Ramdas Pophale) SiO2 
 PCOD8027043
Probable space group: P -1
;
_chemical_formula_sum "Si O2"
_cell_formula_units_Z 16
_cell_length_a 20.853482
_cell_length_b 9.442227
_cell_length_c 20.255978
_cell_angle_alpha 133.005103
_cell_angle_beta 161.122733
_cell_angle_gamma 39.351464
_cell_volume 793.943926
_symmetry_space_group_name_H-M "P -1"
_symmetry_group_IT_number 2
_symmetry_cell_setting 'triclinic'
loop_
_space_group_symop_operation_xyz
x,y,z
-x,-y,-z
loop_
_atom_site_type_symbol
_atom_site_label
_atom_site_fract_x
_atom_site_fract_y
_atom_site_fract_z
Si Si1 0.997879 0.017955 0.107504
Si Si2 0.184842 0.619698 0.065777
Si Si3 0.391907 0.851831 0.140562
Si Si4 0.558330 0.962346 0.120777
Si Si5 0.139310 0.208902 0.890125
Si Si6 0.188106 0.099987 0.451362
Si Si7 0.688649 0.219424 0.415731
Si Si8 0.677791 0.467451 0.105112
O O1 0.157425 0.769219 0.150683
O O2 0.128109 0.021894 0.301024
O O3 0.964738 0.214602 0.087961
O O4 0.746025 0.054582 0.894547
O O5 0.456718 0.472131 0.261438
O O6 0.089332 0.457254 0.940673
O O7 0.654948 0.796689 0.382273
O O8 0.411506 0.610189 0.069192
O O9 0.230044 0.033241 0.983496
O O10 0.677132 0.695460 0.166473
O O11 0.725201 0.051834 0.336028
O O12 0.500000 0.000000 0.000000
O O13 0.320119 0.112593 0.976222
O O14 0.906803 0.244555 0.642966
O O15 0.956412 0.274402 0.324779
O O16 0.350813 0.882654 0.587746
O O17 0.500000 0.500000 0.000000
#
# Coordination Sequence:
#
# PCOD8027043 Si02
#       8
#     2   2   2   2   2   2   2   2
#     4  10  24  44  65  97 128 165 213 259 326 378
#     4  10  24  44  66  93 135 164 201 273 320 384
#     4  11  22  41  64  96 127 164 216 263 314 372
#     4  11  25  41  61  92 132 168 210 257 323 374
#     4  11  22  44  64  94 129 168 211 266 312 379
#     4  11  22  40  67  97 126 167 217 262 309 379
#     4  11  22  43  66  92 128 168 213 262 316 376
#     4  11  21  40  64  90 126 168 212 262 307 370
#
# _framework density 20.152556000000001
#
# number of rings (size 3 to 8) (size 9 to 14) (size 15 to 20)
#    0.000    1.250    6.250    0.000    7.000    6.500 
#    0.000    2.500    0.000    0.000    0.000    0.000 
#    0.000    0.000    0.000    0.000    0.000    0.000 
#
# Total GULP energy -198341.565819 kJ/mol
# GULP energy per Si atom -12396.347864 kJ/mol
# Density = 2.010669 g / cm^3
# Si number density = 20.152556 Si / 1000 Ang^3
#
#
#
# Elastic Constant Matrix: (Units=GPa)
#
#
# Indices 1 2 3 4 5 6 
#
# 1 86.7933 34.1515 15.7492 -1.8873 -13.1939 -16.9360
# 2 34.1515 136.9613 46.1229 1.9720 -4.1857 -19.6334
# 3 15.7492 46.1229 94.6139 22.5347 -1.9919 -7.3837
# 4 -1.8873 1.9720 22.5347 25.5519 4.0963 0.6268
# 5 -13.1939 -4.1857 -1.9919 4.0963 31.8468 7.0378
# 6 -16.9360 -19.6334 -7.3837 0.6268 7.0378 21.1355
#
#
#
# Elastic Compliance Matrix: (Units=1/GPa)
#
#
# Indices 1 2 3 4 5 6 
#
# 1 0.014727 -0.002037 -0.001064 0.001377 0.003769 0.008241
# 2 -0.002037 0.010385 -0.005112 0.003673 -0.001753 0.006704
# 3 -0.001064 -0.005112 0.016811 -0.014804 0.001820 0.000105
# 4 0.001377 0.003673 -0.014804 0.053085 -0.006701 0.000000
# 5 0.003769 -0.001753 0.001820 -0.006701 0.035853 -0.009712
# 6 0.008241 0.006704 0.000105 0.000000 -0.009712 0.063415
#
#
# Mechanical properties :
#
#
# Convention : Reuss Voigt Hill
#
# Bulk Modulus (GPa) = 39.22018 56.71287 47.96652
# Shear Modulus (GPa) = 22.80996 30.52983 26.66989
#
# Velocity S-wave (km/s) = 3.36797 3.89644 3.64180
# Velocity P-wave (km/s) = 5.88457 6.96031 6.44492
#
# Compressibility (1/GPa) = 0.02549708
#
# Stress axis : x y z
#
# Youngs Moduli (GPa) = 67.90139 96.28883 59.48498
#
# Poissons Ratio (x) = 0.19617 0.06328
# Poissons Ratio (y) = 0.13834 0.30410
# Poissons Ratio (z) = 0.07223 0.49225
#
# Static dielectric constant tensor:
#      x y z
#    x 3.677140 -0.103680 0.118840 
#    y -0.103680 3.966630 0.193190 
#    z 0.118840 0.193190 3.696690 
# 
# 
# High freq. dielectric constant tensor:
#      x y z
#    x 1.780370 -0.002880 0.004100 
#    y -0.002880 1.796470 0.008880 
#    z 0.004100 0.008880 1.786030 
# 
# From -- ./inp_files/201786.got.cif
#   From: 2010.06.25/outbox.cif.g09.slc.cpg/sg2_101_cif.got.tgz:201786.got - 2010.06.27 13:26:56.
