data_PCOD8027592
_publ_section_title
;
Structure prediction by ZEFSAII (Michael W. Deem and Ramdas Pophale) SiO2 
 PCOD8027592
Probable space group: P -1
;
_chemical_formula_sum "Si O2"
_cell_formula_units_Z 14
_cell_length_a 5.151129
_cell_length_b 5.468409
_cell_length_c 24.926566
_cell_angle_alpha 62.355863
_cell_angle_beta 107.700361
_cell_angle_gamma 95.203014
_cell_volume 591.489016
_symmetry_space_group_name_H-M "P -1"
_symmetry_group_IT_number 2
_symmetry_cell_setting 'triclinic'
loop_
_space_group_symop_operation_xyz
x,y,z
-x,-y,-z
loop_
_atom_site_type_symbol
_atom_site_label
_atom_site_fract_x
_atom_site_fract_y
_atom_site_fract_z
Si Si1 0.154125 0.267076 0.970202
Si Si2 0.717920 0.750758 0.903854
Si Si3 0.414182 0.474394 0.672227
Si Si4 0.286464 0.667271 0.191998
Si Si5 0.164776 0.043312 0.624334
Si Si6 0.722708 0.516065 0.148473
Si Si7 0.563419 0.965259 0.569364
O O1 0.328843 0.254506 0.927033
O O2 0.928830 0.515322 0.917963
O O3 0.332437 0.312648 0.029886
O O4 0.000000 0.000000 0.000000
O O5 0.420795 0.752725 0.855929
O O6 0.845063 0.038929 0.867274
O O7 0.637310 0.330047 0.740799
O O8 0.566866 0.637890 0.618026
O O9 0.242304 0.230707 0.661005
O O10 0.234515 0.711164 0.671061
O O11 0.562383 0.608681 0.182135
O O12 0.043144 0.457664 0.189278
O O13 0.330341 0.134876 0.572493
O O14 0.845831 0.096418 0.588167
O O15 0.500000 0.000000 0.500000
#
# Coordination Sequence:
#
# PCOD8027592 Si02
#       7
#     2   2   2   2   2   2   2
#     4  11  23  47  69  99 134 169 228 287 359 423
#     4  11  25  43  72  98 131 180 221 291 361 423
#     4  10  28  46  72 105 147 194 242 294 355 421
#     4  12  29  44  70  97 137 180 235 284 348 422
#     4  10  25  44  73 105 148 190 237 297 351 418
#     4  12  26  47  65 100 129 175 226 289 344 424
#     4  10  24  45  76 112 147 193 240 295 354 418
#
# _framework density 23.669080000000001
#
# number of rings (size 3 to 8) (size 9 to 14) (size 15 to 20)
#    0.857    0.286    2.857    0.857    8.000    3.429 
#    0.000    0.000    0.000    0.000    0.000    0.000 
#    0.000    0.000    0.000    0.000    0.000    0.000 
#
# Total GULP energy -173453.822266 kJ/mol
# GULP energy per Si atom -12389.558733 kJ/mol
# Density = 2.361521 g / cm^3
# Si number density = 23.669080 Si / 1000 Ang^3
#
#
#
# Elastic Constant Matrix: (Units=GPa)
#
#
# Indices 1 2 3 4 5 6 
#
# 1 108.0754 41.8082 36.7812 5.3696 2.4092 18.1063
# 2 41.8082 118.8645 29.1401 32.2839 9.1857 12.7103
# 3 36.7812 29.1401 121.6747 27.1259 -1.1360 11.4403
# 4 5.3696 32.2839 27.1259 34.5300 9.5623 11.3550
# 5 2.4092 9.1857 -1.1360 9.5623 23.9483 11.8469
# 6 18.1063 12.7103 11.4403 11.3550 11.8469 30.8630
#
#
#
# Elastic Compliance Matrix: (Units=1/GPa)
#
#
# Indices 1 2 3 4 5 6 
#
# 1 0.013465 -0.005241 -0.003889 0.008100 0.001035 -0.007676
# 2 -0.005241 0.013354 0.001114 -0.013151 -0.000346 0.002134
# 3 -0.003889 0.001114 0.011631 -0.010828 0.005060 -0.000447
# 4 0.008100 -0.013151 -0.010828 0.055693 -0.013208 -0.010743
# 5 0.001035 -0.000346 0.005060 -0.013208 0.056848 -0.019302
# 6 -0.007676 0.002134 -0.000447 -0.010743 -0.019302 0.047553
#
#
# Mechanical properties :
#
#
# Convention : Reuss Voigt Hill
#
# Bulk Modulus (GPa) = 44.61020 62.67484 53.64252
# Shear Modulus (GPa) = 22.51764 33.92724 28.22244
#
# Velocity S-wave (km/s) = 3.08775 3.79013 3.45683
# Velocity P-wave (km/s) = 5.62144 6.75948 6.21656
#
# Compressibility (1/GPa) = 0.02241640
#
# Stress axis : x y z
#
# Youngs Moduli (GPa) = 74.26887 74.88466 85.97899
#
# Poissons Ratio (x) = 0.39251 0.33440
# Poissons Ratio (y) = 0.38928 -0.09581
# Poissons Ratio (z) = 0.28885 -0.08345
#
# Static dielectric constant tensor:
#      x y z
#    x 4.103790 0.147350 -0.190950 
#    y 0.147350 4.301720 0.198550 
#    z -0.190950 0.198550 4.293930 
# 
# 
# High freq. dielectric constant tensor:
#      x y z
#    x 1.929280 0.018190 -0.012560 
#    y 0.018190 1.936780 0.022690 
#    z -0.012560 0.022690 1.926290 
# 
# From -- ./inp_files/614818.got.cif
#   From: 2010.06.25/outbox.cif.g09.slc.cpg/sg2_308_cif.got.tgz:614818.got - 2010.06.27 13:26:56.
