data_PCOD8027971
_publ_section_title
;
Structure prediction by ZEFSAII (Michael W. Deem and Ramdas Pophale) SiO2 
 PCOD8027971
Probable space group: P -1
;
_chemical_formula_sum "Si O2"
_cell_formula_units_Z 16
_cell_length_a 10.704995
_cell_length_b 16.908888
_cell_length_c 12.024607
_cell_angle_alpha 36.704133
_cell_angle_beta 109.180062
_cell_angle_gamma 134.100017
_cell_volume 789.585355
_symmetry_space_group_name_H-M "P -1"
_symmetry_group_IT_number 2
_symmetry_cell_setting 'triclinic'
loop_
_space_group_symop_operation_xyz
x,y,z
-x,-y,-z
loop_
_atom_site_type_symbol
_atom_site_label
_atom_site_fract_x
_atom_site_fract_y
_atom_site_fract_z
Si Si1 0.653092 0.716883 0.739735
Si Si2 0.907846 0.151457 0.039840
Si Si3 0.344836 0.551765 0.659913
Si Si4 0.192047 0.345725 0.521416
Si Si5 0.182091 0.897995 0.187552
Si Si6 0.365461 0.302421 0.802083
Si Si7 0.492254 0.928430 0.197096
Si Si8 0.018624 0.074851 0.574084
O O1 0.515088 0.702199 0.635916
O O2 0.827163 0.774742 0.652707
O O3 0.500000 0.500000 0.000000
O O4 0.780419 0.900784 0.660242
O O5 0.730156 0.095820 0.118174
O O6 0.934389 0.032414 0.240763
O O7 0.830258 0.077765 0.973520
O O8 0.121706 0.395270 0.827835
O O9 0.366968 0.424685 0.752009
O O10 0.384456 0.700523 0.416562
O O11 0.261376 0.266339 0.696545
O O12 0.404843 0.579554 0.285906
O O13 0.057893 0.214026 0.521692
O O14 0.043973 0.319709 0.588053
O O15 0.350685 0.914956 0.247677
O O16 0.238746 0.079575 0.062578
O O17 0.500000 0.000000 0.000000
#
# Coordination Sequence:
#
# PCOD8027971 Si02
#       8
#     2   2   2   2   2   2   2   2
#     4  11  23  36  60  92 117 155 207 257 303 345
#     4  11  20  37  60  84 126 162 198 246 299 355
#     4  12  22  40  62  92 124 156 201 253 301 355
#     4  11  21  34  58  87 125 155 191 246 307 354
#     4  11  23  36  57  90 126 167 194 230 306 373
#     4  11  22  34  61  90 123 151 196 246 307 362
#     4  10  25  39  55  85 131 169 200 235 293 369
#     4  11  21  37  59  91 122 152 201 258 305 348
#
# _framework density 20.263801999999998
#
# number of rings (size 3 to 8) (size 9 to 14) (size 15 to 20)
#    0.000    1.000    6.250    1.125    5.250    3.000 
#    0.000    0.000    0.000    0.750    0.000    3.500 
#    0.000    0.000    0.000    0.000    0.000    0.000 
#
# Total GULP energy -198266.271107 kJ/mol
# GULP energy per Si atom -12391.641944 kJ/mol
# Density = 2.021768 g / cm^3
# Si number density = 20.263802 Si / 1000 Ang^3
#
#
#
# Elastic Constant Matrix: (Units=GPa)
#
#
# Indices 1 2 3 4 5 6 
#
# 1 98.2179 31.5629 36.8656 -17.9758 -16.7145 20.4736
# 2 31.5629 102.0507 15.9302 -11.8269 -4.9484 8.1404
# 3 36.8656 15.9302 100.1493 -10.1718 -19.7780 11.2055
# 4 -17.9758 -11.8269 -10.1718 28.3966 10.0097 -10.1114
# 5 -16.7145 -4.9484 -19.7780 10.0097 36.8050 -7.0282
# 6 20.4736 8.1404 11.2055 -10.1114 -7.0282 22.5896
#
#
#
# Elastic Compliance Matrix: (Units=1/GPa)
#
#
# Indices 1 2 3 4 5 6 
#
# 1 0.015229 -0.002989 -0.003385 0.003261 0.002103 -0.008933
# 2 -0.002989 0.011098 -0.000559 0.002853 -0.000947 -0.000030
# 3 -0.003385 -0.000559 0.012421 -0.000145 0.004824 -0.001457
# 4 0.003261 0.002853 -0.000145 0.046369 -0.008088 0.014327
# 5 0.002103 -0.000947 0.004824 -0.008088 0.033322 0.002790
# 6 -0.008933 -0.000030 -0.001457 0.014327 0.002790 0.060378
#
#
# Mechanical properties :
#
#
# Convention : Reuss Voigt Hill
#
# Bulk Modulus (GPa) = 40.18922 52.12616 46.15769
# Shear Modulus (GPa) = 24.87847 31.96219 28.42033
#
# Velocity S-wave (km/s) = 3.50770 3.97584 3.74908
# Velocity P-wave (km/s) = 6.02340 6.84515 6.44738
#
# Compressibility (1/GPa) = 0.02488230
#
# Stress axis : x y z
#
# Youngs Moduli (GPa) = 65.66358 90.10658 80.51090
#
# Poissons Ratio (x) = 0.26937 0.27249
# Poissons Ratio (y) = 0.19630 0.04499
# Poissons Ratio (z) = 0.22224 0.05035
#
# Static dielectric constant tensor:
#      x y z
#    x 3.859950 0.374770 -0.410530 
#    y 0.374770 3.841660 -0.154410 
#    z -0.410530 -0.154410 3.886560 
# 
# 
# High freq. dielectric constant tensor:
#      x y z
#    x 1.759630 0.022030 -0.035760 
#    y 0.022030 1.775000 -0.014940 
#    z -0.035760 -0.014940 1.800520 
# 
# From -- ./inp_files/437244.got.cif
#   From: 2010.06.25/outbox.cif.g09.slc.cpg/sg2_219_cif.got.tgz:437244.got - 2010.06.27 13:26:56.
