data_PCOD8027200
_publ_section_title
;
Structure prediction by ZEFSAII (Michael W. Deem and Ramdas Pophale) SiO2 
 PCOD8027200
Probable space group: P -1
;
_chemical_formula_sum "Si O2"
_cell_formula_units_Z 16
_cell_length_a 7.028974
_cell_length_b 8.430386
_cell_length_c 16.760437
_cell_angle_alpha 113.249196
_cell_angle_beta 84.904808
_cell_angle_gamma 122.922636
_cell_volume 755.730546
_symmetry_space_group_name_H-M "P -1"
_symmetry_group_IT_number 2
_symmetry_cell_setting 'triclinic'
loop_
_space_group_symop_operation_xyz
x,y,z
-x,-y,-z
loop_
_atom_site_type_symbol
_atom_site_label
_atom_site_fract_x
_atom_site_fract_y
_atom_site_fract_z
Si Si1 0.844836 0.365848 0.101852
Si Si2 0.358149 0.394409 0.905223
Si Si3 0.210730 0.804419 0.394004
Si Si4 0.463380 0.733034 0.502658
Si Si5 0.337316 0.730765 0.208403
Si Si6 0.679567 0.510837 0.382662
Si Si7 0.080651 0.926651 0.057110
Si Si8 0.507745 0.848871 0.803721
O O1 0.680168 0.441142 0.101090
O O2 0.729892 0.222652 0.156084
O O3 0.098639 0.559110 0.144448
O O4 0.850827 0.231394 0.003843
O O5 0.485594 0.335114 0.826023
O O6 0.121269 0.181865 0.892772
O O7 0.500000 0.500000 0.000000
O O8 0.287478 0.763965 0.467182
O O9 0.311409 0.740821 0.305768
O O10 0.936040 0.672711 0.373348
O O11 0.314352 0.049058 0.431694
O O12 0.552320 0.627820 0.420871
O O13 0.317299 0.588419 0.553457
O O14 0.419664 0.948104 0.208224
O O15 0.533050 0.331920 0.288583
O O16 0.299772 0.114495 0.131998
O O17 0.000000 0.000000 0.000000
#
# Coordination Sequence:
#
# PCOD8027200 Si02
#       8
#     2   2   2   2   2   2   2   2
#     4  12  25  46  70  94 141 179 226 283 328 397
#     4  12  24  43  69  95 134 182 230 276 334 391
#     4  11  23  44  70  99 135 174 223 272 341 402
#     4  10  24  44  70 101 130 175 221 273 341 413
#     4  12  25  44  68 100 137 181 226 279 332 400
#     4  11  23  44  70  99 139 171 219 281 338 399
#     4  12  25  45  70 101 138 184 230 281 338 397
#     4  12  25  44  67 101 139 177 228 279 339 399
#
# _framework density 21.171565000000001
#
# number of rings (size 3 to 8) (size 9 to 14) (size 15 to 20)
#    0.000    0.500    5.000    3.750    1.750    0.000 
#    2.250    1.250    0.000    0.000    0.000    0.000 
#    0.000    0.000    0.000    0.000    0.000    0.000 
#
# Total GULP energy -198492.559285 kJ/mol
# GULP energy per Si atom -12405.784955 kJ/mol
# Density = 2.112338 g / cm^3
# Si number density = 21.171565 Si / 1000 Ang^3
#
#
#
# Elastic Constant Matrix: (Units=GPa)
#
#
# Indices 1 2 3 4 5 6 
#
# 1 94.2243 36.9161 45.1047 10.4298 -10.2782 5.1174
# 2 36.9161 98.7180 30.9438 4.3533 -9.9986 20.6415
# 3 45.1047 30.9438 132.2420 18.6771 -15.4893 13.0658
# 4 10.4298 4.3533 18.6771 38.6167 1.1369 0.7209
# 5 -10.2782 -9.9986 -15.4893 1.1369 27.7171 -6.5945
# 6 5.1174 20.6415 13.0658 0.7209 -6.5945 33.7134
#
#
#
# Elastic Compliance Matrix: (Units=1/GPa)
#
#
# Indices 1 2 3 4 5 6 
#
# 1 0.014393 -0.004449 -0.003579 -0.001770 0.002383 0.002431
# 2 -0.004449 0.013663 -0.000873 0.000185 0.001084 -0.007143
# 3 -0.003579 -0.000873 0.010181 -0.003930 0.003719 -0.002056
# 4 -0.001770 0.000185 -0.003930 0.028362 -0.003875 0.000314
# 5 0.002383 0.001084 0.003719 -0.003875 0.040928 0.005622
# 6 0.002431 -0.007143 -0.002056 0.000314 0.005622 0.035557
#
#
# Mechanical properties :
#
#
# Convention : Reuss Voigt Hill
#
# Bulk Modulus (GPa) = 48.93759 61.23484 55.08622
# Shear Modulus (GPa) = 29.81561 34.15741 31.98651
#
# Velocity S-wave (km/s) = 3.75678 4.02103 3.89115
# Velocity P-wave (km/s) = 6.47942 7.10944 6.80173
#
# Compressibility (1/GPa) = 0.02043419
#
# Stress axis : x y z
#
# Youngs Moduli (GPa) = 69.47626 73.19262 98.22474
#
# Poissons Ratio (x) = 0.32566 0.35156
# Poissons Ratio (y) = 0.30912 0.08573
# Poissons Ratio (z) = 0.24866 0.06388
#
# Static dielectric constant tensor:
#      x y z
#    x 3.791860 0.162330 -0.136990 
#    y 0.162330 4.024210 -0.015390 
#    z -0.136990 -0.015390 3.984350 
# 
# 
# High freq. dielectric constant tensor:
#      x y z
#    x 1.824890 0.008150 -0.005000 
#    y 0.008150 1.852170 -0.000210 
#    z -0.005000 -0.000210 1.838230 
# 
# From -- ./inp_files/55776.got.cif
#   From: 2010.06.25/outbox.cif.g09.slc.cpg/sg2_28_cif.got.tgz:55776.got - 2010.06.27 13:26:56.
