data_PCOD8027822
_publ_section_title
;
Structure prediction by ZEFSAII (Michael W. Deem and Ramdas Pophale) SiO2 
 PCOD8027822
Probable space group: P -1
;
_chemical_formula_sum "Si O2"
_cell_formula_units_Z 16
_cell_length_a 17.137988
_cell_length_b 18.828598
_cell_length_c 6.240214
_cell_angle_alpha 75.852895
_cell_angle_beta 108.842343
_cell_angle_gamma 158.696313
_cell_volume 682.960179
_symmetry_space_group_name_H-M "P -1"
_symmetry_group_IT_number 2
_symmetry_cell_setting 'triclinic'
loop_
_space_group_symop_operation_xyz
x,y,z
-x,-y,-z
loop_
_atom_site_type_symbol
_atom_site_label
_atom_site_fract_x
_atom_site_fract_y
_atom_site_fract_z
Si Si1 0.959142 0.546378 0.353411
Si Si2 0.783418 0.558581 0.803355
Si Si3 0.209885 0.810339 0.045153
Si Si4 0.987207 0.880486 0.648135
Si Si5 0.384362 0.687580 0.479293
Si Si6 0.338704 0.762926 0.032652
Si Si7 0.578228 0.758624 0.934007
Si Si8 0.841001 0.893148 0.750437
O O1 0.860844 0.512536 0.482872
O O2 0.000000 0.500000 0.500000
O O3 0.802904 0.413196 0.097525
O O4 0.185961 0.771742 0.306494
O O5 0.841433 0.687283 0.678664
O O6 0.606417 0.375075 0.621255
O O7 0.009701 0.698915 0.889410
O O8 0.653516 0.453333 0.994495
O O9 0.443111 0.041936 0.056104
O O10 0.202176 0.725957 0.971648
O O11 0.819654 0.807076 0.631907
O O12 0.060242 0.956592 0.410937
O O13 0.211378 0.059563 0.857528
O O14 0.421794 0.794380 0.305779
O O15 0.554042 0.815282 0.735447
O O16 0.616526 0.729689 0.800677
O O17 0.000000 0.000000 0.000000
#
# Coordination Sequence:
#
# PCOD8027822 Si02
#       8
#     2   2   2   2   2   2   2   2
#     4  12  23  44  68  91 133 181 229 281 338 397
#     4  12  26  42  66 104 137 176 226 283 335 393
#     4  11  24  44  65  96 132 179 228 281 337 389
#     4  10  24  47  72 101 140 173 217 280 334 404
#     4  12  24  43  66  97 138 180 223 282 335 390
#     4  11  25  46  64  94 137 180 230 284 332 396
#     4  11  24  44  69 103 136 177 226 271 339 399
#     4   9  21  46  75 100 133 179 218 267 340 406
#
# _framework density 23.427429
#
# number of rings (size 3 to 8) (size 9 to 14) (size 15 to 20)
#    0.000    1.000    3.750    1.875    5.250    3.000 
#    2.250    8.750    0.000    0.000    0.000    0.000 
#    0.000    0.000    0.000    0.000    0.000    0.000 
#
# Total GULP energy -198228.443721 kJ/mol
# GULP energy per Si atom -12389.277733 kJ/mol
# Density = 2.337411 g / cm^3
# Si number density = 23.427429 Si / 1000 Ang^3
#
#
#
# Elastic Constant Matrix: (Units=GPa)
#
#
# Indices 1 2 3 4 5 6 
#
# 1 110.1201 37.7046 36.1751 -26.3547 -5.9905 15.7697
# 2 37.7046 73.7010 41.9423 -35.3990 -2.5342 11.4834
# 3 36.1751 41.9423 150.0361 -31.1999 18.6910 9.9833
# 4 -26.3547 -35.3990 -31.1999 43.3966 7.1984 -1.9097
# 5 -5.9905 -2.5342 18.6910 7.1984 42.8381 -10.9885
# 6 15.7697 11.4834 9.9833 -1.9097 -10.9885 36.3723
#
#
#
# Elastic Compliance Matrix: (Units=1/GPa)
#
#
# Indices 1 2 3 4 5 6 
#
# 1 0.011921 -0.003169 -0.001033 0.003690 0.000394 -0.003572
# 2 -0.003169 0.025723 -0.002006 0.017779 -0.002584 -0.006044
# 3 -0.001033 -0.002006 0.009604 0.005530 -0.006186 -0.003134
# 4 0.003690 0.017779 0.005530 0.045147 -0.010908 -0.009656
# 5 0.000394 -0.002584 -0.006186 -0.010908 0.030604 0.011016
# 6 -0.003572 -0.006044 -0.003134 -0.009656 0.011016 0.034632
#
#
# Mechanical properties :
#
#
# Convention : Reuss Voigt Hill
#
# Bulk Modulus (GPa) = 28.70720 62.83346 45.77033
# Shear Modulus (GPa) = 27.52463 39.05707 33.29085
#
# Velocity S-wave (km/s) = 3.43138 4.08751 3.77373
# Velocity P-wave (km/s) = 5.28956 7.01111 6.21028
#
# Compressibility (1/GPa) = 0.03483446
#
# Stress axis : x y z
#
# Youngs Moduli (GPa) = 83.88386 38.87585 104.12539
#
# Poissons Ratio (x) = 0.12318 0.10751
# Poissons Ratio (y) = 0.26580 0.20883
# Poissons Ratio (z) = 0.08661 0.07797
#
# Static dielectric constant tensor:
#      x y z
#    x 4.974220 0.713710 -0.334980 
#    y 0.713710 4.250970 -0.587790 
#    z -0.334980 -0.587790 5.253260 
# 
# 
# High freq. dielectric constant tensor:
#      x y z
#    x 1.937000 0.031890 0.008720 
#    y 0.031890 1.897940 -0.026220 
#    z 0.008720 -0.026220 1.946790 
# 
# From -- ./inp_files/112369.got.cif
#   From: 2010.06.25/outbox.cif.g09.slc.cpg/sg2_57_cif.got.tgz:112369.got - 2010.06.27 13:26:56.
