data_PCOD8027129
_publ_section_title
;
Structure prediction by ZEFSAII (Michael W. Deem and Ramdas Pophale) SiO2 
 PCOD8027129
Probable space group: P -1
;
_chemical_formula_sum "Si O2"
_cell_formula_units_Z 16
_cell_length_a 9.216037
_cell_length_b 14.746097
_cell_length_c 9.240031
_cell_angle_alpha 107.231909
_cell_angle_beta 78.857152
_cell_angle_gamma 46.405615
_cell_volume 710.859776
_symmetry_space_group_name_H-M "P -1"
_symmetry_group_IT_number 2
_symmetry_cell_setting 'triclinic'
loop_
_space_group_symop_operation_xyz
x,y,z
-x,-y,-z
loop_
_atom_site_type_symbol
_atom_site_label
_atom_site_fract_x
_atom_site_fract_y
_atom_site_fract_z
Si Si1 0.610789 0.168503 0.452376
Si Si2 0.045464 0.181076 0.753038
Si Si3 0.640637 0.625167 0.891288
Si Si4 0.226861 0.814210 0.844576
Si Si5 0.838112 0.727262 0.437214
Si Si6 0.581567 0.329746 0.765798
Si Si7 0.160756 0.642283 0.839320
Si Si8 0.893002 0.642478 0.682717
O O1 0.602177 0.235751 0.340666
O O2 0.340659 0.264770 0.581185
O O3 0.702171 0.187316 0.575127
O O4 0.809952 0.985431 0.305186
O O5 0.782320 0.288335 0.790409
O O6 0.207628 0.153348 0.588186
O O7 0.014095 0.261791 0.940233
O O8 0.389556 0.718833 0.911577
O O9 0.685802 0.709952 0.865562
O O10 0.877781 0.442504 0.720081
O O11 0.599048 0.635214 0.074837
O O12 0.141354 0.749817 0.801744
O O13 0.000000 0.000000 0.000000
O O14 0.785047 0.769399 0.640365
O O15 0.433166 0.479150 0.764749
O O16 0.090449 0.593712 0.721090
O O17 0.000000 0.500000 0.500000
#
# Coordination Sequence:
#
# PCOD8027129 Si02
#       8
#     2   2   2   2   2   2   2   2
#     4  12  27  46  71 102 145 190 231 290 357 413
#     4  12  25  47  67 106 145 184 236 287 355 420
#     4  11  22  45  72  96 145 183 232 293 348 412
#     4  12  25  47  70 101 146 187 233 292 351 420
#     4  11  24  45  71 101 141 180 237 294 339 424
#     4  12  25  44  72 105 139 187 239 291 344 419
#     4  12  25  44  76 104 136 192 236 286 356 416
#     4  10  24  44  68 105 138 177 232 293 349 406
#
# _framework density 22.507954000000002
#
# number of rings (size 3 to 8) (size 9 to 14) (size 15 to 20)
#    0.000    0.500    5.000    3.375    5.250    1.500 
#    0.000    1.250    0.000    0.000    0.000    0.000 
#    0.000    0.000    0.000    0.000    0.000    0.000 
#
# Total GULP energy -198362.073771 kJ/mol
# GULP energy per Si atom -12397.629611 kJ/mol
# Density = 2.245673 g / cm^3
# Si number density = 22.507954 Si / 1000 Ang^3
#
#
#
# Elastic Constant Matrix: (Units=GPa)
#
#
# Indices 1 2 3 4 5 6 
#
# 1 120.0591 45.4581 49.6871 -10.6088 4.2263 7.4198
# 2 45.4581 94.3154 40.4275 -12.7375 6.3612 14.0594
# 3 49.6871 40.4275 85.3122 -8.7679 7.7161 12.2957
# 4 -10.6088 -12.7375 -8.7679 41.6885 7.5665 -14.9331
# 5 4.2263 6.3612 7.7161 7.5665 40.3075 -11.4092
# 6 7.4198 14.0594 12.2957 -14.9331 -11.4092 36.3562
#
#
#
# Elastic Compliance Matrix: (Units=1/GPa)
#
#
# Indices 1 2 3 4 5 6 
#
# 1 0.011888 -0.003498 -0.005389 0.001239 0.000506 0.001416
# 2 -0.003498 0.015056 -0.004116 0.001989 -0.002651 -0.003732
# 3 -0.005389 -0.004116 0.017764 0.000184 -0.003444 -0.004321
# 4 0.001239 0.001989 0.000184 0.029052 -0.003141 0.009863
# 5 0.000506 -0.002651 -0.003444 -0.003141 0.029247 0.009975
# 6 0.001416 -0.003732 -0.004321 0.009863 0.009975 0.037303
#
#
# Mechanical properties :
#
#
# Convention : Reuss Voigt Hill
#
# Bulk Modulus (GPa) = 53.46553 63.42580 58.44567
# Shear Modulus (GPa) = 28.97731 34.61138 31.79435
#
# Velocity S-wave (km/s) = 3.59196 3.92566 3.76251
# Velocity P-wave (km/s) = 6.40379 6.98485 6.70062
#
# Compressibility (1/GPa) = 0.01870364
#
# Stress axis : x y z
#
# Youngs Moduli (GPa) = 84.11914 66.41659 56.29468
#
# Poissons Ratio (x) = 0.23232 0.30335
# Poissons Ratio (y) = 0.29424 0.23169
# Poissons Ratio (z) = 0.45329 0.27335
#
# Static dielectric constant tensor:
#      x y z
#    x 4.127410 0.326430 -0.248640 
#    y 0.326430 4.493480 -0.570100 
#    z -0.248640 -0.570100 4.138520 
# 
# 
# High freq. dielectric constant tensor:
#      x y z
#    x 1.885720 0.008000 -0.014040 
#    y 0.008000 1.899120 -0.023480 
#    z -0.014040 -0.023480 1.876610 
# 
# From -- ./inp_files/208283.got.cif
#   From: 2010.06.25/outbox.cif.g09.slc.cpg/sg2_105_cif.got.tgz:208283.got - 2010.06.27 13:26:56.
