data_PCOD8027961
_publ_section_title
;
Structure prediction by ZEFSAII (Michael W. Deem and Ramdas Pophale) SiO2 
 PCOD8027961
Probable space group: P -1
;
_chemical_formula_sum "Si O2"
_cell_formula_units_Z 16
_cell_length_a 9.194898
_cell_length_b 27.463785
_cell_length_c 10.560510
_cell_angle_alpha 158.952312
_cell_angle_beta 65.477089
_cell_angle_gamma 114.276059
_cell_volume 869.067514
_symmetry_space_group_name_H-M "P -1"
_symmetry_group_IT_number 2
_symmetry_cell_setting 'triclinic'
loop_
_space_group_symop_operation_xyz
x,y,z
-x,-y,-z
loop_
_atom_site_type_symbol
_atom_site_label
_atom_site_fract_x
_atom_site_fract_y
_atom_site_fract_z
Si Si1 0.092484 0.334193 0.831413
Si Si2 0.194475 0.491738 0.630449
Si Si3 0.251097 0.157707 0.156853
Si Si4 0.014011 0.049394 0.257784
Si Si5 0.666955 0.567420 0.815917
Si Si6 0.344624 0.992282 0.951626
Si Si7 0.445840 0.737485 0.169580
Si Si8 0.411980 0.316690 0.265714
O O1 0.141416 0.274263 0.532640
O O2 0.010279 0.213783 0.660886
O O3 0.248719 0.407292 0.018504
O O4 0.971983 0.450297 0.129812
O O5 0.194158 0.447232 0.375401
O O6 0.241593 0.371839 0.416848
O O7 0.342248 0.599830 0.852032
O O8 0.379197 0.217106 0.154029
O O9 0.138364 0.035878 0.830368
O O10 0.348542 0.108224 0.123719
O O11 0.189428 0.004305 0.128717
O O12 0.000000 0.000000 0.000000
O O13 0.542961 0.435229 0.549788
O O14 0.579186 0.703770 0.143364
O O15 0.334976 0.851038 0.535559
O O16 0.500000 0.000000 0.000000
O O17 0.524825 0.773857 0.092383
#
# Coordination Sequence:
#
# PCOD8027961 Si02
#       8
#     2   2   2   2   2   2   2   2
#     4  10  17  30  51  71  93 120 157 204 238 265
#     4   9  17  31  51  70  90 126 166 191 225 282
#     4  10  20  33  47  70 101 126 155 192 234 287
#     4   8  17  31  48  70  92 120 159 194 229 275
#     4   9  18  31  50  73  95 121 158 200 235 273
#     4  10  18  31  53  74  90 119 163 202 234 272
#     4   9  16  32  52  68  92 126 162 195 226 274
#     4   9  20  33  46  70 100 128 156 187 233 288
#
# _framework density 18.410537000000001
#
# number of rings (size 3 to 8) (size 9 to 14) (size 15 to 20)
#    0.000    3.000    0.000    5.625    0.000    1.500 
#    0.000    1.250    0.000    6.750    0.000    0.000 
#    0.000    0.000    0.000    0.000    0.000    0.000 
#
# Total GULP energy -198228.159646 kJ/mol
# GULP energy per Si atom -12389.259978 kJ/mol
# Density = 1.836863 g / cm^3
# Si number density = 18.410537 Si / 1000 Ang^3
#
#
#
# Elastic Constant Matrix: (Units=GPa)
#
#
# Indices 1 2 3 4 5 6 
#
# 1 92.0030 16.4473 4.3218 6.8637 -0.9890 0.5429
# 2 16.4473 75.1848 1.7235 15.5799 2.7212 -0.9615
# 3 4.3218 1.7235 48.0340 3.1848 -5.4878 -0.1543
# 4 6.8637 15.5799 3.1848 17.4074 5.3295 1.2662
# 5 -0.9890 2.7212 -5.4878 5.3295 29.7982 1.6003
# 6 0.5429 -0.9615 -0.1543 1.2662 1.6003 13.2816
#
#
#
# Elastic Compliance Matrix: (Units=1/GPa)
#
#
# Indices 1 2 3 4 5 6 
#
# 1 0.011478 -0.001926 -0.000656 -0.002952 0.000988 -0.000454
# 2 -0.001926 0.016790 0.000688 -0.014906 0.001056 0.002596
# 3 -0.000656 0.000688 0.021812 -0.005891 0.004970 0.000293
# 4 -0.002952 -0.014906 -0.005891 0.077608 -0.013336 -0.006819
# 5 0.000988 0.001056 0.004970 -0.013336 0.036962 -0.003088
# 6 -0.000454 0.002596 0.000293 -0.006819 -0.003088 0.076524
#
#
# Mechanical properties :
#
#
# Convention : Reuss Voigt Hill
#
# Bulk Modulus (GPa) = 21.60211 28.91190 25.25701
# Shear Modulus (GPa) = 19.20173 24.94606 22.07389
#
# Velocity S-wave (km/s) = 3.23302 3.68501 3.46639
# Velocity P-wave (km/s) = 5.06908 5.81754 5.45616
#
# Compressibility (1/GPa) = 0.04629177
#
# Stress axis : x y z
#
# Youngs Moduli (GPa) = 87.12464 59.55976 45.84568
#
# Poissons Ratio (x) = 0.11470 0.03010
# Poissons Ratio (y) = 0.16778 -0.03155
# Poissons Ratio (z) = 0.05720 -0.04099
#
# Static dielectric constant tensor:
#      x y z
#    x 4.056500 0.617320 -0.155220 
#    y 0.617320 3.475350 -0.006830 
#    z -0.155220 -0.006830 3.649680 
# 
# 
# High freq. dielectric constant tensor:
#      x y z
#    x 1.716200 0.007780 -0.005700 
#    y 0.007780 1.666600 -0.002740 
#    z -0.005700 -0.002740 1.716510 
# 
# From -- ./inp_files/185976.got.cif
#   From: 2010.06.25/outbox.cif.g09.slc.cpg/sg2_93_cif.got.tgz:185976.got - 2010.06.27 13:26:56.
