data_PCOD8027594
_publ_section_title
;
Structure prediction by ZEFSAII (Michael W. Deem and Ramdas Pophale) SiO2 
 PCOD8027594
Probable space group: P -1
;
_chemical_formula_sum "Si O2"
_cell_formula_units_Z 14
_cell_length_a 16.378636
_cell_length_b 22.389641
_cell_length_c 8.631434
_cell_angle_alpha 32.786452
_cell_angle_beta 145.878125
_cell_angle_gamma 159.101164
_cell_volume 596.467368
_symmetry_space_group_name_H-M "P -1"
_symmetry_group_IT_number 2
_symmetry_cell_setting 'triclinic'
loop_
_space_group_symop_operation_xyz
x,y,z
-x,-y,-z
loop_
_atom_site_type_symbol
_atom_site_label
_atom_site_fract_x
_atom_site_fract_y
_atom_site_fract_z
Si Si1 0.945959 0.934885 0.858573
Si Si2 0.860670 0.217370 0.039717
Si Si3 0.294297 0.329896 0.451606
Si Si4 0.274077 0.028860 0.370318
Si Si5 0.336075 0.843730 0.455287
Si Si6 0.462666 0.363777 0.324427
Si Si7 0.905738 0.471456 0.742372
O O1 0.750771 0.865563 0.822983
O O2 0.804865 0.832717 0.703208
O O3 0.154922 0.146157 0.708215
O O4 0.058251 0.890142 0.207578
O O5 0.114400 0.323444 0.155663
O O6 0.737757 0.072093 0.297140
O O7 0.711981 0.116596 0.865862
O O8 0.877202 0.349971 0.848413
O O9 0.500000 0.500000 0.500000
O O10 0.450137 0.377092 0.454715
O O11 0.515029 0.171356 0.341972
O O12 0.093993 0.664546 0.541024
O O13 0.500000 0.000000 0.500000
O O14 0.657339 0.386980 0.542594
O O15 0.500000 0.500000 0.000000
O O16 0.000000 0.500000 0.000000
#
# Coordination Sequence:
#
# PCOD8027594 Si02
#       7
#     2   2   2   2   2   2   2
#     4  10  25  46  76 105 147 193 247 301 376 436
#     4  11  25  49  72 108 148 191 250 306 376 440
#     4  11  26  46  77 108 147 192 244 305 374 448
#     4  10  24  45  77 103 143 188 250 299 375 434
#     4  12  27  44  74 104 148 192 245 304 373 440
#     4  12  28  46  75 107 154 194 252 302 366 445
#     4  12  28  48  74 112 150 198 248 307 374 442
#
# _framework density 23.471527999999999
#
# number of rings (size 3 to 8) (size 9 to 14) (size 15 to 20)
#    0.000    0.857    0.000    4.714   16.000    3.429 
#    0.000    0.000    0.000    0.000    0.000    0.000 
#    0.000    0.000    0.000    0.000    0.000    0.000 
#
# Total GULP energy -173433.952803 kJ/mol
# GULP energy per Si atom -12388.139486 kJ/mol
# Density = 2.341811 g / cm^3
# Si number density = 23.471528 Si / 1000 Ang^3
#
#
#
# Elastic Constant Matrix: (Units=GPa)
#
#
# Indices 1 2 3 4 5 6 
#
# 1 133.8754 47.9649 51.4206 9.5297 -4.9852 9.3456
# 2 47.9649 128.5625 46.1904 16.4544 -20.3969 -17.5278
# 3 51.4206 46.1904 131.3357 25.2598 -8.7871 -10.8789
# 4 9.5297 16.4544 25.2598 41.8154 -2.5141 -3.0712
# 5 -4.9852 -20.3969 -8.7871 -2.5141 41.5828 14.0615
# 6 9.3456 -17.5278 -10.8789 -3.0712 14.0615 42.0972
#
#
#
# Elastic Compliance Matrix: (Units=1/GPa)
#
#
# Indices 1 2 3 4 5 6 
#
# 1 0.010202 -0.003238 -0.003327 0.000653 0.000527 -0.004601
# 2 -0.003238 0.010842 -0.001631 -0.002085 0.003251 0.003574
# 3 -0.003327 -0.001631 0.010620 -0.004839 -0.000086 0.002480
# 4 0.000653 -0.002085 -0.004839 0.027482 -0.000246 -0.000177
# 5 0.000527 0.003251 -0.000086 -0.000246 0.028486 -0.008319
# 6 -0.004601 0.003574 0.002480 -0.000177 -0.008319 0.029671
#
#
# Mechanical properties :
#
#
# Convention : Reuss Voigt Hill
#
# Bulk Modulus (GPa) = 65.47429 76.10282 70.78856
# Shear Modulus (GPa) = 36.02676 41.64561 38.83618
#
# Velocity S-wave (km/s) = 3.92205 4.21682 4.07210
# Velocity P-wave (km/s) = 6.96173 7.49684 7.23423
#
# Compressibility (1/GPa) = 0.01527317
#
# Stress axis : x y z
#
# Youngs Moduli (GPa) = 98.02012 92.23178 94.15809
#
# Poissons Ratio (x) = 0.29866 0.31325
# Poissons Ratio (y) = 0.31741 0.15355
# Poissons Ratio (z) = 0.32609 0.15041
#
# Static dielectric constant tensor:
#      x y z
#    x 4.237040 0.057970 -0.227220 
#    y 0.057970 4.335030 0.459360 
#    z -0.227220 0.459360 4.226310 
# 
# 
# High freq. dielectric constant tensor:
#      x y z
#    x 1.952910 0.005480 -0.001940 
#    y 0.005480 1.930370 0.025760 
#    z -0.001940 0.025760 1.935440 
# 
# From -- ./inp_files/338653.got.cif
#   From: 2010.06.25/outbox.cif.g09.slc.cpg/sg2_170_cif.got.tgz:338653.got - 2010.06.27 13:26:56.
