data_PCOD8027329
_publ_section_title
;
Structure prediction by ZEFSAII (Michael W. Deem and Ramdas Pophale) SiO2 
 PCOD8027329
Probable space group: P -1
;
_chemical_formula_sum "Si O2"
_cell_formula_units_Z 16
_cell_length_a 9.411638
_cell_length_b 19.207739
_cell_length_c 8.552521
_cell_angle_alpha 101.751422
_cell_angle_beta 124.001413
_cell_angle_gamma 38.006844
_cell_volume 699.060154
_symmetry_space_group_name_H-M "P -1"
_symmetry_group_IT_number 2
_symmetry_cell_setting 'triclinic'
loop_
_space_group_symop_operation_xyz
x,y,z
-x,-y,-z
loop_
_atom_site_type_symbol
_atom_site_label
_atom_site_fract_x
_atom_site_fract_y
_atom_site_fract_z
Si Si1 0.553440 0.030206 0.396521
Si Si2 0.180900 0.205434 0.975036
Si Si3 0.603627 0.383402 0.503188
Si Si4 0.357248 0.862310 0.330170
Si Si5 0.727801 0.361941 0.019782
Si Si6 0.194218 0.765079 0.726163
Si Si7 0.651301 0.134698 0.031180
Si Si8 0.659695 0.610372 0.401270
O O1 0.360195 0.084304 0.139969
O O2 0.492770 0.131971 0.459465
O O3 0.500000 0.000000 0.500000
O O4 0.909292 0.894146 0.511013
O O5 0.420618 0.176532 0.030186
O O6 0.953531 0.321526 0.014693
O O7 0.951341 0.251183 0.725459
O O8 0.500000 0.500000 0.500000
O O9 0.585402 0.355835 0.307523
O O10 0.339165 0.435120 0.460619
O O11 0.505372 0.737435 0.410635
O O12 0.446030 0.849709 0.199203
O O13 0.992284 0.985893 0.193552
O O14 0.918253 0.255141 0.224114
O O15 0.500000 0.500000 0.000000
O O16 0.536788 0.362336 0.835266
O O17 0.366081 0.774016 0.912412
O O18 0.000000 0.500000 0.500000
#
# Coordination Sequence:
#
# PCOD8027329 Si02
#       8
#     2   2   2   2   2   2   2   2
#     4  11  25  42  73 105 139 182 227 291 359 423
#     4  11  26  44  72 105 137 179 237 283 363 403
#     4  11  28  47  68 104 145 183 239 292 343 422
#     4  10  24  45  69 104 142 181 239 288 358 420
#     4  11  24  46  69 101 141 184 237 290 343 424
#     4  11  23  45  69 101 143 179 231 287 352 419
#     4  10  24  44  75 101 140 183 231 297 347 422
#     4  11  26  45  71  97 139 192 237 285 356 414
#
# _framework density 22.887872000000002
#
# number of rings (size 3 to 8) (size 9 to 14) (size 15 to 20)
#    0.000    1.250    2.500    1.500    8.750    1.500 
#    0.000    1.875    0.000    0.000    0.000    0.000 
#    0.000    0.000    0.000    0.000    0.000    0.000 
#
# Total GULP energy -198264.394909 kJ/mol
# GULP energy per Si atom -12391.524682 kJ/mol
# Density = 2.283578 g / cm^3
# Si number density = 22.887872 Si / 1000 Ang^3
#
#
#
# Elastic Constant Matrix: (Units=GPa)
#
#
# Indices 1 2 3 4 5 6 
#
# 1 172.2087 60.6322 22.9223 -4.8327 -9.8243 -18.2326
# 2 60.6322 152.8070 23.8332 9.0387 0.3609 6.5194
# 3 22.9223 23.8332 77.3977 -2.8232 -5.4653 -3.8755
# 4 -4.8327 9.0387 -2.8232 28.8985 -1.3114 -4.5165
# 5 -9.8243 0.3609 -5.4653 -1.3114 30.7731 -2.2982
# 6 -18.2326 6.5194 -3.8755 -4.5165 -2.2982 41.4037
#
#
#
# Elastic Compliance Matrix: (Units=1/GPa)
#
#
# Indices 1 2 3 4 5 6 
#
# 1 0.007803 -0.003358 -0.000742 0.003099 0.002859 0.004392
# 2 -0.003358 0.008610 -0.002128 -0.004114 -0.001994 -0.003593
# 3 -0.000742 -0.002128 0.014144 0.002307 0.002527 0.001724
# 4 0.003099 -0.004114 0.002307 0.037819 0.003548 0.006551
# 5 0.002859 -0.001994 0.002527 0.003548 0.034338 0.004103
# 6 0.004392 -0.003593 0.001724 0.006551 0.004103 0.027756
#
#
# Mechanical properties :
#
#
# Convention : Reuss Voigt Hill
#
# Bulk Modulus (GPa) = 55.24309 68.57654 61.90982
# Shear Modulus (GPa) = 33.56614 39.88343 36.72478
#
# Velocity S-wave (km/s) = 3.83371 4.17892 4.01003
# Velocity P-wave (km/s) = 6.61704 7.30147 6.96767
#
# Compressibility (1/GPa) = 0.01810181
#
# Stress axis : x y z
#
# Youngs Moduli (GPa) = 128.15583 116.14720 70.70048
#
# Poissons Ratio (x) = 0.39000 0.05247
# Poissons Ratio (y) = 0.43033 0.15042
# Poissons Ratio (z) = 0.09511 0.24711
#
# Static dielectric constant tensor:
#      x y z
#    x 4.085620 -0.106010 -0.120600 
#    y -0.106010 4.166280 -0.095400 
#    z -0.120600 -0.095400 4.317900 
# 
# 
# High freq. dielectric constant tensor:
#      x y z
#    x 1.904670 -0.007930 -0.010940 
#    y -0.007930 1.910710 -0.001600 
#    z -0.010940 -0.001600 1.901470 
# 
# From -- ./inp_files/217925.got.cif
#   From: 2010.06.25/outbox.cif.g09.slc.cpg/sg2_109_cif.got.tgz:217925.got - 2010.06.27 13:26:56.
