data_PCOD8027426
_publ_section_title
;
Structure prediction by ZEFSAII (Michael W. Deem and Ramdas Pophale) SiO2 
 PCOD8027426
Probable space group: P -1
;
_chemical_formula_sum "Si O2"
_cell_formula_units_Z 16
_cell_length_a 13.944449
_cell_length_b 19.413904
_cell_length_c 9.769421
_cell_angle_alpha 129.627844
_cell_angle_beta 133.204355
_cell_angle_gamma 21.852654
_cell_volume 717.537948
_symmetry_space_group_name_H-M "P -1"
_symmetry_group_IT_number 2
_symmetry_cell_setting 'triclinic'
loop_
_space_group_symop_operation_xyz
x,y,z
-x,-y,-z
loop_
_atom_site_type_symbol
_atom_site_label
_atom_site_fract_x
_atom_site_fract_y
_atom_site_fract_z
Si Si1 0.292980 0.208018 0.173737
Si Si2 0.239789 0.411279 0.753162
Si Si3 0.221915 0.863885 0.924346
Si Si4 0.601204 0.528279 0.218464
Si Si5 0.932710 0.234913 0.394890
Si Si6 0.066615 0.893395 0.305057
Si Si7 0.530284 0.902937 0.511918
Si Si8 0.127738 0.142728 0.760621
O O1 0.376166 0.106267 0.266541
O O2 0.043781 0.423165 0.230640
O O3 0.582007 0.083918 0.259987
O O4 0.197267 0.200004 0.950779
O O5 0.253872 0.487477 0.760685
O O6 0.249545 0.306890 0.563540
O O7 0.487930 0.270499 0.921996
O O8 0.256173 0.739984 0.759279
O O9 0.143051 0.967522 0.846103
O O10 0.000000 0.000000 0.000000
O O11 0.819104 0.374140 0.352758
O O12 0.363188 0.724222 0.311936
O O13 0.500000 0.500000 0.000000
O O14 0.947071 0.262696 0.599499
O O15 0.239886 0.025506 0.388531
O O16 0.047181 0.804367 0.229719
O O17 0.000000 0.000000 0.500000
O O18 0.500000 0.000000 0.500000
#
# Coordination Sequence:
#
# PCOD8027426 Si02
#       8
#     2   2   2   2   2   2   2   2
#     4  10  24  45  68  92 133 190 230 283 335 408
#     4  12  24  42  73 101 139 173 237 292 338 412
#     4  12  22  42  68 104 139 175 225 288 355 415
#     4  12  24  40  71 109 138 177 229 288 354 420
#     4  11  22  42  67  99 139 174 226 283 350 410
#     4  12  25  42  68 101 142 185 222 285 360 415
#     4  11  24  42  68  98 133 180 230 287 342 399
#     4  10  24  45  68  91 144 186 229 278 348 419
#
# _framework density 22.298473000000001
#
# number of rings (size 3 to 8) (size 9 to 14) (size 15 to 20)
#    0.000    0.750    5.000    1.875    3.500    1.500 
#    0.000    0.625    0.000    0.000    0.000    0.000 
#    0.000    0.000    0.000    0.000    0.000    0.000 
#
# Total GULP energy -198303.938582 kJ/mol
# GULP energy per Si atom -12393.996161 kJ/mol
# Density = 2.224772 g / cm^3
# Si number density = 22.298473 Si / 1000 Ang^3
#
#
#
# Elastic Constant Matrix: (Units=GPa)
#
#
# Indices 1 2 3 4 5 6 
#
# 1 66.5366 7.9885 23.1489 0.4912 -13.0718 20.2532
# 2 7.9885 97.4508 24.9195 1.2010 -17.3079 3.7991
# 3 23.1489 24.9195 125.5415 -9.3648 -15.2216 12.0811
# 4 0.4912 1.2010 -9.3648 38.2140 8.2539 -7.3072
# 5 -13.0718 -17.3079 -15.2216 8.2539 35.7177 -4.9072
# 6 20.2532 3.7991 12.0811 -7.3072 -4.9072 42.0101
#
#
#
# Elastic Compliance Matrix: (Units=1/GPa)
#
#
# Indices 1 2 3 4 5 6 
#
# 1 0.019728 0.000479 -0.002434 -0.003868 0.006098 -0.008815
# 2 0.000479 0.011716 -0.001860 -0.002106 0.005481 -0.000482
# 3 -0.002434 -0.001860 0.009190 0.001847 0.001589 -0.000795
# 4 -0.003868 -0.002106 0.001847 0.029495 -0.007674 0.005758
# 5 0.006098 0.005481 0.001589 -0.007674 0.035181 -0.001118
# 6 -0.008815 -0.000482 -0.000795 0.005758 -0.001118 0.029197
#
#
# Mechanical properties :
#
#
# Convention : Reuss Voigt Hill
#
# Bulk Modulus (GPa) = 30.29789 44.62697 37.46243
# Shear Modulus (GPa) = 32.65002 38.75315 35.70158
#
# Velocity S-wave (km/s) = 3.83067 4.17337 4.00569
# Velocity P-wave (km/s) = 5.76041 6.57872 6.18312
#
# Compressibility (1/GPa) = 0.03300560
#
# Stress axis : x y z
#
# Youngs Moduli (GPa) = 50.68870 85.35269 108.80971
#
# Poissons Ratio (x) = -0.04093 0.26482
# Poissons Ratio (y) = -0.02430 0.20241
# Poissons Ratio (z) = 0.12337 0.15878
#
# Static dielectric constant tensor:
#      x y z
#    x 4.049720 -0.342730 -0.185390 
#    y -0.342730 4.346560 -0.118590 
#    z -0.185390 -0.118590 4.170530 
# 
# 
# High freq. dielectric constant tensor:
#      x y z
#    x 1.862370 -0.007940 -0.009940 
#    y -0.007940 1.883540 -0.014670 
#    z -0.009940 -0.014670 1.893520 
# 
# From -- ./inp_files/319501.got.cif
#   From: 2010.06.25/outbox.cif.g09.slc.cpg/sg2_160_cif.got.tgz:319501.got - 2010.06.27 13:26:56.
