data_PCOD8027700
_publ_section_title
;
Structure prediction by ZEFSAII (Michael W. Deem and Ramdas Pophale) SiO2 
 PCOD8027700
Probable space group: P -1
;
_chemical_formula_sum "Si O2"
_cell_formula_units_Z 16
_cell_length_a 20.330309
_cell_length_b 5.405965
_cell_length_c 11.413941
_cell_angle_alpha 113.725744
_cell_angle_beta 36.509508
_cell_angle_gamma 118.552335
_cell_volume 655.175039
_symmetry_space_group_name_H-M "P -1"
_symmetry_group_IT_number 2
_symmetry_cell_setting 'triclinic'
loop_
_space_group_symop_operation_xyz
x,y,z
-x,-y,-z
loop_
_atom_site_type_symbol
_atom_site_label
_atom_site_fract_x
_atom_site_fract_y
_atom_site_fract_z
Si Si1 0.385584 0.504284 0.733309
Si Si2 0.148458 0.153877 0.934480
Si Si3 0.023989 0.864994 0.267533
Si Si4 0.898400 0.239296 0.633162
Si Si5 0.539768 0.890135 0.300053
Si Si6 0.397498 0.527192 0.234813
Si Si7 0.926120 0.285468 0.216240
Si Si8 0.258373 0.889327 0.364966
O O1 0.500000 0.500000 0.500000
O O2 0.380632 0.315709 0.822086
O O3 0.389873 0.828379 0.817744
O O4 0.274652 0.369776 0.785950
O O5 0.056156 0.262627 0.015265
O O6 0.109053 0.110718 0.117576
O O7 0.149357 0.857013 0.815489
O O8 0.944336 0.619605 0.252948
O O9 0.108575 0.753288 0.213586
O O10 0.930347 0.957116 0.495940
O O11 0.778473 0.229864 0.737188
O O12 0.000000 0.500000 0.500000
O O13 0.437735 0.715050 0.329162
O O14 0.500000 0.000000 0.500000
O O15 0.322611 0.686238 0.297145
O O16 0.330939 0.215403 0.316132
O O17 0.500000 0.500000 0.000000
O O18 0.861140 0.137363 0.398808
#
# Coordination Sequence:
#
# PCOD8027700 Si02
#       8
#     2   2   2   2   2   2   2   2
#     4  10  24  46  71 108 140 200 246 305 374 444
#     4  11  25  43  71 109 156 188 253 312 370 463
#     4  11  22  44  66 105 153 194 247 309 376 450
#     4  11  23  44  71 102 148 193 251 303 378 460
#     4  10  24  48  75 104 143 193 255 309 379 440
#     4  12  29  52  75 112 151 197 267 322 372 460
#     4  11  25  44  70 112 150 199 244 306 388 456
#     4  12  26  48  80 106 147 209 248 310 396 450
#
# _framework density 24.420952
#
# number of rings (size 3 to 8) (size 9 to 14) (size 15 to 20)
#    0.000    1.000    2.500    2.250   10.500    1.000 
#    4.500    0.000    0.000    0.000    0.000    0.000 
#    0.000    0.000    0.000    0.000    0.000    0.000 
#
# Total GULP energy -198305.278210 kJ/mol
# GULP energy per Si atom -12394.079888 kJ/mol
# Density = 2.436537 g / cm^3
# Si number density = 24.420952 Si / 1000 Ang^3
#
#
#
# Elastic Constant Matrix: (Units=GPa)
#
#
# Indices 1 2 3 4 5 6 
#
# 1 129.7137 52.8366 11.4291 -1.6727 -13.9027 3.0328
# 2 52.8366 170.1182 19.4009 -15.3522 -20.8410 -2.0008
# 3 11.4291 19.4009 71.3216 -12.3351 -12.1681 8.6367
# 4 -1.6727 -15.3522 -12.3351 31.7951 6.5228 -0.0279
# 5 -13.9027 -20.8410 -12.1681 6.5228 32.5513 -3.1296
# 6 3.0328 -2.0008 8.6367 -0.0279 -3.1296 55.1744
#
#
#
# Elastic Compliance Matrix: (Units=1/GPa)
#
#
# Indices 1 2 3 4 5 6 
#
# 1 0.009052 -0.002609 -0.000566 -0.001463 0.002241 -0.000377
# 2 -0.002609 0.007363 -0.000737 0.002541 0.002882 0.000691
# 3 -0.000566 -0.000737 0.016160 0.005041 0.004097 -0.002290
# 4 -0.001463 0.002541 0.005041 0.035438 -0.004295 -0.000842
# 5 0.002241 0.002882 0.004097 -0.004295 0.036048 0.001383
# 6 -0.000377 0.000691 -0.002290 -0.000842 0.001383 0.018607
#
#
# Mechanical properties :
#
#
# Convention : Reuss Voigt Hill
#
# Bulk Modulus (GPa) = 40.40170 59.83184 50.11677
# Shear Modulus (GPa) = 36.03800 43.06996 39.55398
#
# Velocity S-wave (km/s) = 3.84565 4.20414 4.02888
# Velocity P-wave (km/s) = 6.02482 6.93684 6.49685
#
# Compressibility (1/GPa) = 0.02475143
#
# Stress axis : x y z
#
# Youngs Moduli (GPa) = 110.47336 135.81246 61.87951
#
# Poissons Ratio (x) = 0.35431 0.03502
# Poissons Ratio (y) = 0.28820 0.04563
# Poissons Ratio (z) = 0.06252 0.10014
#
# Static dielectric constant tensor:
#      x y z
#    x 2.660010 0.491330 0.093210 
#    y 0.491330 5.037790 0.247270 
#    z 0.093210 0.247270 4.352480 
# 
# 
# High freq. dielectric constant tensor:
#      x y z
#    x 1.979170 -0.000340 0.005120 
#    y -0.000340 1.993810 0.000970 
#    z 0.005120 0.000970 1.942150 
# 
# From -- ./inp_files/468461.got.cif
#   From: 2010.06.25/outbox.cif.g09.slc.cpg/sg2_235_cif.got.tgz:468461.got - 2010.06.27 13:26:56.
