data_PCOD8027322
_publ_section_title
;
Structure prediction by ZEFSAII (Michael W. Deem and Ramdas Pophale) SiO2 
 PCOD8027322
Probable space group: P -1
;
_chemical_formula_sum "Si O2"
_cell_formula_units_Z 16
_cell_length_a 22.842252
_cell_length_b 9.366544
_cell_length_c 9.048200
_cell_angle_alpha 149.233405
_cell_angle_beta 46.695272
_cell_angle_gamma 133.497051
_cell_volume 694.712861
_symmetry_space_group_name_H-M "P -1"
_symmetry_group_IT_number 2
_symmetry_cell_setting 'triclinic'
loop_
_space_group_symop_operation_xyz
x,y,z
-x,-y,-z
loop_
_atom_site_type_symbol
_atom_site_label
_atom_site_fract_x
_atom_site_fract_y
_atom_site_fract_z
Si Si1 0.156773 0.337806 0.943723
Si Si2 0.578131 0.564659 0.818229
Si Si3 0.316018 0.856835 0.804313
Si Si4 0.168015 0.486431 0.550021
Si Si5 0.893170 0.987369 0.968102
Si Si6 0.551747 0.779311 0.742518
Si Si7 0.263810 0.933504 0.292075
Si Si8 0.046779 0.311971 0.848845
O O1 0.092872 0.444256 0.040024
O O2 0.210292 0.166218 0.602117
O O3 0.104704 0.117661 0.960910
O O4 0.215711 0.626491 0.177093
O O5 0.606252 0.287141 0.466113
O O6 0.553159 0.725525 0.865000
O O7 0.500000 0.500000 0.000000
O O8 0.652129 0.801502 0.984917
O O9 0.253364 0.696554 0.645140
O O10 0.274209 0.834434 0.017656
O O11 0.180410 0.251227 0.200133
O O12 0.119864 0.282568 0.585754
O O13 0.118694 0.690468 0.733468
O O14 0.980977 0.011228 0.748208
O O15 0.500000 0.500000 0.500000
O O16 0.647959 0.918233 0.647604
O O17 0.500000 0.000000 0.000000
O O18 0.000000 0.500000 0.000000
#
# Coordination Sequence:
#
# PCOD8027322 Si02
#       8
#     2   2   2   2   2   2   2   2
#     4  12  24  44  69  98 143 174 228 282 339 404
#     4  11  24  44  68 101 135 173 225 271 347 395
#     4  11  22  43  71  96 133 180 227 276 323 410
#     4  11  23  43  68  95 135 174 233 271 334 400
#     4  11  25  43  61 105 135 174 218 287 344 387
#     4  11  23  44  68  97 133 173 223 272 321 407
#     4  11  24  43  72 100 130 188 227 268 341 402
#     4  10  24  44  73  98 132 183 232 278 335 408
#
# _framework density 23.031096999999999
#
# number of rings (size 3 to 8) (size 9 to 14) (size 15 to 20)
#    0.000    1.000    1.250    6.375    1.750    2.000 
#   13.500    4.375    0.000    0.000    0.000    0.000 
#    0.000    0.000    0.000    0.000    0.000    0.000 
#
# Total GULP energy -198227.752299 kJ/mol
# GULP energy per Si atom -12389.234519 kJ/mol
# Density = 2.297868 g / cm^3
# Si number density = 23.031097 Si / 1000 Ang^3
#
#
#
# Elastic Constant Matrix: (Units=GPa)
#
#
# Indices 1 2 3 4 5 6 
#
# 1 120.5700 50.1447 29.8461 4.2401 8.5874 4.8734
# 2 50.1447 133.0176 29.4965 6.3242 1.3872 5.0604
# 3 29.8461 29.4965 108.1748 18.1890 6.4556 6.4038
# 4 4.2401 6.3242 18.1890 32.0231 3.4842 7.8031
# 5 8.5874 1.3872 6.4556 3.4842 32.7381 11.7644
# 6 4.8734 5.0604 6.4038 7.8031 11.7644 33.0604
#
#
#
# Elastic Compliance Matrix: (Units=1/GPa)
#
#
# Indices 1 2 3 4 5 6 
#
# 1 0.010349 -0.003493 -0.001874 0.000623 -0.002276 0.000035
# 2 -0.003493 0.009209 -0.001495 -0.000410 0.001201 -0.000936
# 3 -0.001874 -0.001495 0.011189 -0.005712 -0.001067 0.000066
# 4 0.000623 -0.000410 -0.005712 0.036300 -0.000219 -0.007412
# 5 -0.002276 0.001201 -0.001067 -0.000219 0.035749 -0.012311
# 6 0.000035 -0.000936 0.000066 -0.007412 -0.012311 0.036503
#
#
# Mechanical properties :
#
#
# Convention : Reuss Voigt Hill
#
# Bulk Modulus (GPa) = 58.74126 64.52634 61.63380
# Shear Modulus (GPa) = 31.50637 36.38266 33.94451
#
# Velocity S-wave (km/s) = 3.70265 3.97888 3.84325
# Velocity P-wave (km/s) = 6.62118 7.01331 6.82007
#
# Compressibility (1/GPa) = 0.01702381
#
# Stress axis : x y z
#
# Youngs Moduli (GPa) = 96.62392 108.59402 89.37272
#
# Poissons Ratio (x) = 0.37934 0.16748
# Poissons Ratio (y) = 0.33752 0.13357
# Poissons Ratio (z) = 0.18107 0.16230
#
# Static dielectric constant tensor:
#      x y z
#    x 4.284730 0.311050 0.118520 
#    y 0.311050 4.618690 0.265580 
#    z 0.118520 0.265580 4.182690 
# 
# 
# High freq. dielectric constant tensor:
#      x y z
#    x 1.907520 0.011450 0.006140 
#    y 0.011450 1.916900 0.012690 
#    z 0.006140 0.012690 1.905300 
# 
# From -- ./inp_files/352499.got.cif
#   From: 2010.06.25/outbox.cif.g09.slc.cpg/sg2_177_cif.got.tgz:352499.got - 2010.06.27 13:26:56.
