data_PCOD8027921
_publ_section_title
;
Structure prediction by ZEFSAII (Michael W. Deem and Ramdas Pophale) SiO2 
 PCOD8027921
Probable space group: P -1
;
_chemical_formula_sum "Si O2"
_cell_formula_units_Z 16
_cell_length_a 6.114934
_cell_length_b 14.688534
_cell_length_c 14.759326
_cell_angle_alpha 36.185748
_cell_angle_beta 61.467946
_cell_angle_gamma 66.936721
_cell_volume 687.577833
_symmetry_space_group_name_H-M "P -1"
_symmetry_group_IT_number 2
_symmetry_cell_setting 'triclinic'
loop_
_space_group_symop_operation_xyz
x,y,z
-x,-y,-z
loop_
_atom_site_type_symbol
_atom_site_label
_atom_site_fract_x
_atom_site_fract_y
_atom_site_fract_z
Si Si1 0.361721 0.701730 0.354732
Si Si2 0.274762 0.328146 0.164169
Si Si3 0.088928 0.106919 0.237603
Si Si4 0.481836 0.116377 0.655428
Si Si5 0.169835 0.630666 0.029926
Si Si6 0.884055 0.584886 0.307783
Si Si7 0.338840 0.125654 0.479719
Si Si8 0.017608 0.866089 0.175037
O O1 0.438786 0.744850 0.406749
O O2 0.594962 0.632404 0.307661
O O3 0.131377 0.583557 0.506578
O O4 0.268735 0.852903 0.195809
O O5 0.087374 0.209749 0.247508
O O6 0.143568 0.496181 0.066912
O O7 0.326764 0.276779 0.298718
O O8 0.534298 0.333575 0.051465
O O9 0.369774 0.041802 0.222897
O O10 0.931821 0.950200 0.396440
O O11 0.989971 0.217876 0.088268
O O12 0.489536 0.167335 0.507943
O O13 0.193362 0.085686 0.751724
O O14 0.055539 0.576464 0.191541
O O15 0.000928 0.702472 0.260473
O O16 0.500000 0.000000 0.500000
O O17 0.000000 0.000000 0.000000
#
# Coordination Sequence:
#
# PCOD8027921 Si02
#       8
#     2   2   2   2   2   2   2   2
#     4  10  24  49  68 104 135 180 234 272 347 413
#     4  11  26  46  65 103 138 184 233 281 341 405
#     4  12  24  43  70  96 140 179 230 280 340 407
#     4  11  26  41  72 101 134 180 227 281 341 410
#     4  11  26  44  67 100 141 182 229 281 345 402
#     4  10  25  45  72  98 139 184 226 283 336 409
#     4  12  24  44  70  99 137 178 232 284 337 401
#     4  11  26  43  73 104 138 171 224 289 345 409
#
# _framework density 23.270094
#
# number of rings (size 3 to 8) (size 9 to 14) (size 15 to 20)
#    0.000    1.000    2.500    1.875   10.500    1.000 
#    4.500    0.000    0.000    0.000    0.000    0.000 
#    0.000    0.000    0.000    0.000    0.000    0.000 
#
# Total GULP energy -198300.434984 kJ/mol
# GULP energy per Si atom -12393.777186 kJ/mol
# Density = 2.321713 g / cm^3
# Si number density = 23.270094 Si / 1000 Ang^3
#
#
#
# Elastic Constant Matrix: (Units=GPa)
#
#
# Indices 1 2 3 4 5 6 
#
# 1 82.1138 30.3226 31.0341 10.2814 6.4571 1.5780
# 2 30.3226 103.9917 28.7373 11.9843 -4.3175 -2.4343
# 3 31.0341 28.7373 105.1906 11.3093 6.0559 -0.5383
# 4 10.2814 11.9843 11.3093 39.1108 1.7917 -2.5533
# 5 6.4571 -4.3175 6.0559 1.7917 29.2142 -3.5510
# 6 1.5780 -2.4343 -0.5383 -2.5533 -3.5510 42.3226
#
#
#
# Elastic Compliance Matrix: (Units=1/GPa)
#
#
# Indices 1 2 3 4 5 6 
#
# 1 0.015175 -0.003499 -0.003132 -0.001941 -0.003248 -0.001197
# 2 -0.003499 0.011611 -0.002089 -0.002119 0.003163 0.000909
# 3 -0.003132 -0.002089 0.011294 -0.001725 -0.001867 -0.000120
# 4 -0.001941 -0.002119 -0.001725 0.027371 -0.001024 0.001494
# 5 -0.003248 0.003163 -0.001867 -0.001024 0.036261 0.003260
# 6 -0.001197 0.000909 -0.000120 0.001494 0.003260 0.024087
#
#
# Mechanical properties :
#
#
# Convention : Reuss Voigt Hill
#
# Bulk Modulus (GPa) = 48.44979 52.38711 50.41845
# Shear Modulus (GPa) = 33.30710 35.54300 34.42505
#
# Velocity S-wave (km/s) = 3.78739 3.91245 3.85043
# Velocity P-wave (km/s) = 6.32389 6.55524 6.44061
#
# Compressibility (1/GPa) = 0.02063993
#
# Stress axis : x y z
#
# Youngs Moduli (GPa) = 65.89669 86.12885 88.54632
#
# Poissons Ratio (x) = 0.30134 0.27730
# Poissons Ratio (y) = 0.23055 0.18500
# Poissons Ratio (z) = 0.20637 0.17995
#
# Static dielectric constant tensor:
#      x y z
#    x 4.265240 -0.266690 -0.002640 
#    y -0.266690 4.270920 -0.054320 
#    z -0.002640 -0.054320 3.863060 
# 
# 
# High freq. dielectric constant tensor:
#      x y z
#    x 1.920520 -0.005410 0.004630 
#    y -0.005410 1.935360 -0.005480 
#    z 0.004630 -0.005480 1.907940 
# 
# From -- ./inp_files/484204.got.cif
#   From: 2010.06.25/outbox.cif.g09.slc.cpg/sg2_243_cif.got.tgz:484204.got - 2010.06.27 13:26:56.
