data_PCOD8027522
_publ_section_title
;
Structure prediction by ZEFSAII (Michael W. Deem and Ramdas Pophale) SiO2 
 PCOD8027522
Probable space group: P -1
;
_chemical_formula_sum "Si O2"
_cell_formula_units_Z 16
_cell_length_a 8.612665
_cell_length_b 24.974395
_cell_length_c 11.123182
_cell_angle_alpha 34.275358
_cell_angle_beta 136.250721
_cell_angle_gamma 147.672898
_cell_volume 718.221167
_symmetry_space_group_name_H-M "P -1"
_symmetry_group_IT_number 2
_symmetry_cell_setting 'triclinic'
loop_
_space_group_symop_operation_xyz
x,y,z
-x,-y,-z
loop_
_atom_site_type_symbol
_atom_site_label
_atom_site_fract_x
_atom_site_fract_y
_atom_site_fract_z
Si Si1 0.192205 0.459807 0.184912
Si Si2 0.115715 0.668368 0.522365
Si Si3 0.152364 0.383423 0.790826
Si Si4 0.643389 0.069858 0.825856
Si Si5 0.142754 0.136646 0.850874
Si Si6 0.391554 0.572203 0.759684
Si Si7 0.043025 0.238011 0.381858
Si Si8 0.682302 0.160465 0.100164
O O1 0.530369 0.574562 0.140278
O O2 0.144224 0.394370 0.409481
O O3 0.068432 0.356845 0.204461
O O4 0.000000 0.500000 0.000000
O O5 0.362341 0.816988 0.404424
O O6 0.241483 0.594034 0.740297
O O7 0.014485 0.647938 0.367212
O O8 0.186296 0.493291 0.676188
O O9 0.973052 0.262326 0.998941
O O10 0.992803 0.136703 0.890240
O O11 0.479720 0.971803 0.807861
O O12 0.500000 0.000000 0.000000
O O13 0.026053 0.173356 0.612794
O O14 0.488503 0.206292 0.919344
O O15 0.000000 0.000000 0.000000
O O16 0.657930 0.711280 0.610033
O O17 0.500000 0.500000 0.000000
O O18 0.770175 0.149448 0.303831
#
# Coordination Sequence:
#
# PCOD8027522 Si02
#       8
#     2   2   2   2   2   2   2   2
#     4  11  26  44  66 102 149 179 226 299 353 412
#     4  12  23  44  72  99 142 181 227 295 357 402
#     4  11  23  43  69 106 133 186 238 275 351 428
#     4  11  24  46  69 102 142 177 230 299 346 413
#     4  10  24  45  70  97 135 185 237 280 341 415
#     4  11  23  42  68  99 141 178 228 284 345 423
#     4  11  23  45  70  99 140 182 235 281 347 420
#     4  11  24  45  76 100 140 190 237 282 349 424
#
# _framework density 22.277259000000001
#
# number of rings (size 3 to 8) (size 9 to 14) (size 15 to 20)
#    0.000    1.000    3.750    3.000    1.750    4.000 
#    0.000    0.625    2.750    0.000    0.000    0.000 
#    0.000    0.000    0.000    0.000    0.000    0.000 
#
# Total GULP energy -198230.991672 kJ/mol
# GULP energy per Si atom -12389.436980 kJ/mol
# Density = 2.222655 g / cm^3
# Si number density = 22.277259 Si / 1000 Ang^3
#
#
#
# Elastic Constant Matrix: (Units=GPa)
#
#
# Indices 1 2 3 4 5 6 
#
# 1 146.4451 55.3247 44.8835 -6.9209 -4.6811 13.1056
# 2 55.3247 117.2430 45.6744 -0.9339 5.2574 -3.0301
# 3 44.8835 45.6744 91.7659 -4.1444 2.9066 10.7967
# 4 -6.9209 -0.9339 -4.1444 31.6183 -4.4112 -9.8217
# 5 -4.6811 5.2574 2.9066 -4.4112 42.4892 -7.5500
# 6 13.1056 -3.0301 10.7967 -9.8217 -7.5500 39.2095
#
#
#
# Elastic Compliance Matrix: (Units=1/GPa)
#
#
# Indices 1 2 3 4 5 6 
#
# 1 0.009193 -0.003464 -0.002517 0.001114 0.001355 -0.002107
# 2 -0.003464 0.012112 -0.004680 -0.000181 -0.001021 0.003141
# 3 -0.002517 -0.004680 0.014962 -0.000158 -0.001441 -0.003957
# 4 0.001114 -0.000181 -0.000158 0.035620 0.005569 0.009652
# 5 0.001355 -0.001021 -0.001441 0.005569 0.025587 0.006187
# 6 -0.002107 0.003141 -0.003957 0.009652 0.006187 0.031150
#
#
# Mechanical properties :
#
#
# Convention : Reuss Voigt Hill
#
# Bulk Modulus (GPa) = 66.90781 71.91326 69.41053
# Shear Modulus (GPa) = 32.27300 36.63481 34.45391
#
# Velocity S-wave (km/s) = 3.81030 4.05963 3.93694
# Velocity P-wave (km/s) = 7.03258 7.37057 7.20356
#
# Compressibility (1/GPa) = 0.01494594
#
# Stress axis : x y z
#
# Youngs Moduli (GPa) = 108.77757 82.55978 66.83692
#
# Poissons Ratio (x) = 0.28597 0.16823
# Poissons Ratio (y) = 0.37679 0.31279
# Poissons Ratio (z) = 0.27380 0.38637
#
# Static dielectric constant tensor:
#      x y z
#    x 5.341940 0.282560 0.260650 
#    y 0.282560 4.330770 0.135330 
#    z 0.260650 0.135330 4.252830 
# 
# 
# High freq. dielectric constant tensor:
#      x y z
#    x 1.902320 0.002640 -0.011820 
#    y 0.002640 1.864340 -0.012980 
#    z -0.011820 -0.012980 1.872560 
# 
# From -- ./inp_files/272334.got.cif
#   From: 2010.06.25/outbox.cif.g09.slc.cpg/sg2_137_cif.got.tgz:272334.got - 2010.06.27 13:26:56.
