data_PCOD8027100
_publ_section_title
;
Structure prediction by ZEFSAII (Michael W. Deem and Ramdas Pophale) SiO2 
 PCOD8027100
Probable space group: P -1
;
_chemical_formula_sum "Si O2"
_cell_formula_units_Z 16
_cell_length_a 6.805267
_cell_length_b 9.065153
_cell_length_c 16.635663
_cell_angle_alpha 131.004981
_cell_angle_beta 78.771706
_cell_angle_gamma 83.439322
_cell_volume 717.900306
_symmetry_space_group_name_H-M "P -1"
_symmetry_group_IT_number 2
_symmetry_cell_setting 'triclinic'
loop_
_space_group_symop_operation_xyz
x,y,z
-x,-y,-z
loop_
_atom_site_type_symbol
_atom_site_label
_atom_site_fract_x
_atom_site_fract_y
_atom_site_fract_z
Si Si1 0.403243 0.236484 0.165882
Si Si2 0.422906 0.253693 0.715530
Si Si3 0.160176 0.781734 0.430084
Si Si4 0.755034 0.528077 0.029708
Si Si5 0.958096 0.484856 0.268767
Si Si6 0.373097 0.628285 0.665812
Si Si7 0.555246 0.215345 0.977280
Si Si8 0.594811 0.191999 0.432254
O O1 0.443857 0.377501 0.285700
O O2 0.184472 0.330570 0.166725
O O3 0.417134 0.021162 0.131114
O O4 0.571090 0.220933 0.075652
O O5 0.625788 0.290200 0.669577
O O6 0.390554 0.330009 0.837263
O O7 0.198073 0.374514 0.734734
O O8 0.470788 0.008220 0.616333
O O9 0.209936 0.802106 0.526712
O O10 0.026386 0.626413 0.378477
O O11 0.000000 0.000000 0.500000
O O12 0.663120 0.634066 0.990414
O O13 0.739993 0.296529 0.956251
O O14 0.000000 0.500000 0.000000
O O15 0.853088 0.324193 0.257367
O O16 0.406457 0.402247 0.543842
O O17 0.349503 0.804703 0.664784
#
# Coordination Sequence:
#
# PCOD8027100 Si02
#       8
#     2   2   2   2   2   2   2   2
#     4  11  23  44  67  94 128 181 215 272 335 385
#     4  12  24  43  69  97 135 171 223 276 320 397
#     4  12  23  42  66  97 133 180 222 264 323 390
#     4  11  24  45  70 100 131 171 217 280 336 381
#     4  12  22  39  67  93 128 176 219 260 329 390
#     4  11  24  42  62  94 140 166 215 273 325 395
#     4  10  24  44  67  95 132 164 230 275 322 399
#     4  11  23  43  62  97 136 171 214 270 324 388
#
# _framework density 22.287216999999998
#
# number of rings (size 3 to 8) (size 9 to 14) (size 15 to 20)
#    0.000    0.750    3.750    4.125    0.000    3.500 
#    4.500    3.125    0.000    0.000    0.000    0.000 
#    0.000    0.000    0.000    0.000    0.000    0.000 
#
# Total GULP energy -198253.976179 kJ/mol
# GULP energy per Si atom -12390.873511 kJ/mol
# Density = 2.223649 g / cm^3
# Si number density = 22.287217 Si / 1000 Ang^3
#
#
#
# Elastic Constant Matrix: (Units=GPa)
#
#
# Indices 1 2 3 4 5 6 
#
# 1 122.9670 52.4354 16.6477 -5.5031 1.0321 4.7942
# 2 52.4354 139.7632 33.7063 2.7674 6.9882 3.8435
# 3 16.6477 33.7063 73.0258 -6.4312 9.6654 4.9812
# 4 -5.5031 2.7674 -6.4312 35.3887 -6.6679 7.8036
# 5 1.0321 6.9882 9.6654 -6.6679 29.7748 1.2518
# 6 4.7942 3.8435 4.9812 7.8036 1.2518 30.7164
#
#
#
# Elastic Compliance Matrix: (Units=1/GPa)
#
#
# Indices 1 2 3 4 5 6 
#
# 1 0.009920 -0.003688 -0.000403 0.002362 0.001252 -0.001673
# 2 -0.003688 0.009513 -0.003607 -0.002396 -0.001498 0.000640
# 3 -0.000403 -0.003607 0.016399 0.003128 -0.003645 -0.002791
# 4 0.002362 -0.002396 0.003128 0.032762 0.007188 -0.009193
# 5 0.001252 -0.001498 -0.003645 0.007188 0.036802 -0.002743
# 6 -0.001673 0.000640 -0.002791 -0.009193 -0.002743 0.035637
#
#
# Mechanical properties :
#
#
# Convention : Reuss Voigt Hill
#
# Bulk Modulus (GPa) = 48.93089 60.14832 54.53960
# Shear Modulus (GPa) = 30.62987 34.70711 32.66849
#
# Velocity S-wave (km/s) = 3.71121 3.95050 3.83272
# Velocity P-wave (km/s) = 6.35346 6.91773 6.64159
#
# Compressibility (1/GPa) = 0.02043699
#
# Stress axis : x y z
#
# Youngs Moduli (GPa) = 100.80844 105.11836 60.98062
#
# Poissons Ratio (x) = 0.38766 0.02456
# Poissons Ratio (y) = 0.37177 0.21994
# Poissons Ratio (z) = 0.04060 0.37913
#
# Static dielectric constant tensor:
#      x y z
#    x 3.980410 0.011190 0.104970 
#    y 0.011190 4.219750 0.030030 
#    z 0.104970 0.030030 4.025520 
# 
# 
# High freq. dielectric constant tensor:
#      x y z
#    x 1.875200 -0.001610 0.015130 
#    y -0.001610 1.895460 0.009500 
#    z 0.015130 0.009500 1.865430 
# 
# From -- ./inp_files/139586.got.cif
#   From: 2010.06.25/outbox.cif.g09.slc.cpg/sg2_70_cif.got.tgz:139586.got - 2010.06.27 13:26:56.
