data_PCOD8027878
_publ_section_title
;
Structure prediction by ZEFSAII (Michael W. Deem and Ramdas Pophale) SiO2 
 PCOD8027878
Probable space group: P -1
;
_chemical_formula_sum "Si O2"
_cell_formula_units_Z 14
_cell_length_a 9.508712
_cell_length_b 5.263105
_cell_length_c 14.746699
_cell_angle_alpha 56.071242
_cell_angle_beta 85.732691
_cell_angle_gamma 105.286609
_cell_volume 567.595735
_symmetry_space_group_name_H-M "P -1"
_symmetry_group_IT_number 2
_symmetry_cell_setting 'triclinic'
loop_
_space_group_symop_operation_xyz
x,y,z
-x,-y,-z
loop_
_atom_site_type_symbol
_atom_site_label
_atom_site_fract_x
_atom_site_fract_y
_atom_site_fract_z
Si Si1 0.356485 0.643260 0.184733
Si Si2 0.922308 0.982008 0.731006
Si Si3 0.080247 0.244454 0.026189
Si Si4 0.605802 0.690311 0.035876
Si Si5 0.730155 0.765086 0.377408
Si Si6 0.311562 0.764955 0.362133
Si Si7 0.564580 0.206772 0.367896
O O1 0.195006 0.353508 0.237215
O O2 0.510997 0.594638 0.152949
O O3 0.389932 0.732641 0.270638
O O4 0.335941 0.923061 0.066011
O O5 0.920448 0.967603 0.842444
O O6 0.859890 0.263121 0.644644
O O7 0.089021 0.069269 0.667313
O O8 0.252122 0.430547 0.944828
O O9 0.000000 0.500000 0.000000
O O10 0.000000 0.000000 0.000000
O O11 0.500000 0.500000 0.000000
O O12 0.682545 0.518227 0.514568
O O13 0.660162 0.579772 0.322781
O O14 0.673364 0.062427 0.336854
O O15 0.412351 0.129530 0.327455
O O16 0.500000 0.000000 0.500000
#
# Coordination Sequence:
#
# PCOD8027878 Si02
#       7
#     2   2   2   2   2   2   2
#     4  11  24  42  80 104 148 185 263 303 370 428
#     4  12  27  48  70 112 147 197 250 303 369 451
#     4  12  28  50  72 105 150 190 241 315 377 434
#     4  11  23  49  74 105 140 196 250 313 365 450
#     4  11  27  47  75 110 155 196 241 303 376 441
#     4  11  24  45  78 107 147 199 247 306 359 450
#     4  10  24  48  70 104 150 194 246 302 362 432
#
# _framework density 24.665443
#
# number of rings (size 3 to 8) (size 9 to 14) (size 15 to 20)
#    0.000    0.857    2.857    3.000   10.000    1.714 
#    5.143    0.000    0.000    0.000    0.000    0.000 
#    0.000    0.000    0.000    0.000    0.000    0.000 
#
# Total GULP energy -173557.996003 kJ/mol
# GULP energy per Si atom -12396.999714 kJ/mol
# Density = 2.460930 g / cm^3
# Si number density = 24.665443 Si / 1000 Ang^3
#
#
#
# Elastic Constant Matrix: (Units=GPa)
#
#
# Indices 1 2 3 4 5 6 
#
# 1 205.9113 65.6175 21.0578 16.5666 -25.5258 8.5359
# 2 65.6175 150.6556 34.0232 31.3073 -14.1304 9.0589
# 3 21.0578 34.0232 82.2737 19.0943 -14.6103 17.6753
# 4 16.5666 31.3073 19.0943 45.3894 -0.4108 1.5423
# 5 -25.5258 -14.1304 -14.6103 -0.4108 47.0139 5.3809
# 6 8.5359 9.0589 17.6753 1.5423 5.3809 42.9163
#
#
#
# Elastic Compliance Matrix: (Units=1/GPa)
#
#
# Indices 1 2 3 4 5 6 
#
# 1 0.005978 -0.002184 0.000295 -0.000734 0.002809 -0.001175
# 2 -0.002184 0.009108 -0.001777 -0.004704 0.001041 -0.000718
# 3 0.000295 -0.001777 0.016598 -0.005576 0.005538 -0.007014
# 4 -0.000734 -0.004704 -0.005576 0.027759 -0.003634 0.002894
# 5 0.002809 0.001041 0.005538 -0.003634 0.025499 -0.006126
# 6 -0.001175 -0.000718 -0.007014 0.002894 -0.006126 0.027239
#
#
# Mechanical properties :
#
#
# Convention : Reuss Voigt Hill
#
# Bulk Modulus (GPa) = 41.06224 75.58195 58.32209
# Shear Modulus (GPa) = 39.17546 48.27340 43.72443
#
# Velocity S-wave (km/s) = 3.98964 4.42874 4.21491
# Velocity P-wave (km/s) = 6.15685 7.54063 6.88360
#
# Compressibility (1/GPa) = 0.02435328
#
# Stress axis : x y z
#
# Youngs Moduli (GPa) = 167.27398 109.78943 60.24726
#
# Poissons Ratio (x) = 0.23973 -0.01775
# Poissons Ratio (y) = 0.36525 0.10705
# Poissons Ratio (z) = -0.04929 0.19509
#
# Static dielectric constant tensor:
#      x y z
#    x 4.716680 0.193350 -0.365070 
#    y 0.193350 4.766950 0.378840 
#    z -0.365070 0.378840 3.873600 
# 
# 
# High freq. dielectric constant tensor:
#      x y z
#    x 2.000370 0.000360 0.004620 
#    y 0.000360 1.989210 0.010920 
#    z 0.004620 0.010920 1.987150 
# 
# From -- ./inp_files/488093.got.cif
#   From: 2010.06.25/outbox.cif.g09.slc.cpg/sg2_245_cif.got.tgz:488093.got - 2010.06.27 13:26:56.
