data_PCOD8027588
_publ_section_title
;
Structure prediction by ZEFSAII (Michael W. Deem and Ramdas Pophale) SiO2 
 PCOD8027588
Probable space group: P -1
;
_chemical_formula_sum "Si O2"
_cell_formula_units_Z 14
_cell_length_a 8.610686
_cell_length_b 8.565991
_cell_length_c 9.286640
_cell_angle_alpha 67.028213
_cell_angle_beta 112.958070
_cell_angle_gamma 109.023305
_cell_volume 568.376958
_symmetry_space_group_name_H-M "P -1"
_symmetry_group_IT_number 2
_symmetry_cell_setting 'triclinic'
loop_
_space_group_symop_operation_xyz
x,y,z
-x,-y,-z
loop_
_atom_site_type_symbol
_atom_site_label
_atom_site_fract_x
_atom_site_fract_y
_atom_site_fract_z
Si Si1 0.688273 0.517234 0.265677
Si Si2 0.544315 0.038558 0.775400
Si Si3 0.801841 0.303177 0.617847
Si Si4 0.917516 0.577640 0.081321
Si Si5 0.653397 0.739014 0.769694
Si Si6 0.912965 0.995669 0.621516
Si Si7 0.743459 0.926744 0.145663
O O1 0.784337 0.474965 0.461300
O O2 0.776430 0.448127 0.178809
O O3 0.483037 0.440477 0.237660
O O4 0.714303 0.722146 0.180643
O O5 0.617012 0.211706 0.648244
O O6 0.352462 0.045640 0.750090
O O7 0.537353 0.866791 0.742139
O O8 0.671124 0.031844 0.957577
O O9 0.854509 0.174457 0.566055
O O10 0.931862 0.341653 0.783842
O O11 0.809880 0.717497 0.937768
O O12 0.000000 0.500000 0.000000
O O13 0.752438 0.830701 0.631044
O O14 0.056897 0.982536 0.799439
O O15 0.000000 0.000000 0.500000
#
# Coordination Sequence:
#
# PCOD8027588 Si02
#       7
#     2   2   2   2   2   2   2
#     4  12  27  47  76 115 153 186 250 322 369 429
#     4  10  24  45  75 101 147 201 246 301 371 445
#     4  11  26  48  72 107 156 191 247 311 376 435
#     4  12  27  46  76 108 149 197 246 304 372 443
#     4  11  26  47  75 108 149 194 257 302 366 449
#     4  11  26  45  74 105 151 198 246 300 378 447
#     4  11  24  45  76 105 148 196 254 297 371 444
#
# _framework density 24.631540999999999
#
# number of rings (size 3 to 8) (size 9 to 14) (size 15 to 20)
#    0.000    0.857    2.857    1.714    8.000    5.143 
#    0.000    0.000    0.000    0.000    0.000    0.000 
#    0.000    0.000    0.000    0.000    0.000    0.000 
#
# Total GULP energy -173484.587286 kJ/mol
# GULP energy per Si atom -12391.756235 kJ/mol
# Density = 2.457548 g / cm^3
# Si number density = 24.631541 Si / 1000 Ang^3
#
#
#
# Elastic Constant Matrix: (Units=GPa)
#
#
# Indices 1 2 3 4 5 6 
#
# 1 147.9098 51.5171 34.4563 0.7833 -25.7415 9.8129
# 2 51.5171 79.0716 25.9312 0.8129 -14.9854 12.9256
# 3 34.4563 25.9312 87.9727 -3.3196 -16.7313 -9.0572
# 4 0.7833 0.8129 -3.3196 27.8145 2.4952 7.4035
# 5 -25.7415 -14.9854 -16.7313 2.4952 46.1403 1.4020
# 6 9.8129 12.9256 -9.0572 7.4035 1.4020 31.5906
#
#
#
# Elastic Compliance Matrix: (Units=1/GPa)
#
#
# Indices 1 2 3 4 5 6 
#
# 1 0.009501 -0.004688 -0.001922 -0.000195 0.003143 -0.001678
# 2 -0.004688 0.018667 -0.004004 0.000949 0.002177 -0.007649
# 3 -0.001922 -0.004004 0.014454 -0.000011 0.002679 0.006263
# 4 -0.000195 0.000949 -0.000011 0.038547 -0.001607 -0.009293
# 5 0.003143 0.002177 0.002679 -0.001607 0.025247 -0.001843
# 6 -0.001678 -0.007649 0.006263 -0.009293 -0.001843 0.039361
#
#
# Mechanical properties :
#
#
# Convention : Reuss Voigt Hill
#
# Bulk Modulus (GPa) = 46.74084 59.86258 53.30171
# Shear Modulus (GPa) = 28.71326 34.64572 31.67949
#
# Velocity S-wave (km/s) = 3.41795 3.75448 3.59016
# Velocity P-wave (km/s) = 5.88165 6.56893 6.23476
#
# Compressibility (1/GPa) = 0.02139457
#
# Stress axis : x y z
#
# Youngs Moduli (GPa) = 105.25693 53.57004 69.18504
#
# Poissons Ratio (x) = 0.25113 0.13295
# Poissons Ratio (y) = 0.49342 0.27702
# Poissons Ratio (z) = 0.20227 0.21450
#
# Static dielectric constant tensor:
#      x y z
#    x 5.013880 0.109820 -0.134030 
#    y 0.109820 4.130270 -0.057880 
#    z -0.134030 -0.057880 4.523710 
# 
# 
# High freq. dielectric constant tensor:
#      x y z
#    x 2.005220 0.010370 -0.005760 
#    y 0.010370 1.949970 -0.008480 
#    z -0.005760 -0.008480 1.993960 
# 
# From -- ./inp_files/157713.got.cif
#   From: 2010.06.25/outbox.cif.g09.slc.cpg/sg2_79_cif.got.tgz:157713.got - 2010.06.27 13:26:56.
