data_PCOD8027792
_publ_section_title
;
Structure prediction by ZEFSAII (Michael W. Deem and Ramdas Pophale) SiO2 
 PCOD8027792
Probable space group: P -1
;
_chemical_formula_sum "Si O2"
_cell_formula_units_Z 16
_cell_length_a 17.106946
_cell_length_b 5.283986
_cell_length_c 9.468366
_cell_angle_alpha 134.192599
_cell_angle_beta 85.333097
_cell_angle_gamma 86.593834
_cell_volume 603.496867
_symmetry_space_group_name_H-M "P -1"
_symmetry_group_IT_number 2
_symmetry_cell_setting 'triclinic'
loop_
_space_group_symop_operation_xyz
x,y,z
-x,-y,-z
loop_
_atom_site_type_symbol
_atom_site_label
_atom_site_fract_x
_atom_site_fract_y
_atom_site_fract_z
Si Si1 0.453309 0.751808 0.816797
Si Si2 0.091875 0.143640 0.436968
Si Si3 0.429855 0.831056 0.530245
Si Si4 0.303288 0.477195 0.795056
Si Si5 0.810763 0.275809 0.338996
Si Si6 0.750160 0.324743 0.827693
Si Si7 0.312395 0.371115 0.324263
Si Si8 0.043740 0.181206 0.778703
O O1 0.448201 0.910686 0.720995
O O2 0.491274 0.310621 0.636400
O O3 0.365340 0.767283 0.904483
O O4 0.500000 0.000000 0.000000
O O5 0.135796 0.453262 0.492620
O O6 0.064770 0.261601 0.645919
O O7 0.157985 0.780180 0.274957
O O8 0.016306 0.110386 0.336080
O O9 0.401274 0.433797 0.373695
O O10 0.357555 0.115475 0.588400
O O11 0.227355 0.605578 0.759409
O O12 0.262487 0.433279 0.934862
O O13 0.741065 0.268782 0.459603
O O14 0.874626 0.917417 0.182174
O O15 0.703528 0.598968 0.828596
O O16 0.708822 0.976476 0.728984
O O17 0.000000 0.500000 0.000000
#
# Coordination Sequence:
#
# PCOD8027792 Si02
#       8
#     2   2   2   2   2   2   2   2
#     4  11  26  49  73 108 153 199 255 315 391 455
#     4  10  24  47  68 108 146 202 241 320 380 456
#     4  11  25  46  76 105 152 197 258 311 390 456
#     4  12  27  45  76 113 147 203 258 319 380 465
#     4  11  24  47  73 103 153 194 258 312 382 451
#     4  11  26  44  78 111 155 199 259 316 390 456
#     4  11  23  47  74 108 151 205 250 323 380 461
#     4  11  25  45  76 104 150 195 259 306 390 450
#
# _framework density 26.512148
#
# number of rings (size 3 to 8) (size 9 to 14) (size 15 to 20)
#    0.000    1.000    2.500    3.000    5.250    2.000 
#    2.250    0.000    0.000    0.000    0.000    0.000 
#    0.000    0.000    0.000    0.000    0.000    0.000 
#
# Total GULP energy -198262.693867 kJ/mol
# GULP energy per Si atom -12391.418367 kJ/mol
# Density = 2.645180 g / cm^3
# Si number density = 26.512148 Si / 1000 Ang^3
#
#
#
# Elastic Constant Matrix: (Units=GPa)
#
#
# Indices 1 2 3 4 5 6 
#
# 1 90.5847 9.5157 33.2343 -10.1095 2.7511 -12.7310
# 2 9.5157 74.5994 27.3251 -17.2645 -2.9650 -26.7077
# 3 33.2343 27.3251 142.2858 -20.0354 -23.6469 -16.7031
# 4 -10.1095 -17.2645 -20.0354 47.7096 -4.6641 -4.0158
# 5 2.7511 -2.9650 -23.6469 -4.6641 49.5024 -3.7556
# 6 -12.7310 -26.7077 -16.7031 -4.0158 -3.7556 43.3042
#
#
#
# Elastic Compliance Matrix: (Units=1/GPa)
#
#
# Indices 1 2 3 4 5 6 
#
# 1 0.012677 0.000989 -0.002720 0.002037 -0.001499 0.003347
# 2 0.000989 0.020636 -0.000932 0.008691 0.002593 0.013689
# 3 -0.002720 -0.000932 0.009651 0.003926 0.005316 0.003173
# 4 0.002037 0.008691 0.003926 0.027628 0.005685 0.010528
# 5 -0.001499 0.002593 0.005316 0.005685 0.023956 0.005814
# 6 0.003347 0.013689 0.003173 0.010528 0.005814 0.035223
#
#
# Mechanical properties :
#
#
# Convention : Reuss Voigt Hill
#
# Bulk Modulus (GPa) = 26.56942 49.73556 38.15249
# Shear Modulus (GPa) = 33.86548 43.92956 38.89752
#
# Velocity S-wave (km/s) = 3.57789 4.07499 3.83451
# Velocity P-wave (km/s) = 5.20690 6.39852 5.83321
#
# Compressibility (1/GPa) = 0.03763725
#
# Stress axis : x y z
#
# Youngs Moduli (GPa) = 78.88467 48.46005 103.61133
#
# Poissons Ratio (x) = -0.04795 0.28186
# Poissons Ratio (y) = -0.07805 0.09659
# Poissons Ratio (z) = 0.21460 0.04518
#
# Static dielectric constant tensor:
#      x y z
#    x 5.797280 0.158120 -0.308820 
#    y 0.158120 4.568100 0.197350 
#    z -0.308820 0.197350 4.868540 
# 
# 
# High freq. dielectric constant tensor:
#      x y z
#    x 2.100840 0.005530 -0.011260 
#    y 0.005530 2.046690 0.011450 
#    z -0.011260 0.011450 2.071460 
# 
# From -- ./inp_files/324243.got.cif
#   From: 2010.06.25/outbox.cif.g09.slc.cpg/sg2_163_cif.got.tgz:324243.got - 2010.06.27 13:26:56.
