data_PCOD8027791
_publ_section_title
;
Structure prediction by ZEFSAII (Michael W. Deem and Ramdas Pophale) SiO2 
 PCOD8027791
Probable space group: P -1
;
_chemical_formula_sum "Si O2"
_cell_formula_units_Z 16
_cell_length_a 14.876745
_cell_length_b 8.765805
_cell_length_c 8.871068
_cell_angle_alpha 87.613444
_cell_angle_beta 92.167264
_cell_angle_gamma 36.781338
_cell_volume 687.161038
_symmetry_space_group_name_H-M "P -1"
_symmetry_group_IT_number 2
_symmetry_cell_setting 'triclinic'
loop_
_space_group_symop_operation_xyz
x,y,z
-x,-y,-z
loop_
_atom_site_type_symbol
_atom_site_label
_atom_site_fract_x
_atom_site_fract_y
_atom_site_fract_z
Si Si1 0.535425 0.878569 0.666578
Si Si2 0.617312 0.056242 0.823543
Si Si3 0.727707 0.992594 0.286998
Si Si4 0.746049 0.347351 0.793936
Si Si5 0.799539 0.004535 0.617965
Si Si6 0.942732 0.200991 0.197247
Si Si7 0.861907 0.623145 0.075664
Si Si8 0.667826 0.383318 0.123981
O O1 0.421662 0.898507 0.693847
O O2 0.700803 0.572961 0.709487
O O3 0.500000 0.000000 0.500000
O O4 0.523275 0.034285 0.774365
O O5 0.740889 0.935912 0.709158
O O6 0.495618 0.354465 0.830188
O O7 0.703627 0.895561 0.987286
O O8 0.782835 0.001792 0.440717
O O9 0.692511 0.169825 0.153525
O O10 0.856269 0.702079 0.241929
O O11 0.701468 0.280361 0.667615
O O12 0.666338 0.425329 0.945337
O O13 0.927045 0.087978 0.851502
O O14 0.977536 0.804278 0.665916
O O15 0.874972 0.421877 0.071552
O O16 0.800159 0.291565 0.230226
O O17 0.000000 0.500000 0.000000
#
# Coordination Sequence:
#
# PCOD8027791 Si02
#       8
#     2   2   2   2   2   2   2   2
#     4  12  26  45  75 108 148 189 241 301 361 424
#     4  12  25  45  73 106 140 189 244 299 356 429
#     4  12  27  44  74 109 141 193 241 296 364 430
#     4  10  24  47  73 105 144 191 242 290 363 429
#     4  10  24  47  68 105 144 189 240 287 361 436
#     4  10  24  47  70 105 145 188 238 299 358 424
#     4  12  24  47  75 107 146 188 238 303 363 427
#     4  12  25  45  77 105 147 188 246 303 357 424
#
# _framework density 23.284206999999999
#
# number of rings (size 3 to 8) (size 9 to 14) (size 15 to 20)
#    0.750    0.000    2.500    4.875    1.750    6.000 
#    0.000    0.000    0.000    0.000    0.000    0.000 
#    0.000    0.000    0.000    0.000    0.000    0.000 
#
# Total GULP energy -198285.484999 kJ/mol
# GULP energy per Si atom -12392.842812 kJ/mol
# Density = 2.323121 g / cm^3
# Si number density = 23.284207 Si / 1000 Ang^3
#
#
#
# Elastic Constant Matrix: (Units=GPa)
#
#
# Indices 1 2 3 4 5 6 
#
# 1 115.9667 31.5770 29.0543 -9.2162 -0.7066 -1.6499
# 2 31.5770 139.9788 47.4385 -13.6410 -9.7442 6.0138
# 3 29.0543 47.4385 109.3567 -0.8885 -1.5335 3.3953
# 4 -9.2162 -13.6410 -0.8885 38.1083 12.2323 -5.2527
# 5 -0.7066 -9.7442 -1.5335 12.2323 34.4477 -8.7193
# 6 -1.6499 6.0138 3.3953 -5.2527 -8.7193 36.6584
#
#
#
# Elastic Compliance Matrix: (Units=1/GPa)
#
#
# Indices 1 2 3 4 5 6 
#
# 1 0.009685 -0.001395 -0.001992 0.002193 -0.000818 0.000969
# 2 -0.001395 0.008977 -0.003468 0.002266 0.001412 -0.000554
# 3 -0.001992 -0.003468 0.011189 -0.001513 -0.000194 -0.000820
# 4 0.002193 0.002266 -0.001513 0.030992 -0.009892 0.001955
# 5 -0.000818 0.001412 -0.000194 -0.009892 0.034575 0.006556
# 6 0.000969 -0.000554 -0.000820 0.001955 0.006556 0.029329
#
#
# Mechanical properties :
#
#
# Convention : Reuss Voigt Hill
#
# Bulk Modulus (GPa) = 61.95431 64.60464 63.27947
# Shear Modulus (GPa) = 34.76193 38.99172 36.87682
#
# Velocity S-wave (km/s) = 3.86805 4.09663 3.98398
# Velocity P-wave (km/s) = 6.82750 7.08398 6.95692
#
# Compressibility (1/GPa) = 0.01614093
#
# Stress axis : x y z
#
# Youngs Moduli (GPa) = 103.25226 111.39901 89.37735
#
# Poissons Ratio (x) = 0.15536 0.17803
# Poissons Ratio (y) = 0.14400 0.30997
# Poissons Ratio (z) = 0.20567 0.38635
#
# Static dielectric constant tensor:
#      x y z
#    x 2.114040 -0.282760 -1.832540 
#    y -0.282760 4.250510 -0.672490 
#    z -1.832540 -0.672490 2.575940 
# 
# 
# High freq. dielectric constant tensor:
#      x y z
#    x 1.930170 0.012220 0.010790 
#    y 0.012220 1.925840 -0.008010 
#    z 0.010790 -0.008010 1.905920 
# 
# From -- ./inp_files/298247.got.cif
#   From: 2010.06.25/outbox.cif.g09.slc.cpg/sg2_150_cif.got.tgz:298247.got - 2010.06.27 13:26:56.
