data_PCOD8027650
_publ_section_title
;
Structure prediction by ZEFSAII (Michael W. Deem and Ramdas Pophale) SiO2 
 PCOD8027650
Probable space group: P -1
;
_chemical_formula_sum "Si O2"
_cell_formula_units_Z 16
_cell_length_a 12.405362
_cell_length_b 7.126003
_cell_length_c 21.568484
_cell_angle_alpha 47.381983
_cell_angle_beta 35.118474
_cell_angle_gamma 43.015416
_cell_volume 732.931930
_symmetry_space_group_name_H-M "P -1"
_symmetry_group_IT_number 2
_symmetry_cell_setting 'triclinic'
loop_
_space_group_symop_operation_xyz
x,y,z
-x,-y,-z
loop_
_atom_site_type_symbol
_atom_site_label
_atom_site_fract_x
_atom_site_fract_y
_atom_site_fract_z
Si Si1 0.740373 0.693437 0.501479
Si Si2 0.191172 0.725574 0.993822
Si Si3 0.050771 0.941249 0.302434
Si Si4 0.865440 0.554322 0.222694
Si Si5 0.572631 0.933131 0.171570
Si Si6 0.163609 0.915195 0.387424
Si Si7 0.583047 0.727570 0.430197
Si Si8 0.503957 0.786626 0.099133
O O1 0.751343 0.417636 0.592778
O O2 0.680248 0.656874 0.468025
O O3 0.959491 0.710352 0.391558
O O4 0.591744 0.956901 0.553176
O O5 0.089838 0.565488 0.120945
O O6 0.313356 0.519310 0.927416
O O7 0.365439 0.805701 0.924664
O O8 0.000000 0.000000 0.000000
O O9 0.048022 0.061004 0.346425
O O10 0.279318 0.786147 0.202335
O O11 0.903987 0.228288 0.271783
O O12 0.747420 0.692353 0.183843
O O13 0.741937 0.721370 0.303712
O O14 0.352115 0.002877 0.293433
O O15 0.555672 0.853964 0.127468
O O16 0.000000 0.000000 0.500000
O O17 0.500000 0.500000 0.500000
O O18 0.500000 0.000000 0.000000
#
# Coordination Sequence:
#
# PCOD8027650 Si02
#       8
#     2   2   2   2   2   2   2   2
#     4  11  25  42  68 100 135 190 223 278 358 405
#     4  10  24  46  69 102 131 181 232 279 347 403
#     4  11  24  43  67 103 137 176 232 276 352 413
#     4  11  22  44  70 100 138 176 232 292 333 416
#     4  10  26  44  70  99 137 180 234 279 348 406
#     4  11  25  43  66  99 140 183 228 286 343 416
#     4  11  23  42  69 101 139 175 235 288 339 413
#     4  11  24  47  70  99 142 177 225 294 338 414
#
# _framework density 21.830131000000002
#
# number of rings (size 3 to 8) (size 9 to 14) (size 15 to 20)
#    0.000    1.250    2.500    1.875    5.250    7.500 
#    0.000    0.000    0.000    0.000    0.000    0.000 
#    0.000    0.000    0.000    0.000    0.000    0.000 
#
# Total GULP energy -198308.753699 kJ/mol
# GULP energy per Si atom -12394.297106 kJ/mol
# Density = 2.178044 g / cm^3
# Si number density = 21.830131 Si / 1000 Ang^3
#
#
#
# Elastic Constant Matrix: (Units=GPa)
#
#
# Indices 1 2 3 4 5 6 
#
# 1 93.2275 29.6883 50.7716 3.5274 -13.9640 5.5993
# 2 29.6883 79.3547 36.7703 19.2962 -3.7138 6.5794
# 3 50.7716 36.7703 160.1864 18.0847 -23.9455 14.6561
# 4 3.5274 19.2962 18.0847 42.9151 7.1563 0.2939
# 5 -13.9640 -3.7138 -23.9455 7.1563 42.6618 -10.7355
# 6 5.5993 6.5794 14.6561 0.2939 -10.7355 29.4848
#
#
#
# Elastic Compliance Matrix: (Units=1/GPa)
#
#
# Indices 1 2 3 4 5 6 
#
# 1 0.014137 -0.004060 -0.003485 0.001759 0.002209 0.000740
# 2 -0.004060 0.016600 -0.001649 -0.006373 -0.000282 -0.002153
# 3 -0.003485 -0.001649 0.008838 -0.003306 0.003735 -0.001970
# 4 0.001759 -0.006373 -0.003306 0.028518 -0.006608 0.000041
# 5 0.002209 -0.000282 0.003735 -0.006608 0.029507 0.008596
# 6 0.000740 -0.002153 -0.001970 0.000041 0.008596 0.038364
#
#
# Mechanical properties :
#
#
# Convention : Reuss Voigt Hill
#
# Bulk Modulus (GPa) = 47.20014 63.02546 55.11280
# Shear Modulus (GPa) = 30.97635 37.38154 34.17894
#
# Velocity S-wave (km/s) = 3.77101 4.14258 3.96116
# Velocity P-wave (km/s) = 6.37410 7.19825 6.79868
#
# Compressibility (1/GPa) = 0.02118638
#
# Stress axis : x y z
#
# Youngs Moduli (GPa) = 70.73601 60.24164 113.15222
#
# Poissons Ratio (x) = 0.24457 0.39432
# Poissons Ratio (y) = 0.28717 0.18663
# Poissons Ratio (z) = 0.24651 0.09936
#
# Static dielectric constant tensor:
#      x y z
#    x 3.935670 -0.049290 -0.243330 
#    y -0.049290 4.086660 -0.136570 
#    z -0.243330 -0.136570 4.653910 
# 
# 
# High freq. dielectric constant tensor:
#      x y z
#    x 1.853730 -0.005160 -0.011570 
#    y -0.005160 1.858870 -0.003130 
#    z -0.011570 -0.003130 1.878950 
# 
# From -- ./inp_files/356026.got.cif
#   From: 2010.06.25/outbox.cif.g09.slc.cpg/sg2_179_cif.got.tgz:356026.got - 2010.06.27 13:26:56.
