data_PCOD8027003
_publ_section_title
;
Structure prediction by ZEFSAII (Michael W. Deem and Ramdas Pophale) SiO2 
 PCOD8027003
Probable space group: P -1
;
_chemical_formula_sum "Si O2"
_cell_formula_units_Z 14
_cell_length_a 7.726167
_cell_length_b 24.308631
_cell_length_c 16.124719
_cell_angle_alpha 157.221483
_cell_angle_beta 36.380119
_cell_angle_gamma 142.385739
_cell_volume 678.895821
_symmetry_space_group_name_H-M "P -1"
_symmetry_group_IT_number 2
_symmetry_cell_setting 'triclinic'
loop_
_space_group_symop_operation_xyz
x,y,z
-x,-y,-z
loop_
_atom_site_type_symbol
_atom_site_label
_atom_site_fract_x
_atom_site_fract_y
_atom_site_fract_z
Si Si1 0.653277 0.431499 0.056632
Si Si2 0.726991 0.484609 0.818648
Si Si3 0.737968 0.172522 0.360642
Si Si4 0.054096 0.080015 0.505183
Si Si5 0.688480 0.880649 0.250561
Si Si6 0.823515 0.896198 0.032310
Si Si7 0.254588 0.688511 0.982002
O O1 0.434603 0.519833 0.215798
O O2 0.518768 0.270182 0.847045
O O3 0.630366 0.426175 0.159429
O O4 0.000000 0.500000 0.000000
O O5 0.855603 0.338584 0.575555
O O6 0.500000 0.500000 0.000000
O O7 0.013617 0.616233 0.905959
O O8 0.388106 0.157812 0.462741
O O9 0.809916 0.062863 0.250332
O O10 0.885809 0.142126 0.174535
O O11 0.862015 0.206317 0.758552
O O12 0.000000 0.000000 0.500000
O O13 0.972808 0.944093 0.285377
O O14 0.826908 0.869164 0.090888
O O15 0.500000 0.000000 0.500000
O O16 0.525962 0.784662 0.957668
#
# Coordination Sequence:
#
# PCOD8027003 Si02
#       7
#     2   2   2   2   2   2   2
#     4  11  22  38  58  97 129 159 210 270 317 370
#     4  12  24  37  66  96 125 171 216 263 327 384
#     4  11  24  42  64  93 132 166 215 270 318 392
#     4  12  20  36  67  97 122 160 217 272 312 377
#     4  11  22  37  67  92 123 170 214 263 318 377
#     4  10  24  44  63  92 129 171 213 267 328 377
#     4  11  22  41  64  94 129 164 215 269 316 382
#
# _framework density 20.621721999999998
#
# number of rings (size 3 to 8) (size 9 to 14) (size 15 to 20)
#    0.000    0.857    7.143    0.857    2.000    1.143 
#    0.000    2.857    0.000    0.000    0.000    0.000 
#    0.000    0.000    0.000    0.000    0.000    0.000 
#
# Total GULP energy -173445.696467 kJ/mol
# GULP energy per Si atom -12388.978319 kJ/mol
# Density = 2.057479 g / cm^3
# Si number density = 20.621722 Si / 1000 Ang^3
#
#
#
# Elastic Constant Matrix: (Units=GPa)
#
#
# Indices 1 2 3 4 5 6 
#
# 1 95.6308 29.7956 17.2297 6.1491 6.6992 2.5378
# 2 29.7956 116.4432 43.3687 4.5185 4.3728 1.0946
# 3 17.2297 43.3687 83.2771 10.9298 -2.6849 -7.7436
# 4 6.1491 4.5185 10.9298 39.3171 4.1625 5.3066
# 5 6.6992 4.3728 -2.6849 4.1625 27.4606 8.6561
# 6 2.5378 1.0946 -7.7436 5.3066 8.6561 33.1762
#
#
#
# Elastic Compliance Matrix: (Units=1/GPa)
#
#
# Indices 1 2 3 4 5 6 
#
# 1 0.011650 -0.002436 -0.001122 -0.000942 -0.002321 -0.000316
# 2 -0.002436 0.011371 -0.005717 0.000998 -0.001521 -0.001286
# 3 -0.001122 -0.005717 0.016269 -0.004486 0.002120 0.004236
# 4 -0.000942 0.000998 -0.004486 0.027666 -0.003104 -0.004623
# 5 -0.002321 -0.001521 0.002120 -0.003104 0.040880 -0.009447
# 6 -0.000316 -0.001286 0.004236 -0.004623 -0.009447 0.034402
#
#
# Mechanical properties :
#
#
# Convention : Reuss Voigt Hill
#
# Bulk Modulus (GPa) = 48.22098 52.90435 50.56267
# Shear Modulus (GPa) = 29.81468 33.65461 31.73464
#
# Velocity S-wave (km/s) = 3.80648 4.04418 3.92713
# Velocity P-wave (km/s) = 6.53861 6.89330 6.71830
#
# Compressibility (1/GPa) = 0.02073786
#
# Stress axis : x y z
#
# Youngs Moduli (GPa) = 85.83917 87.94150 61.46723
#
# Poissons Ratio (x) = 0.21425 0.06898
# Poissons Ratio (y) = 0.20913 0.35143
# Poissons Ratio (z) = 0.09633 0.50280
#
# Static dielectric constant tensor:
#      x y z
#    x 3.497410 -0.375450 -1.335350 
#    y -0.375450 3.656070 -0.283950 
#    z -1.335350 -0.283950 1.998170 
# 
# 
# High freq. dielectric constant tensor:
#      x y z
#    x 1.805340 0.005150 -0.003870 
#    y 0.005150 1.821110 0.027310 
#    z -0.003870 0.027310 1.781690 
# 
# From -- ./inp_files/169489.got.cif
#   From: 2010.06.25/outbox.cif.g09.slc.cpg/sg2_85_cif.got.tgz:169489.got - 2010.06.27 13:26:56.
