data_PCOD8027350
_publ_section_title
;
Structure prediction by ZEFSAII (Michael W. Deem and Ramdas Pophale) SiO2 
 PCOD8027350
Probable space group: P -1
;
_chemical_formula_sum "Si O2"
_cell_formula_units_Z 16
_cell_length_a 8.744634
_cell_length_b 15.032183
_cell_length_c 12.760531
_cell_angle_alpha 62.302213
_cell_angle_beta 48.063043
_cell_angle_gamma 101.777203
_cell_volume 689.252693
_symmetry_space_group_name_H-M "P -1"
_symmetry_group_IT_number 2
_symmetry_cell_setting 'triclinic'
loop_
_space_group_symop_operation_xyz
x,y,z
-x,-y,-z
loop_
_atom_site_type_symbol
_atom_site_label
_atom_site_fract_x
_atom_site_fract_y
_atom_site_fract_z
Si Si1 0.987123 0.294685 0.280371
Si Si2 0.146278 0.353104 0.793531
Si Si3 0.274034 0.703033 0.157296
Si Si4 0.989029 0.931097 0.644170
Si Si5 0.887388 0.356275 0.509553
Si Si6 0.631133 0.849483 0.478036
Si Si7 0.150556 0.127246 0.947635
Si Si8 0.276993 0.523710 0.848335
O O1 0.993822 0.320895 0.387466
O O2 0.648230 0.205828 0.434020
O O3 0.025567 0.191727 0.306838
O O4 0.288307 0.463469 0.984792
O O5 0.500000 0.500000 0.500000
O O6 0.035041 0.196724 0.946223
O O7 0.169168 0.411815 0.864537
O O8 0.866455 0.292560 0.880958
O O9 0.147578 0.706671 0.323217
O O10 0.162469 0.545423 0.288327
O O11 0.666616 0.846664 0.900316
O O12 0.000000 0.000000 0.500000
O O13 0.340585 0.091678 0.451403
O O14 0.543400 0.277251 0.681655
O O15 0.602128 0.715587 0.570516
O O16 0.996261 0.021151 0.180157
O O17 0.000000 0.000000 0.000000
O O18 0.000000 0.500000 0.000000
#
# Coordination Sequence:
#
# PCOD8027350 Si02
#       8
#     2   2   2   2   2   2   2   2
#     4  11  25  48  75 104 140 197 244 285 357 437
#     4  12  25  46  78 106 138 195 248 286 358 435
#     4  11  26  47  70 103 151 188 235 295 359 434
#     4  12  29  45  67 109 151 190 231 302 369 417
#     4  11  24  48  72 104 145 189 239 296 355 430
#     4  11  23  46  74 103 143 184 243 299 352 421
#     4  12  23  44  74 108 141 181 244 302 351 416
#     4  10  24  44  78 107 139 184 252 296 346 427
#
# _framework density 23.213549
#
# number of rings (size 3 to 8) (size 9 to 14) (size 15 to 20)
#    0.000    0.750    3.750    3.375    7.000    0.500 
#    4.500    1.250    0.000    0.000    0.000    0.000 
#    0.000    0.000    0.000    0.000    0.000    0.000 
#
# Total GULP energy -198258.637998 kJ/mol
# GULP energy per Si atom -12391.164875 kJ/mol
# Density = 2.316071 g / cm^3
# Si number density = 23.213549 Si / 1000 Ang^3
#
#
#
# Elastic Constant Matrix: (Units=GPa)
#
#
# Indices 1 2 3 4 5 6 
#
# 1 78.9125 65.3597 46.9159 -0.0068 22.2602 -5.6125
# 2 65.3597 169.4636 47.2453 5.3561 28.3505 0.0255
# 3 46.9159 47.2453 97.1438 -10.7216 24.3000 1.9919
# 4 -0.0068 5.3561 -10.7216 35.7267 2.1233 9.4010
# 5 22.2602 28.3505 24.3000 2.1233 42.1440 -8.0813
# 6 -5.6125 0.0255 1.9919 9.4010 -8.0813 41.6646
#
#
#
# Elastic Compliance Matrix: (Units=1/GPa)
#
#
# Indices 1 2 3 4 5 6 
#
# 1 0.023764 -0.006397 -0.007959 -0.002181 -0.002874 0.003520
# 2 -0.006397 0.009030 -0.000824 -0.001195 -0.002355 -0.001015
# 3 -0.007959 -0.000824 0.016945 0.006795 -0.006241 -0.004626
# 4 -0.002181 -0.001195 0.006795 0.032918 -0.005363 -0.009085
# 5 -0.002874 -0.002355 -0.006241 -0.005363 0.032109 0.007351
# 6 0.003520 -0.001015 -0.004626 -0.009085 0.007351 0.028173
#
#
# Mechanical properties :
#
#
# Convention : Reuss Voigt Hill
#
# Bulk Modulus (GPa) = 51.60741 73.84017 62.72379
# Shear Modulus (GPa) = 27.81508 36.30698 32.06103
#
# Velocity S-wave (km/s) = 3.46530 3.95909 3.72039
# Velocity P-wave (km/s) = 6.18796 7.26480 6.74790
#
# Compressibility (1/GPa) = 0.01937706
#
# Stress axis : x y z
#
# Youngs Moduli (GPa) = 42.08081 110.74341 59.01457
#
# Poissons Ratio (x) = 0.70843 0.46973
# Poissons Ratio (y) = 0.26919 0.04864
# Poissons Ratio (z) = 0.33494 0.09128
#
# Static dielectric constant tensor:
#      x y z
#    x 2.917650 1.697480 -1.045030 
#    y 1.697480 1.908350 1.875580 
#    z -1.045030 1.875580 3.055390 
# 
# 
# High freq. dielectric constant tensor:
#      x y z
#    x 1.914020 0.017830 0.013210 
#    y 0.017830 1.928750 -0.002870 
#    z 0.013210 -0.002870 1.931930 
# 
# From -- ./inp_files/398909.got.cif
#   From: 2010.06.25/outbox.cif.g09.slc.cpg/sg2_200_cif.got.tgz:398909.got - 2010.06.27 13:26:56.
