data_PCOD8027857
_publ_section_title
;
Structure prediction by ZEFSAII (Michael W. Deem and Ramdas Pophale) SiO2 
 PCOD8027857
Probable space group: P -1
;
_chemical_formula_sum "Si O2"
_cell_formula_units_Z 12
_cell_length_a 11.401884
_cell_length_b 19.120262
_cell_length_c 16.586252
_cell_angle_alpha 158.138542
_cell_angle_beta 148.769233
_cell_angle_gamma 20.359538
_cell_volume 465.279110
_symmetry_space_group_name_H-M "P -1"
_symmetry_group_IT_number 2
_symmetry_cell_setting 'triclinic'
loop_
_space_group_symop_operation_xyz
x,y,z
-x,-y,-z
loop_
_atom_site_type_symbol
_atom_site_label
_atom_site_fract_x
_atom_site_fract_y
_atom_site_fract_z
Si Si1 0.968108 0.005231 0.150354
Si Si2 0.187692 0.309245 0.507187
Si Si3 0.874844 0.734267 0.906880
Si Si4 0.323770 0.567573 0.760576
Si Si5 0.748252 0.504498 0.818768
Si Si6 0.138372 0.224129 0.594040
O O1 0.597797 0.189444 0.092273
O O2 0.991913 0.205747 0.409283
O O3 0.034725 0.839358 0.093465
O O4 0.257660 0.769953 0.004440
O O5 0.373278 0.329246 0.572465
O O6 0.892104 0.611456 0.700740
O O7 0.011473 0.236932 0.285302
O O8 0.463450 0.066616 0.474499
O O9 0.081012 0.484395 0.826795
O O10 0.500000 0.000000 0.000000
O O11 0.651840 0.416722 0.738752
O O12 0.940491 0.281908 0.620141
O O13 0.000000 0.500000 0.000000
#
# Coordination Sequence:
#
# PCOD8027857 Si02
#       6
#     2   2   2   2   2   2
#     4  11  25  48  74 106 147 198 242 306 368 430
#     4  10  24  47  78 108 143 197 247 302 367 439
#     4  11  24  44  73 106 149 190 242 304 364 433
#     4  10  24  48  75 104 151 196 242 302 372 437
#     4  12  26  43  71 108 148 193 241 299 368 439
#     4  12  26  46  76 112 145 189 252 303 366 438
#
# _framework density 25.790970999999999
#
# number of rings (size 3 to 8) (size 9 to 14) (size 15 to 20)
#    0.000    1.000    1.667    3.500    2.333    7.333 
#    0.000    0.000    0.000    0.000    0.000    0.000 
#    0.000    0.000    0.000    0.000    0.000    0.000 
#
# Total GULP energy -148797.760154 kJ/mol
# GULP energy per Si atom -12399.813346 kJ/mol
# Density = 2.573227 g / cm^3
# Si number density = 25.790971 Si / 1000 Ang^3
#
#
#
# Elastic Constant Matrix: (Units=GPa)
#
#
# Indices 1 2 3 4 5 6 
#
# 1 153.7061 45.3902 41.1463 -4.9199 -4.8772 -27.0608
# 2 45.3902 129.6828 40.1538 -4.5649 6.1231 4.3762
# 3 41.1463 40.1538 88.4784 -0.2531 -6.8027 -12.1460
# 4 -4.9199 -4.5649 -0.2531 42.4523 -0.2041 -3.1416
# 5 -4.8772 6.1231 -6.8027 -0.2041 51.4270 2.4564
# 6 -27.0608 4.3762 -12.1460 -3.1416 2.4564 43.3749
#
#
#
# Elastic Compliance Matrix: (Units=1/GPa)
#
#
# Indices 1 2 3 4 5 6 
#
# 1 0.008819 -0.002581 -0.002165 0.001120 0.000613 0.005203
# 2 -0.002581 0.010079 -0.004007 0.000485 -0.001800 -0.003612
# 3 -0.002165 -0.004007 0.014701 -0.000360 0.002070 0.003027
# 4 0.001120 0.000485 -0.000360 0.023904 -0.000013 0.002281
# 5 0.000613 -0.001800 0.002070 -0.000013 0.019991 0.000011
# 6 0.005203 -0.003612 0.003027 0.002281 0.000011 0.027677
#
#
# Mechanical properties :
#
#
# Convention : Reuss Voigt Hill
#
# Bulk Modulus (GPa) = 62.13964 69.47199 65.80581
# Shear Modulus (GPa) = 39.04953 43.79597 41.42275
#
# Velocity S-wave (km/s) = 3.89534 4.12529 4.01196
# Velocity P-wave (km/s) = 6.66164 7.04881 6.85795
#
# Compressibility (1/GPa) = 0.01609279
#
# Stress axis : x y z
#
# Youngs Moduli (GPa) = 113.39041 99.21410 68.02237
#
# Poissons Ratio (x) = 0.25612 0.14728
# Poissons Ratio (y) = 0.29271 0.27254
# Poissons Ratio (z) = 0.24551 0.39751
#
# Static dielectric constant tensor:
#      x y z
#    x 5.348170 0.071810 0.069160 
#    y 0.071810 4.291130 0.109640 
#    z 0.069160 0.109640 4.501070 
# 
# 
# High freq. dielectric constant tensor:
#      x y z
#    x 2.077100 -0.000980 0.001150 
#    y -0.000980 2.005790 0.002680 
#    z 0.001150 0.002680 2.021370 
# 
# From -- ./inp_files/570811.got.cif
#   From: 2010.06.25/outbox.cif.g09.slc.cpg/sg2_286_cif.got.tgz:570811.got - 2010.06.27 13:26:56.
