data_PCOD8027246
_publ_section_title
;
Structure prediction by ZEFSAII (Michael W. Deem and Ramdas Pophale) SiO2 
 PCOD8027246
Probable space group: P -1
;
_chemical_formula_sum "Si O2"
_cell_formula_units_Z 16
_cell_length_a 11.236884
_cell_length_b 14.504656
_cell_length_c 8.604162
_cell_angle_alpha 48.561459
_cell_angle_beta 72.468711
_cell_angle_gamma 41.324984
_cell_volume 637.608087
_symmetry_space_group_name_H-M "P -1"
_symmetry_group_IT_number 2
_symmetry_cell_setting 'triclinic'
loop_
_space_group_symop_operation_xyz
x,y,z
-x,-y,-z
loop_
_atom_site_type_symbol
_atom_site_label
_atom_site_fract_x
_atom_site_fract_y
_atom_site_fract_z
Si Si1 0.165427 0.188680 0.723018
Si Si2 0.997187 0.812481 0.932649
Si Si3 0.425664 0.178382 0.749820
Si Si4 0.577808 0.182291 0.162059
Si Si5 0.321831 0.835095 0.520631
Si Si6 0.229921 0.535160 0.591596
Si Si7 0.374565 0.595289 0.224607
Si Si8 0.862489 0.488541 0.027799
O O1 0.234912 0.276182 0.621541
O O2 0.942203 0.369312 0.563180
O O3 0.297001 0.023398 0.725593
O O4 0.170451 0.101434 0.974848
O O5 0.053282 0.647943 0.998723
O O6 0.190132 0.720013 0.042060
O O7 0.897614 0.993024 0.660426
O O8 0.569361 0.125194 0.625013
O O9 0.383848 0.306981 0.760840
O O10 0.500000 0.000000 0.000000
O O11 0.688993 0.148979 0.307083
O O12 0.561928 0.309853 0.903320
O O13 0.359799 0.298442 0.157804
O O14 0.439021 0.622907 0.666556
O O15 0.319221 0.596337 0.422885
O O16 0.148712 0.600119 0.725562
O O17 0.000000 0.500000 0.000000
#
# Coordination Sequence:
#
# PCOD8027246 Si02
#       8
#     2   2   2   2   2   2   2   2
#     4  11  24  43  69 105 141 190 237 285 361 424
#     4  11  24  46  73 104 141 186 235 295 353 423
#     4  11  21  40  70 100 143 186 234 286 354 429
#     4  12  27  47  72 105 146 187 239 302 343 429
#     4  11  24  43  73 105 137 192 235 294 361 408
#     4  10  24  44  71 102 141 190 234 293 356 418
#     4  10  25  51  72 104 143 188 247 288 354 426
#     4  12  27  44  69 107 146 182 236 295 358 421
#
# _framework density 25.093782999999998
#
# number of rings (size 3 to 8) (size 9 to 14) (size 15 to 20)
#    0.000    1.000    2.500    3.000    5.250    3.500 
#    2.250    0.000    0.000    0.000    0.000    0.000 
#    0.000    0.000    0.000    0.000    0.000    0.000 
#
# Total GULP energy -198402.938736 kJ/mol
# GULP energy per Si atom -12400.183671 kJ/mol
# Density = 2.503667 g / cm^3
# Si number density = 25.093783 Si / 1000 Ang^3
#
#
#
# Elastic Constant Matrix: (Units=GPa)
#
#
# Indices 1 2 3 4 5 6 
#
# 1 92.5969 20.3087 6.7470 -12.0194 -16.8764 -6.1713
# 2 20.3087 114.1734 19.6811 1.3770 1.5069 -0.0173
# 3 6.7470 19.6811 90.7377 -1.9414 -5.6552 -8.1518
# 4 -12.0194 1.3770 -1.9414 37.9299 1.6631 8.8230
# 5 -16.8764 1.5069 -5.6552 1.6631 22.5787 -1.7120
# 6 -6.1713 -0.0173 -8.1518 8.8230 -1.7120 21.4104
#
#
#
# Elastic Compliance Matrix: (Units=1/GPa)
#
#
# Indices 1 2 3 4 5 6 
#
# 1 0.014019 -0.002788 0.000654 0.003208 0.010883 0.003836
# 2 -0.002788 0.009699 -0.002266 -0.000836 -0.003357 -0.001582
# 3 0.000654 -0.002266 0.012193 -0.000518 0.004140 0.005374
# 4 0.003208 -0.000836 -0.000518 0.030156 -0.000789 -0.011763
# 5 0.010883 -0.003357 0.004140 -0.000789 0.054455 0.009390
# 6 0.003836 -0.001582 0.005374 -0.011763 0.009390 0.055455
#
#
# Mechanical properties :
#
#
# Convention : Reuss Voigt Hill
#
# Bulk Modulus (GPa) = 36.88482 43.44237 40.16360
# Shear Modulus (GPa) = 25.79798 33.10188 29.44993
#
# Velocity S-wave (km/s) = 3.20982 3.63592 3.42949
# Velocity P-wave (km/s) = 5.33554 5.91406 5.63223
#
# Compressibility (1/GPa) = 0.02711142
#
# Stress axis : x y z
#
# Youngs Moduli (GPa) = 71.33277 103.10063 82.01243
#
# Poissons Ratio (x) = 0.28745 -0.05362
# Poissons Ratio (y) = 0.19888 0.18582
# Poissons Ratio (z) = -0.04664 0.23360
#
# Static dielectric constant tensor:
#      x y z
#    x 5.181880 -0.251290 0.311070 
#    y -0.251290 4.336230 0.103150 
#    z 0.311070 0.103150 4.795170 
# 
# 
# High freq. dielectric constant tensor:
#      x y z
#    x 2.013100 -0.012790 0.017350 
#    y -0.012790 1.997050 0.003720 
#    z 0.017350 0.003720 2.010850 
# 
# From -- ./inp_files/271823.got.cif
#   From: 2010.06.25/outbox.cif.g09.slc.cpg/sg2_136_cif.got.tgz:271823.got - 2010.06.27 13:26:56.
