data_PCOD8027309
_publ_section_title
;
Structure prediction by ZEFSAII (Michael W. Deem and Ramdas Pophale) SiO2 
 PCOD8027309
Probable space group: P -1
;
_chemical_formula_sum "Si O2"
_cell_formula_units_Z 16
_cell_length_a 13.121947
_cell_length_b 11.299780
_cell_length_c 16.024780
_cell_angle_alpha 110.674962
_cell_angle_beta 17.960811
_cell_angle_gamma 110.223774
_cell_volume 685.117097
_symmetry_space_group_name_H-M "P -1"
_symmetry_group_IT_number 2
_symmetry_cell_setting 'triclinic'
loop_
_space_group_symop_operation_xyz
x,y,z
-x,-y,-z
loop_
_atom_site_type_symbol
_atom_site_label
_atom_site_fract_x
_atom_site_fract_y
_atom_site_fract_z
Si Si1 0.718500 0.843749 0.419649
Si Si2 0.310281 0.774536 0.155061
Si Si3 0.716693 0.323375 0.022988
Si Si4 0.698792 0.422656 0.756768
Si Si5 0.330510 0.391577 0.868400
Si Si6 0.321818 0.112074 0.361446
Si Si7 0.766449 0.250514 0.356618
Si Si8 0.811904 0.912951 0.894659
O O1 0.530708 0.835487 0.651986
O O2 0.475703 0.845129 0.530577
O O3 0.951073 0.723509 0.202941
O O4 0.924511 0.976203 0.303244
O O5 0.281462 0.670502 0.077643
O O6 0.176995 0.701857 0.323888
O O7 0.078789 0.890995 0.335835
O O8 0.691718 0.825870 0.887653
O O9 0.658129 0.463946 0.136706
O O10 0.429241 0.219922 0.239193
O O11 0.471228 0.374552 0.846711
O O12 0.000000 0.500000 0.500000
O O13 0.500000 0.500000 0.000000
O O14 0.543758 0.318695 0.615762
O O15 0.949399 0.340297 0.166392
O O16 0.461678 0.973373 0.206819
O O17 0.045892 0.170556 0.163062
#
# Coordination Sequence:
#
# PCOD8027309 Si02
#       8
#     2   2   2   2   2   2   2   2
#     4  10  26  47  72  99 140 193 246 302 353 416
#     4  11  23  42  70 109 143 186 233 298 365 440
#     4  10  24  45  71 105 146 185 239 293 366 430
#     4  12  24  42  72 105 149 190 225 288 358 433
#     4  12  27  46  73 110 147 189 240 292 362 429
#     4  10  24  44  72  99 144 188 243 295 366 418
#     4  12  29  47  74 107 145 192 246 296 356 423
#     4  11  25  46  69 106 140 187 243 299 363 428
#
# _framework density 23.353672
#
# number of rings (size 3 to 8) (size 9 to 14) (size 15 to 20)
#    0.000    1.000    2.500    2.250    8.750    7.000 
#    0.000    0.000    0.000    0.000    0.000    0.000 
#    0.000    0.000    0.000    0.000    0.000    0.000 
#
# Total GULP energy -198265.977376 kJ/mol
# GULP energy per Si atom -12391.623586 kJ/mol
# Density = 2.330052 g / cm^3
# Si number density = 23.353672 Si / 1000 Ang^3
#
#
#
# Elastic Constant Matrix: (Units=GPa)
#
#
# Indices 1 2 3 4 5 6 
#
# 1 107.0834 35.7548 44.0440 -4.4524 -19.5167 3.1104
# 2 35.7548 116.4770 39.4530 -0.7543 -5.5684 -6.9684
# 3 44.0440 39.4530 101.0084 -6.8671 2.8831 6.1675
# 4 -4.4524 -0.7543 -6.8671 28.8049 1.1385 -4.4945
# 5 -19.5167 -5.5684 2.8831 1.1385 38.9024 -4.7152
# 6 3.1104 -6.9684 6.1675 -4.4945 -4.7152 26.6477
#
#
#
# Elastic Compliance Matrix: (Units=1/GPa)
#
#
# Indices 1 2 3 4 5 6 
#
# 1 0.013432 -0.001979 -0.005269 0.000566 0.006883 0.000448
# 2 -0.001979 0.010727 -0.003633 -0.000310 0.001313 0.004057
# 3 -0.005269 -0.003633 0.014141 0.002008 -0.004769 -0.004113
# 4 0.000566 -0.000310 0.002008 0.036134 -0.000309 0.005428
# 5 0.006883 0.001313 -0.004769 -0.000309 0.030433 0.005977
# 6 0.000448 0.004057 -0.004113 0.005428 0.005977 0.041460
#
#
# Mechanical properties :
#
#
# Convention : Reuss Voigt Hill
#
# Bulk Modulus (GPa) = 60.47159 62.56360 61.51759
# Shear Modulus (GPa) = 28.80169 32.55881 30.68025
#
# Velocity S-wave (km/s) = 3.51562 3.73790 3.62846
# Velocity P-wave (km/s) = 6.51379 6.74366 6.62972
#
# Compressibility (1/GPa) = 0.01653669
#
# Stress axis : x y z
#
# Youngs Moduli (GPa) = 74.45178 93.22326 70.71804
#
# Poissons Ratio (x) = 0.18447 0.37263
# Poissons Ratio (y) = 0.14732 0.25694
# Poissons Ratio (z) = 0.39230 0.33871
#
# Static dielectric constant tensor:
#      x y z
#    x 4.229700 -0.094700 -0.022140 
#    y -0.094700 4.214390 0.035560 
#    z -0.022140 0.035560 4.264460 
# 
# 
# High freq. dielectric constant tensor:
#      x y z
#    x 1.929880 -0.008480 -0.004210 
#    y -0.008480 1.926510 0.001440 
#    z -0.004210 0.001440 1.919230 
# 
# From -- ./inp_files/519745.got.cif
#   From: 2010.06.25/outbox.cif.g09.slc.cpg/sg2_260_cif.got.tgz:519745.got - 2010.06.27 13:26:56.
