data_PCOD8027801
_publ_section_title
;
Structure prediction by ZEFSAII (Michael W. Deem and Ramdas Pophale) SiO2 
 PCOD8027801
Probable space group: P -1
;
_chemical_formula_sum "Si O2"
_cell_formula_units_Z 16
_cell_length_a 9.020939
_cell_length_b 12.237283
_cell_length_c 15.106177
_cell_angle_alpha 151.659389
_cell_angle_beta 95.104151
_cell_angle_gamma 75.350212
_cell_volume 732.757601
_symmetry_space_group_name_H-M "P -1"
_symmetry_group_IT_number 2
_symmetry_cell_setting 'triclinic'
loop_
_space_group_symop_operation_xyz
x,y,z
-x,-y,-z
loop_
_atom_site_type_symbol
_atom_site_label
_atom_site_fract_x
_atom_site_fract_y
_atom_site_fract_z
Si Si1 0.505342 0.973891 0.849621
Si Si2 0.101413 0.594355 0.976537
Si Si3 0.916046 0.250972 0.726705
Si Si4 0.441133 0.300457 0.810447
Si Si5 0.429961 0.541798 0.224846
Si Si6 0.122522 0.662030 0.829134
Si Si7 0.233173 0.062369 0.029223
Si Si8 0.578275 0.767808 0.518374
O O1 0.652202 0.857271 0.842618
O O2 0.554010 0.794241 0.640687
O O3 0.490718 0.247611 0.014948
O O4 0.335073 0.983290 0.886958
O O5 0.252978 0.368850 0.864979
O O6 0.135338 0.711180 0.970414
O O7 0.972295 0.473280 0.860246
O O8 0.054993 0.795106 0.197885
O O9 0.735532 0.338834 0.748401
O O10 0.000000 0.000000 0.500000
O O11 0.455362 0.339396 0.734269
O O12 0.541300 0.031045 0.658448
O O13 0.500000 0.500000 0.000000
O O14 0.451511 0.636007 0.391294
O O15 0.236219 0.388085 0.609018
O O16 0.936573 0.710152 0.831541
O O17 0.191924 0.837613 0.904854
#
# Coordination Sequence:
#
# PCOD8027801 Si02
#       8
#     2   2   2   2   2   2   2   2
#     4  11  23  46  72  92 132 179 225 280 344 390
#     4  11  23  43  64  94 138 174 213 266 328 398
#     4  11  25  39  63  97 140 175 210 259 328 405
#     4  12  22  40  68  98 137 176 215 263 325 404
#     4  12  23  43  65 101 133 175 219 270 330 401
#     4  11  24  43  69 100 132 174 229 280 339 384
#     4  10  24  47  69  93 133 176 224 295 338 382
#     4  12  25  39  74 103 131 177 230 268 332 414
#
# _framework density 21.835322999999999
#
# number of rings (size 3 to 8) (size 9 to 14) (size 15 to 20)
#    0.000    0.750    5.000    1.875    1.750    4.000 
#    0.000    0.000    0.000    0.000    0.000    0.000 
#    0.000    0.000    0.000    0.000    0.000    0.000 
#
# Total GULP energy -198280.832411 kJ/mol
# GULP energy per Si atom -12392.552026 kJ/mol
# Density = 2.178562 g / cm^3
# Si number density = 21.835323 Si / 1000 Ang^3
#
#
#
# Elastic Constant Matrix: (Units=GPa)
#
#
# Indices 1 2 3 4 5 6 
#
# 1 113.3231 41.7767 39.6344 -6.7399 -7.8808 3.0938
# 2 41.7767 109.0150 56.7755 -14.9300 -18.5779 7.1152
# 3 39.6344 56.7755 133.3071 -25.3369 -10.7895 -2.5087
# 4 -6.7399 -14.9300 -25.3369 40.5917 -1.5857 -4.6909
# 5 -7.8808 -18.5779 -10.7895 -1.5857 26.3189 -8.5378
# 6 3.0938 7.1152 -2.5087 -4.6909 -8.5378 31.3316
#
#
#
# Elastic Compliance Matrix: (Units=1/GPa)
#
#
# Indices 1 2 3 4 5 6 
#
# 1 0.010636 -0.003106 -0.001988 -0.000692 -0.000068 -0.000626
# 2 -0.003106 0.014083 -0.004074 0.002296 0.007182 -0.000917
# 3 -0.001988 -0.004074 0.011184 0.005668 0.002616 0.003579
# 4 -0.000692 0.002296 0.005668 0.029963 0.007676 0.006579
# 5 -0.000068 0.007182 0.002616 0.007676 0.048808 0.013035
# 6 -0.000626 -0.000917 0.003579 0.006579 0.013035 0.037010
#
#
# Mechanical properties :
#
#
# Convention : Reuss Voigt Hill
#
# Bulk Modulus (GPa) = 56.92643 70.22428 63.57535
# Shear Modulus (GPa) = 28.42892 34.14568 31.28730
#
# Velocity S-wave (km/s) = 3.61220 3.95876 3.78944
# Velocity P-wave (km/s) = 6.59732 7.28878 6.95166
#
# Compressibility (1/GPa) = 0.01756653
#
# Stress axis : x y z
#
# Youngs Moduli (GPa) = 94.02102 71.00591 89.41125
#
# Poissons Ratio (x) = 0.22053 0.17778
# Poissons Ratio (y) = 0.29201 0.36429
# Poissons Ratio (z) = 0.18694 0.28930
#
# Static dielectric constant tensor:
#      x y z
#    x 4.129530 0.135280 0.099730 
#    y 0.135280 4.405660 -0.409410 
#    z 0.099730 -0.409410 3.485040 
# 
# 
# High freq. dielectric constant tensor:
#      x y z
#    x 1.871050 -0.005700 -0.007870 
#    y -0.005700 1.869870 -0.013500 
#    z -0.007870 -0.013500 1.843210 
# 
# From -- ./inp_files/501220.got.cif
#   From: 2010.06.25/outbox.cif.g09.slc.cpg/sg2_251_cif.got.tgz:501220.got - 2010.06.27 13:26:56.
