data_PCOD8027254
_publ_section_title
;
Structure prediction by ZEFSAII (Michael W. Deem and Ramdas Pophale) SiO2 
 PCOD8027254
Probable space group: P -1
;
_chemical_formula_sum "Si O2"
_cell_formula_units_Z 14
_cell_length_a 5.811857
_cell_length_b 13.120433
_cell_length_c 13.324908
_cell_angle_alpha 39.357063
_cell_angle_beta 125.730436
_cell_angle_gamma 126.790677
_cell_volume 501.175750
_symmetry_space_group_name_H-M "P -1"
_symmetry_group_IT_number 2
_symmetry_cell_setting 'triclinic'
loop_
_space_group_symop_operation_xyz
x,y,z
-x,-y,-z
loop_
_atom_site_type_symbol
_atom_site_label
_atom_site_fract_x
_atom_site_fract_y
_atom_site_fract_z
Si Si1 0.136976 0.723445 0.743912
Si Si2 0.768067 0.131230 0.548606
Si Si3 0.310448 0.134335 0.955497
Si Si4 0.357382 0.386828 0.954748
Si Si5 0.250810 0.390488 0.589014
Si Si6 0.481756 0.628934 0.635782
Si Si7 0.085527 0.856172 0.847369
O O1 0.277468 0.865837 0.586397
O O2 0.349442 0.600697 0.909638
O O3 0.104155 0.822515 0.760551
O O4 0.810492 0.612880 0.709327
O O5 0.487832 0.167361 0.508646
O O6 0.987874 0.311948 0.504247
O O7 0.870119 0.972669 0.728622
O O8 0.314321 0.227932 0.780022
O O9 0.381266 0.267991 0.960110
O O10 0.588312 0.054638 0.090737
O O11 0.000000 0.000000 0.000000
O O12 0.057379 0.313952 0.997287
O O13 0.379823 0.564627 0.772760
O O14 0.500000 0.500000 0.500000
O O15 0.234996 0.522626 0.574033
#
# Coordination Sequence:
#
# PCOD8027254 Si02
#       7
#     2   2   2   2   2   2   2
#     4  11  24  44  70 104 145 187 244 294 353 421
#     4  12  26  43  71 105 143 190 236 295 365 419
#     4  10  24  47  76 104 141 189 243 295 361 431
#     4  10  24  44  71 104 139 188 241 293 358 421
#     4  11  24  47  73 107 143 188 240 301 361 425
#     4  11  25  45  73 104 144 188 239 298 358 430
#     4  11  26  47  73 104 143 188 240 294 353 436
#
# _framework density 27.93431
#
# number of rings (size 3 to 8) (size 9 to 14) (size 15 to 20)
#    0.000    1.143    1.429    3.000    2.000   11.429 
#    2.571    0.000    0.000    0.000    0.000    0.000 
#    0.000    0.000    0.000    0.000    0.000    0.000 
#
# Total GULP energy -173470.747083 kJ/mol
# GULP energy per Si atom -12390.767649 kJ/mol
# Density = 2.787073 g / cm^3
# Si number density = 27.934310 Si / 1000 Ang^3
#
#
#
# Elastic Constant Matrix: (Units=GPa)
#
#
# Indices 1 2 3 4 5 6 
#
# 1 75.2752 -2.8715 45.7405 1.4516 1.8889 8.5967
# 2 -2.8715 63.3117 10.3701 18.0893 15.8918 3.0460
# 3 45.7405 10.3701 133.7127 1.1294 6.1372 -0.5979
# 4 1.4516 18.0893 1.1294 49.8347 2.7137 0.8210
# 5 1.8889 15.8918 6.1372 2.7137 61.3814 3.4585
# 6 8.5967 3.0460 -0.5979 0.8210 3.4585 51.4580
#
#
#
# Elastic Compliance Matrix: (Units=1/GPa)
#
#
# Indices 1 2 3 4 5 6 
#
# 1 0.017501 0.002360 -0.006160 -0.001159 -0.000308 -0.003096
# 2 0.002360 0.019366 -0.002050 -0.006787 -0.004517 -0.001153
# 3 -0.006160 -0.002050 0.009761 0.000701 -0.000359 0.001277
# 4 -0.001159 -0.006787 0.000701 0.022506 0.000717 0.000196
# 5 -0.000308 -0.004517 -0.000359 0.000717 0.017524 -0.000875
# 6 -0.003096 -0.001153 0.001277 0.000196 -0.000875 0.020089
#
#
# Mechanical properties :
#
#
# Convention : Reuss Voigt Hill
#
# Bulk Modulus (GPa) = 28.62917 42.08642 35.35780
# Shear Modulus (GPa) = 38.43524 47.13886 42.78705
#
# Velocity S-wave (km/s) = 3.71336 4.11236 3.91794
# Velocity P-wave (km/s) = 5.35316 6.13577 5.75778
#
# Compressibility (1/GPa) = 0.03492941
#
# Stress axis : x y z
#
# Youngs Moduli (GPa) = 57.13890 51.63689 102.44764
#
# Poissons Ratio (x) = -0.12187 0.63105
# Poissons Ratio (y) = -0.13486 0.21000
# Poissons Ratio (z) = 0.35196 0.10585
#
# Static dielectric constant tensor:
#      x y z
#    x 4.967820 -0.117000 0.070450 
#    y -0.117000 5.747020 0.428980 
#    z 0.070450 0.428980 5.663770 
# 
# 
# High freq. dielectric constant tensor:
#      x y z
#    x 2.139040 -0.016970 0.006880 
#    y -0.016970 2.154540 0.019670 
#    z 0.006880 0.019670 2.136290 
# 
# From -- ./inp_files/368110.got.cif
#   From: 2010.06.25/outbox.cif.g09.slc.cpg/sg2_185_cif.got.tgz:368110.got - 2010.06.27 13:26:56.
