data_PCOD8027030
_publ_section_title
;
Structure prediction by ZEFSAII (Michael W. Deem and Ramdas Pophale) SiO2 
 PCOD8027030
Probable space group: P -1
;
_chemical_formula_sum "Si O2"
_cell_formula_units_Z 14
_cell_length_a 8.339869
_cell_length_b 14.361371
_cell_length_c 11.524257
_cell_angle_alpha 51.491538
_cell_angle_beta 111.214461
_cell_angle_gamma 69.881320
_cell_volume 629.630134
_symmetry_space_group_name_H-M "P -1"
_symmetry_group_IT_number 2
_symmetry_cell_setting 'triclinic'
loop_
_space_group_symop_operation_xyz
x,y,z
-x,-y,-z
loop_
_atom_site_type_symbol
_atom_site_label
_atom_site_fract_x
_atom_site_fract_y
_atom_site_fract_z
Si Si1 0.367698 0.973013 0.124614
Si Si2 0.151094 0.396182 0.999237
Si Si3 0.938054 0.729542 0.535612
Si Si4 0.056947 0.179253 0.100963
Si Si5 0.865205 0.330885 0.602719
Si Si6 0.203491 0.997306 0.527220
Si Si7 0.366245 0.719299 0.243101
O O1 0.688089 0.824089 0.313825
O O2 0.280443 0.902110 0.086735
O O3 0.305022 0.997428 0.226745
O O4 0.173296 0.177769 0.855961
O O5 0.040192 0.331522 0.970133
O O6 0.482468 0.215368 0.238113
O O7 0.000000 0.500000 0.000000
O O8 0.076744 0.543781 0.779551
O O9 0.828163 0.889468 0.467986
O O10 0.146127 0.671191 0.539160
O O11 0.111004 0.111363 0.297998
O O12 0.778368 0.270542 0.909958
O O13 0.692267 0.537500 0.443335
O O14 0.711987 0.297797 0.640998
O O15 0.000000 0.000000 0.500000
#
# Coordination Sequence:
#
# PCOD8027030 Si02
#       7
#     2   2   2   2   2   2   2
#     4  11  24  45  71  99 141 188 232 285 351 426
#     4  12  26  49  73 103 147 194 239 286 357 434
#     4  12  27  44  73 105 140 186 237 296 357 414
#     4  11  23  49  72 100 144 186 236 283 361 430
#     4  10  24  44  65 103 141 178 237 281 355 414
#     4  12  29  47  73 108 142 184 241 306 357 415
#     4  10  25  44  70 103 137 189 232 287 351 424
#
# _framework density 22.235275000000001
#
# number of rings (size 3 to 8) (size 9 to 14) (size 15 to 20)
#    0.000    0.857    2.857    3.429   12.000    2.286 
#    0.000    0.000    0.000    0.000    0.000    0.000 
#    0.000    0.000    0.000    0.000    0.000    0.000 
#
# Total GULP energy -173549.610957 kJ/mol
# GULP energy per Si atom -12396.400783 kJ/mol
# Density = 2.218467 g / cm^3
# Si number density = 22.235275 Si / 1000 Ang^3
#
#
#
# Elastic Constant Matrix: (Units=GPa)
#
#
# Indices 1 2 3 4 5 6 
#
# 1 96.9532 64.4903 69.9854 2.9250 2.4933 -5.9114
# 2 64.4903 140.5484 66.7012 -2.4063 2.1399 -7.6670
# 3 69.9854 66.7012 137.6362 -6.8936 0.6718 -17.0351
# 4 2.9250 -2.4063 -6.8936 36.8916 -6.1754 -5.5343
# 5 2.4933 2.1399 0.6718 -6.1754 20.6309 12.3613
# 6 -5.9114 -7.6670 -17.0351 -5.5343 12.3613 48.6218
#
#
#
# Elastic Compliance Matrix: (Units=1/GPa)
#
#
# Indices 1 2 3 4 5 6 
#
# 1 0.019528 -0.005444 -0.007605 -0.003828 -0.002058 -0.001061
# 2 -0.005444 0.010777 -0.002370 0.000681 -0.000412 0.000389
# 3 -0.007605 -0.002370 0.012912 0.003339 -0.000492 0.003731
# 4 -0.003828 0.000681 0.003339 0.029724 0.007865 0.002195
# 5 -0.002058 -0.000412 -0.000492 0.007865 0.060033 -0.014855
# 6 -0.001061 0.000389 0.003731 0.002195 -0.014855 0.025833
#
#
# Mechanical properties :
#
#
# Convention : Reuss Voigt Hill
#
# Bulk Modulus (GPa) = 80.77390 86.38794 83.58092
# Shear Modulus (GPa) = 25.80354 32.82625 29.31490
#
# Velocity S-wave (km/s) = 3.41027 3.84645 3.63491
# Velocity P-wave (km/s) = 7.20503 7.65918 7.43557
#
# Compressibility (1/GPa) = 0.01238024
#
# Stress axis : x y z
#
# Youngs Moduli (GPa) = 51.20772 92.79121 77.44437
#
# Poissons Ratio (x) = 0.50512 0.58894
# Poissons Ratio (y) = 0.27875 0.18358
# Poissons Ratio (z) = 0.38942 0.21996
#
# Static dielectric constant tensor:
#      x y z
#    x 4.056040 -0.174130 0.055840 
#    y -0.174130 4.146820 -0.146590 
#    z 0.055840 -0.146590 4.142470 
# 
# 
# High freq. dielectric constant tensor:
#      x y z
#    x 1.872660 -0.015820 0.000280 
#    y -0.015820 1.887460 -0.007880 
#    z 0.000280 -0.007880 1.885000 
# 
# From -- ./inp_files/308747.got.cif
#   From: 2010.06.25/outbox.cif.g09.slc.cpg/sg2_155_cif.got.tgz:308747.got - 2010.06.27 13:26:56.
