data_PCOD8027253
_publ_section_title
;
Structure prediction by ZEFSAII (Michael W. Deem and Ramdas Pophale) SiO2 
 PCOD8027253
Probable space group: P -1
;
_chemical_formula_sum "Si O2"
_cell_formula_units_Z 14
_cell_length_a 4.999516
_cell_length_b 15.034507
_cell_length_c 19.869176
_cell_angle_alpha 24.634904
_cell_angle_beta 89.119794
_cell_angle_gamma 79.756066
_cell_volume 572.322952
_symmetry_space_group_name_H-M "P -1"
_symmetry_group_IT_number 2
_symmetry_cell_setting 'triclinic'
loop_
_space_group_symop_operation_xyz
x,y,z
-x,-y,-z
loop_
_atom_site_type_symbol
_atom_site_label
_atom_site_fract_x
_atom_site_fract_y
_atom_site_fract_z
Si Si1 0.364331 0.698898 0.458654
Si Si2 0.792420 0.100231 0.029365
Si Si3 0.806509 0.610475 0.988690
Si Si4 0.821802 0.112602 0.172427
Si Si5 0.554263 0.189734 0.766403
Si Si6 0.622287 0.614103 0.652484
Si Si7 0.940679 0.254284 0.351494
O O1 0.389863 0.436463 0.632631
O O2 0.481040 0.782246 0.334000
O O3 0.559139 0.728763 0.499374
O O4 0.016966 0.843955 0.374210
O O5 0.695360 0.151929 0.071290
O O6 0.571979 0.990017 0.078278
O O7 0.779410 0.336174 0.832854
O O8 0.109357 0.903862 0.151482
O O9 0.842247 0.410308 0.178736
O O10 0.462671 0.754181 0.871193
O O11 0.000000 0.500000 0.000000
O O12 0.930874 0.784809 0.899665
O O13 0.309829 0.662520 0.650652
O O14 0.784243 0.727501 0.623551
O O15 0.000000 0.000000 0.500000
#
# Coordination Sequence:
#
# PCOD8027253 Si02
#       7
#     2   2   2   2   2   2   2
#     4  10  26  45  70 112 143 188 233 291 350 416
#     4  11  21  43  73  96 138 194 226 289 343 415
#     4  12  25  46  74 100 132 184 239 287 352 420
#     4  11  23  44  72  99 141 184 233 282 343 425
#     4  10  24  44  71 103 147 184 239 286 342 414
#     4  12  26  46  74 102 145 184 235 288 362 419
#     4  12  27  50  70 103 141 181 231 302 357 411
#
# _framework density 24.461714000000001
#
# number of rings (size 3 to 8) (size 9 to 14) (size 15 to 20)
#    0.000    0.857    2.857    3.429    2.000   12.000 
#    0.000    0.000    0.000    0.000    0.000    0.000 
#    0.000    0.000    0.000    0.000    0.000    0.000 
#
# Total GULP energy -173570.615983 kJ/mol
# GULP energy per Si atom -12397.901142 kJ/mol
# Density = 2.440604 g / cm^3
# Si number density = 24.461714 Si / 1000 Ang^3
#
#
#
# Elastic Constant Matrix: (Units=GPa)
#
#
# Indices 1 2 3 4 5 6 
#
# 1 124.5232 27.5177 45.4890 -6.5984 -2.5918 -0.2122
# 2 27.5177 89.9193 66.8326 -4.1808 13.1288 8.3832
# 3 45.4890 66.8326 130.4075 -22.2125 22.3585 -2.6069
# 4 -6.5984 -4.1808 -22.2125 35.8987 5.3234 12.1998
# 5 -2.5918 13.1288 22.3585 5.3234 33.8437 -10.8508
# 6 -0.2122 8.3832 -2.6069 12.1998 -10.8508 27.9812
#
#
#
# Elastic Compliance Matrix: (Units=1/GPa)
#
#
# Indices 1 2 3 4 5 6 
#
# 1 0.009786 -0.001127 -0.004216 -0.002934 0.005538 0.003446
# 2 -0.001127 0.019658 -0.009100 -0.000027 -0.004403 -0.008442
# 3 -0.004216 -0.009100 0.018249 0.013667 -0.013133 -0.006657
# 4 -0.002934 -0.000027 0.013667 0.050435 -0.027205 -0.031280
# 5 0.005538 -0.004403 -0.013133 -0.027205 0.055366 0.033469
# 6 0.003446 -0.008442 -0.006657 -0.031280 0.033469 0.064291
#
#
# Mechanical properties :
#
#
# Convention : Reuss Voigt Hill
#
# Bulk Modulus (GPa) = 53.17371 69.39207 61.28289
# Shear Modulus (GPa) = 19.76768 33.21210 26.48989
#
# Velocity S-wave (km/s) = 2.84581 3.68872 3.29433
# Velocity P-wave (km/s) = 5.70814 6.82433 6.29104
#
# Compressibility (1/GPa) = 0.01880628
#
# Stress axis : x y z
#
# Youngs Moduli (GPa) = 102.19114 50.86946 54.79813
#
# Poissons Ratio (x) = 0.05735 0.23103
# Poissons Ratio (y) = 0.11521 0.49865
# Poissons Ratio (z) = 0.43084 0.46290
#
# Static dielectric constant tensor:
#      x y z
#    x 4.667120 0.177670 0.206920 
#    y 0.177670 4.357280 -0.096580 
#    z 0.206920 -0.096580 4.676880 
# 
# 
# High freq. dielectric constant tensor:
#      x y z
#    x 1.977130 0.000640 0.003320 
#    y 0.000640 1.970170 -0.010990 
#    z 0.003320 -0.010990 1.985400 
# 
# From -- ./inp_files/583604.got.cif
#   From: 2010.06.25/outbox.cif.g09.slc.cpg/sg2_292_cif.got.tgz:583604.got - 2010.06.27 13:26:56.
