data_PCOD8027038
_publ_section_title
;
Structure prediction by ZEFSAII (Michael W. Deem and Ramdas Pophale) SiO2 
 PCOD8027038
Probable space group: P -1
;
_chemical_formula_sum "Si O2"
_cell_formula_units_Z 16
_cell_length_a 12.309404
_cell_length_b 11.387173
_cell_length_c 8.744977
_cell_angle_alpha 123.831014
_cell_angle_beta 66.431540
_cell_angle_gamma 136.075161
_cell_volume 706.361037
_symmetry_space_group_name_H-M "P -1"
_symmetry_group_IT_number 2
_symmetry_cell_setting 'triclinic'
loop_
_space_group_symop_operation_xyz
x,y,z
-x,-y,-z
loop_
_atom_site_type_symbol
_atom_site_label
_atom_site_fract_x
_atom_site_fract_y
_atom_site_fract_z
Si Si1 0.375046 0.524772 0.266229
Si Si2 0.670608 0.200806 0.525974
Si Si3 0.700159 0.237483 0.987137
Si Si4 0.295868 0.211690 0.883139
Si Si5 0.837012 0.889926 0.427173
Si Si6 0.114058 0.770301 0.346461
Si Si7 0.377676 0.994211 0.860769
Si Si8 0.752978 0.551735 0.383581
O O1 0.316575 0.627627 0.306205
O O2 0.557045 0.650657 0.213657
O O3 0.350343 0.506936 0.449422
O O4 0.275445 0.324490 0.095013
O O5 0.814255 0.229625 0.537508
O O6 0.500000 0.000000 0.500000
O O7 0.691334 0.196012 0.328123
O O8 0.694580 0.378629 0.184730
O O9 0.671388 0.074060 0.986885
O O10 0.861565 0.327866 0.872390
O O11 0.568059 0.147523 0.862801
O O12 0.152672 0.102212 0.761237
O O13 0.307100 0.080470 0.886140
O O14 0.727463 0.677091 0.393633
O O15 0.785744 0.008996 0.590308
O O16 0.000000 0.000000 0.500000
O O17 0.933722 0.663012 0.402211
#
# Coordination Sequence:
#
# PCOD8027038 Si02
#       8
#     2   2   2   2   2   2   2   2
#     4  11  25  41  66 100 129 169 220 274 325 384
#     4  12  20  42  68  94 130 169 219 278 324 383
#     4  11  24  41  67 102 130 169 218 272 326 383
#     4  11  24  44  69  96 129 174 216 267 334 385
#     4  10  24  44  65  93 133 175 215 267 324 388
#     4  11  23  43  68  90 131 181 214 265 336 382
#     4  11  23  41  68  99 131 167 221 270 325 390
#     4  11  26  44  61  96 137 172 220 270 319 393
#
# _framework density 22.651306000000002
#
# number of rings (size 3 to 8) (size 9 to 14) (size 15 to 20)
#    0.000    1.000    5.000    0.375    7.000    1.000 
#    0.000    2.500    0.000    0.000    0.000    0.000 
#    0.000    0.000    0.000    0.000    0.000    0.000 
#
# Total GULP energy -198231.132156 kJ/mol
# GULP energy per Si atom -12389.445760 kJ/mol
# Density = 2.259975 g / cm^3
# Si number density = 22.651306 Si / 1000 Ang^3
#
#
#
# Elastic Constant Matrix: (Units=GPa)
#
#
# Indices 1 2 3 4 5 6 
#
# 1 122.6864 26.4246 53.8070 7.5506 17.6195 -26.1426
# 2 26.4246 59.4407 29.2918 2.1381 -2.9643 -20.4174
# 3 53.8070 29.2918 166.5597 9.8128 -6.2779 -12.5694
# 4 7.5506 2.1381 9.8128 33.2133 -3.1404 -3.2504
# 5 17.6195 -2.9643 -6.2779 -3.1404 38.7628 0.9955
# 6 -26.1426 -20.4174 -12.5694 -3.2504 0.9955 34.8572
#
#
#
# Elastic Compliance Matrix: (Units=1/GPa)
#
#
# Indices 1 2 3 4 5 6 
#
# 1 0.012628 -0.001723 -0.003382 -0.001686 -0.006743 0.007278
# 2 -0.001723 0.022750 -0.002589 0.000961 0.001896 0.011135
# 3 -0.003382 -0.002589 0.007605 -0.001220 0.002511 -0.001496
# 4 -0.001686 0.000961 -0.001220 0.031251 0.003131 0.001683
# 5 -0.006743 0.001896 0.002511 0.003131 0.029761 -0.003600
# 6 0.007278 0.011135 -0.001496 0.001683 -0.003600 0.040389
#
#
# Mechanical properties :
#
#
# Convention : Reuss Voigt Hill
#
# Bulk Modulus (GPa) = 36.23826 63.08154 49.65990
# Shear Modulus (GPa) = 29.59065 37.31087 33.45076
#
# Velocity S-wave (km/s) = 3.61827 4.06295 3.84704
# Velocity P-wave (km/s) = 5.78696 7.06538 6.45788
#
# Compressibility (1/GPa) = 0.02759515
#
# Stress axis : x y z
#
# Youngs Moduli (GPa) = 79.18771 43.95550 131.48525
#
# Poissons Ratio (x) = 0.07574 0.44470
# Poissons Ratio (y) = 0.13645 0.34044
# Poissons Ratio (z) = 0.26782 0.11381
#
# Static dielectric constant tensor:
#      x y z
#    x 4.132420 -0.428790 0.029640 
#    y -0.428790 4.049210 0.180820 
#    z 0.029640 0.180820 4.528220 
# 
# 
# High freq. dielectric constant tensor:
#      x y z
#    x 1.897150 -0.028520 0.008500 
#    y -0.028520 1.870640 0.008620 
#    z 0.008500 0.008620 1.911720 
# 
# From -- ./inp_files/263445.got.cif
#   From: 2010.06.25/outbox.cif.g09.slc.cpg/sg2_132_cif.got.tgz:263445.got - 2010.06.27 13:26:56.
