data_PCOD8027586
_publ_section_title
;
Structure prediction by ZEFSAII (Michael W. Deem and Ramdas Pophale) SiO2 
 PCOD8027586
Probable space group: P -1
;
_chemical_formula_sum "Si O2"
_cell_formula_units_Z 14
_cell_length_a 10.364908
_cell_length_b 6.330276
_cell_length_c 13.238186
_cell_angle_alpha 50.037242
_cell_angle_beta 56.032618
_cell_angle_gamma 75.527476
_cell_volume 543.969168
_symmetry_space_group_name_H-M "P -1"
_symmetry_group_IT_number 2
_symmetry_cell_setting 'triclinic'
loop_
_space_group_symop_operation_xyz
x,y,z
-x,-y,-z
loop_
_atom_site_type_symbol
_atom_site_label
_atom_site_fract_x
_atom_site_fract_y
_atom_site_fract_z
Si Si1 0.450322 0.239111 0.514200
Si Si2 0.383673 0.777653 0.287577
Si Si3 0.794219 0.212608 0.819777
Si Si4 0.839441 0.624824 0.028422
Si Si5 0.239506 0.410801 0.695920
Si Si6 0.384704 0.685652 0.943260
Si Si7 0.049794 0.703576 0.552778
O O1 0.430286 0.475116 0.368683
O O2 0.289232 0.159487 0.679733
O O3 0.608592 0.351499 0.476476
O O4 0.500000 0.000000 0.500000
O O5 0.371150 0.846093 0.152282
O O6 0.203967 0.778364 0.396451
O O7 0.511196 0.008868 0.218345
O O8 0.909635 0.476418 0.635907
O O9 0.757462 0.291753 0.925556
O O10 0.876912 0.935806 0.869284
O O11 0.773565 0.663110 0.158522
O O12 0.697721 0.436856 0.086868
O O13 0.000000 0.500000 0.000000
O O14 0.086706 0.536879 0.690339
O O15 0.500000 0.500000 0.000000
O O16 0.000000 0.000000 0.500000
#
# Coordination Sequence:
#
# PCOD8027586 Si02
#       7
#     2   2   2   2   2   2   2
#     4  10  24  45  74 108 152 198 250 324 391 449
#     4  11  25  47  78 115 148 201 265 324 382 473
#     4  12  27  48  77 114 153 201 270 316 389 478
#     4  12  29  49  80 113 161 211 254 328 399 461
#     4  10  25  46  69 114 149 198 260 311 389 466
#     4  12  26  49  79 114 154 202 265 323 391 459
#     4  11  26  47  77 110 158 204 252 318 393 470
#
# _framework density 25.736751000000002
#
# number of rings (size 3 to 8) (size 9 to 14) (size 15 to 20)
#    0.000    0.857    1.429    3.429    6.000   10.286 
#    0.000    0.000    0.000    0.000    0.000    0.000 
#    0.000    0.000    0.000    0.000    0.000    0.000 
#
# Total GULP energy -173494.596650 kJ/mol
# GULP energy per Si atom -12392.471189 kJ/mol
# Density = 2.567817 g / cm^3
# Si number density = 25.736751 Si / 1000 Ang^3
#
#
#
# Elastic Constant Matrix: (Units=GPa)
#
#
# Indices 1 2 3 4 5 6 
#
# 1 151.7420 77.4636 27.8764 -9.0744 4.3918 -8.4997
# 2 77.4636 198.0298 63.8935 -11.2433 4.9247 -25.3970
# 3 27.8764 63.8935 116.6026 -3.7061 -15.9093 0.1277
# 4 -9.0744 -11.2433 -3.7061 45.7137 -0.7647 7.9990
# 5 4.3918 4.9247 -15.9093 -0.7647 44.5155 1.2698
# 6 -8.4997 -25.3970 0.1277 7.9990 1.2698 43.6524
#
#
#
# Elastic Compliance Matrix: (Units=1/GPa)
#
#
# Indices 1 2 3 4 5 6 
#
# 1 0.008292 -0.003120 -0.000321 0.000904 -0.000562 -0.000349
# 2 -0.003120 0.008172 -0.004020 0.000300 -0.002147 0.004166
# 3 -0.000321 -0.004020 0.011509 0.000422 0.004672 -0.002648
# 4 0.000904 0.000300 0.000422 0.022846 0.000531 -0.003853
# 5 -0.000562 -0.002147 0.004672 0.000531 0.024498 -0.002182
# 6 -0.000349 0.004166 -0.002648 -0.003853 -0.002182 0.026041
#
#
# Mechanical properties :
#
#
# Convention : Reuss Voigt Hill
#
# Bulk Modulus (GPa) = 76.60951 89.42682 83.01816
# Shear Modulus (GPa) = 41.44887 46.58571 44.01729
#
# Velocity S-wave (km/s) = 4.01745 4.25912 4.14005
# Velocity P-wave (km/s) = 7.16597 7.68173 7.42833
#
# Compressibility (1/GPa) = 0.01305321
#
# Stress axis : x y z
#
# Youngs Moduli (GPa) = 120.59153 122.37174 86.88588
#
# Poissons Ratio (x) = 0.38177 0.02785
# Poissons Ratio (y) = 0.37622 0.34927
# Poissons Ratio (z) = 0.03865 0.49192
#
# Static dielectric constant tensor:
#      x y z
#    x 5.097870 0.031150 0.014600 
#    y 0.031150 4.882260 0.160470 
#    z 0.014600 0.160470 4.815820 
# 
# 
# High freq. dielectric constant tensor:
#      x y z
#    x 2.049380 -0.009830 0.010260 
#    y -0.009830 2.034090 0.005410 
#    z 0.010260 0.005410 2.030600 
# 
# From -- ./inp_files/510666.got.cif
#   From: 2010.06.25/outbox.cif.g09.slc.cpg/sg2_256_cif.got.tgz:510666.got - 2010.06.27 13:26:56.
