data_PCOD8027318
_publ_section_title
;
Structure prediction by ZEFSAII (Michael W. Deem and Ramdas Pophale) SiO2 
 PCOD8027318
Probable space group: P -1
;
_chemical_formula_sum "Si O2"
_cell_formula_units_Z 16
_cell_length_a 21.759462
_cell_length_b 12.556819
_cell_length_c 5.510555
_cell_angle_alpha 133.102003
_cell_angle_beta 121.096441
_cell_angle_gamma 36.710650
_cell_volume 655.459794
_symmetry_space_group_name_H-M "P -1"
_symmetry_group_IT_number 2
_symmetry_cell_setting 'triclinic'
loop_
_space_group_symop_operation_xyz
x,y,z
-x,-y,-z
loop_
_atom_site_type_symbol
_atom_site_label
_atom_site_fract_x
_atom_site_fract_y
_atom_site_fract_z
Si Si1 0.823687 0.817904 0.823631
Si Si2 0.810857 0.533434 0.535485
Si Si3 0.993524 0.246680 0.780344
Si Si4 0.490173 0.369434 0.626842
Si Si5 0.316234 0.596308 0.279683
Si Si6 0.105470 0.824828 0.186194
Si Si7 0.590272 0.768484 0.422138
Si Si8 0.285982 0.929026 0.506135
O O1 0.829723 0.633030 0.528718
O O2 0.772930 0.946554 0.670108
O O3 0.937330 0.720685 0.934528
O O4 0.762627 0.943021 0.142230
O O5 0.884262 0.468636 0.810964
O O6 0.690225 0.707565 0.642483
O O7 0.848046 0.319521 0.184811
O O8 0.974871 0.166544 0.842095
O O9 0.048813 0.064351 0.399557
O O10 0.399898 0.551619 0.547298
O O11 0.455870 0.274993 0.547610
O O12 0.599013 0.171325 0.417975
O O13 0.500000 0.500000 0.000000
O O14 0.208717 0.713493 0.382150
O O15 0.290948 0.745381 0.240613
O O16 0.366987 0.373652 0.947870
O O17 0.500000 0.000000 0.500000
#
# Coordination Sequence:
#
# PCOD8027318 Si02
#       8
#     2   2   2   2   2   2   2   2
#     4  12  29  48  79 110 153 200 256 317 380 453
#     4  11  26  47  73 108 155 196 254 312 391 449
#     4  11  24  45  78 106 147 200 257 311 380 457
#     4  12  25  43  76 106 149 197 256 314 378 449
#     4  11  24  45  74 107 149 194 255 311 377 451
#     4  10  24  44  73 109 148 194 254 312 383 452
#     4  11  26  46  72 108 153 198 248 313 387 454
#     4  12  27  47  76 111 149 197 259 312 377 449
#
# _framework density 24.410346000000001
#
# number of rings (size 3 to 8) (size 9 to 14) (size 15 to 20)
#    0.000    0.750    2.500    3.375    7.000    5.000 
#    0.000    0.000    0.000    0.000    0.000    0.000 
#    0.000    0.000    0.000    0.000    0.000    0.000 
#
# Total GULP energy -198280.906563 kJ/mol
# GULP energy per Si atom -12392.556660 kJ/mol
# Density = 2.435479 g / cm^3
# Si number density = 24.410346 Si / 1000 Ang^3
#
#
#
# Elastic Constant Matrix: (Units=GPa)
#
#
# Indices 1 2 3 4 5 6 
#
# 1 141.1728 54.0163 27.4296 -17.9861 23.5334 -24.5567
# 2 54.0163 163.8898 45.3695 -19.6535 11.8869 -14.5012
# 3 27.4296 45.3695 64.7443 -6.8659 4.9225 -0.6106
# 4 -17.9861 -19.6535 -6.8659 39.4385 0.1824 8.2918
# 5 23.5334 11.8869 4.9225 0.1824 42.6858 -2.3017
# 6 -24.5567 -14.5012 -0.6106 8.2918 -2.3017 55.2146
#
#
#
# Elastic Compliance Matrix: (Units=1/GPa)
#
#
# Indices 1 2 3 4 5 6 
#
# 1 0.009838 -0.001658 -0.002358 0.002569 -0.004521 0.003340
# 2 -0.001658 0.008438 -0.004885 0.002385 -0.000827 0.001032
# 3 -0.002358 -0.004885 0.019871 0.000403 0.000251 -0.002162
# 4 0.002569 0.002385 0.000403 0.028340 -0.002387 -0.002582
# 5 -0.004521 -0.000827 0.000251 -0.002387 0.026089 -0.000779
# 6 0.003340 0.001032 -0.002162 -0.002582 -0.000779 0.020199
#
#
# Mechanical properties :
#
#
# Convention : Reuss Voigt Hill
#
# Bulk Modulus (GPa) = 49.15471 69.27085 59.21278
# Shear Modulus (GPa) = 36.40117 43.66722 40.03420
#
# Velocity S-wave (km/s) = 3.86582 4.23411 4.05415
# Velocity P-wave (km/s) = 6.33298 7.23483 6.79888
#
# Compressibility (1/GPa) = 0.02034393
#
# Stress axis : x y z
#
# Youngs Moduli (GPa) = 101.64612 118.51594 50.32523
#
# Poissons Ratio (x) = 0.19652 0.11869
# Poissons Ratio (y) = 0.16855 0.24582
# Poissons Ratio (z) = 0.23972 0.57891
#
# Static dielectric constant tensor:
#      x y z
#    x 4.597040 -0.543900 0.154190 
#    y -0.543900 4.983370 0.027340 
#    z 0.154190 0.027340 4.263270 
# 
# 
# High freq. dielectric constant tensor:
#      x y z
#    x 1.984050 -0.019980 0.018270 
#    y -0.019980 1.983090 0.006690 
#    z 0.018270 0.006690 1.956650 
# 
# From -- ./inp_files/118914.got.cif
#   From: 2010.06.25/outbox.cif.g09.slc.cpg/sg2_60_cif.got.tgz:118914.got - 2010.06.27 13:26:56.
