data_PCOD8027738
_publ_section_title
;
Structure prediction by ZEFSAII (Michael W. Deem and Ramdas Pophale) SiO2 
 PCOD8027738
Probable space group: P -1
;
_chemical_formula_sum "Si O2"
_cell_formula_units_Z 14
_cell_length_a 28.193229
_cell_length_b 15.277444
_cell_length_c 14.860078
_cell_angle_alpha 19.042411
_cell_angle_beta 19.797119
_cell_angle_gamma 18.052408
_cell_volume 588.207751
_symmetry_space_group_name_H-M "P -1"
_symmetry_group_IT_number 2
_symmetry_cell_setting 'triclinic'
loop_
_space_group_symop_operation_xyz
x,y,z
-x,-y,-z
loop_
_atom_site_type_symbol
_atom_site_label
_atom_site_fract_x
_atom_site_fract_y
_atom_site_fract_z
Si Si1 0.011644 0.229319 0.551851
Si Si2 0.765594 0.508175 0.074452
Si Si3 0.761248 0.353798 0.726275
Si Si4 0.468628 0.785214 0.961735
Si Si5 0.472311 0.744588 0.499644
Si Si6 0.188585 0.239634 0.888374
Si Si7 0.172539 0.710315 0.011975
O O1 0.920097 0.285942 0.565676
O O2 0.868579 0.424883 0.694895
O O3 0.125100 0.860546 0.734837
O O4 0.134532 0.346612 0.206690
O O5 0.581465 0.690877 0.268672
O O6 0.739845 0.556292 0.964940
O O7 0.589652 0.535825 0.911857
O O8 0.733937 0.575713 0.473905
O O9 0.801003 0.010994 0.958052
O O10 0.553639 0.953752 0.692124
O O11 0.290931 0.059827 0.970227
O O12 0.434352 0.586169 0.288041
O O13 0.288557 0.837478 0.708911
O O14 0.000000 0.500000 0.000000
O O15 0.000000 0.000000 0.000000
#
# Coordination Sequence:
#
# PCOD8027738 Si02
#       7
#     2   2   2   2   2   2   2
#     4  11  24  43  73 105 140 190 242 295 355 434
#     4  11  25  43  70 105 148 187 237 300 363 413
#     4  12  25  47  76 102 148 188 245 289 369 427
#     4  12  27  47  75 106 150 191 247 292 363 436
#     4  12  26  45  73 108 149 193 241 300 361 427
#     4  12  28  47  75 110 145 186 238 306 363 432
#     4  10  24  46  73 105 145 190 248 296 358 431
#
# _framework density 23.801116
#
# number of rings (size 3 to 8) (size 9 to 14) (size 15 to 20)
#    0.000    0.571    1.429    5.571   10.000    2.286 
#    0.000    5.000    0.000    0.000    0.000    0.000 
#    0.000    0.000    0.000    0.000    0.000    0.000 
#
# Total GULP energy -173682.082116 kJ/mol
# GULP energy per Si atom -12405.863008 kJ/mol
# Density = 2.374694 g / cm^3
# Si number density = 23.801116 Si / 1000 Ang^3
#
#
#
# Elastic Constant Matrix: (Units=GPa)
#
#
# Indices 1 2 3 4 5 6 
#
# 1 74.1376 39.6233 1.3378 14.8488 0.7597 10.7748
# 2 39.6233 124.0575 34.7744 9.2385 -2.7549 15.2754
# 3 1.3378 34.7744 103.6195 9.7901 10.3437 13.4587
# 4 14.8488 9.2385 9.7901 48.4617 0.9810 1.2738
# 5 0.7597 -2.7549 10.3437 0.9810 33.8648 -2.1769
# 6 10.7748 15.2754 13.4587 1.2738 -2.1769 25.6103
#
#
#
# Elastic Compliance Matrix: (Units=1/GPa)
#
#
# Indices 1 2 3 4 5 6 
#
# 1 0.018340 -0.005680 0.003109 -0.004968 -0.002058 -0.005890
# 2 -0.005680 0.011182 -0.003623 0.000359 0.001990 -0.002225
# 3 0.003109 -0.003623 0.012261 -0.002496 -0.004413 -0.005842
# 4 -0.004968 0.000359 -0.002496 0.022530 0.000385 0.002100
# 5 -0.002058 0.001990 -0.004413 0.000385 0.031373 0.004645
# 6 -0.005890 -0.002225 -0.005842 0.002100 0.004645 0.046212
#
#
# Mechanical properties :
#
#
# Convention : Reuss Voigt Hill
#
# Bulk Modulus (GPa) = 34.01749 50.36508 42.19129
# Shear Modulus (GPa) = 30.47221 36.65929 33.56575
#
# Velocity S-wave (km/s) = 3.58199 3.92884 3.75942
# Velocity P-wave (km/s) = 5.60633 6.46435 6.05057
#
# Compressibility (1/GPa) = 0.02939664
#
# Stress axis : x y z
#
# Youngs Moduli (GPa) = 54.52524 89.43125 81.55621
#
# Poissons Ratio (x) = 0.50794 -0.25357
# Poissons Ratio (y) = 0.30969 0.29547
# Poissons Ratio (z) = -0.16953 0.32400
#
# Static dielectric constant tensor:
#      x y z
#    x 5.040820 0.191080 0.256770 
#    y 0.191080 4.311160 0.036810 
#    z 0.256770 0.036810 4.344550 
# 
# 
# High freq. dielectric constant tensor:
#      x y z
#    x 1.957700 0.001260 0.000760 
#    y 0.001260 1.949480 0.002560 
#    z 0.000760 0.002560 1.951830 
# 
# From -- ./inp_files/492983.got.cif
#   From: 2010.06.25/outbox.cif.g09.slc.cpg/sg2_247_cif.got.tgz:492983.got - 2010.06.27 13:26:56.
