data_PCOD8027596
_publ_section_title
;
Structure prediction by ZEFSAII (Michael W. Deem and Ramdas Pophale) SiO2 
 PCOD8027596
Probable space group: P -1
;
_chemical_formula_sum "Si O2"
_cell_formula_units_Z 16
_cell_length_a 5.857459
_cell_length_b 21.743895
_cell_length_c 21.103208
_cell_angle_alpha 20.214044
_cell_angle_beta 118.766548
_cell_angle_gamma 128.582370
_cell_volume 670.024656
_symmetry_space_group_name_H-M "P -1"
_symmetry_group_IT_number 2
_symmetry_cell_setting 'triclinic'
loop_
_space_group_symop_operation_xyz
x,y,z
-x,-y,-z
loop_
_atom_site_type_symbol
_atom_site_label
_atom_site_fract_x
_atom_site_fract_y
_atom_site_fract_z
Si Si1 0.296250 0.814650 0.894464
Si Si2 0.260598 0.418919 0.312919
Si Si3 0.771887 0.053517 0.113855
Si Si4 0.851831 0.700526 0.833923
Si Si5 0.124822 0.874115 0.572842
Si Si6 0.957575 0.222322 0.585396
Si Si7 0.104822 0.454440 0.677769
Si Si8 0.789617 0.097232 0.891189
O O1 0.066682 0.691255 0.924239
O O2 0.126502 0.859776 0.884593
O O3 0.599038 0.040350 0.696640
O O4 0.413376 0.666873 0.075872
O O5 0.530213 0.389188 0.402760
O O6 0.044193 0.257681 0.385024
O O7 0.041895 0.364450 0.396550
O O8 0.388588 0.927659 0.174893
O O9 0.850210 0.881069 0.272892
O O10 0.942748 0.258321 0.894272
O O11 0.963851 0.696975 0.780461
O O12 0.928273 0.937601 0.615772
O O13 0.500000 0.500000 0.000000
O O14 0.500000 0.000000 0.500000
O O15 0.019681 0.390314 0.487250
O O16 0.045541 0.348052 0.702771
O O17 0.500000 0.000000 0.000000
O O18 0.000000 0.000000 0.000000
#
# Coordination Sequence:
#
# PCOD8027596 Si02
#       8
#     2   2   2   2   2   2   2   2
#     4  12  25  45  71 102 144 189 245 307 378 456
#     4  12  25  44  73 100 145 191 243 308 371 448
#     4  11  24  45  74 104 147 194 246 306 381 447
#     4  11  26  43  68 102 142 189 248 309 381 453
#     4  11  25  45  66 101 144 189 244 310 375 454
#     4  12  25  44  71 108 143 192 250 307 369 451
#     4  11  24  45  73 106 146 192 250 305 376 444
#     4  10  24  45  77 110 155 199 253 317 381 453
#
# _framework density 23.879715999999998
#
# number of rings (size 3 to 8) (size 9 to 14) (size 15 to 20)
#    0.000    0.750    2.500    4.500    5.250    5.500 
#    0.000    2.500    0.000    0.000    0.000    0.000 
#    0.000    0.000    0.000    0.000    0.000    0.000 
#
# Total GULP energy -198219.480108 kJ/mol
# GULP energy per Si atom -12388.717507 kJ/mol
# Density = 2.382537 g / cm^3
# Si number density = 23.879716 Si / 1000 Ang^3
#
#
#
# Elastic Constant Matrix: (Units=GPa)
#
#
# Indices 1 2 3 4 5 6 
#
# 1 102.4889 27.5951 31.1347 -12.8232 15.5770 3.7850
# 2 27.5951 109.5753 19.1329 -33.6583 5.6896 9.5186
# 3 31.1347 19.1329 103.1702 -8.9624 6.0630 -0.1520
# 4 -12.8232 -33.6583 -8.9624 35.7852 -3.0323 1.7077
# 5 15.5770 5.6896 6.0630 -3.0323 53.6081 0.0375
# 6 3.7850 9.5186 -0.1520 1.7077 0.0375 26.9244
#
#
#
# Elastic Compliance Matrix: (Units=1/GPa)
#
#
# Indices 1 2 3 4 5 6 
#
# 1 0.011788 -0.001675 -0.002932 0.001732 -0.002817 -0.001187
# 2 -0.001675 0.014107 -0.001008 0.012666 -0.000176 -0.005561
# 3 -0.002932 -0.001008 0.010836 0.000658 -0.000230 0.000788
# 4 0.001732 0.012666 0.000658 0.041027 0.000404 -0.007320
# 5 -0.002817 -0.000176 -0.000230 0.000404 0.019540 0.000404
# 6 -0.001187 -0.005561 0.000788 -0.007320 0.000404 0.039742
#
#
# Mechanical properties :
#
#
# Convention : Reuss Voigt Hill
#
# Bulk Modulus (GPa) = 39.21615 52.32887 45.77251
# Shear Modulus (GPa) = 31.89373 39.08831 35.49102
#
# Velocity S-wave (km/s) = 3.65855 4.05023 3.85936
# Velocity P-wave (km/s) = 5.85702 6.62069 6.25053
#
# Compressibility (1/GPa) = 0.02549970
#
# Stress axis : x y z
#
# Youngs Moduli (GPa) = 84.83427 70.88749 92.28124
#
# Poissons Ratio (x) = 0.11875 0.27060
# Poissons Ratio (y) = 0.14211 0.09303
# Poissons Ratio (z) = 0.24877 0.07146
#
# Static dielectric constant tensor:
#      x y z
#    x 4.605660 -0.088930 -0.065200 
#    y -0.088930 4.792040 -0.149970 
#    z -0.065200 -0.149970 4.463840 
# 
# 
# High freq. dielectric constant tensor:
#      x y z
#    x 1.948340 -0.005210 0.001550 
#    y -0.005210 1.952900 -0.006330 
#    z 0.001550 -0.006330 1.963620 
# 
# From -- ./inp_files/605208.got.cif
#   From: 2010.06.25/outbox.cif.g09.slc.cpg/sg2_303_cif.got.tgz:605208.got - 2010.06.27 13:26:56.
