data_PCOD8027364
_publ_section_title
;
Structure prediction by ZEFSAII (Michael W. Deem and Ramdas Pophale) SiO2 
 PCOD8027364
Probable space group: P -1
;
_chemical_formula_sum "Si O2"
_cell_formula_units_Z 16
_cell_length_a 10.487163
_cell_length_b 23.699740
_cell_length_c 16.068819
_cell_angle_alpha 21.863735
_cell_angle_beta 135.626445
_cell_angle_gamma 148.544887
_cell_volume 712.767899
_symmetry_space_group_name_H-M "P -1"
_symmetry_group_IT_number 2
_symmetry_cell_setting 'triclinic'
loop_
_space_group_symop_operation_xyz
x,y,z
-x,-y,-z
loop_
_atom_site_type_symbol
_atom_site_label
_atom_site_fract_x
_atom_site_fract_y
_atom_site_fract_z
Si Si1 0.376497 0.377527 0.809831
Si Si2 0.165135 0.249976 0.217446
Si Si3 0.341950 0.244166 0.145208
Si Si4 0.755070 0.567765 0.489738
Si Si5 0.172729 0.676086 0.756214
Si Si6 0.890303 0.728252 0.655047
Si Si7 0.204199 0.705757 0.026949
Si Si8 0.709394 0.015755 0.743576
O O1 0.232829 0.405684 0.641360
O O2 0.684788 0.618310 0.633323
O O3 0.257218 0.307348 0.944406
O O4 0.352701 0.197243 0.006514
O O5 0.392414 0.353006 0.111403
O O6 0.263285 0.368721 0.192978
O O7 0.000000 0.000000 0.500000
O O8 0.974470 0.261255 0.071488
O O9 0.596798 0.306815 0.142990
O O10 0.089326 0.986412 0.395166
O O11 0.500000 0.500000 0.500000
O O12 0.739221 0.377465 0.757887
O O13 0.012579 0.798631 0.334253
O O14 0.299868 0.901164 0.462254
O O15 0.943536 0.477207 0.862464
O O16 0.949669 0.335556 0.196317
O O17 0.477565 0.942193 0.795352
#
# Coordination Sequence:
#
# PCOD8027364 Si02
#       8
#     2   2   2   2   2   2   2   2
#     4  12  23  36  63  93 125 170 205 256 319 374
#     4  10  24  45  64  91 127 178 210 254 318 381
#     4  11  25  40  62  89 134 170 210 262 312 372
#     4  11  24  39  62 101 130 160 208 264 321 375
#     4  11  22  37  62 102 125 162 212 262 320 376
#     4  11  22  38  62  95 130 160 213 262 315 379
#     4  11  23  40  66  90 133 166 211 262 315 375
#     4  11  21  38  63  95 131 162 201 259 327 372
#
# _framework density 22.447700000000001
#
# number of rings (size 3 to 8) (size 9 to 14) (size 15 to 20)
#    0.000    1.000    3.750    3.750    1.750    3.000 
#    0.000    1.875    0.000    3.750    0.000    0.000 
#    0.000    0.000    0.000    0.000    0.000    0.000 
#
# Total GULP energy -198382.953213 kJ/mol
# GULP energy per Si atom -12398.934576 kJ/mol
# Density = 2.239661 g / cm^3
# Si number density = 22.447700 Si / 1000 Ang^3
#
#
#
# Elastic Constant Matrix: (Units=GPa)
#
#
# Indices 1 2 3 4 5 6 
#
# 1 147.8478 48.4101 51.9019 8.3574 -23.7007 -4.6775
# 2 48.4101 97.0907 41.0494 12.6381 -7.3859 -9.0292
# 3 51.9019 41.0494 95.5081 20.3044 -0.1901 -6.7345
# 4 8.3574 12.6381 20.3044 48.9927 0.2805 -6.6788
# 5 -23.7007 -7.3859 -0.1901 0.2805 36.9638 0.1905
# 6 -4.6775 -9.0292 -6.7345 -6.6788 0.1905 36.2084
#
#
#
# Elastic Compliance Matrix: (Units=1/GPa)
#
#
# Indices 1 2 3 4 5 6 
#
# 1 0.010163 -0.002843 -0.004468 0.000802 0.005920 -0.000110
# 2 -0.002843 0.013825 -0.004004 -0.001138 0.000917 0.002121
# 3 -0.004468 -0.004004 0.015623 -0.004591 -0.003552 0.000502
# 4 0.000802 -0.001138 -0.004591 0.022905 0.000073 0.003191
# 5 0.005920 0.000917 -0.003552 0.000073 0.031013 0.000183
# 6 -0.000110 0.002121 0.000502 0.003191 0.000183 0.028813
#
#
# Mechanical properties :
#
#
# Convention : Reuss Voigt Hill
#
# Bulk Modulus (GPa) = 58.88242 69.24107 64.06175
# Shear Modulus (GPa) = 33.19344 37.70532 35.44938
#
# Velocity S-wave (km/s) = 3.84956 4.10286 3.97822
# Velocity P-wave (km/s) = 6.78577 7.30459 7.04996
#
# Compressibility (1/GPa) = 0.01698300
#
# Stress axis : x y z
#
# Youngs Moduli (GPa) = 98.39569 72.33273 64.00675
#
# Poissons Ratio (x) = 0.20563 0.28596
# Poissons Ratio (y) = 0.27972 0.25627
# Poissons Ratio (z) = 0.43959 0.28960
#
# Static dielectric constant tensor:
#      x y z
#    x 4.282690 -0.135450 -0.198690 
#    y -0.135450 4.159680 -0.045420 
#    z -0.198690 -0.045420 4.633810 
# 
# 
# High freq. dielectric constant tensor:
#      x y z
#    x 1.871460 -0.007880 -0.023240 
#    y -0.007880 1.880510 -0.023680 
#    z -0.023240 -0.023680 1.919290 
# 
# From -- ./inp_files/571136.got.cif
#   From: 2010.06.25/outbox.cif.g09.slc.cpg/sg2_286_cif.got.tgz:571136.got - 2010.06.27 13:26:56.
