data_PCOD8027936
_publ_section_title
;
Structure prediction by ZEFSAII (Michael W. Deem and Ramdas Pophale) SiO2 
 PCOD8027936
Probable space group: P -1
;
_chemical_formula_sum "Si O2"
_cell_formula_units_Z 14
_cell_length_a 8.404512
_cell_length_b 5.196655
_cell_length_c 20.248187
_cell_angle_alpha 122.660502
_cell_angle_beta 126.598652
_cell_angle_gamma 57.585545
_cell_volume 566.884017
_symmetry_space_group_name_H-M "P -1"
_symmetry_group_IT_number 2
_symmetry_cell_setting 'triclinic'
loop_
_space_group_symop_operation_xyz
x,y,z
-x,-y,-z
loop_
_atom_site_type_symbol
_atom_site_label
_atom_site_fract_x
_atom_site_fract_y
_atom_site_fract_z
Si Si1 0.215638 0.611521 0.780731
Si Si2 0.666632 0.756647 0.108464
Si Si3 0.366487 0.849358 0.224530
Si Si4 0.636901 0.423801 0.678508
Si Si5 0.769252 0.224522 0.958024
Si Si6 0.186723 0.633364 0.548569
Si Si7 0.084790 0.695373 0.387614
O O1 0.233760 0.510519 0.848044
O O2 0.393527 0.365728 0.747601
O O3 0.995880 0.600674 0.695630
O O4 0.224307 0.969903 0.824038
O O5 0.415556 0.911378 0.079546
O O6 0.719553 0.580625 0.026427
O O7 0.273675 0.773538 0.260188
O O8 0.243042 0.743990 0.119868
O O9 0.344739 0.221349 0.263423
O O10 0.398328 0.433069 0.609577
O O11 0.773225 0.231044 0.624764
O O12 0.000000 0.000000 0.000000
O O13 0.225989 0.611395 0.476541
O O14 0.000000 0.500000 0.500000
O O15 0.120005 0.999085 0.608423
#
# Coordination Sequence:
#
# PCOD8027936 Si02
#       7
#     2   2   2   2   2   2   2
#     4  11  23  48  74 102 149 193 240 298 360 431
#     4  10  25  46  75 104 144 194 242 298 362 429
#     4  11  25  47  74 104 150 190 241 300 364 431
#     4  12  27  48  73 109 148 193 240 299 362 438
#     4  10  24  49  73 111 146 192 245 310 361 431
#     4  11  26  48  77 107 146 196 238 307 363 431
#     4  11  27  46  74 111 146 191 248 297 363 437
#
# _framework density 24.696408999999999
#
# number of rings (size 3 to 8) (size 9 to 14) (size 15 to 20)
#    0.000    1.143    1.429    3.000    8.000    6.857 
#    2.571    7.143    0.000    0.000    0.000    0.000 
#    0.000    0.000    0.000    0.000    0.000    0.000 
#
# Total GULP energy -173639.633484 kJ/mol
# GULP energy per Si atom -12402.830963 kJ/mol
# Density = 2.464020 g / cm^3
# Si number density = 24.696409 Si / 1000 Ang^3
#
#
#
# Elastic Constant Matrix: (Units=GPa)
#
#
# Indices 1 2 3 4 5 6 
#
# 1 134.2828 51.5173 85.9136 -6.2215 -17.7974 10.3234
# 2 51.5173 66.8298 49.7856 -6.7188 6.3370 10.3535
# 3 85.9136 49.7856 158.5817 -2.7009 -17.6717 1.7374
# 4 -6.2215 -6.7188 -2.7009 28.9617 17.9405 10.2797
# 5 -17.7974 6.3370 -17.6717 17.9405 42.0787 -2.4448
# 6 10.3234 10.3535 1.7374 10.2797 -2.4448 45.7941
#
#
#
# Elastic Compliance Matrix: (Units=1/GPa)
#
#
# Indices 1 2 3 4 5 6 
#
# 1 0.014421 -0.009228 -0.004148 -0.004249 0.007579 0.000351
# 2 -0.009228 0.034421 -0.007865 0.023982 -0.023314 -0.012032
# 3 -0.004148 -0.007865 0.011741 -0.008299 0.008165 0.004567
# 4 -0.004249 0.023982 -0.008299 0.071569 -0.040709 -0.022388
# 5 0.007579 -0.023314 0.008165 -0.040709 0.052149 0.015175
# 6 0.000351 -0.012032 0.004567 -0.022388 0.015175 0.030141
#
#
# Mechanical properties :
#
#
# Convention : Reuss Voigt Hill
#
# Bulk Modulus (GPa) = 55.23908 81.56971 68.40439
# Shear Modulus (GPa) = 19.01454 34.86542 26.93998
#
# Velocity S-wave (km/s) = 2.77777 3.76142 3.30638
# Velocity P-wave (km/s) = 5.71873 7.20868 6.50649
#
# Compressibility (1/GPa) = 0.01810313
#
# Stress axis : x y z
#
# Youngs Moduli (GPa) = 69.34124 29.05163 85.17482
#
# Poissons Ratio (x) = 0.26807 0.35328
# Poissons Ratio (y) = 0.63985 0.66990
# Poissons Ratio (z) = 0.28760 0.22849
#
# Static dielectric constant tensor:
#      x y z
#    x 4.535420 -0.088810 -0.217200 
#    y -0.088810 4.296180 0.034320 
#    z -0.217200 0.034320 4.690540 
# 
# 
# High freq. dielectric constant tensor:
#      x y z
#    x 1.985870 -0.006570 -0.008790 
#    y -0.006570 1.969850 0.002850 
#    z -0.008790 0.002850 2.000900 
# 
# From -- ./inp_files/585958.got.cif
#   From: 2010.06.25/outbox.cif.g09.slc.cpg/sg2_293_cif.got.tgz:585958.got - 2010.06.27 13:26:56.
