data_PCOD8027205
_publ_section_title
;
Structure prediction by ZEFSAII (Michael W. Deem and Ramdas Pophale) SiO2 
 PCOD8027205
Probable space group: P -1
;
_chemical_formula_sum "Si O2"
_cell_formula_units_Z 14
_cell_length_a 9.469304
_cell_length_b 8.800403
_cell_length_c 9.439905
_cell_angle_alpha 77.011429
_cell_angle_beta 131.325476
_cell_angle_gamma 95.664821
_cell_volume 574.315908
_symmetry_space_group_name_H-M "P -1"
_symmetry_group_IT_number 2
_symmetry_cell_setting 'triclinic'
loop_
_space_group_symop_operation_xyz
x,y,z
-x,-y,-z
loop_
_atom_site_type_symbol
_atom_site_label
_atom_site_fract_x
_atom_site_fract_y
_atom_site_fract_z
Si Si1 0.402509 0.380778 0.782996
Si Si2 0.582172 0.786118 0.892002
Si Si3 0.898859 0.749896 0.905058
Si Si4 0.719008 0.448470 0.764045
Si Si5 0.702143 0.953487 0.270457
Si Si6 0.293554 0.671674 0.515732
Si Si7 0.953856 0.035792 0.682660
O O1 0.595104 0.428760 0.826421
O O2 0.337794 0.225977 0.697377
O O3 0.248375 0.526427 0.620159
O O4 0.427534 0.357676 0.973674
O O5 0.795298 0.798646 0.975432
O O6 0.458855 0.764756 0.674854
O O7 0.495511 0.939540 0.887640
O O8 0.785549 0.624472 0.768473
O O9 0.908491 0.911439 0.795735
O O10 0.105664 0.677661 0.086481
O O11 0.621907 0.406728 0.558146
O O12 0.822576 0.971407 0.201746
O O13 0.832175 0.005868 0.470677
O O14 0.109749 0.787950 0.344297
#
# Coordination Sequence:
#
# PCOD8027205 Si02
#       7
#     2   2   2   2   2   2   2
#     4  12  24  45  70 101 140 176 230 280 332 413
#     4  11  25  44  71 103 134 183 224 279 342 395
#     4  11  25  46  71  98 142 175 229 278 340 405
#     4  11  26  45  70 104 134 181 223 284 343 391
#     4  10  24  44  70 101 137 182 225 278 342 396
#     4  11  25  43  73 102 135 179 228 280 337 400
#     4  10  24  46  68 103 138 180 224 281 338 404
#
# _framework density 24.376829000000001
#
# number of rings (size 3 to 8) (size 9 to 14) (size 15 to 20)
#    0.000    1.143    1.429    3.000    6.000    2.286 
#    5.143    0.000    0.000    0.000    0.000    0.000 
#    0.000    0.000    0.000    0.000    0.000    0.000 
#
# Total GULP energy -173597.903443 kJ/mol
# GULP energy per Si atom -12399.850246 kJ/mol
# Density = 2.432135 g / cm^3
# Si number density = 24.376829 Si / 1000 Ang^3
#
#
#
# Elastic Constant Matrix: (Units=GPa)
#
#
# Indices 1 2 3 4 5 6 
#
# 1 158.5878 55.5749 59.3380 -30.4875 -11.0788 -8.6031
# 2 55.5749 144.6755 36.2831 -43.4742 0.9194 -6.7866
# 3 59.3380 36.2831 57.1894 -23.2479 -18.8101 -11.2103
# 4 -30.4875 -43.4742 -23.2479 47.6401 -3.0930 -7.5983
# 5 -11.0788 0.9194 -18.8101 -3.0930 32.8244 -1.0245
# 6 -8.6031 -6.7866 -11.2103 -7.5983 -1.0245 44.5658
#
#
#
# Elastic Compliance Matrix: (Units=1/GPa)
#
#
# Indices 1 2 3 4 5 6 
#
# 1 0.010847 -0.001384 -0.011904 -0.000543 -0.003213 -0.001278
# 2 -0.001384 0.010418 -0.001782 0.008044 -0.000952 0.002221
# 3 -0.011904 -0.001782 0.050658 0.019505 0.027341 0.014128
# 4 -0.000543 0.008044 0.019505 0.040597 0.015009 0.013293
# 5 -0.003213 -0.000952 0.027341 0.015009 0.046794 0.009747
# 6 -0.001278 0.002221 0.014128 0.013293 0.009747 0.028575
#
#
# Mechanical properties :
#
#
# Convention : Reuss Voigt Hill
#
# Bulk Modulus (GPa) = 23.93273 73.64942 48.79108
# Shear Modulus (GPa) = 21.55592 38.95650 30.25621
#
# Velocity S-wave (km/s) = 2.97691 4.00196 3.52687
# Velocity P-wave (km/s) = 4.65351 7.18559 6.05342
#
# Compressibility (1/GPa) = 0.04178378
#
# Stress axis : x y z
#
# Youngs Moduli (GPa) = 92.19563 95.98868 19.74013
#
# Poissons Ratio (x) = 0.13283 0.23499
# Poissons Ratio (y) = 0.12758 0.03517
# Poissons Ratio (z) = 1.09750 0.17101
#
# Static dielectric constant tensor:
#      x y z
#    x 4.555930 -0.416130 0.099440 
#    y -0.416130 4.760500 0.002320 
#    z 0.099440 0.002320 4.413070 
# 
# 
# High freq. dielectric constant tensor:
#      x y z
#    x 1.966120 -0.020710 0.002790 
#    y -0.020710 1.988060 0.006950 
#    z 0.002790 0.006950 1.982260 
# 
# From -- ./inp_files/158260.got.cif
#   From: 2010.06.25/outbox.cif.g09.slc.cpg/sg2_80_cif.got.tgz:158260.got - 2010.06.27 13:26:56.
