data_PCOD8027281
_publ_section_title
;
Structure prediction by ZEFSAII (Michael W. Deem and Ramdas Pophale) SiO2 
 PCOD8027281
Probable space group: P -1
;
_chemical_formula_sum "Si O2"
_cell_formula_units_Z 16
_cell_length_a 11.490311
_cell_length_b 13.821247
_cell_length_c 13.981695
_cell_angle_alpha 31.375214
_cell_angle_beta 137.207725
_cell_angle_gamma 117.719076
_cell_volume 698.837011
_symmetry_space_group_name_H-M "P -1"
_symmetry_group_IT_number 2
_symmetry_cell_setting 'triclinic'
loop_
_space_group_symop_operation_xyz
x,y,z
-x,-y,-z
loop_
_atom_site_type_symbol
_atom_site_label
_atom_site_fract_x
_atom_site_fract_y
_atom_site_fract_z
Si Si1 0.802227 0.037535 0.397930
Si Si2 0.159417 0.509629 0.522078
Si Si3 0.527142 0.126934 0.995907
Si Si4 0.951691 0.640517 0.944621
Si Si5 0.716394 0.288680 0.412668
Si Si6 0.700782 0.316655 0.804955
Si Si7 0.975893 0.110253 0.993322
Si Si8 0.284886 0.532406 0.929830
O O1 0.701110 0.278136 0.166322
O O2 0.836988 0.883466 0.638938
O O3 0.656042 0.996107 0.274121
O O4 0.000000 0.000000 0.500000
O O5 0.313028 0.286021 0.765562
O O6 0.272589 0.610410 0.565048
O O7 0.048776 0.658323 0.239522
O O8 0.000000 0.500000 0.500000
O O9 0.661185 0.225850 0.954437
O O10 0.500000 0.000000 0.000000
O O11 0.838030 0.564805 0.012038
O O12 0.000000 0.500000 0.000000
O O13 0.145987 0.598757 0.151804
O O14 0.799367 0.380572 0.300322
O O15 0.498762 0.341823 0.212076
O O16 0.838889 0.035494 0.707611
O O17 0.500000 0.500000 0.500000
O O18 0.786660 0.148149 0.911013
O O19 0.000000 0.000000 0.000000
#
# Coordination Sequence:
#
# PCOD8027281 Si02
#       8
#     2   2   2   2   2   2   2   2
#     4  12  24  47  72 106 151 188 246 304 367 449
#     4  11  25  45  70 105 145 189 245 301 367 446
#     4  12  28  46  72 109 150 194 242 307 375 440
#     4  12  27  43  77 108 145 197 244 309 375 443
#     4  10  24  46  73 100 145 192 243 306 365 439
#     4  12  26  47  72 108 147 190 250 303 367 443
#     4  10  24  44  72 100 143 193 233 303 364 436
#     4  11  24  48  74 105 146 191 247 306 369 436
#
# _framework density 22.89518
#
# number of rings (size 3 to 8) (size 9 to 14) (size 15 to 20)
#    0.000    0.750    5.000    0.750    7.000    1.000 
#    0.000    1.875    0.000    0.000    0.000    0.000 
#    0.000    0.000    0.000    0.000    0.000    0.000 
#
# Total GULP energy -198307.006866 kJ/mol
# GULP energy per Si atom -12394.187929 kJ/mol
# Density = 2.284307 g / cm^3
# Si number density = 22.895180 Si / 1000 Ang^3
#
#
#
# Elastic Constant Matrix: (Units=GPa)
#
#
# Indices 1 2 3 4 5 6 
#
# 1 166.8958 35.7047 71.9236 0.6681 5.3393 3.1387
# 2 35.7047 95.7479 49.1765 12.6108 2.3336 -4.2255
# 3 71.9236 49.1765 197.7954 12.4085 1.4321 3.9765
# 4 0.6681 12.6108 12.4085 24.4981 -4.8395 -0.8065
# 5 5.3393 2.3336 1.4321 -4.8395 45.5861 -9.1305
# 6 3.1387 -4.2255 3.9765 -0.8065 -9.1305 43.3178
#
#
#
# Elastic Compliance Matrix: (Units=1/GPa)
#
#
# Indices 1 2 3 4 5 6 
#
# 1 0.007411 -0.001805 -0.002340 0.001768 -0.000634 -0.000599
# 2 -0.001805 0.013104 -0.002270 -0.005643 -0.000714 0.001362
# 3 -0.002340 -0.002270 0.006625 -0.002187 -0.000199 -0.000743
# 4 0.001768 -0.005643 -0.002187 0.045884 0.005322 0.001498
# 5 -0.000634 -0.000714 -0.000199 0.005322 0.023635 0.005075
# 6 -0.000599 0.001362 -0.000743 0.001498 0.005075 0.024427
#
#
# Mechanical properties :
#
#
# Convention : Reuss Voigt Hill
#
# Bulk Modulus (GPa) = 69.88708 86.00542 77.94625
# Shear Modulus (GPa) = 36.05261 42.92268 39.48764
#
# Velocity S-wave (km/s) = 3.97253 4.33453 4.15747
# Velocity P-wave (km/s) = 7.18557 7.91816 7.56074
#
# Compressibility (1/GPa) = 0.01430880
#
# Stress axis : x y z
#
# Youngs Moduli (GPa) = 134.93448 76.31410 150.95403
#
# Poissons Ratio (x) = 0.13778 0.35326
# Poissons Ratio (y) = 0.24361 0.34261
# Poissons Ratio (z) = 0.31578 0.17320
#
# Static dielectric constant tensor:
#      x y z
#    x 4.519930 -0.291290 -0.261350 
#    y -0.291290 3.983430 -0.087410 
#    z -0.261350 -0.087410 4.720640 
# 
# 
# High freq. dielectric constant tensor:
#      x y z
#    x 1.920180 -0.022880 -0.005300 
#    y -0.022880 1.885800 0.004490 
#    z -0.005300 0.004490 1.923330 
# 
# From -- ./inp_files/522219.got.cif
#   From: 2010.06.25/outbox.cif.g09.slc.cpg/sg2_262_cif.got.tgz:522219.got - 2010.06.27 13:26:56.
