data_PCOD8028261
_publ_section_title
;
Structure prediction by ZEFSAII (Michael W. Deem and Ramdas Pophale) SiO2 
 PCOD8028261
Probable space group: P -1
;
_chemical_formula_sum "Si O2"
_cell_formula_units_Z 12
_cell_length_a 6.773863
_cell_length_b 7.963030
_cell_length_c 12.426735
_cell_angle_alpha 64.528842
_cell_angle_beta 69.786834
_cell_angle_gamma 98.853711
_cell_volume 530.448384
_symmetry_space_group_name_H-M "P -1"
_symmetry_group_IT_number 2
_symmetry_cell_setting 'triclinic'
loop_
_space_group_symop_operation_xyz
x,y,z
-x,-y,-z
loop_
_atom_site_type_symbol
_atom_site_label
_atom_site_fract_x
_atom_site_fract_y
_atom_site_fract_z
Si Si1 0.133147 0.466731 0.085957
Si Si2 0.599206 0.808352 0.950430
Si Si3 0.826176 0.577758 0.566688
Si Si4 0.497781 0.830430 0.196835
Si Si5 0.616172 0.823018 0.413866
Si Si6 0.149621 0.782808 0.615115
O O1 0.226347 0.287231 0.100010
O O2 0.948229 0.402928 0.233394
O O3 0.339438 0.666802 0.020493
O O4 0.000000 0.500000 0.000000
O O5 0.634927 0.013373 0.822434
O O6 0.651332 0.863258 0.051855
O O7 0.665346 0.397705 0.717669
O O8 0.687001 0.637915 0.483934
O O9 0.000000 0.500000 0.500000
O O10 0.951720 0.762598 0.571581
O O11 0.642612 0.863323 0.270164
O O12 0.360573 0.768433 0.514368
O O13 0.786027 0.013857 0.388837
#
# Coordination Sequence:
#
# PCOD8028261 Si02
#       6
#     2   2   2   2   2   2
#     4  11  24  43  70  98 131 181 221 267 330 399
#     4  10  25  45  67  97 137 172 223 276 322 396
#     4  12  25  42  70 100 134 175 219 277 339 386
#     4  11  23  47  67  97 136 173 216 283 331 380
#     4  11  26  44  69 100 134 174 225 273 329 402
#     4  11  25  44  67  99 134 175 222 272 335 390
#
# _framework density 22.622371999999999
#
# number of rings (size 3 to 8) (size 9 to 14) (size 15 to 20)
#    0.000    1.000    3.333    2.000    4.667    2.667 
#    0.000    2.500    0.000    0.000    0.000    0.000 
#    0.000    0.000    0.000    0.000    0.000    0.000 
#
# Total GULP energy -148796.620142 kJ/mol
# GULP energy per Si atom -12399.718345 kJ/mol
# Density = 2.257088 g / cm^3
# Si number density = 22.622372 Si / 1000 Ang^3
#
#
#
# Elastic Constant Matrix: (Units=GPa)
#
#
# Indices 1 2 3 4 5 6 
#
# 1 94.1839 51.4053 49.9420 -8.0840 30.5976 14.8525
# 2 51.4053 110.2104 32.0666 -1.0965 18.6811 15.5674
# 3 49.9420 32.0666 121.2609 0.5398 35.0483 8.0269
# 4 -8.0840 -1.0965 0.5398 38.3400 2.5039 9.8430
# 5 30.5976 18.6811 35.0483 2.5039 38.1802 -0.5959
# 6 14.8525 15.5674 8.0269 9.8430 -0.5959 34.2623
#
#
#
# Elastic Compliance Matrix: (Units=1/GPa)
#
#
# Indices 1 2 3 4 5 6 
#
# 1 0.021214 -0.005722 -0.003325 0.007200 -0.011747 -0.008090
# 2 -0.005722 0.012509 -0.000387 0.000045 -0.001232 -0.003147
# 3 -0.003325 -0.000387 0.012241 0.000025 -0.008406 -0.001404
# 4 0.007200 0.000045 0.000025 0.031279 -0.008058 -0.012274
# 5 -0.011747 -0.001232 -0.008406 -0.008058 0.044621 0.010712
# 6 -0.008090 -0.003147 -0.001404 -0.012274 0.010712 0.038165
#
#
# Mechanical properties :
#
#
# Convention : Reuss Voigt Hill
#
# Bulk Modulus (GPa) = 36.90668 65.83145 51.36906
# Shear Modulus (GPa) = 26.60601 34.97259 30.78930
#
# Velocity S-wave (km/s) = 3.43314 3.93610 3.69319
# Velocity P-wave (km/s) = 5.66259 7.05836 6.39865
#
# Compressibility (1/GPa) = 0.02709537
#
# Stress axis : x y z
#
# Youngs Moduli (GPa) = 47.13933 79.94463 81.69236
#
# Poissons Ratio (x) = 0.45741 0.27164
# Poissons Ratio (y) = 0.26971 0.03164
# Poissons Ratio (z) = 0.15674 0.03096
#
# Static dielectric constant tensor:
#      x y z
#    x 4.021320 0.313780 0.169080 
#    y 0.313780 4.312560 0.027460 
#    z 0.169080 0.027460 4.012070 
# 
# 
# High freq. dielectric constant tensor:
#      x y z
#    x 1.882410 0.015290 0.012040 
#    y 0.015290 1.907080 -0.000270 
#    z 0.012040 -0.000270 1.902150 
# 
# From -- ./inp_files/22193.got.cif
#   From: 2010.06.25/outbox.cif.g09.slc.cpg/sg2_12_cif.got.tgz:22193.got - 2010.06.27 13:26:56.
