data_PCOD8028492
_publ_section_title
;
Structure prediction by ZEFSAII (Michael W. Deem and Ramdas Pophale) SiO2 
 PCOD8028492
Probable space group: P -1
;
_chemical_formula_sum "Si O2"
_cell_formula_units_Z 16
_cell_length_a 14.525614
_cell_length_b 14.714944
_cell_length_c 8.609750
_cell_angle_alpha 114.354202
_cell_angle_beta 121.203874
_cell_angle_gamma 28.803152
_cell_volume 754.501555
_symmetry_space_group_name_H-M "P -1"
_symmetry_group_IT_number 2
_symmetry_cell_setting 'triclinic'
loop_
_space_group_symop_operation_xyz
x,y,z
-x,-y,-z
loop_
_atom_site_type_symbol
_atom_site_label
_atom_site_fract_x
_atom_site_fract_y
_atom_site_fract_z
Si Si1 0.765707 0.702159 0.487251
Si Si2 0.565593 0.650490 0.224958
Si Si3 0.609266 0.068056 0.141960
Si Si4 0.549176 0.952881 0.757729
Si Si5 0.647091 0.537428 0.883732
Si Si6 0.961504 0.202745 0.720677
Si Si7 0.655033 0.395054 0.320532
Si Si8 0.147542 0.915705 0.934794
O O1 0.642924 0.695924 0.380763
O O2 0.738702 0.772664 0.684236
O O3 0.000000 0.500000 0.500000
O O4 0.660903 0.860593 0.386742
O O5 0.590728 0.556181 0.325455
O O6 0.696654 0.510697 0.091112
O O7 0.326547 0.846688 0.107291
O O8 0.493347 0.104396 0.204193
O O9 0.500940 0.258272 0.155549
O O10 0.845682 0.901300 0.273515
O O11 0.607343 0.006543 0.938494
O O12 0.854492 0.374447 0.850155
O O13 0.542605 0.513046 0.736668
O O14 0.811667 0.275041 0.514023
O O15 0.028713 0.062009 0.795129
O O16 0.752622 0.264568 0.165314
O O17 0.000000 0.000000 0.000000
#
# Coordination Sequence:
#
# PCOD8028492 Si02
#       8
#     2   2   2   2   2   2   2   2
#     4  11  25  45  71  98 131 173 232 284 342 393
#     4  11  23  44  64  98 138 176 221 278 333 408
#     4  11  24  44  69  96 135 176 224 276 347 394
#     4  10  25  47  66  97 133 171 224 294 331 399
#     4  11  23  43  66  95 140 174 217 271 335 408
#     4  12  24  40  69 100 131 180 223 271 331 401
#     4  11  24  41  63 100 143 165 224 274 325 404
#     4  11  22  42  67  98 138 186 220 265 336 408
#
# _framework density 21.206052
#
# number of rings (size 3 to 8) (size 9 to 14) (size 15 to 20)
#    0.000    1.000    3.750    3.750    5.250    1.000 
#    2.250    2.500    0.000    0.000    0.000    0.000 
#    0.000    0.000    0.000    0.000    0.000    0.000 
#
# Total GULP energy -198439.246912 kJ/mol
# GULP energy per Si atom -12402.452932 kJ/mol
# Density = 2.115779 g / cm^3
# Si number density = 21.206052 Si / 1000 Ang^3
#
#
#
# Elastic Constant Matrix: (Units=GPa)
#
#
# Indices 1 2 3 4 5 6 
#
# 1 80.2630 35.6780 19.1092 2.9165 -8.3504 7.4414
# 2 35.6780 108.1928 20.9508 2.1645 -8.0857 -8.4279
# 3 19.1092 20.9508 76.6792 -4.9677 -6.3019 8.2866
# 4 2.9165 2.1645 -4.9677 31.4660 5.7566 -7.9633
# 5 -8.3504 -8.0857 -6.3019 5.7566 21.2361 5.8296
# 6 7.4414 -8.4279 8.2866 -7.9633 5.8296 32.0264
#
#
#
# Elastic Compliance Matrix: (Units=1/GPa)
#
#
# Indices 1 2 3 4 5 6 
#
# 1 0.016756 -0.005123 -0.001678 -0.004675 0.007417 -0.007320
# 2 -0.005123 0.011802 -0.002436 0.000500 0.000247 0.005006
# 3 -0.001678 -0.002436 0.015002 0.000797 0.003924 -0.004649
# 4 -0.004675 0.000500 0.000797 0.038547 -0.015546 0.013426
# 5 0.007417 0.000247 0.003924 -0.015546 0.060286 -0.017513
# 6 -0.007320 0.005006 -0.004649 0.013426 -0.017513 0.041971
#
#
# Mechanical properties :
#
#
# Convention : Reuss Voigt Hill
#
# Bulk Modulus (GPa) = 39.86460 46.29012 43.07736
# Shear Modulus (GPa) = 23.67412 29.57218 26.62315
#
# Velocity S-wave (km/s) = 3.34486 3.73837 3.54708
# Velocity P-wave (km/s) = 5.81007 6.36475 6.09373
#
# Compressibility (1/GPa) = 0.02508491
#
# Stress axis : x y z
#
# Youngs Moduli (GPa) = 59.68044 84.72968 66.65842
#
# Poissons Ratio (x) = 0.43406 0.11188
# Poissons Ratio (y) = 0.30573 0.16240
# Poissons Ratio (z) = 0.10016 0.20643
#
# Static dielectric constant tensor:
#      x y z
#    x 3.849020 -0.050800 -0.085210 
#    y -0.050800 3.954910 0.026060 
#    z -0.085210 0.026060 3.907170 
# 
# 
# High freq. dielectric constant tensor:
#      x y z
#    x 1.836450 0.002690 -0.007420 
#    y 0.002690 1.835970 0.003590 
#    z -0.007420 0.003590 1.832770 
# 
# From -- ./inp_files/315672.got.cif
#   From: 2010.06.25/outbox.cif.g09.slc.cpg/sg2_158_cif.got.tgz:315672.got - 2010.06.27 13:26:56.
