data_PCOD8028524
_publ_section_title
;
Structure prediction by ZEFSAII (Michael W. Deem and Ramdas Pophale) SiO2 
 PCOD8028524
Probable space group: P -1
;
_chemical_formula_sum "Si O2"
_cell_formula_units_Z 16
_cell_length_a 13.952428
_cell_length_b 8.850414
_cell_length_c 11.960162
_cell_angle_alpha 66.121491
_cell_angle_beta 102.551200
_cell_angle_gamma 47.993008
_cell_volume 697.928968
_symmetry_space_group_name_H-M "P -1"
_symmetry_group_IT_number 2
_symmetry_cell_setting 'triclinic'
loop_
_space_group_symop_operation_xyz
x,y,z
-x,-y,-z
loop_
_atom_site_type_symbol
_atom_site_label
_atom_site_fract_x
_atom_site_fract_y
_atom_site_fract_z
Si Si1 0.951439 0.241220 0.971941
Si Si2 0.101388 0.209503 0.814044
Si Si3 0.786821 0.050690 0.681210
Si Si4 0.205581 0.105327 0.512562
Si Si5 0.523442 0.897301 0.658485
Si Si6 0.515445 0.720739 0.349069
Si Si7 0.702142 0.266760 0.159104
Si Si8 0.490135 0.820305 0.059044
O O1 0.733869 0.557808 0.840496
O O2 0.028350 0.275965 0.899752
O O3 0.000000 0.000000 0.000000
O O4 0.033408 0.153581 0.141990
O O5 0.943632 0.536962 0.610161
O O6 0.151433 0.963778 0.837013
O O7 0.286170 0.056021 0.899157
O O8 0.666881 0.387907 0.543576
O O9 0.683299 0.051865 0.721275
O O10 0.839900 0.910233 0.614374
O O11 0.411534 0.886868 0.639699
O O12 0.200717 0.973960 0.644768
O O13 0.500000 0.000000 0.500000
O O14 0.445086 0.145239 0.650360
O O15 0.523218 0.693455 0.226558
O O16 0.661334 0.511365 0.117349
O O17 0.500000 0.500000 0.000000
O O18 0.500000 0.000000 0.000000
#
# Coordination Sequence:
#
# PCOD8028524 Si02
#       8
#     2   2   2   2   2   2   2   2
#     4  12  27  43  72 113 147 186 241 297 369 435
#     4  11  25  46  72 103 148 189 244 296 360 430
#     4  11  24  43  72 105 147 190 230 303 367 429
#     4  12  25  48  74 105 146 192 242 299 370 431
#     4  12  25  42  70 109 140 183 240 293 362 439
#     4  11  23  41  70  99 148 185 237 293 368 422
#     4  10  25  47  71  98 137 196 241 295 354 426
#     4  11  25  46  71 105 140 195 244 297 356 434
#
# _framework density 22.924970999999999
#
# number of rings (size 3 to 8) (size 9 to 14) (size 15 to 20)
#    0.000    0.750    5.000    1.125   10.500    1.000 
#    0.000    0.625    0.000    0.000    0.000    0.000 
#    0.000    0.000    0.000    0.000    0.000    0.000 
#
# Total GULP energy -198391.503330 kJ/mol
# GULP energy per Si atom -12399.468958 kJ/mol
# Density = 2.287279 g / cm^3
# Si number density = 22.924971 Si / 1000 Ang^3
#
#
#
# Elastic Constant Matrix: (Units=GPa)
#
#
# Indices 1 2 3 4 5 6 
#
# 1 64.9547 16.9815 27.9640 -4.8287 5.3498 9.1801
# 2 16.9815 137.1432 46.5439 -5.5668 9.7075 13.5001
# 3 27.9640 46.5439 142.2832 -1.9482 13.9188 1.9309
# 4 -4.8287 -5.5668 -1.9482 41.6997 1.8964 -3.6761
# 5 5.3498 9.7075 13.9188 1.8964 33.5390 -2.1269
# 6 9.1801 13.5001 1.9309 -3.6761 -2.1269 35.6988
#
#
#
# Elastic Compliance Matrix: (Units=1/GPa)
#
#
# Indices 1 2 3 4 5 6 
#
# 1 0.017695 -0.000566 -0.003045 0.001548 -0.001743 -0.004116
# 2 -0.000566 0.008656 -0.002511 0.000781 -0.001608 -0.003007
# 3 -0.003045 -0.002511 0.008657 -0.000080 -0.002305 0.001119
# 4 0.001548 0.000781 -0.000080 0.024491 -0.001715 0.001731
# 5 -0.001743 -0.001608 -0.002305 -0.001715 0.031797 0.002899
# 6 -0.004116 -0.003007 0.001119 0.001731 0.002899 0.030498
#
#
# Mechanical properties :
#
#
# Convention : Reuss Voigt Hill
#
# Bulk Modulus (GPa) = 43.93165 58.59555 51.26360
# Shear Modulus (GPa) = 35.30421 39.04694 37.17557
#
# Velocity S-wave (km/s) = 3.92853 4.13152 4.03130
# Velocity P-wave (km/s) = 6.30734 6.95518 6.63917
#
# Compressibility (1/GPa) = 0.02276263
#
# Stress axis : x y z
#
# Youngs Moduli (GPa) = 56.51449 115.53245 115.50846
#
# Poissons Ratio (x) = 0.06542 0.35170
# Poissons Ratio (y) = 0.03200 0.29009
# Poissons Ratio (z) = 0.17208 0.29015
#
# Static dielectric constant tensor:
#      x y z
#    x 3.879170 0.072340 -0.113870 
#    y 0.072340 4.537030 0.021090 
#    z -0.113870 0.021090 4.176170 
# 
# 
# High freq. dielectric constant tensor:
#      x y z
#    x 1.886350 0.008430 -0.008760 
#    y 0.008430 1.920980 -0.000890 
#    z -0.008760 -0.000890 1.919130 
# 
# From -- ./inp_files/207707.got.cif
#   From: 2010.06.25/outbox.cif.g09.slc.cpg/sg2_104_cif.got.tgz:207707.got - 2010.06.27 13:26:56.
