data_PCOD8028419
_publ_section_title
;
Structure prediction by ZEFSAII (Michael W. Deem and Ramdas Pophale) SiO2 
 PCOD8028419
Probable space group: P -1
;
_chemical_formula_sum "Si O2"
_cell_formula_units_Z 16
_cell_length_a 15.633801
_cell_length_b 9.225261
_cell_length_c 8.789889
_cell_angle_alpha 130.626911
_cell_angle_beta 69.362243
_cell_angle_gamma 75.613726
_cell_volume 666.046929
_symmetry_space_group_name_H-M "P -1"
_symmetry_group_IT_number 2
_symmetry_cell_setting 'triclinic'
loop_
_space_group_symop_operation_xyz
x,y,z
-x,-y,-z
loop_
_atom_site_type_symbol
_atom_site_label
_atom_site_fract_x
_atom_site_fract_y
_atom_site_fract_z
Si Si1 0.417884 0.528158 0.409857
Si Si2 0.865863 0.690087 0.519752
Si Si3 0.376438 0.950515 0.901354
Si Si4 0.205221 0.159253 0.649438
Si Si5 0.363342 0.213949 0.791747
Si Si6 0.393234 0.602561 0.022504
Si Si7 0.163401 0.880993 0.690386
Si Si8 0.015966 0.176814 0.266959
O O1 0.351422 0.772464 0.729957
O O2 0.481076 0.251258 0.259226
O O3 0.537509 0.475526 0.235362
O O4 0.311447 0.620658 0.417374
O O5 0.883828 0.634034 0.287055
O O6 0.946977 0.420830 0.368474
O O7 0.920189 0.819934 0.623914
O O8 0.723013 0.867634 0.780825
O O9 0.356200 0.136656 0.911580
O O10 0.272217 0.236442 0.747311
O O11 0.139867 0.120179 0.791132
O O12 0.290614 0.906126 0.317010
O O13 0.329961 0.484629 0.001613
O O14 0.500000 0.000000 0.500000
O O15 0.500000 0.500000 0.000000
O O16 0.084476 0.834622 0.615839
O O17 0.120127 0.933301 0.929063
#
# Coordination Sequence:
#
# PCOD8028419 Si02
#       8
#     2   2   2   2   2   2   2   2
#     4  11  21  39  68 100 139 175 214 275 341 403
#     4  11  24  46  68  98 131 175 231 283 331 402
#     4  11  22  39  68  99 137 179 216 274 343 403
#     4  12  25  44  68 102 136 175 225 281 338 403
#     4  12  23  41  63  98 146 180 214 266 339 409
#     4  12  22  41  67 102 142 178 215 272 340 413
#     4  11  22  46  69  97 133 180 224 280 339 394
#     4  10  25  46  69  91 133 179 232 279 330 396
#
# _framework density 24.02233
#
# number of rings (size 3 to 8) (size 9 to 14) (size 15 to 20)
#    0.000    0.750    7.500    0.000    1.750    2.000 
#    4.500    1.875    0.000    0.000    0.000    0.000 
#    0.000    0.000    0.000    0.000    0.000    0.000 
#
# Total GULP energy -198299.909481 kJ/mol
# GULP energy per Si atom -12393.744343 kJ/mol
# Density = 2.396765 g / cm^3
# Si number density = 24.022330 Si / 1000 Ang^3
#
#
#
# Elastic Constant Matrix: (Units=GPa)
#
#
# Indices 1 2 3 4 5 6 
#
# 1 151.8237 63.5966 12.6155 -9.7431 8.5984 18.6349
# 2 63.5966 104.6266 8.8347 -14.1259 9.9246 -6.7492
# 3 12.6155 8.8347 36.8427 -1.0923 -1.3870 7.7953
# 4 -9.7431 -14.1259 -1.0923 32.1619 0.3676 -0.1156
# 5 8.5984 9.9246 -1.3870 0.3676 34.0936 1.2635
# 6 18.6349 -6.7492 7.7953 -0.1156 1.2635 33.4407
#
#
#
# Elastic Compliance Matrix: (Units=1/GPa)
#
#
# Indices 1 2 3 4 5 6 
#
# 1 0.010270 -0.006581 -0.000485 0.000184 -0.000439 -0.006921
# 2 -0.006581 0.015234 -0.002986 0.004660 -0.003227 0.007576
# 3 -0.000485 -0.002986 0.029656 -0.000506 0.002475 -0.007341
# 4 0.000184 0.004660 -0.000506 0.033203 -0.001824 0.001140
# 5 -0.000439 -0.003227 0.002475 -0.001824 0.030581 -0.002145
# 6 -0.006921 0.007576 -0.007341 0.001140 -0.002145 0.037086
#
#
# Mechanical properties :
#
#
# Convention : Reuss Voigt Hill
#
# Bulk Modulus (GPa) = 28.52632 51.48741 40.00686
# Shear Modulus (GPa) = 26.62119 33.82233 30.22176
#
# Velocity S-wave (km/s) = 3.33255 3.75634 3.55078
# Velocity P-wave (km/s) = 5.16803 6.34769 5.78799
#
# Compressibility (1/GPa) = 0.03505535
#
# Stress axis : x y z
#
# Youngs Moduli (GPa) = 97.37139 65.64061 33.72008
#
# Poissons Ratio (x) = 0.43201 0.01636
# Poissons Ratio (y) = 0.64085 0.10069
# Poissons Ratio (z) = 0.04724 0.19600
#
# Static dielectric constant tensor:
#      x y z
#    x 4.708730 0.176580 -0.070310 
#    y 0.176580 4.883990 -0.326370 
#    z -0.070310 -0.326370 4.424820 
# 
# 
# High freq. dielectric constant tensor:
#      x y z
#    x 1.947550 -0.005530 -0.002960 
#    y -0.005530 1.950890 -0.004710 
#    z -0.002960 -0.004710 1.951250 
# 
# From -- ./inp_files/246003.got.cif
#   From: 2010.06.25/outbox.cif.g09.slc.cpg/sg2_124_cif.got.tgz:246003.got - 2010.06.27 13:26:56.
