data_PCOD8028373
_publ_section_title
;
Structure prediction by ZEFSAII (Michael W. Deem and Ramdas Pophale) SiO2 
 PCOD8028373
Probable space group: P -1
;
_chemical_formula_sum "Si O2"
_cell_formula_units_Z 16
_cell_length_a 11.478649
_cell_length_b 16.011435
_cell_length_c 8.900179
_cell_angle_alpha 53.439137
_cell_angle_beta 95.398876
_cell_angle_gamma 136.798524
_cell_volume 706.712392
_symmetry_space_group_name_H-M "P -1"
_symmetry_group_IT_number 2
_symmetry_cell_setting 'triclinic'
loop_
_space_group_symop_operation_xyz
x,y,z
-x,-y,-z
loop_
_atom_site_type_symbol
_atom_site_label
_atom_site_fract_x
_atom_site_fract_y
_atom_site_fract_z
Si Si1 0.464191 0.540451 0.099334
Si Si2 0.941248 0.629462 0.160085
Si Si3 0.755416 0.416079 0.929833
Si Si4 0.223828 0.691262 0.680249
Si Si5 0.435477 0.020420 0.832080
Si Si6 0.392519 0.658889 0.336149
Si Si7 0.270155 0.249672 0.635617
Si Si8 0.109900 0.176092 0.008668
O O1 0.330781 0.377518 0.381235
O O2 0.698405 0.747503 0.973763
O O3 0.500000 0.500000 0.000000
O O4 0.326459 0.540212 0.045295
O O5 0.838435 0.473467 0.196851
O O6 0.847908 0.528110 0.421536
O O7 0.882676 0.705452 0.038010
O O8 0.196623 0.807138 0.989022
O O9 0.693687 0.268080 0.181999
O O10 0.634579 0.318078 0.859909
O O11 0.016829 0.613025 0.731067
O O12 0.410531 0.881582 0.398351
O O13 0.451306 0.150520 0.751010
O O14 0.500000 0.000000 0.000000
O O15 0.512288 0.637097 0.385314
O O16 0.139578 0.209104 0.796560
O O17 0.118155 0.051086 0.747504
#
# Coordination Sequence:
#
# PCOD8028373 Si02
#       8
#     2   2   2   2   2   2   2   2
#     4  12  25  41  68  98 131 174 215 260 327 386
#     4  11  21  39  70  94 126 169 214 265 324 376
#     4  11  23  44  67  92 133 175 213 265 327 386
#     4  10  25  46  64  93 134 171 213 271 325 380
#     4  11  23  40  66  98 125 167 223 266 318 381
#     4  11  21  40  68  93 132 171 213 268 319 383
#     4  11  23  41  64  98 133 170 215 265 319 383
#     4  11  22  40  67  97 130 170 212 268 318 380
#
# _framework density 22.640045000000001
#
# number of rings (size 3 to 8) (size 9 to 14) (size 15 to 20)
#    0.000    1.000    3.750    3.375    1.750    2.500 
#    0.000    8.125    0.000    0.000    0.000    0.000 
#    0.000    0.000    0.000    0.000    0.000    0.000 
#
# Total GULP energy -198380.702873 kJ/mol
# GULP energy per Si atom -12398.793930 kJ/mol
# Density = 2.258852 g / cm^3
# Si number density = 22.640045 Si / 1000 Ang^3
#
#
#
# Elastic Constant Matrix: (Units=GPa)
#
#
# Indices 1 2 3 4 5 6 
#
# 1 103.2478 16.9001 17.2672 -1.4039 -10.9225 16.5680
# 2 16.9001 72.9252 35.7958 -6.2842 -5.7333 13.1645
# 3 17.2672 35.7958 124.5688 -5.2969 -14.4681 27.1328
# 4 -1.4039 -6.2842 -5.2969 38.6477 2.9686 4.0463
# 5 -10.9225 -5.7333 -14.4681 2.9686 30.4375 4.3592
# 6 16.5680 13.1645 27.1328 4.0463 4.3592 35.7807
#
#
#
# Elastic Compliance Matrix: (Units=1/GPa)
#
#
# Indices 1 2 3 4 5 6 
#
# 1 0.011277 -0.001482 0.000738 0.000509 0.004913 -0.005892
# 2 -0.001482 0.016717 -0.003709 0.002394 0.001057 -0.003051
# 3 0.000738 -0.003709 0.011686 0.001464 0.006234 -0.008764
# 4 0.000509 0.002394 0.001464 0.027073 -0.000563 -0.005220
# 5 0.004913 0.001057 0.006234 -0.000563 0.039574 -0.012149
# 6 -0.005892 -0.003051 -0.008764 -0.005220 -0.012149 0.040516
#
#
# Mechanical properties :
#
#
# Convention : Reuss Voigt Hill
#
# Bulk Modulus (GPa) = 32.49398 48.96311 40.72855
# Shear Modulus (GPa) = 30.11928 36.35842 33.23885
#
# Velocity S-wave (km/s) = 3.65136 4.01176 3.83579
# Velocity P-wave (km/s) = 5.67099 6.56755 6.13567
#
# Compressibility (1/GPa) = 0.03077493
#
# Stress axis : x y z
#
# Youngs Moduli (GPa) = 88.67838 59.81925 85.56940
#
# Poissons Ratio (x) = 0.08865 -0.06319
# Poissons Ratio (y) = 0.13142 0.31738
# Poissons Ratio (z) = -0.06548 0.22187
#
# Static dielectric constant tensor:
#      x y z
#    x 4.239050 -0.224730 -0.089350 
#    y -0.224730 3.687350 0.184580 
#    z -0.089350 0.184580 4.064150 
# 
# 
# High freq. dielectric constant tensor:
#      x y z
#    x 1.900480 -0.003050 -0.010480 
#    y -0.003050 1.887510 0.003200 
#    z -0.010480 0.003200 1.890520 
# 
# From -- ./inp_files/273640.got.cif
#   From: 2010.06.25/outbox.cif.g09.slc.cpg/sg2_137_cif.got.tgz:273640.got - 2010.06.27 13:26:56.
