data_PCOD8028696
_publ_section_title
;
Structure prediction by ZEFSAII (Michael W. Deem and Ramdas Pophale) SiO2 
 PCOD8028696
Probable space group: P -1
;
_chemical_formula_sum "Si O2"
_cell_formula_units_Z 14
_cell_length_a 22.653870
_cell_length_b 9.691621
_cell_length_c 8.502624
_cell_angle_alpha 58.292570
_cell_angle_beta 48.004196
_cell_angle_gamma 27.210970
_cell_volume 621.015025
_symmetry_space_group_name_H-M "P -1"
_symmetry_group_IT_number 2
_symmetry_cell_setting 'triclinic'
loop_
_space_group_symop_operation_xyz
x,y,z
-x,-y,-z
loop_
_atom_site_type_symbol
_atom_site_label
_atom_site_fract_x
_atom_site_fract_y
_atom_site_fract_z
Si Si1 0.405112 0.218011 0.185865
Si Si2 0.645151 0.352976 0.862762
Si Si3 0.204274 0.188744 0.911184
Si Si4 0.683286 0.720982 0.166717
Si Si5 0.169990 0.857174 0.630344
Si Si6 0.113843 0.248729 0.714117
Si Si7 0.855156 0.490693 0.685700
O O1 0.391666 0.435544 0.081533
O O2 0.236549 0.434977 0.340190
O O3 0.505558 0.984475 0.297531
O O4 0.500000 0.000000 0.000000
O O5 0.703848 0.320500 0.614245
O O6 0.500000 0.500000 0.000000
O O7 0.768917 0.026953 0.919858
O O8 0.317623 0.137338 0.784330
O O9 0.224758 0.123992 0.726672
O O10 0.039317 0.532756 0.054065
O O11 0.787470 0.389611 0.225164
O O12 0.751030 0.684549 0.909200
O O13 0.176225 0.977328 0.686900
O O14 0.006524 0.128362 0.675579
O O15 0.095997 0.413818 0.510518
#
# Coordination Sequence:
#
# PCOD8028696 Si02
#       7
#     2   2   2   2   2   2   2
#     4  10  26  44  72  98 143 182 232 285 353 409
#     4  12  26  47  72 101 139 189 234 288 352 420
#     4  11  24  44  71 104 143 176 236 288 350 413
#     4  11  24  46  70 104 142 185 228 294 347 420
#     4  12  26  43  75 105 140 187 237 285 352 410
#     4  11  25  43  72 106 138 184 232 293 344 414
#     4  11  23  45  73 100 141 185 233 282 350 413
#
# _framework density 22.543738999999999
#
# number of rings (size 3 to 8) (size 9 to 14) (size 15 to 20)
#    0.000    0.857    4.286    1.714    8.000    3.429 
#    0.000    1.429    0.000    0.000    0.000    0.000 
#    0.000    0.000    0.000    0.000    0.000    0.000 
#
# Total GULP energy -173598.831736 kJ/mol
# GULP energy per Si atom -12399.916553 kJ/mol
# Density = 2.249243 g / cm^3
# Si number density = 22.543739 Si / 1000 Ang^3
#
#
#
# Elastic Constant Matrix: (Units=GPa)
#
#
# Indices 1 2 3 4 5 6 
#
# 1 182.8669 73.1155 40.7951 2.3014 -0.7674 0.9328
# 2 73.1155 122.6390 24.2681 -16.3597 3.3921 11.8959
# 3 40.7951 24.2681 76.3273 -6.5669 4.4448 1.8252
# 4 2.3014 -16.3597 -6.5669 39.5842 -3.5705 -3.9032
# 5 -0.7674 3.3921 4.4448 -3.5705 28.7452 3.1654
# 6 0.9328 11.8959 1.8252 -3.9032 3.1654 52.6119
#
#
#
# Elastic Compliance Matrix: (Units=1/GPa)
#
#
# Indices 1 2 3 4 5 6 
#
# 1 0.008061 -0.004651 -0.003134 -0.002761 0.000822 0.000763
# 2 -0.004651 0.011960 -0.000817 0.004809 -0.000569 -0.002202
# 3 -0.003134 -0.000817 0.015347 0.002202 -0.002086 -0.000003
# 4 -0.002761 0.004809 0.002202 0.028075 0.002415 0.000823
# 5 0.000822 -0.000569 -0.002086 0.002415 0.035696 -0.001782
# 6 0.000763 -0.002202 -0.000003 0.000823 -0.001782 0.019660
#
#
# Mechanical properties :
#
#
# Convention : Reuss Voigt Hill
#
# Bulk Modulus (GPa) = 55.05186 73.13229 64.09207
# Shear Modulus (GPa) = 35.19699 40.43188 37.81444
#
# Velocity S-wave (km/s) = 3.95558 4.23955 4.10003
# Velocity P-wave (km/s) = 6.73314 7.51503 7.13481
#
# Compressibility (1/GPa) = 0.01816469
#
# Stress axis : x y z
#
# Youngs Moduli (GPa) = 124.04663 83.61527 65.15910
#
# Poissons Ratio (x) = 0.38891 0.20418
# Poissons Ratio (y) = 0.57696 0.05323
# Poissons Ratio (z) = 0.38870 0.06831
#
# Static dielectric constant tensor:
#      x y z
#    x 4.726940 -0.297240 -0.039730 
#    y -0.297240 4.465950 -0.313440 
#    z -0.039730 -0.313440 4.252590 
# 
# 
# High freq. dielectric constant tensor:
#      x y z
#    x 1.907130 -0.004950 0.000740 
#    y -0.004950 1.892280 -0.000980 
#    z 0.000740 -0.000980 1.877620 
# 
# From -- ./inp_files/189822.got.cif
#   From: 2010.06.25/outbox.cif.g09.slc.cpg/sg2_95_cif.got.tgz:189822.got - 2010.06.27 13:26:56.
