data_PCOD8028407
_publ_section_title
;
Structure prediction by ZEFSAII (Michael W. Deem and Ramdas Pophale) SiO2 
 PCOD8028407
Probable space group: P -1
;
_chemical_formula_sum "Si O2"
_cell_formula_units_Z 16
_cell_length_a 8.569189
_cell_length_b 11.220174
_cell_length_c 25.979349
_cell_angle_alpha 145.626037
_cell_angle_beta 31.964132
_cell_angle_gamma 138.538708
_cell_volume 736.406157
_symmetry_space_group_name_H-M "P -1"
_symmetry_group_IT_number 2
_symmetry_cell_setting 'triclinic'
loop_
_space_group_symop_operation_xyz
x,y,z
-x,-y,-z
loop_
_atom_site_type_symbol
_atom_site_label
_atom_site_fract_x
_atom_site_fract_y
_atom_site_fract_z
Si Si1 0.451355 0.348775 0.262920
Si Si2 0.119973 0.863662 0.873647
Si Si3 0.177055 0.899772 0.661952
Si Si4 0.843691 0.823852 0.441476
Si Si5 0.379631 0.759306 0.931085
Si Si6 0.276582 0.159210 0.629503
Si Si7 0.249772 0.515249 0.207192
Si Si8 0.210931 0.142432 0.845600
O O1 0.570950 0.222264 0.231753
O O2 0.618246 0.255398 0.135816
O O3 0.545765 0.601584 0.331237
O O4 0.092493 0.297039 0.340661
O O5 0.858563 0.658553 0.867918
O O6 0.171716 0.987331 0.849950
O O7 0.000000 0.000000 0.000000
O O8 0.485072 0.803539 0.537099
O O9 0.129689 0.083373 0.698686
O O10 0.157093 0.999025 0.758759
O O11 0.942400 0.865581 0.368211
O O12 0.965189 0.604618 0.344179
O O13 0.000000 0.000000 0.500000
O O14 0.576062 0.586985 0.833608
O O15 0.039607 0.702874 0.026455
O O16 0.500000 0.000000 0.000000
O O17 0.500000 0.000000 0.500000
O O18 0.465473 0.714336 0.192428
#
# Coordination Sequence:
#
# PCOD8028407 Si02
#       8
#     2   2   2   2   2   2   2   2
#     4  12  24  44  73 103 145 187 228 290 365 403
#     4  12  26  47  68 107 149 179 234 300 338 426
#     4  11  25  45  76 102 142 188 233 288 352 420
#     4  11  24  47  71 105 141 181 238 293 345 418
#     4  12  23  46  71 105 148 181 233 292 347 427
#     4  10  25  46  69 100 140 181 239 288 341 415
#     4  12  25  46  74 101 144 188 233 288 358 409
#     4  12  25  46  73 107 139 191 236 281 359 421
#
# _framework density 21.727141
#
# number of rings (size 3 to 8) (size 9 to 14) (size 15 to 20)
#    0.000    0.500    6.250    1.125    3.500    2.500 
#    0.000    2.500    0.000    0.000    0.000    0.000 
#    0.000    0.000    0.000    0.000    0.000    0.000 
#
# Total GULP energy -198332.311395 kJ/mol
# GULP energy per Si atom -12395.769462 kJ/mol
# Density = 2.167769 g / cm^3
# Si number density = 21.727141 Si / 1000 Ang^3
#
#
#
# Elastic Constant Matrix: (Units=GPa)
#
#
# Indices 1 2 3 4 5 6 
#
# 1 148.5232 66.9706 69.4318 5.4016 8.5910 -2.3414
# 2 66.9706 126.5462 55.1014 12.0098 10.8188 12.4559
# 3 69.4318 55.1014 116.8720 10.1254 -11.4330 -9.4720
# 4 5.4016 12.0098 10.1254 39.2433 5.8734 0.9745
# 5 8.5910 10.8188 -11.4330 5.8734 51.6598 0.9580
# 6 -2.3414 12.4559 -9.4720 0.9745 0.9580 42.0227
#
#
#
# Elastic Compliance Matrix: (Units=1/GPa)
#
#
# Indices 1 2 3 4 5 6 
#
# 1 0.010751 -0.003458 -0.005048 0.001217 -0.002329 0.000511
# 2 -0.003458 0.012483 -0.004336 -0.001701 -0.002717 -0.004769
# 3 -0.005048 -0.004336 0.014686 -0.002654 0.005221 0.004257
# 4 0.001217 -0.001701 -0.002654 0.027058 -0.003499 -0.000574
# 5 -0.002329 -0.002717 0.005221 -0.003499 0.021840 0.001436
# 6 0.000511 -0.004769 0.004257 -0.000574 0.001436 0.026179
#
#
# Mechanical properties :
#
#
# Convention : Reuss Voigt Hill
#
# Bulk Modulus (GPa) = 81.73491 86.10542 83.92016
# Shear Modulus (GPa) = 35.02388 39.94765 37.48576
#
# Velocity S-wave (km/s) = 4.01931 4.29255 4.15818
# Velocity P-wave (km/s) = 7.69677 8.01775 7.85890
#
# Compressibility (1/GPa) = 0.01223467
#
# Stress axis : x y z
#
# Youngs Moduli (GPa) = 93.01739 80.10593 68.09434
#
# Poissons Ratio (x) = 0.27701 0.34376
# Poissons Ratio (y) = 0.32165 0.29527
# Poissons Ratio (z) = 0.46958 0.34736
#
# Static dielectric constant tensor:
#      x y z
#    x 4.760710 -0.292170 -0.097310 
#    y -0.292170 4.209520 -0.062880 
#    z -0.097310 -0.062880 4.103070 
# 
# 
# High freq. dielectric constant tensor:
#      x y z
#    x 1.879000 0.003710 -0.004010 
#    y 0.003710 1.838820 0.009460 
#    z -0.004010 0.009460 1.864120 
# 
# From -- ./inp_files/407326.got.cif
#   From: 2010.06.25/outbox.cif.g09.slc.cpg/sg2_204_cif.got.tgz:407326.got - 2010.06.27 13:26:56.
