data_PCOD8028908
_publ_section_title
;
Structure prediction by ZEFSAII (Michael W. Deem and Ramdas Pophale) SiO2 
 PCOD8028908
Probable space group: P -1
;
_chemical_formula_sum "Si O2"
_cell_formula_units_Z 12
_cell_length_a 11.043740
_cell_length_b 10.025401
_cell_length_c 14.370945
_cell_angle_alpha 103.855846
_cell_angle_beta 86.487043
_cell_angle_gamma 153.796389
_cell_volume 636.854139
_symmetry_space_group_name_H-M "P -1"
_symmetry_group_IT_number 2
_symmetry_cell_setting 'triclinic'
loop_
_space_group_symop_operation_xyz
x,y,z
-x,-y,-z
loop_
_atom_site_type_symbol
_atom_site_label
_atom_site_fract_x
_atom_site_fract_y
_atom_site_fract_z
Si Si1 0.305801 0.232699 0.600252
Si Si2 0.848745 0.069777 0.828475
Si Si3 0.608021 0.749002 0.085965
Si Si4 0.240758 0.338744 0.203714
Si Si5 0.516670 0.176840 0.047790
Si Si6 0.809374 0.920920 0.615284
O O1 0.531514 0.378467 0.678238
O O2 0.480296 0.535494 0.591852
O O3 0.180504 0.013184 0.481467
O O4 0.039539 0.030097 0.636104
O O5 0.157382 0.431160 0.916635
O O6 0.750409 0.817507 0.824395
O O7 0.606454 0.922025 0.859002
O O8 0.877181 0.108345 0.720613
O O9 0.354169 0.522908 0.133695
O O10 0.500000 0.500000 0.000000
O O11 0.668220 0.932141 0.039972
O O12 0.905172 0.038454 0.181404
O O13 0.500000 0.000000 0.000000
#
# Coordination Sequence:
#
# PCOD8028908 Si02
#       6
#     2   2   2   2   2   2
#     4   9  17  29  46  79 110 130 163 212 267 315
#     4  11  19  35  54  76 104 140 175 213 264 310
#     4  12  21  35  53  77 103 141 177 213 263 311
#     4  11  19  32  55  80 104 135 171 216 264 313
#     4  12  25  37  51  75 107 143 182 217 252 308
#     4   9  17  29  49  74 108 138 162 208 268 317
#
# _framework density 18.84262
#
# number of rings (size 3 to 8) (size 9 to 14) (size 15 to 20)
#    0.000    1.333    3.333    6.000    0.000    0.000 
#    0.000    0.000    0.000    0.000    0.000    7.000 
#    0.000    0.000    0.000    0.000    0.000    0.000 
#
# Total GULP energy -148676.687338 kJ/mol
# GULP energy per Si atom -12389.723945 kJ/mol
# Density = 1.879973 g / cm^3
# Si number density = 18.842620 Si / 1000 Ang^3
#
#
#
# Elastic Constant Matrix: (Units=GPa)
#
#
# Indices 1 2 3 4 5 6 
#
# 1 74.9447 19.6666 42.9437 -4.1089 -4.5827 1.4145
# 2 19.6666 68.8900 26.9038 -2.6237 -2.3457 20.2399
# 3 42.9437 26.9038 118.0378 -5.9585 4.8601 -6.5385
# 4 -4.1089 -2.6237 -5.9585 28.0402 13.1618 3.6265
# 5 -4.5827 -2.3457 4.8601 13.1618 24.2402 -2.6434
# 6 1.4145 20.2399 -6.5385 3.6265 -2.6434 17.8107
#
#
#
# Elastic Compliance Matrix: (Units=1/GPa)
#
#
# Indices 1 2 3 4 5 6 
#
# 1 0.017783 -0.002711 -0.006109 -0.001426 0.005151 0.000480
# 2 -0.002711 0.029544 -0.007274 0.007998 -0.004721 -0.038358
# 3 -0.006109 -0.007274 0.013293 0.001435 -0.003912 0.012759
# 4 -0.001426 0.007998 0.001435 0.054763 -0.032176 -0.024375
# 5 0.005151 -0.004721 -0.003912 -0.032176 0.062130 0.019293
# 6 0.000480 -0.038358 0.012759 -0.024375 0.019293 0.112208
#
#
# Mechanical properties :
#
#
# Convention : Reuss Voigt Hill
#
# Bulk Modulus (GPa) = 35.17278 48.98896 42.08087
# Shear Modulus (GPa) = 15.08811 25.50877 20.29844
#
# Velocity S-wave (km/s) = 2.83281 3.68337 3.28573
# Velocity P-wave (km/s) = 5.42281 6.64417 6.06432
#
# Compressibility (1/GPa) = 0.02843107
#
# Stress axis : x y z
#
# Youngs Moduli (GPa) = 56.23379 33.84767 75.22908
#
# Poissons Ratio (x) = 0.09175 0.45959
# Poissons Ratio (y) = 0.15244 0.54724
# Poissons Ratio (z) = 0.34355 0.24622
#
# Static dielectric constant tensor:
#      x y z
#    x 2.962270 0.264930 0.019290 
#    y 0.264930 3.541750 0.087090 
#    z 0.019290 0.087090 5.168460 
# 
# 
# High freq. dielectric constant tensor:
#      x y z
#    x 1.653630 0.042550 0.009750 
#    y 0.042550 1.744280 -0.005030 
#    z 0.009750 -0.005030 1.751690 
# 
# From -- ./inp_files/55931.got.cif
#   From: 2010.06.25/outbox.cif.g09.slc.cpg/sg2_28_cif.got.tgz:55931.got - 2010.06.27 13:26:56.
