data_PCOD8028350
_publ_section_title
;
Structure prediction by ZEFSAII (Michael W. Deem and Ramdas Pophale) SiO2 
 PCOD8028350
Probable space group: P -1
;
_chemical_formula_sum "Si O2"
_cell_formula_units_Z 16
_cell_length_a 8.622154
_cell_length_b 9.534850
_cell_length_c 15.187328
_cell_angle_alpha 36.987026
_cell_angle_beta 115.559342
_cell_angle_gamma 110.492315
_cell_volume 677.633681
_symmetry_space_group_name_H-M "P -1"
_symmetry_group_IT_number 2
_symmetry_cell_setting 'triclinic'
loop_
_space_group_symop_operation_xyz
x,y,z
-x,-y,-z
loop_
_atom_site_type_symbol
_atom_site_label
_atom_site_fract_x
_atom_site_fract_y
_atom_site_fract_z
Si Si1 0.743099 0.590695 0.066681
Si Si2 0.342920 0.345717 0.507545
Si Si3 0.269239 0.918796 0.430857
Si Si4 0.848742 0.406703 0.820532
Si Si5 0.165789 0.351308 0.131588
Si Si6 0.318647 0.084019 0.954335
Si Si7 0.190097 0.425085 0.604045
Si Si8 0.602125 0.125005 0.336271
O O1 0.660380 0.790643 0.008231
O O2 0.634282 0.355397 0.172707
O O3 0.945807 0.558569 0.151051
O O4 0.714222 0.647706 0.927326
O O5 0.500000 0.500000 0.500000
O O6 0.229033 0.487092 0.340109
O O7 0.240052 0.282801 0.601971
O O8 0.399789 0.097092 0.614050
O O9 0.297098 0.669539 0.517075
O O10 0.249196 0.883710 0.548117
O O11 0.111713 0.077332 0.276252
O O12 0.421005 0.112822 0.350183
O O13 0.756457 0.532897 0.817853
O O14 0.807553 0.133376 0.953325
O O15 0.000000 0.500000 0.000000
O O16 0.221340 0.267319 0.775939
O O17 0.500000 0.000000 0.000000
O O18 0.000000 0.500000 0.500000
#
# Coordination Sequence:
#
# PCOD8028350 Si02
#       8
#     2   2   2   2   2   2   2   2
#     4  11  26  48  74 109 143 198 250 296 378 440
#     4  12  25  46  74 107 145 193 246 302 376 439
#     4  11  24  47  73 102 152 188 241 310 365 432
#     4  11  26  48  72 108 153 190 246 317 363 443
#     4  10  25  45  73 105 147 190 241 298 372 430
#     4  12  28  47  75 106 153 197 248 306 374 446
#     4  12  28  45  73 111 148 194 248 302 375 444
#     4  11  25  45  76 103 144 192 246 305 363 440
#
# _framework density 23.611577
#
# number of rings (size 3 to 8) (size 9 to 14) (size 15 to 20)
#    0.000    0.750    3.750    1.875    8.750    3.000 
#    0.000    0.000    0.000    0.000    0.000    0.000 
#    0.000    0.000    0.000    0.000    0.000    0.000 
#
# Total GULP energy -198291.722260 kJ/mol
# GULP energy per Si atom -12393.232641 kJ/mol
# Density = 2.355784 g / cm^3
# Si number density = 23.611577 Si / 1000 Ang^3
#
#
#
# Elastic Constant Matrix: (Units=GPa)
#
#
# Indices 1 2 3 4 5 6 
#
# 1 72.8769 31.2710 -18.8790 -7.3843 -4.7607 -15.8374
# 2 31.2710 142.7397 35.7389 -12.1251 -12.2344 -31.1543
# 3 -18.8790 35.7389 94.8340 -15.0939 -12.1087 -12.2972
# 4 -7.3843 -12.1251 -15.0939 51.2043 -3.0944 -3.4021
# 5 -4.7607 -12.2344 -12.1087 -3.0944 37.6825 0.7343
# 6 -15.8374 -31.1543 -12.2972 -3.4021 0.7343 51.7525
#
#
#
# Elastic Compliance Matrix: (Units=1/GPa)
#
#
# Indices 1 2 3 4 5 6 
#
# 1 0.019268 -0.004178 0.007295 0.004519 0.003689 0.005360
# 2 -0.004178 0.009903 -0.003716 0.000993 0.001500 0.003844
# 3 0.007295 -0.003716 0.015386 0.005272 0.005016 0.003927
# 4 0.004519 0.000993 0.005272 0.022542 0.004348 0.004654
# 5 0.003689 0.001500 0.005016 0.004348 0.029399 0.003092
# 6 0.005360 0.003844 0.003927 0.004654 0.003092 0.024472
#
#
# Mechanical properties :
#
#
# Convention : Reuss Voigt Hill
#
# Bulk Modulus (GPa) = 23.06225 45.19029 34.12627
# Shear Modulus (GPa) = 36.59743 45.61585 41.10664
#
# Velocity S-wave (km/s) = 3.94125 4.40014 4.17700
# Velocity P-wave (km/s) = 5.52266 6.70787 6.14391
#
# Compressibility (1/GPa) = 0.04336090
#
# Stress axis : x y z
#
# Youngs Moduli (GPa) = 51.89954 100.97520 64.99366
#
# Poissons Ratio (x) = 0.42188 -0.47416
# Poissons Ratio (y) = 0.21684 0.24150
# Poissons Ratio (z) = -0.37863 0.37520
#
# Static dielectric constant tensor:
#      x y z
#    x 4.172170 -0.266170 -0.056840 
#    y -0.266170 4.827560 0.038970 
#    z -0.056840 0.038970 4.656190 
# 
# 
# High freq. dielectric constant tensor:
#      x y z
#    x 1.927870 -0.015450 0.003320 
#    y -0.015450 1.949810 0.004270 
#    z 0.003320 0.004270 1.958690 
# 
# From -- ./inp_files/494336.got.cif
#   From: 2010.06.25/outbox.cif.g09.slc.cpg/sg2_248_cif.got.tgz:494336.got - 2010.06.27 13:26:56.
