data_PCOD8028266
_publ_section_title
;
Structure prediction by ZEFSAII (Michael W. Deem and Ramdas Pophale) SiO2 
 PCOD8028266
Probable space group: P -1
;
_chemical_formula_sum "Si O2"
_cell_formula_units_Z 16
_cell_length_a 25.569930
_cell_length_b 5.553284
_cell_length_c 10.960476
_cell_angle_alpha 120.774525
_cell_angle_beta 149.083218
_cell_angle_gamma 59.833698
_cell_volume 679.887476
_symmetry_space_group_name_H-M "P -1"
_symmetry_group_IT_number 2
_symmetry_cell_setting 'triclinic'
loop_
_space_group_symop_operation_xyz
x,y,z
-x,-y,-z
loop_
_atom_site_type_symbol
_atom_site_label
_atom_site_fract_x
_atom_site_fract_y
_atom_site_fract_z
Si Si1 0.245522 0.594534 0.598788
Si Si2 0.882583 0.689427 0.055799
Si Si3 0.623889 0.066511 0.889898
Si Si4 0.108733 0.709860 0.560715
Si Si5 0.814678 0.681574 0.165905
Si Si6 0.738395 0.962635 0.657680
Si Si7 0.569300 0.201155 0.551557
Si Si8 0.883979 0.150145 0.794152
O O1 0.165069 0.500582 0.514022
O O2 0.288728 0.337260 0.528223
O O3 0.175817 0.860322 0.457174
O O4 0.341723 0.703355 0.887184
O O5 0.838279 0.533448 0.043434
O O6 0.987929 0.804158 0.327833
O O7 0.800442 0.940350 0.903964
O O8 0.902371 0.473460 0.927960
O O9 0.638283 0.156985 0.801073
O O10 0.505222 0.041013 0.669600
O O11 0.693083 0.755331 0.970322
O O12 0.125023 0.524900 0.668544
O O13 0.154979 0.002430 0.718618
O O14 0.635771 0.168019 0.549788
O O15 0.804964 0.087500 0.722323
O O16 0.500000 0.500000 0.500000
O O17 0.000000 0.000000 0.000000
#
# Coordination Sequence:
#
# PCOD8028266 Si02
#       8
#     2   2   2   2   2   2   2   2
#     4  10  25  45  68 100 141 193 236 295 360 441
#     4  11  24  40  66 101 146 189 242 296 359 442
#     4  10  25  45  73  97 143 180 242 304 378 426
#     4  11  25  41  71 106 149 190 244 293 370 434
#     4  11  25  42  71 106 144 190 241 306 367 442
#     4  11  25  44  69 102 144 189 248 297 366 434
#     4  11  26  46  74 105 133 184 244 313 379 434
#     4  11  25  41  69 100 146 196 239 291 355 437
#
# _framework density 23.533306
#
# number of rings (size 3 to 8) (size 9 to 14) (size 15 to 20)
#    0.000    1.250    1.250    2.250   15.750    3.500 
#    0.000    1.250    0.000    0.000    0.000    0.000 
#    0.000    0.000    0.000    0.000    0.000    0.000 
#
# Total GULP energy -198216.939845 kJ/mol
# GULP energy per Si atom -12388.558740 kJ/mol
# Density = 2.347974 g / cm^3
# Si number density = 23.533306 Si / 1000 Ang^3
#
#
#
# Elastic Constant Matrix: (Units=GPa)
#
#
# Indices 1 2 3 4 5 6 
#
# 1 135.0738 22.1904 49.6027 -6.3835 -2.1174 2.5770
# 2 22.1904 72.4745 36.9231 -6.5738 -7.2248 -3.1791
# 3 49.6027 36.9231 141.2559 -9.4461 -14.4702 0.3410
# 4 -6.3835 -6.5738 -9.4461 19.3833 0.5576 -2.3053
# 5 -2.1174 -7.2248 -14.4702 0.5576 39.1363 -8.4668
# 6 2.5770 -3.1791 0.3410 -2.3053 -8.4668 44.4486
#
#
#
# Elastic Compliance Matrix: (Units=1/GPa)
#
#
# Indices 1 2 3 4 5 6 
#
# 1 0.008666 -0.001294 -0.002731 0.001028 -0.000946 -0.000701
# 2 -0.001294 0.016560 -0.003420 0.003687 0.002075 0.001872
# 3 -0.002731 -0.003420 0.009381 0.002492 0.002761 0.000497
# 4 0.001028 0.003687 0.002492 0.054744 0.001598 0.003329
# 5 -0.000946 0.002075 0.002761 0.001598 0.028097 0.005617
# 6 -0.000701 0.001872 0.000497 0.003329 0.005617 0.023911
#
#
# Mechanical properties :
#
#
# Convention : Reuss Voigt Hill
#
# Bulk Modulus (GPa) = 50.71817 62.91517 56.81667
# Shear Modulus (GPa) = 30.70864 36.59949 33.65407
#
# Velocity S-wave (km/s) = 3.61626 3.94791 3.78572
# Velocity P-wave (km/s) = 6.24779 6.89738 6.58061
#
# Compressibility (1/GPa) = 0.01971680
#
# Stress axis : x y z
#
# Youngs Moduli (GPa) = 115.39254 60.38783 106.60166
#
# Poissons Ratio (x) = 0.07812 0.29118
# Poissons Ratio (y) = 0.14928 0.36455
# Poissons Ratio (z) = 0.31519 0.20651
#
# Static dielectric constant tensor:
#      x y z
#    x 4.664900 -0.203830 -0.206600 
#    y -0.203830 4.230150 -0.029800 
#    z -0.206600 -0.029800 4.467890 
# 
# 
# High freq. dielectric constant tensor:
#      x y z
#    x 1.940480 -0.005130 -0.008590 
#    y -0.005130 1.928430 0.001280 
#    z -0.008590 0.001280 1.937440 
# 
# From -- ./inp_files/475939.got.cif
#   From: 2010.06.25/outbox.cif.g09.slc.cpg/sg2_238_cif.got.tgz:475939.got - 2010.06.27 13:26:56.
