data_PCOD8028224
_publ_section_title
;
Structure prediction by ZEFSAII (Michael W. Deem and Ramdas Pophale) SiO2 
 PCOD8028224
Probable space group: P -1
;
_chemical_formula_sum "Si O2"
_cell_formula_units_Z 16
_cell_length_a 9.291382
_cell_length_b 20.424885
_cell_length_c 10.686639
_cell_angle_alpha 39.002843
_cell_angle_beta 110.491559
_cell_angle_gamma 139.727561
_cell_volume 661.951985
_symmetry_space_group_name_H-M "P -1"
_symmetry_group_IT_number 2
_symmetry_cell_setting 'triclinic'
loop_
_space_group_symop_operation_xyz
x,y,z
-x,-y,-z
loop_
_atom_site_type_symbol
_atom_site_label
_atom_site_fract_x
_atom_site_fract_y
_atom_site_fract_z
Si Si1 0.280827 0.955977 0.635246
Si Si2 0.307193 0.192733 0.254381
Si Si3 0.111045 0.591397 0.595590
Si Si4 0.947968 0.791002 0.009868
Si Si5 0.863741 0.568233 0.968609
Si Si6 0.308016 0.562595 0.497448
Si Si7 0.902340 0.829225 0.215925
Si Si8 0.168708 0.800017 0.484545
O O1 0.217175 0.957334 0.756914
O O2 0.996600 0.750854 0.792373
O O3 0.398252 0.125561 0.346942
O O4 0.536571 0.017702 0.623822
O O5 0.289313 0.260162 0.029764
O O6 0.525803 0.369259 0.157096
O O7 0.000000 0.000000 0.500000
O O8 0.832988 0.461867 0.627247
O O9 0.343823 0.671184 0.454993
O O10 0.227939 0.763526 0.434241
O O11 0.020681 0.461050 0.870373
O O12 0.874018 0.628546 0.207502
O O13 0.001065 0.836867 0.104101
O O14 0.960402 0.617458 0.780729
O O15 0.574276 0.649037 0.403188
O O16 0.042398 0.840377 0.351436
O O17 0.000000 0.000000 0.000000
#
# Coordination Sequence:
#
# PCOD8028224 Si02
#       8
#     2   2   2   2   2   2   2   2
#     4  11  26  46  75 111 149 198 260 305 369 456
#     4  10  25  44  73 112 148 194 247 311 375 449
#     4  11  25  46  80 103 144 198 252 304 375 446
#     4  11  24  48  72 102 150 196 241 312 374 447
#     4  12  25  47  75 109 149 198 246 316 374 434
#     4  11  25  49  73 108 143 200 250 305 378 457
#     4  12  30  45  72 109 152 191 247 314 377 444
#     4  12  27  48  75 111 150 202 250 311 374 449
#
# _framework density 24.170938
#
# number of rings (size 3 to 8) (size 9 to 14) (size 15 to 20)
#    0.000    0.750    3.750    1.875    7.000    2.500 
#    2.250    0.000    0.000    0.000    0.000    0.000 
#    0.000    0.000    0.000    0.000    0.000    0.000 
#
# Total GULP energy -198274.455604 kJ/mol
# GULP energy per Si atom -12392.153475 kJ/mol
# Density = 2.411592 g / cm^3
# Si number density = 24.170938 Si / 1000 Ang^3
#
#
#
# Elastic Constant Matrix: (Units=GPa)
#
#
# Indices 1 2 3 4 5 6 
#
# 1 96.1478 46.2740 33.3253 2.0151 12.5805 16.8411
# 2 46.2740 135.1842 58.8471 3.5596 11.3624 25.0972
# 3 33.3253 58.8471 97.8550 5.9141 19.3022 17.6638
# 4 2.0151 3.5596 5.9141 47.8144 9.5410 11.8874
# 5 12.5805 11.3624 19.3022 9.5410 39.3218 4.9853
# 6 16.8411 25.0972 17.6638 11.8874 4.9853 50.2346
#
#
#
# Elastic Compliance Matrix: (Units=1/GPa)
#
#
# Indices 1 2 3 4 5 6 
#
# 1 0.013221 -0.003161 -0.001789 0.000923 -0.002383 -0.002206
# 2 -0.003161 0.011272 -0.005333 0.000551 0.000605 -0.002886
# 3 -0.001789 -0.005333 0.015358 0.000019 -0.005224 -0.001622
# 4 0.000923 0.000551 0.000019 0.023296 -0.005410 -0.005567
# 5 -0.002383 0.000605 -0.005224 -0.005410 0.029813 0.000655
# 6 -0.002206 -0.002886 -0.001622 -0.005567 0.000655 0.023911
#
#
# Mechanical properties :
#
#
# Convention : Reuss Voigt Hill
#
# Bulk Modulus (GPa) = 51.85878 67.34222 59.60050
# Shear Modulus (GPa) = 34.75481 40.19021 37.47251
#
# Velocity S-wave (km/s) = 3.79605 4.08211 3.94167
# Velocity P-wave (km/s) = 6.38082 7.08092 6.73997
#
# Compressibility (1/GPa) = 0.01928314
#
# Stress axis : x y z
#
# Youngs Moduli (GPa) = 75.63724 88.71800 65.11286
#
# Poissons Ratio (x) = 0.28047 0.11649
# Poissons Ratio (y) = 0.23911 0.34727
# Poissons Ratio (z) = 0.13532 0.47317
#
# Static dielectric constant tensor:
#      x y z
#    x 0.000000 0.000000 0.000000 
#    y 0.000000 0.000000 0.000000 
#    z 0.000000 0.000000 0.000000 
# 
# 
# High freq. dielectric constant tensor:
#      x y z
#    x 1.961790 0.008600 0.014250 
#    y 0.008600 1.962040 0.013230 
#    z 0.014250 0.013230 1.956230 
# 
# From -- ./inp_files/405426.got.cif
#   From: 2010.06.25/outbox.cif.g09.slc.cpg/sg2_203_cif.got.tgz:405426.got - 2010.06.27 13:26:56.
