data_PCOD8028606
_publ_section_title
;
Structure prediction by ZEFSAII (Michael W. Deem and Ramdas Pophale) SiO2 
 PCOD8028606
Probable space group: P -1
;
_chemical_formula_sum "Si O2"
_cell_formula_units_Z 16
_cell_length_a 6.364928
_cell_length_b 15.748068
_cell_length_c 15.529210
_cell_angle_alpha 35.219101
_cell_angle_beta 100.107847
_cell_angle_gamma 78.836510
_cell_volume 711.245860
_symmetry_space_group_name_H-M "P -1"
_symmetry_group_IT_number 2
_symmetry_cell_setting 'triclinic'
loop_
_space_group_symop_operation_xyz
x,y,z
-x,-y,-z
loop_
_atom_site_type_symbol
_atom_site_label
_atom_site_fract_x
_atom_site_fract_y
_atom_site_fract_z
Si Si1 0.808635 0.602851 0.043920
Si Si2 0.481781 0.736709 0.071891
Si Si3 0.080495 0.077340 0.866319
Si Si4 0.399220 0.919678 0.627426
Si Si5 0.469082 0.645916 0.443811
Si Si6 0.747943 0.683073 0.298470
Si Si7 0.167338 0.748177 0.647385
Si Si8 0.363118 0.469710 0.260587
O O1 0.670846 0.715998 0.027327
O O2 0.780965 0.439432 0.158757
O O3 0.125222 0.499379 0.162051
O O4 0.662488 0.762664 0.829086
O O5 0.660830 0.619413 0.263716
O O6 0.319535 0.662210 0.089371
O O7 0.289862 0.939446 0.925629
O O8 0.198912 0.171046 0.845876
O O9 0.839470 0.216700 0.670372
O O10 0.000000 0.000000 0.000000
O O11 0.281285 0.818225 0.664791
O O12 0.500000 0.000000 0.500000
O O13 0.151279 0.092047 0.521971
O O14 0.500000 0.500000 0.500000
O O15 0.540693 0.762882 0.296687
O O16 0.646749 0.568177 0.607415
O O17 0.000000 0.500000 0.500000
O O18 0.345432 0.695921 0.617276
#
# Coordination Sequence:
#
# PCOD8028606 Si02
#       8
#     2   2   2   2   2   2   2   2
#     4  11  26  46  74 104 147 186 232 295 360 429
#     4  11  25  41  63  99 137 180 237 294 353 415
#     4  12  25  41  64  95 132 185 247 301 352 410
#     4  11  25  49  79 110 145 181 234 287 369 440
#     4  12  23  42  67  95 140 191 237 292 347 412
#     4  12  23  41  66  90 129 188 240 289 349 411
#     4  10  25  48  75 110 143 184 236 287 359 436
#     4  11  24  46  71 104 144 188 239 289 355 418
#
# _framework density 22.495736000000001
#
# number of rings (size 3 to 8) (size 9 to 14) (size 15 to 20)
#    0.000    0.750    3.750    2.250    3.500    7.000 
#    4.500    0.000    0.000    0.000    0.000    0.000 
#    0.000    0.000    0.000    0.000    0.000    0.000 
#
# Total GULP energy -198212.051389 kJ/mol
# GULP energy per Si atom -12388.253212 kJ/mol
# Density = 2.244453 g / cm^3
# Si number density = 22.495736 Si / 1000 Ang^3
#
#
#
# Elastic Constant Matrix: (Units=GPa)
#
#
# Indices 1 2 3 4 5 6 
#
# 1 130.3997 45.9859 57.5905 -2.7524 2.7488 -0.4085
# 2 45.9859 102.2731 48.5241 -9.4388 0.4107 -6.1784
# 3 57.5905 48.5241 135.7235 4.8498 12.5453 3.0383
# 4 -2.7524 -9.4388 4.8498 39.1762 2.7191 -0.9201
# 5 2.7488 0.4107 12.5453 2.7191 40.0037 3.8782
# 6 -0.4085 -6.1784 3.0383 -0.9201 3.8782 33.9016
#
#
#
# Elastic Compliance Matrix: (Units=1/GPa)
#
#
# Indices 1 2 3 4 5 6 
#
# 1 0.010177 -0.002991 -0.003292 0.000374 0.000354 -0.000158
# 2 -0.002991 0.013401 -0.003778 0.003499 0.000748 0.002754
# 3 -0.003292 -0.003778 0.010481 -0.002283 -0.002729 -0.001417
# 4 0.000374 0.003499 -0.002283 0.026811 -0.001336 0.001727
# 5 0.000354 0.000748 -0.002729 -0.001336 0.026169 -0.002645
# 6 -0.000158 0.002754 -0.001417 0.001727 -0.002645 0.030474
#
#
# Mechanical properties :
#
#
# Convention : Reuss Voigt Hill
#
# Bulk Modulus (GPa) = 71.74347 74.73305 73.23826
# Shear Modulus (GPa) = 35.14205 37.03601 36.08903
#
# Velocity S-wave (km/s) = 3.95671 4.06193 4.00967
# Velocity P-wave (km/s) = 7.26879 7.43587 7.35281
#
# Compressibility (1/GPa) = 0.01393855
#
# Stress axis : x y z
#
# Youngs Moduli (GPa) = 98.25985 74.61940 95.41131
#
# Poissons Ratio (x) = 0.22317 0.31406
# Poissons Ratio (y) = 0.29387 0.36047
# Poissons Ratio (z) = 0.32343 0.28192
#
# Static dielectric constant tensor:
#      x y z
#    x 4.176320 -0.233600 0.184610 
#    y -0.233600 3.925320 -0.172220 
#    z 0.184610 -0.172220 4.122560 
# 
# 
# High freq. dielectric constant tensor:
#      x y z
#    x 1.906290 -0.003120 0.007220 
#    y -0.003120 1.878980 -0.014770 
#    z 0.007220 -0.014770 1.885420 
# 
# From -- ./inp_files/484270.got.cif
#   From: 2010.06.25/outbox.cif.g09.slc.cpg/sg2_243_cif.got.tgz:484270.got - 2010.06.27 13:26:56.
