data_PCOD8028499
_publ_section_title
;
Structure prediction by ZEFSAII (Michael W. Deem and Ramdas Pophale) SiO2 
 PCOD8028499
Probable space group: P -1
;
_chemical_formula_sum "Si O2"
_cell_formula_units_Z 14
_cell_length_a 20.486007
_cell_length_b 6.744615
_cell_length_c 7.392041
_cell_angle_alpha 94.561779
_cell_angle_beta 48.817917
_cell_angle_gamma 120.068599
_cell_volume 614.136341
_symmetry_space_group_name_H-M "P -1"
_symmetry_group_IT_number 2
_symmetry_cell_setting 'triclinic'
loop_
_space_group_symop_operation_xyz
x,y,z
-x,-y,-z
loop_
_atom_site_type_symbol
_atom_site_label
_atom_site_fract_x
_atom_site_fract_y
_atom_site_fract_z
Si Si1 0.837461 0.800571 0.927331
Si Si2 0.017865 0.301584 0.495598
Si Si3 0.359064 0.686942 0.891162
Si Si4 0.247507 0.100923 0.585238
Si Si5 0.893498 0.437670 0.286221
Si Si6 0.604775 0.000872 0.479425
Si Si7 0.301185 0.586654 0.395503
O O1 0.904191 0.684411 0.798775
O O2 0.715944 0.594477 0.066536
O O3 0.837270 0.901739 0.130304
O O4 0.903231 0.030997 0.684783
O O5 0.077423 0.383154 0.585291
O O6 0.000000 0.500000 0.500000
O O7 0.349739 0.869473 0.791681
O O8 0.480111 0.766105 0.672984
O O9 0.322745 0.693862 0.160792
O O10 0.306118 0.352591 0.378184
O O11 0.180320 0.860187 0.560266
O O12 0.330718 0.096055 0.561549
O O13 0.813885 0.479340 0.324725
O O14 0.000000 0.500000 0.000000
O O15 0.608761 0.199061 0.619329
#
# Coordination Sequence:
#
# PCOD8028499 Si02
#       7
#     2   2   2   2   2   2   2
#     4  11  24  43  64 101 134 177 226 282 337 411
#     4  11  26  42  66 100 134 181 227 281 339 412
#     4  11  23  46  72  97 141 182 230 286 348 408
#     4  11  25  42  70  99 139 179 229 287 342 411
#     4  11  24  42  64  98 133 184 221 279 345 408
#     4  10  25  47  68 102 137 184 229 289 345 407
#     4  11  24  45  68 100 139 180 229 286 345 413
#
# _framework density 22.796241999999999
#
# number of rings (size 3 to 8) (size 9 to 14) (size 15 to 20)
#    0.000    1.143    4.286    0.429    6.000    1.714 
#    2.571    0.000    0.000    0.000    0.000    0.000 
#    0.000    0.000    0.000    0.000    0.000    0.000 
#
# Total GULP energy -173498.577857 kJ/mol
# GULP energy per Si atom -12392.755561 kJ/mol
# Density = 2.274436 g / cm^3
# Si number density = 22.796242 Si / 1000 Ang^3
#
#
#
# Elastic Constant Matrix: (Units=GPa)
#
#
# Indices 1 2 3 4 5 6 
#
# 1 83.5778 42.0912 43.5363 -17.5478 -2.7114 -13.3770
# 2 42.0912 140.5155 44.5323 -13.9761 -14.9631 -10.3812
# 3 43.5363 44.5323 108.2480 -11.6051 -3.2646 -2.0383
# 4 -17.5478 -13.9761 -11.6051 37.5386 9.3587 -5.2631
# 5 -2.7114 -14.9631 -3.2646 9.3587 37.4949 -2.1280
# 6 -13.3770 -10.3812 -2.0383 -5.2631 -2.1280 40.9036
#
#
#
# Elastic Compliance Matrix: (Units=1/GPa)
#
#
# Indices 1 2 3 4 5 6 
#
# 1 0.018696 -0.002885 -0.005497 0.007235 -0.001746 0.005948
# 2 -0.002885 0.009289 -0.002453 0.000777 0.003179 0.001557
# 3 -0.005497 -0.002453 0.012434 0.000222 -0.000451 -0.001796
# 4 0.007235 0.000777 0.000222 0.033037 -0.007027 0.006460
# 5 -0.001746 0.003179 -0.000451 -0.007027 0.029575 0.000848
# 6 0.005948 0.001557 -0.001796 0.006460 0.000848 0.027574
#
#
# Mechanical properties :
#
#
# Convention : Reuss Voigt Hill
#
# Bulk Modulus (GPa) = 53.33506 65.85121 59.59314
# Shear Modulus (GPa) = 31.54063 36.66619 34.10341
#
# Velocity S-wave (km/s) = 3.72370 4.01488 3.87203
# Velocity P-wave (km/s) = 6.47573 7.10225 6.79621
#
# Compressibility (1/GPa) = 0.01874939
#
# Stress axis : x y z
#
# Youngs Moduli (GPa) = 53.48744 107.65398 80.42196
#
# Poissons Ratio (x) = 0.31058 0.44212
# Poissons Ratio (y) = 0.15431 0.19724
# Poissons Ratio (z) = 0.29405 0.26403
#
# Static dielectric constant tensor:
#      x y z
#    x 3.768890 -0.040640 -0.164780 
#    y -0.040640 4.101660 -0.183700 
#    z -0.164780 -0.183700 4.024800 
# 
# 
# High freq. dielectric constant tensor:
#      x y z
#    x 1.890630 0.011390 -0.008630 
#    y 0.011390 1.911430 -0.005460 
#    z -0.008630 -0.005460 1.892540 
# 
# From -- ./inp_files/87401.got.cif
#   From: 2010.06.25/outbox.cif.g09.slc.cpg/sg2_44_cif.got.tgz:87401.got - 2010.06.27 13:26:56.
