data_PCOD8028860
_publ_section_title
;
Structure prediction by ZEFSAII (Michael W. Deem and Ramdas Pophale) SiO2 
 PCOD8028860
Probable space group: P -1
;
_chemical_formula_sum "Si O2"
_cell_formula_units_Z 16
_cell_length_a 14.713161
_cell_length_b 11.565154
_cell_length_c 14.651120
_cell_angle_alpha 62.369717
_cell_angle_beta 44.489066
_cell_angle_gamma 28.468449
_cell_volume 726.400661
_symmetry_space_group_name_H-M "P -1"
_symmetry_group_IT_number 2
_symmetry_cell_setting 'triclinic'
loop_
_space_group_symop_operation_xyz
x,y,z
-x,-y,-z
loop_
_atom_site_type_symbol
_atom_site_label
_atom_site_fract_x
_atom_site_fract_y
_atom_site_fract_z
Si Si1 0.775656 0.790002 0.435004
Si Si2 0.506901 0.616144 0.099887
Si Si3 0.781133 0.252893 0.494241
Si Si4 0.352073 0.487932 0.339293
Si Si5 0.836116 0.769999 0.600616
Si Si6 0.908453 0.940769 0.202982
Si Si7 0.005245 0.876073 0.810950
Si Si8 0.558987 0.676673 0.234938
O O1 0.708372 0.830021 0.575843
O O2 0.885450 0.838242 0.323824
O O3 0.029088 0.465317 0.348221
O O4 0.500000 0.000000 0.500000
O O5 0.343245 0.629471 0.237477
O O6 0.502863 0.714949 0.153759
O O7 0.329945 0.834987 0.062560
O O8 0.815207 0.312379 0.960867
O O9 0.660792 0.483958 0.550816
O O10 0.555008 0.340152 0.613014
O O11 0.896509 0.195060 0.337352
O O12 0.000000 0.000000 0.500000
O O13 0.089681 0.639729 0.438828
O O14 0.656164 0.153657 0.232255
O O15 0.581680 0.063365 0.729137
O O16 0.898161 0.088058 0.209204
O O17 0.114796 0.639667 0.861287
#
# Coordination Sequence:
#
# PCOD8028860 Si02
#       8
#     2   2   2   2   2   2   2   2
#     4  11  25  43  64  91 117 163 207 257 304 351
#     4  11  23  41  56  95 133 163 196 244 310 370
#     4  11  18  33  56  91 126 154 191 249 316 354
#     4  11  20  36  63  91 127 158 189 256 309 363
#     4  11  23  42  65  92 123 152 209 261 306 348
#     4  12  24  39  63  89 129 167 206 245 298 379
#     4  12  22  35  61  94 125 165 198 243 318 368
#     4  11  22  36  61  90 124 161 198 253 303 366
#
# _framework density 22.026411
#
# number of rings (size 3 to 8) (size 9 to 14) (size 15 to 20)
#    0.000    0.750    7.500    2.625    1.750    1.000 
#    0.000    0.625    0.000    1.500    0.000    0.000 
#    0.000    0.000    0.000    0.000    0.000    0.000 
#
# Total GULP energy -198252.813261 kJ/mol
# GULP energy per Si atom -12390.800829 kJ/mol
# Density = 2.197628 g / cm^3
# Si number density = 22.026411 Si / 1000 Ang^3
#
#
#
# Elastic Constant Matrix: (Units=GPa)
#
#
# Indices 1 2 3 4 5 6 
#
# 1 83.8290 53.5130 20.7944 17.0939 10.3664 -10.6284
# 2 53.5130 167.1869 18.3442 34.1929 5.3967 -5.0722
# 3 20.7944 18.3442 46.5319 21.3071 2.0517 -0.4443
# 4 17.0939 34.1929 21.3071 33.5453 -1.2764 -1.2246
# 5 10.3664 5.3967 2.0517 -1.2764 15.3790 6.6776
# 6 -10.6284 -5.0722 -0.4443 -1.2246 6.6776 39.8124
#
#
#
# Elastic Compliance Matrix: (Units=1/GPa)
#
#
# Indices 1 2 3 4 5 6 
#
# 1 0.019001 -0.004426 -0.005057 -0.002235 -0.013664 0.006675
# 2 -0.004426 0.008876 0.002336 -0.008320 -0.001091 -0.000098
# 3 -0.005057 0.002336 0.032341 -0.020493 -0.003077 -0.000806
# 4 -0.002235 -0.008320 -0.020493 0.052839 0.012574 -0.002369
# 5 -0.013664 -0.001091 -0.003077 0.012574 0.083654 -0.017465
# 6 0.006675 -0.000098 -0.000806 -0.002369 -0.017465 0.029735
#
#
# Mechanical properties :
#
#
# Convention : Reuss Voigt Hill
#
# Bulk Modulus (GPa) = 21.77500 53.65011 37.71256
# Shear Modulus (GPa) = 19.52766 31.40710 25.46738
#
# Velocity S-wave (km/s) = 2.98074 3.78018 3.40401
# Velocity P-wave (km/s) = 4.66409 6.59266 5.71038
#
# Compressibility (1/GPa) = 0.04592423
#
# Stress axis : x y z
#
# Youngs Moduli (GPa) = 52.62991 112.66768 30.92021
#
# Poissons Ratio (x) = 0.49869 0.15635
# Poissons Ratio (y) = 0.23295 -0.07223
# Poissons Ratio (z) = 0.26613 -0.26320
#
# Static dielectric constant tensor:
#      x y z
#    x 3.809260 -0.052250 0.095130 
#    y -0.052250 4.406170 0.527970 
#    z 0.095130 0.527970 3.950580 
# 
# 
# High freq. dielectric constant tensor:
#      x y z
#    x 1.853150 -0.022000 0.014350 
#    y -0.022000 1.886320 0.035700 
#    z 0.014350 0.035700 1.832750 
# 
# From -- ./inp_files/532525.got.cif
#   From: 2010.06.25/outbox.cif.g09.slc.cpg/sg2_267_cif.got.tgz:532525.got - 2010.06.27 13:26:56.
