data_PCOD8028576
_publ_section_title
;
Structure prediction by ZEFSAII (Michael W. Deem and Ramdas Pophale) SiO2 
 PCOD8028576
Probable space group: P -1
;
_chemical_formula_sum "Si O2"
_cell_formula_units_Z 14
_cell_length_a 15.228853
_cell_length_b 12.278259
_cell_length_c 12.106895
_cell_angle_alpha 123.685368
_cell_angle_beta 40.188062
_cell_angle_gamma 152.132729
_cell_volume 625.763713
_symmetry_space_group_name_H-M "P -1"
_symmetry_group_IT_number 2
_symmetry_cell_setting 'triclinic'
loop_
_space_group_symop_operation_xyz
x,y,z
-x,-y,-z
loop_
_atom_site_type_symbol
_atom_site_label
_atom_site_fract_x
_atom_site_fract_y
_atom_site_fract_z
Si Si1 0.036375 0.145700 0.462043
Si Si2 0.471395 0.106686 0.428894
Si Si3 0.590816 0.631708 0.102586
Si Si4 0.677723 0.097057 0.780790
Si Si5 0.308780 0.251619 0.612400
Si Si6 0.012014 0.171225 0.022894
Si Si7 0.905846 0.350485 0.300910
O O1 0.863639 0.128637 0.657001
O O2 0.348876 0.431838 0.309606
O O3 0.933601 0.010502 0.367984
O O4 0.000000 0.000000 0.500000
O O5 0.447418 0.244302 0.536805
O O6 0.730004 0.290977 0.354313
O O7 0.493254 0.081483 0.264419
O O8 0.232575 0.833118 0.564802
O O9 0.856725 0.768481 0.953900
O O10 0.500000 0.500000 0.000000
O O11 0.704988 0.874770 0.130180
O O12 0.862376 0.368381 0.716680
O O13 0.500000 0.000000 0.000000
O O14 0.500000 0.500000 0.500000
O O15 0.205183 0.274814 0.805941
O O16 0.026513 0.338918 0.099036
#
# Coordination Sequence:
#
# PCOD8028576 Si02
#       7
#     2   2   2   2   2   2   2
#     4  11  26  44  71 100 137 189 231 287 355 412
#     4  10  25  48  69 102 136 187 237 284 361 408
#     4  11  23  43  69 103 139 176 239 291 342 410
#     4  11  28  47  68 102 144 185 236 290 351 429
#     4  11  24  45  71 103 144 182 235 299 344 420
#     4  11  25  41  71 106 134 179 236 288 350 415
#     4  11  26  44  73 100 143 186 227 294 351 428
#
# _framework density 22.372661000000001
#
# number of rings (size 3 to 8) (size 9 to 14) (size 15 to 20)
#    0.000    1.143    1.429    3.000   16.000    2.857 
#    0.000    0.000    0.000    0.000    0.000    0.000 
#    0.000    0.000    0.000    0.000    0.000    0.000 
#
# Total GULP energy -173512.666692 kJ/mol
# GULP energy per Si atom -12393.761907 kJ/mol
# Density = 2.232174 g / cm^3
# Si number density = 22.372661 Si / 1000 Ang^3
#
#
#
# Elastic Constant Matrix: (Units=GPa)
#
#
# Indices 1 2 3 4 5 6 
#
# 1 97.8807 29.0688 52.4490 1.8211 1.9810 -14.6911
# 2 29.0688 106.6033 39.0106 -1.5949 -1.9925 -4.5466
# 3 52.4490 39.0106 124.8744 13.4394 4.5725 0.0774
# 4 1.8211 -1.5949 13.4394 40.8525 -2.4591 -2.0774
# 5 1.9810 -1.9925 4.5725 -2.4591 34.0450 2.7134
# 6 -14.6911 -4.5466 0.0774 -2.0774 2.7134 41.0160
#
#
#
# Elastic Compliance Matrix: (Units=1/GPa)
#
#
# Indices 1 2 3 4 5 6 
#
# 1 0.014525 -0.001634 -0.005727 0.001405 -0.000479 0.005135
# 2 -0.001634 0.010982 -0.002959 0.001580 0.001198 0.000638
# 3 -0.005727 -0.002959 0.011822 -0.003968 -0.001515 -0.002502
# 4 0.001405 0.001580 -0.003968 0.026014 0.002275 0.001853
# 5 -0.000479 0.001198 -0.001515 0.002275 0.029990 -0.001905
# 6 0.005135 0.000638 -0.002502 0.001853 -0.001905 0.026515
#
#
# Mechanical properties :
#
#
# Convention : Reuss Voigt Hill
#
# Bulk Modulus (GPa) = 59.91845 63.37948 61.64896
# Shear Modulus (GPa) = 34.23457 37.10469 35.66963
#
# Velocity S-wave (km/s) = 3.91602 4.07687 3.99725
# Velocity P-wave (km/s) = 6.87656 7.10997 6.99424
#
# Compressibility (1/GPa) = 0.01668935
#
# Stress axis : x y z
#
# Youngs Moduli (GPa) = 68.84740 91.05712 84.58888
#
# Poissons Ratio (x) = 0.14877 0.48445
# Poissons Ratio (y) = 0.11248 0.25029
# Poissons Ratio (z) = 0.39430 0.26942
#
# Static dielectric constant tensor:
#      x y z
#    x 4.097100 0.015050 -0.238110 
#    y 0.015050 4.305580 0.149280 
#    z -0.238110 0.149280 4.392950 
# 
# 
# High freq. dielectric constant tensor:
#      x y z
#    x 1.878980 0.003310 0.000790 
#    y 0.003310 1.901180 0.006230 
#    z 0.000790 0.006230 1.884300 
# 
# From -- ./inp_files/451606.got.cif
#   From: 2010.06.25/outbox.cif.g09.slc.cpg/sg2_226_cif.got.tgz:451606.got - 2010.06.27 13:26:56.
