data_PCOD8028244
_publ_section_title
;
Structure prediction by ZEFSAII (Michael W. Deem and Ramdas Pophale) SiO2 
 PCOD8028244
Probable space group: P -1
;
_chemical_formula_sum "Si O2"
_cell_formula_units_Z 16
_cell_length_a 9.274329
_cell_length_b 9.574893
_cell_length_c 15.554756
_cell_angle_alpha 70.388862
_cell_angle_beta 143.714741
_cell_angle_gamma 107.620224
_cell_volume 768.745192
_symmetry_space_group_name_H-M "P -1"
_symmetry_group_IT_number 2
_symmetry_cell_setting 'triclinic'
loop_
_space_group_symop_operation_xyz
x,y,z
-x,-y,-z
loop_
_atom_site_type_symbol
_atom_site_label
_atom_site_fract_x
_atom_site_fract_y
_atom_site_fract_z
Si Si1 0.270010 0.336149 0.134499
Si Si2 0.194342 0.634310 0.662011
Si Si3 0.386597 0.744237 0.389779
Si Si4 0.780923 0.972389 0.150891
Si Si5 0.889310 0.990580 0.855517
Si Si6 0.041474 0.249222 0.311264
Si Si7 0.861814 0.481082 0.809104
Si Si8 0.017995 0.692351 0.377022
O O1 0.514491 0.348701 0.193532
O O2 0.226809 0.172874 0.187703
O O3 0.288006 0.454516 0.196573
O O4 0.050518 0.365818 0.957997
O O5 0.117192 0.693871 0.520579
O O6 0.073999 0.735157 0.653930
O O7 0.112962 0.464669 0.676406
O O8 0.669581 0.758764 0.543158
O O9 0.330216 0.603300 0.329489
O O10 0.243966 0.724827 0.414915
O O11 0.321528 0.894816 0.279921
O O12 0.817823 0.815457 0.247389
O O13 0.887507 0.965771 0.108414
O O14 0.923047 0.099095 0.247222
O O15 0.500000 0.000000 0.000000
O O16 0.000000 0.000000 0.000000
O O17 0.984429 0.387393 0.193952
#
# Coordination Sequence:
#
# PCOD8028244 Si02
#       8
#     2   2   2   2   2   2   2   2
#     4  11  25  42  69  98 135 171 220 267 326 394
#     4  11  26  42  68  97 134 169 219 275 326 384
#     4  11  24  44  70  94 134 173 223 267 319 400
#     4  11  28  46  67  96 136 172 218 272 327 393
#     4  11  24  45  68  97 130 177 216 269 330 381
#     4  12  26  43  68  99 129 179 218 267 331 384
#     4  11  23  43  67  99 131 174 220 266 321 390
#     4  10  25  45  65  98 132 176 213 273 332 374
#
# _framework density 20.813137999999999
#
# number of rings (size 3 to 8) (size 9 to 14) (size 15 to 20)
#    0.000    1.000    3.750    1.125    8.750    3.000 
#    0.000    0.000    0.000    0.000    0.000    0.000 
#    0.000    0.000    0.000    0.000    0.000    0.000 
#
# Total GULP energy -198517.272387 kJ/mol
# GULP energy per Si atom -12407.329524 kJ/mol
# Density = 2.076577 g / cm^3
# Si number density = 20.813138 Si / 1000 Ang^3
#
#
#
# Elastic Constant Matrix: (Units=GPa)
#
#
# Indices 1 2 3 4 5 6 
#
# 1 99.4864 40.6920 52.9216 -5.2455 7.7415 0.2596
# 2 40.6920 106.0027 59.9276 -12.9045 -2.7937 -6.1655
# 3 52.9216 59.9276 103.6906 -0.6847 5.5540 -0.3310
# 4 -5.2455 -12.9045 -0.6847 35.6342 1.9479 -4.9290
# 5 7.7415 -2.7937 5.5540 1.9479 40.5793 2.6286
# 6 0.2596 -6.1655 -0.3310 -4.9290 2.6286 26.7949
#
#
#
# Elastic Compliance Matrix: (Units=1/GPa)
#
#
# Indices 1 2 3 4 5 6 
#
# 1 0.014309 -0.001982 -0.006037 0.001357 -0.002091 -0.000215
# 2 -0.001982 0.015849 -0.008205 0.005792 0.002027 0.004431
# 3 -0.006037 -0.008205 0.017515 -0.003740 -0.001491 -0.002155
# 4 0.001357 0.005792 -0.003740 0.031352 -0.001318 0.007170
# 5 -0.002091 0.002027 -0.001491 -0.001318 0.025597 -0.002285
# 6 -0.000215 0.004431 -0.002155 0.007170 -0.002285 0.039859
#
#
# Mechanical properties :
#
#
# Convention : Reuss Voigt Hill
#
# Bulk Modulus (GPa) = 65.67789 68.47358 67.07573
# Shear Modulus (GPa) = 27.47192 30.97757 29.22475
#
# Velocity S-wave (km/s) = 3.63703 3.86212 3.75126
# Velocity P-wave (km/s) = 7.01867 7.27039 7.14564
#
# Compressibility (1/GPa) = 0.01522582
#
# Stress axis : x y z
#
# Youngs Moduli (GPa) = 69.88833 63.09405 57.09284
#
# Poissons Ratio (x) = 0.12506 0.34466
# Poissons Ratio (y) = 0.13853 0.46842
# Poissons Ratio (z) = 0.42191 0.51766
#
# Static dielectric constant tensor:
#      x y z
#    x 3.838370 0.032220 -0.108750 
#    y 0.032220 4.119550 -0.208430 
#    z -0.108750 -0.208430 3.764830 
# 
# 
# High freq. dielectric constant tensor:
#      x y z
#    x 1.820330 -0.005020 -0.008300 
#    y -0.005020 1.828770 -0.007310 
#    z -0.008300 -0.007310 1.821930 
# 
# From -- ./inp_files/205524.got.cif
#   From: 2010.06.25/outbox.cif.g09.slc.cpg/sg2_103_cif.got.tgz:205524.got - 2010.06.27 13:26:56.
