data_PCOD8028135
_publ_section_title
;
Structure prediction by ZEFSAII (Michael W. Deem and Ramdas Pophale) SiO2 
 PCOD8028135
Probable space group: P -1
;
_chemical_formula_sum "Si O2"
_cell_formula_units_Z 14
_cell_length_a 9.180022
_cell_length_b 11.619534
_cell_length_c 19.989706
_cell_angle_alpha 145.935245
_cell_angle_beta 41.271485
_cell_angle_gamma 116.840844
_cell_volume 698.243238
_symmetry_space_group_name_H-M "P -1"
_symmetry_group_IT_number 2
_symmetry_cell_setting 'triclinic'
loop_
_space_group_symop_operation_xyz
x,y,z
-x,-y,-z
loop_
_atom_site_type_symbol
_atom_site_label
_atom_site_fract_x
_atom_site_fract_y
_atom_site_fract_z
Si Si1 0.087683 0.204050 0.225140
Si Si2 0.095343 0.731393 0.826215
Si Si3 0.594286 0.959024 0.522689
Si Si4 0.576526 0.395672 0.559837
Si Si5 0.881995 0.436107 0.827248
Si Si6 0.500558 0.419007 0.851909
Si Si7 0.542531 0.307552 0.129767
O O1 0.299328 0.272564 0.205040
O O2 0.971149 0.309784 0.245054
O O3 0.865098 0.322370 0.412399
O O4 0.207835 0.924726 0.049194
O O5 0.394730 0.596214 0.667995
O O6 0.964114 0.631936 0.875219
O O7 0.000000 0.000000 0.000000
O O8 0.462561 0.830409 0.546236
O O9 0.889730 0.804608 0.346683
O O10 0.500000 0.000000 0.500000
O O11 0.533413 0.193361 0.693911
O O12 0.496199 0.487645 0.707396
O O13 0.752690 0.383630 0.783398
O O14 0.709919 0.522288 0.992540
O O15 0.421401 0.627093 0.926359
#
# Coordination Sequence:
#
# PCOD8028135 Si02
#       7
#     2   2   2   2   2   2   2
#     4  11  24  42  65  92 124 169 204 256 317 369
#     4  11  22  43  64  92 129 159 210 257 304 379
#     4  11  24  40  63  95 127 159 210 263 308 372
#     4  11  24  41  63  95 125 165 204 259 319 366
#     4  10  25  44  64  91 125 172 210 254 315 369
#     4  11  23  44  66  89 126 171 210 256 311 375
#     4  11  23  42  65  93 127 159 213 260 306 380
#
# _framework density 20.050319999999999
#
# number of rings (size 3 to 8) (size 9 to 14) (size 15 to 20)
#    0.000    1.143    4.286    1.286    4.000    0.571 
#    0.000    1.429    0.000    0.000    0.000    0.000 
#    0.000    0.000    0.000    0.000    0.000    0.000 
#
# Total GULP energy -173648.933059 kJ/mol
# GULP energy per Si atom -12403.495218 kJ/mol
# Density = 2.000468 g / cm^3
# Si number density = 20.050320 Si / 1000 Ang^3
#
#
#
# Elastic Constant Matrix: (Units=GPa)
#
#
# Indices 1 2 3 4 5 6 
#
# 1 110.9696 32.2105 47.8824 -6.8186 -5.4898 -12.8798
# 2 32.2105 90.8226 49.8366 4.2320 -3.8151 -3.7325
# 3 47.8824 49.8366 96.7653 -2.7027 -3.2727 -3.0042
# 4 -6.8186 4.2320 -2.7027 25.7847 3.8980 0.5481
# 5 -5.4898 -3.8151 -3.2727 3.8980 36.2137 6.2196
# 6 -12.8798 -3.7325 -3.0042 0.5481 6.2196 34.9330
#
#
#
# Elastic Compliance Matrix: (Units=1/GPa)
#
#
# Indices 1 2 3 4 5 6 
#
# 1 0.012282 -0.001531 -0.005081 0.002843 0.000277 0.003834
# 2 -0.001531 0.015918 -0.007503 -0.003983 0.001135 0.000352
# 3 -0.005081 -0.007503 0.016720 0.001669 -0.000013 -0.001261
# 4 0.002843 -0.003983 0.001669 0.041010 -0.004408 0.000908
# 5 0.000277 0.001135 -0.000013 -0.004408 0.029088 -0.004888
# 6 0.003834 0.000352 -0.001261 0.000908 -0.004888 0.030825
#
#
# Mechanical properties :
#
#
# Convention : Reuss Voigt Hill
#
# Bulk Modulus (GPa) = 59.91564 62.04628 60.98096
# Shear Modulus (GPa) = 27.83421 30.62814 29.23118
#
# Velocity S-wave (km/s) = 3.72992 3.91265 3.82238
# Velocity P-wave (km/s) = 6.96400 7.17107 7.06829
#
# Compressibility (1/GPa) = 0.01669013
#
# Stress axis : x y z
#
# Youngs Moduli (GPa) = 81.42231 62.82197 59.81002
#
# Poissons Ratio (x) = 0.09617 0.30390
# Poissons Ratio (y) = 0.12465 0.44873
# Poissons Ratio (z) = 0.41371 0.47133
#
# Static dielectric constant tensor:
#      x y z
#    x 3.894650 -0.044700 -0.138450 
#    y -0.044700 3.736530 0.059210 
#    z -0.138450 0.059210 3.795090 
# 
# 
# High freq. dielectric constant tensor:
#      x y z
#    x 1.800800 -0.000180 -0.006930 
#    y -0.000180 1.786450 0.006010 
#    z -0.006930 0.006010 1.783350 
# 
# From -- ./inp_files/40266.got.cif
#   From: 2010.06.25/outbox.cif.g09.slc.cpg/sg2_21_cif.got.tgz:40266.got - 2010.06.27 13:26:56.
