data_PCOD8028615
_publ_section_title
;
Structure prediction by ZEFSAII (Michael W. Deem and Ramdas Pophale) SiO2 
 PCOD8028615
Probable space group: P -1
;
_chemical_formula_sum "Si O2"
_cell_formula_units_Z 14
_cell_length_a 14.793074
_cell_length_b 9.219868
_cell_length_c 8.869692
_cell_angle_alpha 134.308929
_cell_angle_beta 134.411934
_cell_angle_gamma 54.814782
_cell_volume 609.268377
_symmetry_space_group_name_H-M "P -1"
_symmetry_group_IT_number 2
_symmetry_cell_setting 'triclinic'
loop_
_space_group_symop_operation_xyz
x,y,z
-x,-y,-z
loop_
_atom_site_type_symbol
_atom_site_label
_atom_site_fract_x
_atom_site_fract_y
_atom_site_fract_z
Si Si1 0.754796 0.051634 0.137162
Si Si2 0.192103 0.406603 0.745445
Si Si3 0.756339 0.612148 0.711690
Si Si4 0.441199 0.562686 0.817710
Si Si5 0.925542 0.374494 0.525766
Si Si6 0.657150 0.398081 0.727741
Si Si7 0.633693 0.987518 0.240177
O O1 0.618081 0.198146 0.057344
O O2 0.876081 0.156458 0.311062
O O3 0.752253 0.997542 0.272001
O O4 0.761679 0.851161 0.898019
O O5 0.145745 0.470603 0.571505
O O6 0.077499 0.328648 0.646127
O O7 0.320362 0.226338 0.769113
O O8 0.230550 0.608800 0.020013
O O9 0.670482 0.569842 0.437567
O O10 0.896261 0.485061 0.735540
O O11 0.699154 0.528396 0.733790
O O12 0.530138 0.530327 0.749569
O O13 0.500000 0.500000 0.000000
O O14 0.627456 0.175266 0.487280
O O15 0.500000 0.000000 0.000000
#
# Coordination Sequence:
#
# PCOD8028615 Si02
#       7
#     2   2   2   2   2   2   2
#     4  11  23  42  67  97 136 178 223 285 333 404
#     4  11  26  45  72  98 136 186 220 292 341 398
#     4  11  23  41  68  97 132 179 227 284 333 409
#     4  11  24  40  64  99 141 177 224 283 342 405
#     4  10  25  49  66  99 142 174 234 280 343 403
#     4  12  23  42  69 100 135 180 228 280 343 402
#     4  12  25  42  70 106 136 177 228 280 346 404
#
# _framework density 22.978376999999998
#
# number of rings (size 3 to 8) (size 9 to 14) (size 15 to 20)
#    0.000    0.857    4.286    3.857    0.000    5.143 
#    0.000    2.857    0.000    0.000    0.000    0.000 
#    0.000    0.000    0.000    0.000    0.000    0.000 
#
# Total GULP energy -173492.796395 kJ/mol
# GULP energy per Si atom -12392.342600 kJ/mol
# Density = 2.292608 g / cm^3
# Si number density = 22.978377 Si / 1000 Ang^3
#
#
#
# Elastic Constant Matrix: (Units=GPa)
#
#
# Indices 1 2 3 4 5 6 
#
# 1 114.6345 13.0771 26.5398 14.9204 -0.2608 -2.1065
# 2 13.0771 94.7673 53.7477 21.6285 -4.2972 -10.3329
# 3 26.5398 53.7477 101.3212 33.6947 -9.4868 -16.5872
# 4 14.9204 21.6285 33.6947 47.1935 -5.0819 2.8444
# 5 -0.2608 -4.2972 -9.4868 -5.0819 29.9701 3.4237
# 6 -2.1065 -10.3329 -16.5872 2.8444 3.4237 24.5548
#
#
#
# Elastic Compliance Matrix: (Units=1/GPa)
#
#
# Indices 1 2 3 4 5 6 
#
# 1 0.009402 0.000236 -0.002176 -0.001599 -0.000814 -0.000265
# 2 0.000236 0.015268 -0.007207 -0.002113 -0.000667 0.001914
# 3 -0.002176 -0.007207 0.019796 -0.010578 0.002155 0.011078
# 4 -0.001599 -0.002113 -0.010578 0.031279 0.003034 -0.012219
# 5 -0.000814 -0.000667 0.002155 0.003034 0.034931 -0.004117
# 6 -0.000265 0.001914 0.011078 -0.012219 -0.004117 0.050981
#
#
# Mechanical properties :
#
#
# Convention : Reuss Voigt Hill
#
# Bulk Modulus (GPa) = 38.21022 55.27247 46.74134
# Shear Modulus (GPa) = 26.50068 34.83424 30.66746
#
# Velocity S-wave (km/s) = 3.39969 3.89775 3.65721
# Velocity P-wave (km/s) = 5.66352 6.66055 6.18217
#
# Compressibility (1/GPa) = 0.02617101
#
# Stress axis : x y z
#
# Youngs Moduli (GPa) = 106.36560 65.49625 50.51552
#
# Poissons Ratio (x) = -0.01543 0.10990
# Poissons Ratio (y) = -0.02506 0.36408
# Poissons Ratio (z) = 0.23141 0.47205
#
# Static dielectric constant tensor:
#      x y z
#    x 4.704710 0.117080 0.312070 
#    y 0.117080 4.215190 0.338320 
#    z 0.312070 0.338320 4.671750 
# 
# 
# High freq. dielectric constant tensor:
#      x y z
#    x 1.925290 0.004300 0.005340 
#    y 0.004300 1.891290 0.006640 
#    z 0.005340 0.006640 1.913650 
# 
# From -- ./inp_files/297008.got.cif
#   From: 2010.06.25/outbox.cif.g09.slc.cpg/sg2_149_cif.got.tgz:297008.got - 2010.06.27 13:26:56.
