data_PCOD8028831
_publ_section_title
;
Structure prediction by ZEFSAII (Michael W. Deem and Ramdas Pophale) SiO2 
 PCOD8028831
Probable space group: P -1
;
_chemical_formula_sum "Si O2"
_cell_formula_units_Z 16
_cell_length_a 15.485144
_cell_length_b 14.461794
_cell_length_c 11.494460
_cell_angle_alpha 116.398092
_cell_angle_beta 144.457523
_cell_angle_gamma 39.346345
_cell_volume 821.049630
_symmetry_space_group_name_H-M "P -1"
_symmetry_group_IT_number 2
_symmetry_cell_setting 'triclinic'
loop_
_space_group_symop_operation_xyz
x,y,z
-x,-y,-z
loop_
_atom_site_type_symbol
_atom_site_label
_atom_site_fract_x
_atom_site_fract_y
_atom_site_fract_z
Si Si1 0.148151 0.289909 0.554008
Si Si2 0.495558 0.211834 0.067650
Si Si3 0.293606 0.385897 0.628157
Si Si4 0.189283 0.610344 0.471972
Si Si5 0.567960 0.541250 0.756635
Si Si6 0.801052 0.093638 0.121357
Si Si7 0.868709 0.270370 0.758823
Si Si8 0.854444 0.912399 0.455600
O O1 0.237893 0.293425 0.532804
O O2 0.197151 0.140137 0.524552
O O3 0.862949 0.470554 0.362035
O O4 0.294106 0.258260 0.805344
O O5 0.369246 0.384661 0.074356
O O6 0.723265 0.116745 0.182303
O O7 0.599920 0.087589 0.219370
O O8 0.225586 0.471309 0.475666
O O9 0.574829 0.254188 0.885990
O O10 0.450181 0.526346 0.712997
O O11 0.077618 0.675204 0.255286
O O12 0.011634 0.767077 0.450902
O O13 0.815199 0.358465 0.870610
O O14 0.369112 0.666019 0.504614
O O15 0.005357 0.068204 0.326102
O O16 0.905814 0.930201 0.090382
#
# Coordination Sequence:
#
# PCOD8028831 Si02
#       8
#     2   2   2   2   2   2   2   2
#     4   9  21  32  45  76 114 139 163 207 257 306
#     4  11  17  32  53  82 104 132 169 214 257 305
#     4   9  20  35  47  75 107 142 168 205 254 311
#     4   9  16  30  50  75 102 135 165 207 259 300
#     4   9  17  30  53  80 105 126 168 216 264 294
#     4  11  18  31  56  83 102 127 172 220 254 299
#     4   9  17  31  52  83 103 126 164 229 254 294
#     4  11  17  29  52  82 107 128 170 214 261 292
#
# _framework density 19.487251000000001
#
# number of rings (size 3 to 8) (size 9 to 14) (size 15 to 20)
#    0.750    1.500    3.750    0.750    0.000    2.000 
#    2.250    0.625    0.000    3.750   13.000    0.000 
#    0.000    0.000    0.000    0.000    0.000    0.000 
#
# Total GULP energy -198250.933975 kJ/mol
# GULP energy per Si atom -12390.683373 kJ/mol
# Density = 1.944290 g / cm^3
# Si number density = 19.487251 Si / 1000 Ang^3
#
#
#
# Elastic Constant Matrix: (Units=GPa)
#
#
# Indices 1 2 3 4 5 6 
#
# 1 77.9097 57.5087 13.1411 -1.3457 7.8894 26.1865
# 2 57.5087 117.6700 35.1526 -8.2851 5.0076 12.2566
# 3 13.1411 35.1526 63.7113 -13.2545 1.4414 8.1984
# 4 -1.3457 -8.2851 -13.2545 19.2011 3.5073 -0.3467
# 5 7.8894 5.0076 1.4414 3.5073 7.0984 -0.7035
# 6 26.1865 12.2566 8.1984 -0.3467 -0.7035 38.0627
#
#
#
# Elastic Compliance Matrix: (Units=1/GPa)
#
#
# Indices 1 2 3 4 5 6 
#
# 1 0.031240 -0.013110 0.005028 0.005325 -0.030996 -0.018879
# 2 -0.013110 0.016256 -0.006959 0.000513 0.004795 0.005377
# 3 0.005028 -0.006959 0.022829 0.015476 -0.013581 -0.006246
# 4 0.005325 0.000513 0.015476 0.071536 -0.045497 -0.007351
# 5 -0.030996 0.004795 -0.013581 -0.045497 0.199757 0.025984
# 6 -0.018879 0.005377 -0.006246 -0.007351 0.025984 0.039288
#
#
# Mechanical properties :
#
#
# Convention : Reuss Voigt Hill
#
# Bulk Modulus (GPa) = 24.84831 52.32175 38.58503
# Shear Modulus (GPa) = 11.78124 23.10500 17.44312
#
# Velocity S-wave (km/s) = 2.46145 3.44706 2.99507
# Velocity P-wave (km/s) = 4.56695 6.53838 5.63948
#
# Compressibility (1/GPa) = 0.04024419
#
# Stress axis : x y z
#
# Youngs Moduli (GPa) = 32.00983 61.51424 43.80384
#
# Poissons Ratio (x) = 0.80643 -0.22024
# Poissons Ratio (y) = 0.41964 0.30483
# Poissons Ratio (z) = -0.16094 0.42808
#
# Static dielectric constant tensor:
#      x y z
#    x 3.632810 0.373340 0.140760 
#    y 0.373340 3.524930 -0.187290 
#    z 0.140760 -0.187290 3.232210 
# 
# 
# High freq. dielectric constant tensor:
#      x y z
#    x 1.737030 0.028830 0.012990 
#    y 0.028830 1.742370 -0.022750 
#    z 0.012990 -0.022750 1.732280 
# 
# From -- ./inp_files/538578.got.cif
#   From: 2010.06.25/outbox.cif.g09.slc.cpg/sg2_270_cif.got.tgz:538578.got - 2010.06.27 13:26:56.
