data_PCOD8028794
_publ_section_title
;
Structure prediction by ZEFSAII (Michael W. Deem and Ramdas Pophale) SiO2 
 PCOD8028794
Probable space group: P -1
;
_chemical_formula_sum "Si O2"
_cell_formula_units_Z 16
_cell_length_a 10.206635
_cell_length_b 12.055264
_cell_length_c 10.322507
_cell_angle_alpha 64.989928
_cell_angle_beta 142.225307
_cell_angle_gamma 117.730382
_cell_volume 685.113506
_symmetry_space_group_name_H-M "P -1"
_symmetry_group_IT_number 2
_symmetry_cell_setting 'triclinic'
loop_
_space_group_symop_operation_xyz
x,y,z
-x,-y,-z
loop_
_atom_site_type_symbol
_atom_site_label
_atom_site_fract_x
_atom_site_fract_y
_atom_site_fract_z
Si Si1 0.262812 0.522317 0.082553
Si Si2 0.042765 0.714127 0.945802
Si Si3 0.297573 0.300858 0.686675
Si Si4 0.894979 0.414726 0.341662
Si Si5 0.001774 0.146156 0.910334
Si Si6 0.450537 0.230611 0.106447
Si Si7 0.327870 0.948690 0.501660
Si Si8 0.873777 0.890006 0.550114
O O1 0.126802 0.511729 0.845563
O O2 0.216196 0.633434 0.082896
O O3 0.192136 0.387535 0.164667
O O4 0.527423 0.563486 0.251569
O O5 0.035997 0.809875 0.776141
O O6 0.112920 0.796950 0.089524
O O7 0.314432 0.207366 0.628050
O O8 0.048101 0.317692 0.484249
O O9 0.348911 0.225107 0.888109
O O10 0.646648 0.352275 0.223107
O O11 0.000000 0.500000 0.500000
O O12 0.868752 0.155492 0.668774
O O13 0.253376 0.228155 0.055175
O O14 0.000000 0.000000 0.000000
O O15 0.553811 0.110177 0.263208
O O16 0.500000 0.000000 0.500000
O O17 0.236221 0.059594 0.438089
O O18 0.000000 0.000000 0.500000
#
# Coordination Sequence:
#
# PCOD8028794 Si02
#       8
#     2   2   2   2   2   2   2   2
#     4  10  26  48  72 104 143 195 243 302 367 437
#     4  11  25  48  69 106 149 187 251 298 364 445
#     4  11  26  46  74 102 143 188 243 304 366 441
#     4  11  25  46  73 104 137 185 244 304 369 434
#     4  12  24  44  72 103 149 193 237 306 365 441
#     4  11  25  44  70 103 144 183 242 298 368 441
#     4  12  26  45  68 110 145 193 246 293 375 440
#     4  12  25  45  76 103 150 194 242 307 367 447
#
# _framework density 23.353795000000002
#
# number of rings (size 3 to 8) (size 9 to 14) (size 15 to 20)
#    0.000    0.750    3.750    2.250    8.750    2.000 
#    0.000    0.000    0.000    0.000    0.000    0.000 
#    0.000    0.000    0.000    0.000    0.000    0.000 
#
# Total GULP energy -198367.012204 kJ/mol
# GULP energy per Si atom -12397.938263 kJ/mol
# Density = 2.330064 g / cm^3
# Si number density = 23.353795 Si / 1000 Ang^3
#
#
#
# Elastic Constant Matrix: (Units=GPa)
#
#
# Indices 1 2 3 4 5 6 
#
# 1 113.9446 46.7554 33.4096 14.4441 -4.9608 -5.5717
# 2 46.7554 91.6706 31.8776 4.6256 -10.7003 -2.9224
# 3 33.4096 31.8776 109.5620 11.4009 -6.6906 4.4104
# 4 14.4441 4.6256 11.4009 43.1812 1.2900 -8.9016
# 5 -4.9608 -10.7003 -6.6906 1.2900 34.6962 8.7765
# 6 -5.5717 -2.9224 4.4104 -8.9016 8.7765 55.3448
#
#
#
# Elastic Compliance Matrix: (Units=1/GPa)
#
#
# Indices 1 2 3 4 5 6 
#
# 1 0.011852 -0.005287 -0.001837 -0.002764 -0.000358 0.000673
# 2 -0.005287 0.014852 -0.002592 0.000777 0.003280 0.000063
# 3 -0.001837 -0.002592 0.010861 -0.002399 0.001583 -0.001824
# 4 -0.002764 0.000777 -0.002399 0.025643 -0.002712 0.004508
# 5 -0.000358 0.003280 0.001583 -0.002712 0.031562 -0.005430
# 6 0.000673 0.000063 -0.001824 0.004508 -0.005430 0.019871
#
#
# Mechanical properties :
#
#
# Convention : Reuss Voigt Hill
#
# Bulk Modulus (GPa) = 55.14843 59.91803 57.53323
# Shear Modulus (GPa) = 35.68405 40.18676 37.93540
#
# Velocity S-wave (km/s) = 3.91317 4.15273 4.03473
# Velocity P-wave (km/s) = 6.63949 6.97896 6.81134
#
# Compressibility (1/GPa) = 0.01813288
#
# Stress axis : x y z
#
# Youngs Moduli (GPa) = 84.37439 67.32997 92.06897
#
# Poissons Ratio (x) = 0.35597 0.16915
# Poissons Ratio (y) = 0.44608 0.23867
# Poissons Ratio (z) = 0.15501 0.17454
#
# Static dielectric constant tensor:
#      x y z
#    x 4.388300 0.141470 -0.037860 
#    y 0.141470 4.594160 -0.007900 
#    z -0.037860 -0.007900 4.536050 
# 
# 
# High freq. dielectric constant tensor:
#      x y z
#    x 1.932990 0.002420 -0.009050 
#    y 0.002420 1.921930 0.003040 
#    z -0.009050 0.003040 1.923460 
# 
# From -- ./inp_files/427927.got.cif
#   From: 2010.06.25/outbox.cif.g09.slc.cpg/sg2_214_cif.got.tgz:427927.got - 2010.06.27 13:26:56.
