data_PCOD8028302
_publ_section_title
;
Structure prediction by ZEFSAII (Michael W. Deem and Ramdas Pophale) SiO2 
 PCOD8028302
Probable space group: P -1
;
_chemical_formula_sum "Si O2"
_cell_formula_units_Z 16
_cell_length_a 9.093378
_cell_length_b 11.684866
_cell_length_c 8.427242
_cell_angle_alpha 113.155014
_cell_angle_beta 75.574966
_cell_angle_gamma 116.032189
_cell_volume 736.595821
_symmetry_space_group_name_H-M "P -1"
_symmetry_group_IT_number 2
_symmetry_cell_setting 'triclinic'
loop_
_space_group_symop_operation_xyz
x,y,z
-x,-y,-z
loop_
_atom_site_type_symbol
_atom_site_label
_atom_site_fract_x
_atom_site_fract_y
_atom_site_fract_z
Si Si1 0.013402 0.481117 0.171780
Si Si2 0.928779 0.838762 0.735380
Si Si3 0.307543 0.403404 0.148199
Si Si4 0.203430 0.945260 0.179507
Si Si5 0.526827 0.894000 0.551226
Si Si6 0.049817 0.269246 0.656520
Si Si7 0.608634 0.661082 0.243848
Si Si8 0.778224 0.199003 0.194327
O O1 0.185523 0.470682 0.154543
O O2 0.010299 0.615394 0.329330
O O3 0.861585 0.355294 0.211986
O O4 0.000000 0.500000 0.000000
O O5 0.773438 0.706184 0.754504
O O6 0.965935 0.832673 0.536757
O O7 0.088872 0.855241 0.801158
O O8 0.885059 0.968903 0.840028
O O9 0.461699 0.520819 0.250439
O O10 0.362681 0.331428 0.949450
O O11 0.061852 0.812403 0.213886
O O12 0.325713 0.030648 0.327820
O O13 0.296015 0.891356 0.991926
O O14 0.569338 0.789090 0.375335
O O15 0.363288 0.815234 0.651004
O O16 0.500000 0.000000 0.500000
O O17 0.234614 0.340878 0.706945
#
# Coordination Sequence:
#
# PCOD8028302 Si02
#       8
#     2   2   2   2   2   2   2   2
#     4  11  22  45  73 100 133 177 229 283 337 406
#     4  11  25  43  72 100 133 176 231 284 336 409
#     4  10  25  45  70 101 131 183 221 285 340 399
#     4  12  25  47  70  98 139 181 229 277 347 404
#     4  12  29  45  68 103 141 183 225 287 337 406
#     4  12  24  43  72  99 133 181 227 281 340 403
#     4  11  25  46  65  98 137 175 231 269 347 400
#     4  11  26  45  70 103 135 183 228 278 345 404
#
# _framework density 21.721547999999999
#
# number of rings (size 3 to 8) (size 9 to 14) (size 15 to 20)
#    0.000    0.750    3.750    2.625    8.750    2.500 
#    0.000    0.000    0.000    0.000    0.000    0.000 
#    0.000    0.000    0.000    0.000    0.000    0.000 
#
# Total GULP energy -198495.358606 kJ/mol
# GULP energy per Si atom -12405.959913 kJ/mol
# Density = 2.167211 g / cm^3
# Si number density = 21.721548 Si / 1000 Ang^3
#
#
#
# Elastic Constant Matrix: (Units=GPa)
#
#
# Indices 1 2 3 4 5 6 
#
# 1 99.0923 73.6397 27.7045 2.8903 -7.7190 5.6395
# 2 73.6397 123.9072 37.2912 -0.5901 -10.6267 -4.3441
# 3 27.7045 37.2912 81.6246 6.1378 -4.2731 10.4951
# 4 2.8903 -0.5901 6.1378 38.6159 0.4947 -0.8501
# 5 -7.7190 -10.6267 -4.2731 0.4947 34.1578 0.5720
# 6 5.6395 -4.3441 10.4951 -0.8501 0.5720 35.7601
#
#
#
# Elastic Compliance Matrix: (Units=1/GPa)
#
#
# Indices 1 2 3 4 5 6 
#
# 1 0.018874 -0.011112 -0.000628 -0.001585 0.000823 -0.004193
# 2 -0.011112 0.016343 -0.004383 0.001864 0.001914 0.005038
# 3 -0.000628 -0.004383 0.015331 -0.002574 0.000534 -0.005003
# 4 -0.001585 0.001864 -0.002574 0.026500 -0.000515 0.001870
# 5 0.000823 0.001914 0.000534 -0.000515 0.030141 -0.000548
# 6 -0.004193 0.005038 -0.005003 0.001870 -0.000548 0.030759
#
#
# Mechanical properties :
#
#
# Convention : Reuss Voigt Hill
#
# Bulk Modulus (GPa) = 54.63602 64.65500 59.64551
# Shear Modulus (GPa) = 28.36158 32.77266 30.56712
#
# Velocity S-wave (km/s) = 3.61735 3.88849 3.75537
# Velocity P-wave (km/s) = 6.53104 7.07040 6.80606
#
# Compressibility (1/GPa) = 0.01830294
#
# Stress axis : x y z
#
# Youngs Moduli (GPa) = 52.98300 61.18730 65.22558
#
# Poissons Ratio (x) = 0.67992 0.04096
# Poissons Ratio (y) = 0.58875 0.28587
# Poissons Ratio (z) = 0.03327 0.26817
#
# Static dielectric constant tensor:
#      x y z
#    x 4.018520 -0.043210 -0.154100 
#    y -0.043210 4.022560 0.009800 
#    z -0.154100 0.009800 4.209820 
# 
# 
# High freq. dielectric constant tensor:
#      x y z
#    x 1.854050 0.001090 -0.004670 
#    y 0.001090 1.862160 0.003500 
#    z -0.004670 0.003500 1.869320 
# 
# From -- ./inp_files/189896.got.cif
#   From: 2010.06.25/outbox.cif.g09.slc.cpg/sg2_95_cif.got.tgz:189896.got - 2010.06.27 13:26:56.
