data_PCOD8028951
_publ_section_title
;
Structure prediction by ZEFSAII (Michael W. Deem and Ramdas Pophale) SiO2 
 PCOD8028951
Probable space group: P -1
;
_chemical_formula_sum "Si O2"
_cell_formula_units_Z 16
_cell_length_a 13.150011
_cell_length_b 8.359160
_cell_length_c 10.400459
_cell_angle_alpha 104.196274
_cell_angle_beta 114.325649
_cell_angle_gamma 120.550330
_cell_volume 731.245694
_symmetry_space_group_name_H-M "P -1"
_symmetry_group_IT_number 2
_symmetry_cell_setting 'triclinic'
loop_
_space_group_symop_operation_xyz
x,y,z
-x,-y,-z
loop_
_atom_site_type_symbol
_atom_site_label
_atom_site_fract_x
_atom_site_fract_y
_atom_site_fract_z
Si Si1 0.339496 0.742396 0.866048
Si Si2 0.940002 0.307911 0.243736
Si Si3 0.160760 0.092560 0.045496
Si Si4 0.945807 0.339588 0.819696
Si Si5 0.247090 0.475331 0.018002
Si Si6 0.233019 0.452886 0.509815
Si Si7 0.694806 0.819635 0.604293
Si Si8 0.590515 0.262805 0.592608
O O1 0.200870 0.734136 0.775687
O O2 0.327418 0.606587 0.713519
O O3 0.342851 0.633962 0.975724
O O4 0.500000 0.000000 0.000000
O O5 0.059280 0.554248 0.288398
O O6 0.049425 0.313878 0.398654
O O7 0.866036 0.118862 0.057819
O O8 0.242593 0.275786 0.007642
O O9 0.287408 0.225482 0.249755
O O10 0.000000 0.000000 0.000000
O O11 0.783619 0.083855 0.692339
O O12 0.000000 0.500000 0.000000
O O13 0.070448 0.325121 0.863238
O O14 0.301592 0.628067 0.203867
O O15 0.246867 0.267619 0.475669
O O16 0.303872 0.614677 0.453989
O O17 0.519706 0.688527 0.455122
O O18 0.500000 0.000000 0.500000
#
# Coordination Sequence:
#
# PCOD8028951 Si02
#       8
#     2   2   2   2   2   2   2   2
#     4  11  28  47  68  94 138 188 229 276 337 405
#     4  11  23  41  71  94 136 179 228 274 335 405
#     4  12  20  40  71 107 133 170 224 282 343 401
#     4  11  19  35  64 100 129 169 219 271 335 400
#     4  11  23  42  63  96 130 178 223 272 338 400
#     4  12  24  46  65 100 137 178 226 280 338 404
#     4  12  24  38  69 105 139 170 219 287 343 390
#     4  12  25  40  67 101 136 169 226 287 339 393
#
# _framework density 21.880469000000002
#
# number of rings (size 3 to 8) (size 9 to 14) (size 15 to 20)
#    0.000    0.500    5.000    3.750    3.500    0.000 
#    0.000   10.625    0.000    0.000    0.000    0.000 
#    0.000    0.000    0.000    0.000    0.000    0.000 
#
# Total GULP energy -198306.135315 kJ/mol
# GULP energy per Si atom -12394.133457 kJ/mol
# Density = 2.183067 g / cm^3
# Si number density = 21.880469 Si / 1000 Ang^3
#
#
#
# Elastic Constant Matrix: (Units=GPa)
#
#
# Indices 1 2 3 4 5 6 
#
# 1 95.0128 40.2846 31.9339 1.3868 5.1125 -10.5720
# 2 40.2846 121.7666 34.6879 1.0378 -2.0749 4.4528
# 3 31.9339 34.6879 111.2868 -0.1961 -16.4880 0.1489
# 4 1.3868 1.0378 -0.1961 36.6422 -3.6181 -3.0168
# 5 5.1125 -2.0749 -16.4880 -3.6181 40.5186 0.5088
# 6 -10.5720 4.4528 0.1489 -3.0168 0.5088 33.0493
#
#
#
# Elastic Compliance Matrix: (Units=1/GPa)
#
#
# Indices 1 2 3 4 5 6 
#
# 1 0.014069 -0.003949 -0.003321 -0.000359 -0.003424 0.005067
# 2 -0.003949 0.010196 -0.002012 -0.000349 0.000204 -0.002663
# 3 -0.003321 -0.002012 0.011307 0.000665 0.004987 -0.000858
# 4 -0.000359 -0.000349 0.000665 0.027789 0.002749 0.002423
# 5 -0.003424 0.000204 0.004987 0.002749 0.027414 -0.001317
# 6 0.005067 -0.002663 -0.000858 0.002423 -0.001317 0.032483
#
#
# Mechanical properties :
#
#
# Convention : Reuss Voigt Hill
#
# Bulk Modulus (GPa) = 58.79456 60.20878 59.50167
# Shear Modulus (GPa) = 33.90059 36.78600 35.34330
#
# Velocity S-wave (km/s) = 3.94045 4.10472 4.02343
# Velocity P-wave (km/s) = 6.90160 7.07403 6.98834
#
# Compressibility (1/GPa) = 0.01700838
#
# Stress axis : x y z
#
# Youngs Moduli (GPa) = 71.07951 98.07966 88.44083
#
# Poissons Ratio (x) = 0.38732 0.29371
# Poissons Ratio (y) = 0.28069 0.17791
# Poissons Ratio (z) = 0.23605 0.19730
#
# Static dielectric constant tensor:
#      x y z
#    x 4.061640 -0.237590 0.207230 
#    y -0.237590 3.969690 0.140310 
#    z 0.207230 0.140310 3.997980 
# 
# 
# High freq. dielectric constant tensor:
#      x y z
#    x 1.853680 -0.018080 0.018320 
#    y -0.018080 1.866930 0.014380 
#    z 0.018320 0.014380 1.861530 
# 
# From -- ./inp_files/272369.got.cif
#   From: 2010.06.25/outbox.cif.g09.slc.cpg/sg2_137_cif.got.tgz:272369.got - 2010.06.27 13:26:56.
