data_PCOD8028936
_publ_section_title
;
Structure prediction by ZEFSAII (Michael W. Deem and Ramdas Pophale) SiO2 
 PCOD8028936
Probable space group: P -1
;
_chemical_formula_sum "Si O2"
_cell_formula_units_Z 16
_cell_length_a 9.104449
_cell_length_b 11.981617
_cell_length_c 22.095109
_cell_angle_alpha 38.559643
_cell_angle_beta 137.265510
_cell_angle_gamma 107.323770
_cell_volume 771.376349
_symmetry_space_group_name_H-M "P -1"
_symmetry_group_IT_number 2
_symmetry_cell_setting 'triclinic'
loop_
_space_group_symop_operation_xyz
x,y,z
-x,-y,-z
loop_
_atom_site_type_symbol
_atom_site_label
_atom_site_fract_x
_atom_site_fract_y
_atom_site_fract_z
Si Si1 0.888943 0.698476 0.156823
Si Si2 0.493492 0.396879 0.867543
Si Si3 0.457069 0.373011 0.313578
Si Si4 0.529073 0.248044 0.520113
Si Si5 0.812007 0.742295 0.799883
Si Si6 0.627337 0.529696 0.968709
Si Si7 0.794645 0.804656 0.949574
Si Si8 0.065764 0.936690 0.185288
O O1 0.698562 0.672522 0.151328
O O2 0.192210 0.439684 0.347019
O O3 0.919886 0.868128 0.128597
O O4 0.720548 0.828543 0.988275
O O5 0.386369 0.551460 0.707717
O O6 0.465487 0.551711 0.849575
O O7 0.825410 0.165710 0.056195
O O8 0.617334 0.249451 0.477473
O O9 0.449492 0.206345 0.337521
O O10 0.131054 0.595530 0.133898
O O11 0.705440 0.278224 0.607598
O O12 0.653768 0.982990 0.687681
O O13 0.037584 0.704388 0.836300
O O14 0.000000 0.500000 0.000000
O O15 0.500000 0.500000 0.000000
O O16 0.610290 0.755345 0.877635
O O17 0.745352 0.031254 0.813493
#
# Coordination Sequence:
#
# PCOD8028936 Si02
#       8
#     2   2   2   2   2   2   2   2
#     4  11  23  40  59  93 126 157 205 265 302 346
#     4  11  21  40  62  90 123 160 205 253 307 364
#     4   9  20  35  58  87 123 157 195 246 307 367
#     4  11  22  39  59  89 121 163 206 247 304 364
#     4  11  19  38  64  88 118 163 205 238 301 383
#     4  11  19  34  62  92 120 147 201 258 307 353
#     4   9  20  36  63  89 116 160 208 249 296 367
#     4  11  22  40  65  85 119 171 215 243 294 371
#
# _framework density 20.742146000000002
#
# number of rings (size 3 to 8) (size 9 to 14) (size 15 to 20)
#    0.000    1.500    3.750    3.000    0.000    0.000 
#    0.000    5.000    0.000    0.000    0.000    0.000 
#    0.000    0.000    0.000    0.000    0.000    0.000 
#
# Total GULP energy -198266.151821 kJ/mol
# GULP energy per Si atom -12391.634489 kJ/mol
# Density = 2.069494 g / cm^3
# Si number density = 20.742146 Si / 1000 Ang^3
#
#
#
# Elastic Constant Matrix: (Units=GPa)
#
#
# Indices 1 2 3 4 5 6 
#
# 1 143.2013 35.6233 31.8132 -2.6958 -18.9938 10.7082
# 2 35.6233 109.6718 23.3677 5.8379 -21.9138 6.9860
# 3 31.8132 23.3677 67.5078 7.5556 -16.8393 -6.5888
# 4 -2.6958 5.8379 7.5556 19.3948 -4.9094 -1.7973
# 5 -18.9938 -21.9138 -16.8393 -4.9094 23.2598 -1.0257
# 6 10.7082 6.9860 -6.5888 -1.7973 -1.0257 34.2096
#
#
#
# Elastic Compliance Matrix: (Units=1/GPa)
#
#
# Indices 1 2 3 4 5 6 
#
# 1 0.008914 -0.001350 -0.003377 0.003769 0.004233 -0.002840
# 2 -0.001350 0.011769 -0.001339 -0.001202 0.008672 -0.002042
# 3 -0.003377 -0.001339 0.020427 -0.005016 0.009945 0.005299
# 4 0.003769 -0.001202 -0.005016 0.057175 0.010444 0.001417
# 5 0.004233 0.008672 0.009945 0.010444 0.064080 0.001289
# 6 -0.002840 -0.002042 0.005299 0.001417 0.001289 0.031671
#
#
# Mechanical properties :
#
#
# Convention : Reuss Voigt Hill
#
# Bulk Modulus (GPa) = 34.50821 55.77661 45.14241
# Shear Modulus (GPa) = 23.16673 30.67795 26.92234
#
# Velocity S-wave (km/s) = 3.34562 3.84997 3.60662
# Velocity P-wave (km/s) = 5.62113 6.83461 6.25735
#
# Compressibility (1/GPa) = 0.02897861
#
# Stress axis : x y z
#
# Youngs Moduli (GPa) = 112.18481 84.97066 48.95469
#
# Poissons Ratio (x) = 0.11470 0.16530
# Poissons Ratio (y) = 0.15143 0.06556
# Poissons Ratio (z) = 0.37880 0.11379
#
# Static dielectric constant tensor:
#      x y z
#    x 4.036110 -0.132910 -0.234710 
#    y -0.132910 3.918100 0.129870 
#    z -0.234710 0.129870 3.469100 
# 
# 
# High freq. dielectric constant tensor:
#      x y z
#    x 1.813090 -0.009510 -0.019150 
#    y -0.009510 1.822310 0.009030 
#    z -0.019150 0.009030 1.771990 
# 
# From -- ./inp_files/347638.got.cif
#   From: 2010.06.25/outbox.cif.g09.slc.cpg/sg2_174_cif.got.tgz:347638.got - 2010.06.27 13:26:56.
