data_PCOD8028521
_publ_section_title
;
Structure prediction by ZEFSAII (Michael W. Deem and Ramdas Pophale) SiO2 
 PCOD8028521
Probable space group: P -1
;
_chemical_formula_sum "Si O2"
_cell_formula_units_Z 12
_cell_length_a 14.701630
_cell_length_b 11.293930
_cell_length_c 12.010975
_cell_angle_alpha 155.182859
_cell_angle_beta 36.733182
_cell_angle_gamma 145.801300
_cell_volume 459.476553
_symmetry_space_group_name_H-M "P -1"
_symmetry_group_IT_number 2
_symmetry_cell_setting 'triclinic'
loop_
_space_group_symop_operation_xyz
x,y,z
-x,-y,-z
loop_
_atom_site_type_symbol
_atom_site_label
_atom_site_fract_x
_atom_site_fract_y
_atom_site_fract_z
Si Si1 0.651495 0.401662 0.032968
Si Si2 0.059164 0.772993 0.381438
Si Si3 0.308023 0.361086 0.038936
Si Si4 0.848600 0.601528 0.246030
Si Si5 0.198552 0.665468 0.592170
Si Si6 0.560929 0.281453 0.400299
O O1 0.808216 0.370515 0.922582
O O2 0.718299 0.637190 0.066285
O O3 0.556840 0.074962 0.789109
O O4 0.542119 0.501385 0.310573
O O5 0.904747 0.765785 0.452756
O O6 0.985738 0.573163 0.393400
O O7 0.161670 0.141861 0.614154
O O8 0.227148 0.566640 0.356628
O O9 0.500000 0.500000 0.000000
O O10 0.210276 0.011290 0.876057
O O11 0.667444 0.344729 0.235201
O O12 0.000000 0.500000 0.000000
O O13 0.336388 0.648687 0.526526
#
# Coordination Sequence:
#
# PCOD8028521 Si02
#       6
#     2   2   2   2   2   2
#     4  12  26  42  67 103 136 169 219 281 319 387
#     4  10  27  44  66  99 133 169 223 276 332 386
#     4  12  22  40  68  99 133 175 221 261 326 386
#     4  10  25  47  71  92 129 180 220 270 336 402
#     4  11  23  42  69  95 131 184 216 261 323 401
#     4  11  24  42  70  98 132 176 221 267 331 387
#
# _framework density 26.116675999999998
#
# number of rings (size 3 to 8) (size 9 to 14) (size 15 to 20)
#    0.000    1.000    3.333    1.500   14.000    2.667 
#    0.000    0.000    0.000    0.000    0.000    0.000 
#    0.000    0.000    0.000    0.000    0.000    0.000 
#
# Total GULP energy -148740.053677 kJ/mol
# GULP energy per Si atom -12395.004473 kJ/mol
# Density = 2.605723 g / cm^3
# Si number density = 26.116676 Si / 1000 Ang^3
#
#
#
# Elastic Constant Matrix: (Units=GPa)
#
#
# Indices 1 2 3 4 5 6 
#
# 1 95.6325 22.2716 12.5322 -2.6408 -22.3937 -8.4749
# 2 22.2716 153.0613 62.4222 6.3978 -14.2047 -16.5003
# 3 12.5322 62.4222 166.2816 -1.3522 -5.8877 1.1063
# 4 -2.6408 6.3978 -1.3522 53.8798 -2.7696 -2.5879
# 5 -22.3937 -14.2047 -5.8877 -2.7696 33.2905 -3.1211
# 6 -8.4749 -16.5003 1.1063 -2.5879 -3.1211 19.8113
#
#
#
# Elastic Compliance Matrix: (Units=1/GPa)
#
#
# Indices 1 2 3 4 5 6 
#
# 1 0.013569 -0.000022 -0.000704 0.001519 0.009830 0.007572
# 2 -0.000022 0.009224 -0.003378 -0.000567 0.004066 0.008428
# 3 -0.000704 -0.003378 0.007329 0.000328 -0.000932 -0.003628
# 4 0.001519 -0.000567 0.000328 0.018996 0.002706 0.003067
# 5 0.009830 0.004066 -0.000932 0.002706 0.039784 0.014265
# 6 0.007572 0.008428 -0.003628 0.003067 0.014265 0.063585
#
#
# Mechanical properties :
#
#
# Convention : Reuss Voigt Hill
#
# Bulk Modulus (GPa) = 45.63443 67.71418 56.67430
# Shear Modulus (GPa) = 29.76214 42.57961 36.17088
#
# Velocity S-wave (km/s) = 3.37943 4.04215 3.72556
# Velocity P-wave (km/s) = 5.72177 6.91153 6.34460
#
# Compressibility (1/GPa) = 0.02191328
#
# Stress axis : x y z
#
# Youngs Moduli (GPa) = 73.69788 108.41717 136.44890
#
# Poissons Ratio (x) = 0.00239 0.09611
# Poissons Ratio (y) = 0.00163 0.46087
# Poissons Ratio (z) = 0.05191 0.36619
#
# Static dielectric constant tensor:
#      x y z
#    x 6.411350 0.249450 -0.062600 
#    y 0.249450 5.197130 0.078490 
#    z -0.062600 0.078490 4.633640 
# 
# 
# High freq. dielectric constant tensor:
#      x y z
#    x 2.057310 0.001520 0.001660 
#    y 0.001520 2.055930 0.003820 
#    z 0.001660 0.003820 2.054990 
# 
# From -- ./inp_files/24941.got.cif
#   From: 2010.06.25/outbox.cif.g09.slc.cpg/sg2_13_cif.got.tgz:24941.got - 2010.06.27 13:26:56.
