data_PCOD8028225
_publ_section_title
;
Structure prediction by ZEFSAII (Michael W. Deem and Ramdas Pophale) SiO2 
 PCOD8028225
Probable space group: P -1
;
_chemical_formula_sum "Si O2"
_cell_formula_units_Z 16
_cell_length_a 14.903684
_cell_length_b 8.557450
_cell_length_c 11.653098
_cell_angle_alpha 40.131938
_cell_angle_beta 96.234469
_cell_angle_gamma 119.644926
_cell_volume 729.810224
_symmetry_space_group_name_H-M "P -1"
_symmetry_group_IT_number 2
_symmetry_cell_setting 'triclinic'
loop_
_space_group_symop_operation_xyz
x,y,z
-x,-y,-z
loop_
_atom_site_type_symbol
_atom_site_label
_atom_site_fract_x
_atom_site_fract_y
_atom_site_fract_z
Si Si1 0.002112 0.839774 0.256450
Si Si2 0.681964 0.217068 0.740540
Si Si3 0.895789 0.407318 0.954407
Si Si4 0.789193 0.757700 0.269226
Si Si5 0.263914 0.258049 0.976068
Si Si6 0.239332 0.382108 0.243789
Si Si7 0.441243 0.639931 0.961009
Si Si8 0.964718 0.312321 0.414151
O O1 0.983459 0.761910 0.433721
O O2 0.929049 0.955485 0.151621
O O3 0.936640 0.521278 0.350462
O O4 0.137108 0.107326 0.092810
O O5 0.743782 0.474703 0.505375
O O6 0.711988 0.386923 0.770784
O O7 0.541838 0.997627 0.817252
O O8 0.722042 0.007629 0.858397
O O9 0.835224 0.564371 0.881779
O O10 0.937680 0.494232 0.778999
O O11 0.000000 0.500000 0.000000
O O12 0.788443 0.029738 0.165406
O O13 0.715727 0.624486 0.216937
O O14 0.360243 0.585458 0.873712
O O15 0.151984 0.012202 0.474517
O O16 0.349890 0.445431 0.162086
O O17 0.500000 0.500000 0.000000
#
# Coordination Sequence:
#
# PCOD8028225 Si02
#       8
#     2   2   2   2   2   2   2   2
#     4  11  21  38  64 100 139 174 217 273 338 408
#     4  11  24  46  68  94 133 181 231 281 331 391
#     4  12  25  38  60 103 148 175 214 268 342 425
#     4  12  24  39  68  99 139 179 218 273 341 406
#     4  11  22  45  66  98 138 175 228 281 333 399
#     4  12  22  44  70  97 137 179 224 280 338 400
#     4  10  25  44  73  96 126 182 239 283 329 385
#     4  11  22  37  66 100 137 180 218 264 343 407
#
# _framework density 21.923507000000001
#
# number of rings (size 3 to 8) (size 9 to 14) (size 15 to 20)
#    0.000    0.750    3.750    4.875    1.750    0.500 
#    0.000    0.625    5.500    0.000    0.000    0.000 
#    0.000    0.000    0.000    0.000    0.000    0.000 
#
# Total GULP energy -198276.350035 kJ/mol
# GULP energy per Si atom -12392.271877 kJ/mol
# Density = 2.187361 g / cm^3
# Si number density = 21.923507 Si / 1000 Ang^3
#
#
#
# Elastic Constant Matrix: (Units=GPa)
#
#
# Indices 1 2 3 4 5 6 
#
# 1 79.4451 30.8199 46.8613 -4.2763 -9.0979 5.6159
# 2 30.8199 132.1018 25.6862 -3.6043 -6.8910 13.3849
# 3 46.8613 25.6862 65.5421 11.6829 -4.1818 5.2930
# 4 -4.2763 -3.6043 11.6829 40.3226 4.6733 -4.3964
# 5 -9.0979 -6.8910 -4.1818 4.6733 19.4803 -1.0011
# 6 5.6159 13.3849 5.2930 -4.3964 -1.0011 33.8545
#
#
#
# Elastic Compliance Matrix: (Units=1/GPa)
#
#
# Indices 1 2 3 4 5 6 
#
# 1 0.024940 -0.001881 -0.018063 0.007139 0.005419 0.000518
# 2 -0.001881 0.008748 -0.001884 0.000656 0.001514 -0.002722
# 3 -0.018063 -0.001884 0.031169 -0.011422 0.000195 -0.002610
# 4 0.007139 0.000656 -0.011422 0.030051 -0.005886 0.004071
# 5 0.005419 0.001514 0.000195 -0.005886 0.055821 -0.000642
# 6 0.000518 -0.002722 -0.002610 0.004071 -0.000642 0.031446
#
#
# Mechanical properties :
#
#
# Convention : Reuss Voigt Hill
#
# Bulk Modulus (GPa) = 47.16683 53.75822 50.46252
# Shear Modulus (GPa) = 21.46866 30.31291 25.89078
#
# Velocity S-wave (km/s) = 3.13270 3.72246 3.44024
# Velocity P-wave (km/s) = 5.88609 6.56122 6.23280
#
# Compressibility (1/GPa) = 0.02120134
#
# Stress axis : x y z
#
# Youngs Moduli (GPa) = 40.09661 114.31440 32.08299
#
# Poissons Ratio (x) = 0.21508 0.57950
# Poissons Ratio (y) = 0.07544 0.06043
# Poissons Ratio (z) = 0.72425 0.21532
#
# Static dielectric constant tensor:
#      x y z
#    x 4.111500 0.223520 0.007570 
#    y 0.223520 4.525530 -0.089860 
#    z 0.007570 -0.089860 3.826280 
# 
# 
# High freq. dielectric constant tensor:
#      x y z
#    x 1.850600 -0.000310 0.000530 
#    y -0.000310 1.890260 -0.001240 
#    z 0.000530 -0.001240 1.842770 
# 
# From -- ./inp_files/446651.got.cif
#   From: 2010.06.25/outbox.cif.g09.slc.cpg/sg2_224_cif.got.tgz:446651.got - 2010.06.27 13:26:56.
