data_PCOD8028768
_publ_section_title
;
Structure prediction by ZEFSAII (Michael W. Deem and Ramdas Pophale) SiO2 
 PCOD8028768
Probable space group: P -1
;
_chemical_formula_sum "Si O2"
_cell_formula_units_Z 14
_cell_length_a 13.364407
_cell_length_b 4.871208
_cell_length_c 8.986772
_cell_angle_alpha 101.887535
_cell_angle_beta 90.148998
_cell_angle_gamma 90.584455
_cell_volume 572.462707
_symmetry_space_group_name_H-M "P -1"
_symmetry_group_IT_number 2
_symmetry_cell_setting 'triclinic'
loop_
_space_group_symop_operation_xyz
x,y,z
-x,-y,-z
loop_
_atom_site_type_symbol
_atom_site_label
_atom_site_fract_x
_atom_site_fract_y
_atom_site_fract_z
Si Si1 0.075324 0.672038 0.117903
Si Si2 0.609395 0.894202 0.435985
Si Si3 0.808250 0.845101 0.961015
Si Si4 0.065522 0.398080 0.625158
Si Si5 0.489514 0.658444 0.172759
Si Si6 0.629428 0.809611 0.751661
Si Si7 0.802396 0.060600 0.313546
O O1 0.020189 0.708600 0.276174
O O2 0.174667 0.483880 0.109133
O O3 0.000000 0.500000 0.000000
O O4 0.097731 0.973166 0.078692
O O5 0.587871 0.655026 0.281506
O O6 0.661014 0.786895 0.576021
O O7 0.500000 0.000000 0.500000
O O8 0.690942 0.111375 0.387602
O O9 0.790735 0.887600 0.140600
O O10 0.715094 0.935535 0.871277
O O11 0.141168 0.651321 0.697047
O O12 0.000000 0.500000 0.500000
O O13 0.135989 0.123570 0.584248
O O14 0.398707 0.507556 0.241213
O O15 0.464084 0.986674 0.191278
O O16 0.500000 0.500000 0.000000
#
# Coordination Sequence:
#
# PCOD8028768 Si02
#       7
#     2   2   2   2   2   2   2
#     4  12  23  45  69  98 143 179 226 289 346 412
#     4  10  26  47  71 102 144 185 236 294 354 411
#     4  12  24  42  71 103 136 182 234 281 346 422
#     4  12  28  44  70 104 143 180 232 286 350 415
#     4  11  23  45  70  97 136 178 230 291 348 410
#     4  11  25  42  68 102 133 179 231 285 350 413
#     4  12  25  46  70 102 139 186 233 287 347 419
#
# _framework density 24.455742999999998
#
# number of rings (size 3 to 8) (size 9 to 14) (size 15 to 20)
#    0.000    0.571    2.857    4.286    4.000    6.857 
#    0.000    0.000    0.000    0.000    0.000    0.000 
#    0.000    0.000    0.000    0.000    0.000    0.000 
#
# Total GULP energy -173446.795529 kJ/mol
# GULP energy per Si atom -12389.056823 kJ/mol
# Density = 2.440008 g / cm^3
# Si number density = 24.455743 Si / 1000 Ang^3
#
#
#
# Elastic Constant Matrix: (Units=GPa)
#
#
# Indices 1 2 3 4 5 6 
#
# 1 98.2992 18.9200 41.9814 -12.2259 -4.4549 9.2294
# 2 18.9200 80.1618 3.5959 -8.4831 -6.0582 4.4387
# 3 41.9814 3.5959 122.5815 -14.1839 6.7175 8.9043
# 4 -12.2259 -8.4831 -14.1839 37.0543 6.3262 -4.0869
# 5 -4.4549 -6.0582 6.7175 6.3262 55.5785 -3.3542
# 6 9.2294 4.4387 8.9043 -4.0869 -3.3542 38.4824
#
#
#
# Elastic Compliance Matrix: (Units=1/GPa)
#
#
# Indices 1 2 3 4 5 6 
#
# 1 0.012788 -0.002491 -0.004039 0.001768 0.000945 -0.001575
# 2 -0.002491 0.013381 0.000736 0.002288 0.000861 -0.000798
# 3 -0.004039 0.000736 0.010047 0.002856 -0.001861 -0.001300
# 4 0.001768 0.002288 0.002856 0.029916 -0.003266 0.001544
# 5 0.000945 0.000861 -0.001861 -0.003266 0.018843 0.001400
# 6 -0.001575 -0.000798 -0.001300 0.001544 0.001400 0.027042
#
#
# Mechanical properties :
#
#
# Convention : Reuss Voigt Hill
#
# Bulk Modulus (GPa) = 40.60619 47.78188 44.19403
# Shear Modulus (GPa) = 37.93176 41.99272 39.96224
#
# Velocity S-wave (km/s) = 3.94259 4.14827 4.04674
# Velocity P-wave (km/s) = 6.11272 6.52110 6.32021
#
# Compressibility (1/GPa) = 0.02462679
#
# Stress axis : x y z
#
# Youngs Moduli (GPa) = 78.19646 74.73164 99.53682
#
# Poissons Ratio (x) = 0.18619 0.40208
# Poissons Ratio (y) = 0.19482 -0.07329
# Poissons Ratio (z) = 0.31587 -0.05502
#
# Static dielectric constant tensor:
#      x y z
#    x 4.780840 -0.311750 0.517280 
#    y -0.311750 5.088210 -0.525060 
#    z 0.517280 -0.525060 4.696450 
# 
# 
# High freq. dielectric constant tensor:
#      x y z
#    x 1.974350 0.011590 0.011940 
#    y 0.011590 1.968640 -0.013420 
#    z 0.011940 -0.013420 1.980800 
# 
# From -- ./inp_files/27869.got.cif
#   From: 2010.06.25/outbox.cif.g09.slc.cpg/sg2_14_cif.got.tgz:27869.got - 2010.06.27 13:26:56.
