data_PCOD8028725
_publ_section_title
;
Structure prediction by ZEFSAII (Michael W. Deem and Ramdas Pophale) SiO2 
 PCOD8028725
Probable space group: P -1
;
_chemical_formula_sum "Si O2"
_cell_formula_units_Z 16
_cell_length_a 12.982168
_cell_length_b 9.270742
_cell_length_c 21.815521
_cell_angle_alpha 28.942416
_cell_angle_beta 142.485662
_cell_angle_gamma 135.362685
_cell_volume 772.391786
_symmetry_space_group_name_H-M "P -1"
_symmetry_group_IT_number 2
_symmetry_cell_setting 'triclinic'
loop_
_space_group_symop_operation_xyz
x,y,z
-x,-y,-z
loop_
_atom_site_type_symbol
_atom_site_label
_atom_site_fract_x
_atom_site_fract_y
_atom_site_fract_z
Si Si1 0.254649 0.259489 0.889627
Si Si2 0.112897 0.245539 0.297744
Si Si3 0.187579 0.906768 0.105103
Si Si4 0.551460 0.084703 0.424024
Si Si5 0.528315 0.351768 0.893482
Si Si6 0.647083 0.297200 0.624801
Si Si7 0.981194 0.686266 0.637529
Si Si8 0.889978 0.256197 0.076147
O O1 0.431200 0.407074 0.890992
O O2 0.133595 0.522864 0.741678
O O3 0.168066 0.016387 0.893269
O O4 0.282347 0.123093 0.020436
O O5 0.186356 0.581370 0.193580
O O6 0.002764 0.271107 0.297749
O O7 0.996411 0.127353 0.230481
O O8 0.261700 0.021586 0.461899
O O9 0.301710 0.915919 0.216273
O O10 0.000000 0.000000 0.000000
O O11 0.546200 0.439057 0.273602
O O12 0.500000 0.000000 0.500000
O O13 0.410213 0.914508 0.378935
O O14 0.730076 0.421390 0.967297
O O15 0.500000 0.000000 0.000000
O O16 0.500000 0.500000 0.500000
O O17 0.806552 0.511786 0.600342
O O18 0.000000 0.000000 0.500000
O O19 0.000000 0.500000 0.000000
#
# Coordination Sequence:
#
# PCOD8028725 Si02
#       8
#     2   2   2   2   2   2   2   2
#     4  11  23  43  70  97 140 180 221 293 347 405
#     4  11  23  42  64 103 135 176 231 287 332 414
#     4  11  21  40  70  99 133 173 236 276 341 408
#     4  12  26  44  72  99 140 183 234 281 341 417
#     4  10  26  46  65 103 144 176 225 292 347 401
#     4  11  24  44  69  99 133 182 235 282 335 416
#     4  11  24  45  66  95 139 180 225 285 348 401
#     4  11  23  41  72 100 132 177 233 277 342 412
#
# _framework density 20.714876
#
# number of rings (size 3 to 8) (size 9 to 14) (size 15 to 20)
#    0.000    1.000    6.250    1.500    7.000    0.000 
#    6.750    4.375    0.000    0.000    0.000    0.000 
#    0.000    0.000    0.000    0.000    0.000    0.000 
#
# Total GULP energy -198362.362510 kJ/mol
# GULP energy per Si atom -12397.647657 kJ/mol
# Density = 2.066773 g / cm^3
# Si number density = 20.714876 Si / 1000 Ang^3
#
#
#
# Elastic Constant Matrix: (Units=GPa)
#
#
# Indices 1 2 3 4 5 6 
#
# 1 171.5399 49.4558 75.9335 4.9833 0.4040 14.9618
# 2 49.4558 90.8740 54.2898 13.0980 -11.1531 -8.7765
# 3 75.9335 54.2898 173.0331 0.6115 -0.2643 6.4516
# 4 4.9833 13.0980 0.6115 42.1335 0.2214 -5.3987
# 5 0.4040 -11.1531 -0.2643 0.2214 42.7850 -0.2041
# 6 14.9618 -8.7765 6.4516 -5.3987 -0.2041 36.0766
#
#
#
# Elastic Compliance Matrix: (Units=1/GPa)
#
#
# Indices 1 2 3 4 5 6 
#
# 1 0.008249 -0.003531 -0.002367 -0.000340 -0.001030 -0.003913
# 2 -0.003531 0.016994 -0.003975 -0.004098 0.004487 0.005721
# 3 -0.002367 -0.003975 0.008106 0.001242 -0.000976 -0.001255
# 4 -0.000340 -0.004098 0.001242 0.025384 -0.001176 0.002714
# 5 -0.001030 0.004487 -0.000976 -0.001176 0.024560 0.001656
# 6 -0.003913 0.005721 -0.001255 0.002714 0.001656 0.031373
#
#
# Mechanical properties :
#
#
# Convention : Reuss Voigt Hill
#
# Bulk Modulus (GPa) = 73.50251 88.31170 80.90711
# Shear Modulus (GPa) = 35.98554 41.25021 38.61787
#
# Velocity S-wave (km/s) = 4.17247 4.46728 4.32239
# Velocity P-wave (km/s) = 7.66634 8.32666 8.00331
#
# Compressibility (1/GPa) = 0.01360498
#
# Stress axis : x y z
#
# Youngs Moduli (GPa) = 121.23241 58.84362 123.36988
#
# Poissons Ratio (x) = 0.20776 0.29196
# Poissons Ratio (y) = 0.42803 0.49035
# Poissons Ratio (z) = 0.28690 0.23388
#
# Static dielectric constant tensor:
#      x y z
#    x 4.227160 -0.168870 0.002470 
#    y -0.168870 5.965160 1.663470 
#    z 0.002470 1.663470 5.236750 
# 
# 
# High freq. dielectric constant tensor:
#      x y z
#    x 1.825750 -0.002200 0.005540 
#    y -0.002200 1.791720 -0.004590 
#    z 0.005540 -0.004590 1.828780 
# 
# From -- ./inp_files/593925.got.cif
#   From: 2010.06.25/outbox.cif.g09.slc.cpg/sg2_297_cif.got.tgz:593925.got - 2010.06.27 13:26:56.
