data_PCOD8028353
_publ_section_title
;
Structure prediction by ZEFSAII (Michael W. Deem and Ramdas Pophale) SiO2 
 PCOD8028353
Probable space group: P -1
;
_chemical_formula_sum "Si O2"
_cell_formula_units_Z 14
_cell_length_a 5.311197
_cell_length_b 12.138677
_cell_length_c 9.197311
_cell_angle_alpha 102.518851
_cell_angle_beta 78.789675
_cell_angle_gamma 101.743654
_cell_volume 559.694004
_symmetry_space_group_name_H-M "P -1"
_symmetry_group_IT_number 2
_symmetry_cell_setting 'triclinic'
loop_
_space_group_symop_operation_xyz
x,y,z
-x,-y,-z
loop_
_atom_site_type_symbol
_atom_site_label
_atom_site_fract_x
_atom_site_fract_y
_atom_site_fract_z
Si Si1 0.592972 0.755984 0.925782
Si Si2 0.745324 0.434448 0.936601
Si Si3 0.728248 0.612382 0.607788
Si Si4 0.428491 0.040049 0.218225
Si Si5 0.884129 0.895345 0.175665
Si Si6 0.639811 0.810933 0.465532
Si Si7 0.247002 0.622734 0.401707
O O1 0.705766 0.668945 0.783545
O O2 0.497535 0.857532 0.874541
O O3 0.339235 0.691488 0.019930
O O4 0.822442 0.801187 0.029184
O O5 0.847003 0.420169 0.758937
O O6 0.500000 0.500000 0.000000
O O7 0.000000 0.500000 0.000000
O O8 0.638830 0.690767 0.514964
O O9 0.588224 0.477929 0.591738
O O10 0.033272 0.618023 0.548996
O O11 0.349987 0.082975 0.397490
O O12 0.679644 0.982294 0.200509
O O13 0.182041 0.957995 0.151210
O O14 0.854265 0.841228 0.325479
O O15 0.366825 0.759323 0.404356
#
# Coordination Sequence:
#
# PCOD8028353 Si02
#       7
#     2   2   2   2   2   2   2
#     4  11  25  50  77 108 155 198 249 307 382 437
#     4  12  28  48  77 115 153 194 245 304 371 453
#     4  10  25  45  73 112 148 198 246 302 370 463
#     4  11  28  46  75 108 150 192 260 310 371 434
#     4  12  26  49  74 110 145 199 253 320 363 437
#     4  11  25  43  76 102 151 192 254 299 389 425
#     4  11  24  46  75 109 153 197 245 302 375 459
#
# _framework density 25.013669
#
# number of rings (size 3 to 8) (size 9 to 14) (size 15 to 20)
#    0.000    0.857    2.857    2.143    8.000    6.857 
#    2.571    0.000    0.000    0.000    0.000    0.000 
#    0.000    0.000    0.000    0.000    0.000    0.000 
#
# Total GULP energy -173447.770864 kJ/mol
# GULP energy per Si atom -12389.126490 kJ/mol
# Density = 2.495674 g / cm^3
# Si number density = 25.013669 Si / 1000 Ang^3
#
#
#
# Elastic Constant Matrix: (Units=GPa)
#
#
# Indices 1 2 3 4 5 6 
#
# 1 75.6309 19.1357 10.4562 9.9188 11.5841 10.0487
# 2 19.1357 80.1488 5.2203 -0.6674 -10.3087 20.7326
# 3 10.4562 5.2203 114.8410 -9.9654 -4.9012 -8.2312
# 4 9.9188 -0.6674 -9.9654 38.1545 3.2297 -0.5508
# 5 11.5841 -10.3087 -4.9012 3.2297 29.9236 3.3967
# 6 10.0487 20.7326 -8.2312 -0.5508 3.3967 25.9868
#
#
#
# Elastic Compliance Matrix: (Units=1/GPa)
#
#
# Indices 1 2 3 4 5 6 
#
# 1 0.016670 -0.004023 -0.002254 -0.004412 -0.007383 -0.003079
# 2 -0.004023 0.018569 -0.001134 0.000060 0.009448 -0.014851
# 3 -0.002254 -0.001134 0.009619 0.003046 0.001191 0.004731
# 4 -0.004412 0.000060 0.003046 0.028304 -0.001211 0.003381
# 5 -0.007383 0.009448 0.001191 -0.001211 0.040956 -0.009684
# 6 -0.003079 -0.014851 0.004731 0.003381 -0.009684 0.054356
#
#
# Mechanical properties :
#
#
# Convention : Reuss Voigt Hill
#
# Bulk Modulus (GPa) = 33.29294 37.80500 35.54897
# Shear Modulus (GPa) = 25.86558 34.53354 30.19956
#
# Velocity S-wave (km/s) = 3.21917 3.71966 3.47842
# Velocity P-wave (km/s) = 5.21116 5.79606 5.51137
#
# Compressibility (1/GPa) = 0.03003640
#
# Stress axis : x y z
#
# Youngs Moduli (GPa) = 59.98782 53.85451 103.96441
#
# Poissons Ratio (x) = 0.21667 0.23429
# Poissons Ratio (y) = 0.24134 0.11787
# Poissons Ratio (z) = 0.13518 0.06106
#
# Static dielectric constant tensor:
#      x y z
#    x 4.108280 0.010350 0.139870 
#    y 0.010350 5.084940 -0.081790 
#    z 0.139870 -0.081790 4.742280 
# 
# 
# High freq. dielectric constant tensor:
#      x y z
#    x 1.972790 0.006220 0.009520 
#    y 0.006220 2.025190 -0.002820 
#    z 0.009520 -0.002820 2.023700 
# 
# From -- ./inp_files/60328.got.cif
#   From: 2010.06.25/outbox.cif.g09.slc.cpg/sg2_31_cif.got.tgz:60328.got - 2010.06.27 13:26:56.
