data_PCOD8028969
_publ_section_title
;
Structure prediction by ZEFSAII (Michael W. Deem and Ramdas Pophale) SiO2 
 PCOD8028969
Probable space group: P -1
;
_chemical_formula_sum "Si O2"
_cell_formula_units_Z 14
_cell_length_a 11.436903
_cell_length_b 13.004297
_cell_length_c 10.444845
_cell_angle_alpha 102.861385
_cell_angle_beta 68.167257
_cell_angle_gamma 150.094770
_cell_volume 702.036093
_symmetry_space_group_name_H-M "P -1"
_symmetry_group_IT_number 2
_symmetry_cell_setting 'triclinic'
loop_
_space_group_symop_operation_xyz
x,y,z
-x,-y,-z
loop_
_atom_site_type_symbol
_atom_site_label
_atom_site_fract_x
_atom_site_fract_y
_atom_site_fract_z
Si Si1 0.408916 0.342909 0.588586
Si Si2 0.729377 0.375672 0.203874
Si Si3 0.222885 0.011456 0.441156
Si Si4 0.080564 0.387268 0.448424
Si Si5 0.474915 0.101001 0.993159
Si Si6 0.121840 0.580793 0.272321
Si Si7 0.956283 0.770090 0.217905
O O1 0.500000 0.500000 0.500000
O O2 0.637662 0.444249 0.584915
O O3 0.245268 0.283960 0.750643
O O4 0.220100 0.127144 0.530938
O O5 0.639349 0.292719 0.073535
O O6 0.956628 0.462356 0.175856
O O7 0.810444 0.555238 0.234346
O O8 0.509654 0.188798 0.342111
O O9 0.057144 0.879003 0.345303
O O10 0.108696 0.849136 0.549193
O O11 0.089769 0.448170 0.322770
O O12 0.967119 0.384992 0.598013
O O13 0.181940 0.924485 0.065602
O O14 0.586717 0.194629 0.830157
O O15 0.500000 0.000000 0.000000
#
# Coordination Sequence:
#
# PCOD8028969 Si02
#       7
#     2   2   2   2   2   2   2
#     4  12  21  38  61  88 122 152 200 249 292 343
#     4  11  20  38  62  89 118 153 196 246 291 346
#     4  11  19  36  59  93 116 153 198 240 301 346
#     4  11  24  38  60  88 125 155 190 246 299 352
#     4  11  23  38  63  89 117 157 202 238 292 350
#     4  11  21  43  56  88 128 152 193 245 294 353
#     4  11  22  36  61  94 114 152 202 250 288 342
#
# _framework density 19.941994999999999
#
# number of rings (size 3 to 8) (size 9 to 14) (size 15 to 20)
#    0.000    0.857    7.143    1.714    0.000    0.571 
#    2.571    0.714    0.000    1.714    0.000    0.000 
#    0.000    0.000    0.000    0.000    0.000    0.000 
#
# Total GULP energy -173544.334674 kJ/mol
# GULP energy per Si atom -12396.023905 kJ/mol
# Density = 1.989661 g / cm^3
# Si number density = 19.941995 Si / 1000 Ang^3
#
#
#
# Elastic Constant Matrix: (Units=GPa)
#
#
# Indices 1 2 3 4 5 6 
#
# 1 90.6730 46.1380 51.3200 -7.5078 -18.9909 -12.0357
# 2 46.1380 136.7893 42.7944 -9.2471 -7.8481 -16.6053
# 3 51.3200 42.7944 103.3572 -33.6502 -25.7114 -5.9467
# 4 -7.5078 -9.2471 -33.6502 34.0295 2.5194 0.3469
# 5 -18.9909 -7.8481 -25.7114 2.5194 32.3189 -7.6954
# 6 -12.0357 -16.6053 -5.9467 0.3469 -7.6954 27.7426
#
#
#
# Elastic Compliance Matrix: (Units=1/GPa)
#
#
# Indices 1 2 3 4 5 6 
#
# 1 0.018654 -0.003100 -0.007724 -0.004869 0.005941 0.006290
# 2 -0.003100 0.009517 -0.002542 -0.000602 -0.000618 0.003643
# 3 -0.007724 -0.002542 0.025455 0.021664 0.014434 0.004317
# 4 -0.004869 -0.000602 0.021664 0.048665 0.011570 0.004772
# 5 0.005941 -0.000618 0.014434 0.011570 0.049351 0.018846
# 6 0.006290 0.003643 0.004317 0.004772 0.018846 0.047048
#
#
# Mechanical properties :
#
#
# Convention : Reuss Voigt Hill
#
# Bulk Modulus (GPa) = 37.18210 67.92491 52.55351
# Shear Modulus (GPa) = 21.33229 31.52265 26.42747
#
# Velocity S-wave (km/s) = 3.27420 3.98014 3.64430
# Velocity P-wave (km/s) = 5.74277 7.43352 6.64216
#
# Compressibility (1/GPa) = 0.02689466
#
# Stress axis : x y z
#
# Youngs Moduli (GPa) = 53.60821 105.07163 39.28545
#
# Poissons Ratio (x) = 0.32573 0.30344
# Poissons Ratio (y) = 0.16619 0.09985
# Poissons Ratio (z) = 0.41407 0.26705
#
# Static dielectric constant tensor:
#      x y z
#    x 3.652840 0.109260 -0.409990 
#    y 0.109260 3.974510 -0.194100 
#    z -0.409990 -0.194100 3.933010 
# 
# 
# High freq. dielectric constant tensor:
#      x y z
#    x 1.753790 -0.001600 -0.034610 
#    y -0.001600 1.794310 -0.014050 
#    z -0.034610 -0.014050 1.766540 
# 
# From -- ./inp_files/67062.got.cif
#   From: 2010.06.25/outbox.cif.g09.slc.cpg/sg2_34_cif.got.tgz:67062.got - 2010.06.27 13:26:56.
