data_PCOD8028749
_publ_section_title
;
Structure prediction by ZEFSAII (Michael W. Deem and Ramdas Pophale) SiO2 
 PCOD8028749
Probable space group: P -1
;
_chemical_formula_sum "Si O2"
_cell_formula_units_Z 14
_cell_length_a 14.221874
_cell_length_b 9.762753
_cell_length_c 7.656008
_cell_angle_alpha 119.232512
_cell_angle_beta 44.531586
_cell_angle_gamma 92.882136
_cell_volume 568.295571
_symmetry_space_group_name_H-M "P -1"
_symmetry_group_IT_number 2
_symmetry_cell_setting 'triclinic'
loop_
_space_group_symop_operation_xyz
x,y,z
-x,-y,-z
loop_
_atom_site_type_symbol
_atom_site_label
_atom_site_fract_x
_atom_site_fract_y
_atom_site_fract_z
Si Si1 0.137829 0.798835 0.189453
Si Si2 0.057891 0.337218 0.457662
Si Si3 0.332470 0.346190 0.238461
Si Si4 0.460284 0.693028 0.738289
Si Si5 0.837682 0.907759 0.141732
Si Si6 0.824096 0.262906 0.298607
Si Si7 0.464254 0.034257 0.274890
O O1 0.085955 0.664014 0.259222
O O2 0.282655 0.787862 0.099654
O O3 0.204065 0.729919 0.866327
O O4 0.000000 0.000000 0.500000
O O5 0.168464 0.348965 0.466597
O O6 0.000000 0.500000 0.500000
O O7 0.153969 0.151216 0.107536
O O8 0.411833 0.331150 0.307550
O O9 0.292694 0.542692 0.336657
O O10 0.446190 0.162030 0.866693
O O11 0.500000 0.500000 0.500000
O O12 0.475700 0.826635 0.657677
O O13 0.715381 0.876611 0.392115
O O14 0.792561 0.116493 0.343157
O O15 0.001206 0.782509 0.935537
O O16 0.500000 0.000000 0.000000
#
# Coordination Sequence:
#
# PCOD8028749 Si02
#       7
#     2   2   2   2   2   2   2
#     4  12  26  47  80 105 150 197 252 297 373 448
#     4  12  27  47  73 112 147 196 247 309 369 440
#     4  11  25  47  72 107 147 189 244 300 379 428
#     4  11  25  46  72 110 143 192 248 305 364 440
#     4  11  26  48  74 108 150 191 252 310 363 448
#     4  11  25  46  78 111 141 198 252 302 368 440
#     4  10  26  46  72 105 147 188 241 305 378 432
#
# _framework density 24.635069999999999
#
# number of rings (size 3 to 8) (size 9 to 14) (size 15 to 20)
#    0.000    0.857    4.286    0.857   10.000    1.714 
#    2.571    0.000    0.000    0.000    0.000    0.000 
#    0.000    0.000    0.000    0.000    0.000    0.000 
#
# Total GULP energy -173433.057709 kJ/mol
# GULP energy per Si atom -12388.075551 kJ/mol
# Density = 2.457900 g / cm^3
# Si number density = 24.635070 Si / 1000 Ang^3
#
#
#
# Elastic Constant Matrix: (Units=GPa)
#
#
# Indices 1 2 3 4 5 6 
#
# 1 129.2707 47.2499 37.9114 -8.7022 -31.3096 24.9323
# 2 47.2499 150.7988 69.8715 28.8916 -21.2888 28.5880
# 3 37.9114 69.8715 98.0939 13.1270 -27.3749 16.9429
# 4 -8.7022 28.8916 13.1270 69.2327 6.3235 0.7834
# 5 -31.3096 -21.2888 -27.3749 6.3235 40.1669 -3.9051
# 6 24.9323 28.5880 16.9429 0.7834 -3.9051 39.6600
#
#
#
# Elastic Compliance Matrix: (Units=1/GPa)
#
#
# Indices 1 2 3 4 5 6 
#
# 1 0.011217 -0.001642 -0.000671 0.001669 0.006671 -0.004957
# 2 -0.001642 0.011777 -0.006152 -0.003988 0.000944 -0.004657
# 3 -0.000671 -0.006152 0.017704 -0.001616 0.008356 -0.001852
# 4 0.001669 -0.003988 -0.001616 0.017009 -0.004422 0.001744
# 5 0.006671 0.000944 0.008356 -0.004422 0.036525 -0.004760
# 6 -0.004957 -0.004657 -0.001852 0.001744 -0.004760 0.031975
#
#
# Mechanical properties :
#
#
# Convention : Reuss Voigt Hill
#
# Bulk Modulus (GPa) = 42.07536 76.46988 59.27262
# Shear Modulus (GPa) = 33.09962 44.68730 38.89346
#
# Velocity S-wave (km/s) = 3.66949 4.26369 3.97770
# Velocity P-wave (km/s) = 5.92200 7.43957 6.72374
#
# Compressibility (1/GPa) = 0.02376688
#
# Stress axis : x y z
#
# Youngs Moduli (GPa) = 89.15148 84.91436 56.48427
#
# Poissons Ratio (x) = 0.13942 0.03790
# Poissons Ratio (y) = 0.14637 0.34752
# Poissons Ratio (z) = 0.05982 0.52243
#
# Static dielectric constant tensor:
#      x y z
#    x 4.898270 0.960500 -0.116590 
#    y 0.960500 6.298530 1.014270 
#    z -0.116590 1.014270 4.718590 
# 
# 
# High freq. dielectric constant tensor:
#      x y z
#    x 1.980960 0.025660 -0.025380 
#    y 0.025660 1.992700 0.032660 
#    z -0.025380 0.032660 1.966760 
# 
# From -- ./inp_files/299432.got.cif
#   From: 2010.06.25/outbox.cif.g09.slc.cpg/sg2_150_cif.got.tgz:299432.got - 2010.06.27 13:26:56.
