data_PCOD8028617
_publ_section_title
;
Structure prediction by ZEFSAII (Michael W. Deem and Ramdas Pophale) SiO2 
 PCOD8028617
Probable space group: P -1
;
_chemical_formula_sum "Si O2"
_cell_formula_units_Z 16
_cell_length_a 22.161295
_cell_length_b 9.250736
_cell_length_c 19.021193
_cell_angle_alpha 38.393461
_cell_angle_beta 17.868801
_cell_angle_gamma 37.115603
_cell_volume 715.496786
_symmetry_space_group_name_H-M "P -1"
_symmetry_group_IT_number 2
_symmetry_cell_setting 'triclinic'
loop_
_space_group_symop_operation_xyz
x,y,z
-x,-y,-z
loop_
_atom_site_type_symbol
_atom_site_label
_atom_site_fract_x
_atom_site_fract_y
_atom_site_fract_z
Si Si1 0.714693 0.568270 0.573017
Si Si2 0.707834 0.051585 0.770268
Si Si3 0.709219 0.572725 0.731593
Si Si4 0.256142 0.248862 0.748533
Si Si5 0.399074 0.739622 0.739054
Si Si6 0.898644 0.724628 0.939884
Si Si7 0.844201 0.631051 0.883917
Si Si8 0.075757 0.121868 0.539646
O O1 0.664478 0.319378 0.746203
O O2 0.722469 0.685906 0.596091
O O3 0.539983 0.725202 0.657180
O O4 0.924869 0.535630 0.310428
O O5 0.831781 0.863479 0.761242
O O6 0.841567 0.046712 0.554084
O O7 0.500000 0.000000 0.000000
O O8 0.737556 0.784966 0.671025
O O9 0.894025 0.341384 0.631021
O O10 0.500000 0.500000 0.000000
O O11 0.471396 0.279321 0.469426
O O12 0.068644 0.469861 0.850568
O O13 0.231776 0.999422 0.834746
O O14 0.259174 0.238557 0.834259
O O15 0.299491 0.519324 0.932464
O O16 0.776662 0.720971 0.003643
O O17 0.998617 0.950610 0.745185
#
# Coordination Sequence:
#
# PCOD8028617 Si02
#       8
#     2   2   2   2   2   2   2   2
#     4  12  23  44  65 101 139 174 220 275 332 407
#     4  12  22  41  68 100 143 176 212 269 328 412
#     4  11  26  41  66 102 141 179 219 264 340 414
#     4  10  25  49  68  96 135 171 232 299 328 391
#     4  11  25  46  72  98 132 175 233 282 338 396
#     4  11  24  46  71  97 137 178 225 284 345 383
#     4  12  24  41  74 101 132 184 220 269 345 407
#     4  11  24  44  66  99 141 177 219 276 328 407
#
# _framework density 22.362086000000001
#
# number of rings (size 3 to 8) (size 9 to 14) (size 15 to 20)
#    0.000    0.750    5.000    1.875    3.500    1.000 
#    0.000    0.000    0.000    0.000    0.000    0.000 
#    0.000    0.000    0.000    0.000    0.000    0.000 
#
# Total GULP energy -198407.580581 kJ/mol
# GULP energy per Si atom -12400.473786 kJ/mol
# Density = 2.231119 g / cm^3
# Si number density = 22.362086 Si / 1000 Ang^3
#
#
#
# Elastic Constant Matrix: (Units=GPa)
#
#
# Indices 1 2 3 4 5 6 
#
# 1 130.6808 22.2538 48.8978 -1.2981 14.5401 4.8735
# 2 22.2538 65.3146 16.3508 -6.2264 7.4738 1.1673
# 3 48.8978 16.3508 79.6361 -0.1834 8.2908 -1.1206
# 4 -1.2981 -6.2264 -0.1834 31.0119 1.3478 6.5671
# 5 14.5401 7.4738 8.2908 1.3478 45.4067 0.4623
# 6 4.8735 1.1673 -1.1206 6.5671 0.4623 26.9902
#
#
#
# Elastic Compliance Matrix: (Units=1/GPa)
#
#
# Indices 1 2 3 4 5 6 
#
# 1 0.010462 -0.001770 -0.005883 0.000593 -0.001980 -0.002167
# 2 -0.001770 0.017072 -0.002228 0.003717 -0.001933 -0.001383
# 3 -0.005883 -0.002228 0.016738 -0.001007 -0.000797 0.002112
# 4 0.000593 0.003717 -0.001007 0.034939 -0.001565 -0.008784
# 5 -0.001980 -0.001933 -0.000797 -0.001565 0.023163 0.000392
# 6 -0.002167 -0.001383 0.002112 -0.008784 0.000392 0.039720
#
#
# Mechanical properties :
#
#
# Convention : Reuss Voigt Hill
#
# Bulk Modulus (GPa) = 40.80259 50.07068 45.43664
# Shear Modulus (GPa) = 29.40731 33.22369 31.31550
#
# Velocity S-wave (km/s) = 3.63030 3.85868 3.74623
# Velocity P-wave (km/s) = 5.98816 6.50323 6.25100
#
# Compressibility (1/GPa) = 0.02450825
#
# Stress axis : x y z
#
# Youngs Moduli (GPa) = 95.58277 58.57709 59.74603
#
# Poissons Ratio (x) = 0.10368 0.35152
# Poissons Ratio (y) = 0.16918 0.13312
# Poissons Ratio (z) = 0.56236 0.13051
#
# Static dielectric constant tensor:
#      x y z
#    x 4.136490 0.017600 -0.006550 
#    y 0.017600 4.021190 -0.135640 
#    z -0.006550 -0.135640 3.735560 
# 
# 
# High freq. dielectric constant tensor:
#      x y z
#    x 1.889920 0.002360 0.011200 
#    y 0.002360 1.883290 -0.002550 
#    z 0.011200 -0.002550 1.876060 
# 
# From -- ./inp_files/577533.got.cif
#   From: 2010.06.25/outbox.cif.g09.slc.cpg/sg2_289_cif.got.tgz:577533.got - 2010.06.27 13:26:56.
