data_PCOD8028737
_publ_section_title
;
Structure prediction by ZEFSAII (Michael W. Deem and Ramdas Pophale) SiO2 
 PCOD8028737
Probable space group: P -1
;
_chemical_formula_sum "Si O2"
_cell_formula_units_Z 16
_cell_length_a 14.675124
_cell_length_b 20.719180
_cell_length_c 12.542243
_cell_angle_alpha 28.248435
_cell_angle_beta 151.889476
_cell_angle_gamma 152.101378
_cell_volume 746.600689
_symmetry_space_group_name_H-M "P -1"
_symmetry_group_IT_number 2
_symmetry_cell_setting 'triclinic'
loop_
_space_group_symop_operation_xyz
x,y,z
-x,-y,-z
loop_
_atom_site_type_symbol
_atom_site_label
_atom_site_fract_x
_atom_site_fract_y
_atom_site_fract_z
Si Si1 0.011323 0.366734 0.571786
Si Si2 0.284123 0.419373 0.322719
Si Si3 0.886524 0.214913 0.336436
Si Si4 0.362594 0.704242 0.865750
Si Si5 0.558329 0.940037 0.254292
Si Si6 0.104768 0.705989 0.202919
Si Si7 0.141170 0.167480 0.853193
Si Si8 0.837033 0.822526 0.615571
O O1 0.120932 0.553158 0.406247
O O2 0.155505 0.305275 0.744316
O O3 0.767794 0.289446 0.381994
O O4 0.995011 0.312681 0.755130
O O5 0.500000 0.500000 0.500000
O O6 0.262501 0.262879 0.475264
O O7 0.062032 0.374277 0.227233
O O8 0.306748 0.529288 0.087182
O O9 0.707724 0.236725 0.187795
O O10 0.032595 0.165039 0.632129
O O11 0.756170 0.084855 0.304472
O O12 0.617877 0.811590 0.948591
O O13 0.347444 0.853600 0.238438
O O14 0.637582 0.813880 0.492548
O O15 0.500000 0.000000 0.000000
O O16 0.952826 0.737087 0.919664
O O17 0.000000 0.000000 0.000000
O O18 0.000000 0.000000 0.500000
#
# Coordination Sequence:
#
# PCOD8028737 Si02
#       8
#     2   2   2   2   2   2   2   2
#     4  10  26  46  70 102 136 184 239 284 349 416
#     4  12  24  44  72 103 139 185 233 294 352 424
#     4  11  26  44  67 105 135 183 234 284 359 420
#     4  11  25  45  72  98 139 182 231 294 354 411
#     4  12  27  42  71 104 141 183 232 289 357 416
#     4  11  25  46  71  99 140 186 232 290 346 426
#     4  11  27  45  70 101 139 180 236 293 347 422
#     4  12  25  45  69 105 145 180 231 289 354 420
#
# _framework density 21.430465000000002
#
# number of rings (size 3 to 8) (size 9 to 14) (size 15 to 20)
#    0.000    0.750    5.000    0.375    8.750    1.000 
#    0.000    2.500    0.000    0.000    0.000    0.000 
#    0.000    0.000    0.000    0.000    0.000    0.000 
#
# Total GULP energy -198447.017176 kJ/mol
# GULP energy per Si atom -12402.938573 kJ/mol
# Density = 2.138169 g / cm^3
# Si number density = 21.430465 Si / 1000 Ang^3
#
#
#
# Elastic Constant Matrix: (Units=GPa)
#
#
# Indices 1 2 3 4 5 6 
#
# 1 111.1143 65.2618 36.0318 10.4150 7.0003 2.3686
# 2 65.2618 134.9000 42.1494 10.2865 0.0877 1.5837
# 3 36.0318 42.1494 70.8372 -0.3797 -0.4246 0.2988
# 4 10.4150 10.2865 -0.3797 35.4257 5.9271 -2.9057
# 5 7.0003 0.0877 -0.4246 5.9271 39.4088 3.1752
# 6 2.3686 1.5837 0.2988 -2.9057 3.1752 51.3842
#
#
#
# Elastic Compliance Matrix: (Units=1/GPa)
#
#
# Indices 1 2 3 4 5 6 
#
# 1 0.013676 -0.005232 -0.003866 -0.002230 -0.002088 -0.000444
# 2 -0.005232 0.011388 -0.004118 -0.002034 0.001188 -0.000274
# 3 -0.003866 -0.004118 0.018548 0.002473 0.000499 0.000306
# 4 -0.002230 -0.002034 0.002473 0.030398 -0.004317 0.002137
# 5 -0.002088 0.001188 0.000499 -0.004317 0.026545 -0.001828
# 6 -0.000444 -0.000274 0.000306 0.002137 -0.001828 0.019722
#
#
# Mechanical properties :
#
#
# Convention : Reuss Voigt Hill
#
# Bulk Modulus (GPa) = 58.20103 67.08194 62.64149
# Shear Modulus (GPa) = 32.80057 36.80430 34.80244
#
# Velocity S-wave (km/s) = 3.91648 4.14863 4.03422
# Velocity P-wave (km/s) = 6.90426 7.37009 7.14097
#
# Compressibility (1/GPa) = 0.01718183
#
# Stress axis : x y z
#
# Youngs Moduli (GPa) = 73.11933 87.81220 53.91303
#
# Poissons Ratio (x) = 0.45941 0.20844
# Poissons Ratio (y) = 0.38254 0.22199
# Poissons Ratio (z) = 0.28269 0.36157
#
# Static dielectric constant tensor:
#      x y z
#    x 4.087730 0.037160 0.166230 
#    y 0.037160 3.797920 -0.126520 
#    z 0.166230 -0.126520 3.967680 
# 
# 
# High freq. dielectric constant tensor:
#      x y z
#    x 1.850260 -0.001990 -0.001910 
#    y -0.001990 1.849370 0.000680 
#    z -0.001910 0.000680 1.844730 
# 
# From -- ./inp_files/457653.got.cif
#   From: 2010.06.25/outbox.cif.g09.slc.cpg/sg2_229_cif.got.tgz:457653.got - 2010.06.27 13:26:56.
