data_PCOD8028172
_publ_section_title
;
Structure prediction by ZEFSAII (Michael W. Deem and Ramdas Pophale) SiO2 
 PCOD8028172
Probable space group: P -1
;
_chemical_formula_sum "Si O2"
_cell_formula_units_Z 12
_cell_length_a 24.714261
_cell_length_b 23.370185
_cell_length_c 6.961790
_cell_angle_alpha 43.005595
_cell_angle_beta 138.343248
_cell_angle_gamma 168.093851
_cell_volume 551.381989
_symmetry_space_group_name_H-M "P -1"
_symmetry_group_IT_number 2
_symmetry_cell_setting 'triclinic'
loop_
_space_group_symop_operation_xyz
x,y,z
-x,-y,-z
loop_
_atom_site_type_symbol
_atom_site_label
_atom_site_fract_x
_atom_site_fract_y
_atom_site_fract_z
Si Si1 0.414169 0.281897 0.743973
Si Si2 0.738983 0.796305 0.855483
Si Si3 0.444042 0.027594 0.906948
Si Si4 0.212273 0.919270 0.234058
Si Si5 0.024133 0.607779 0.175997
Si Si6 0.012317 0.142724 0.074929
O O1 0.379418 0.259326 0.482938
O O2 0.683128 0.592110 0.777300
O O3 0.152578 0.067558 0.676773
O O4 0.434899 0.203225 0.044896
O O5 0.500000 0.500000 0.000000
O O6 0.000000 0.000000 0.000000
O O7 0.829843 0.951502 0.874600
O O8 0.323587 0.975992 0.567441
O O9 0.728899 0.341702 0.968487
O O10 0.500000 0.000000 0.000000
O O11 0.237089 0.806444 0.077350
O O12 0.116333 0.770054 0.167419
O O13 0.972088 0.742120 0.115764
O O14 0.000000 0.500000 0.500000
#
# Coordination Sequence:
#
# PCOD8028172 Si02
#       6
#     2   2   2   2   2   2
#     4  10  25  44  68  98 140 179 225 273 352 395
#     4  12  26  44  72 103 136 176 230 279 338 414
#     4  12  27  44  72 100 140 181 236 290 346 404
#     4  10  28  42  72  99 142 180 236 281 346 408
#     4  12  27  44  72 100 140 181 236 290 346 404
#     4  10  25  44  68  98 140 179 225 273 352 395
#
# _framework density 21.763497000000001
#
# number of rings (size 3 to 8) (size 9 to 14) (size 15 to 20)
#    1.000    0.000    1.667    3.000    7.000    4.000 
#    0.000    0.000    0.000    0.000    0.000    0.000 
#    0.000    0.000    0.000    0.000    0.000    0.000 
#
# Total GULP energy -148664.902307 kJ/mol
# GULP energy per Si atom -12388.741859 kJ/mol
# Density = 2.171396 g / cm^3
# Si number density = 21.763497 Si / 1000 Ang^3
#
#
#
# Elastic Constant Matrix: (Units=GPa)
#
#
# Indices 1 2 3 4 5 6 
#
# 1 86.9883 40.2373 24.1148 -15.0109 -23.5685 -4.4989
# 2 40.2373 191.5133 60.3110 -6.2296 -19.4038 -1.1040
# 3 24.1148 60.3110 144.9369 -17.9271 -27.2168 -7.7098
# 4 -15.0109 -6.2296 -17.9271 33.0649 -6.3866 -8.5358
# 5 -23.5685 -19.4038 -27.2168 -6.3866 31.1073 6.3600
# 6 -4.4989 -1.1040 -7.7098 -8.5358 6.3600 33.3798
#
#
#
# Elastic Compliance Matrix: (Units=1/GPa)
#
#
# Indices 1 2 3 4 5 6 
#
# 1 0.019500 -0.002808 0.003333 0.014566 0.018201 0.003562
# 2 -0.002808 0.006522 -0.002636 -0.001872 -0.000515 -0.001152
# 3 0.003333 -0.002636 0.011147 0.010231 0.012069 0.003253
# 4 0.014566 -0.001872 0.010231 0.050315 0.026687 0.012046
# 5 0.018201 -0.000515 0.012069 0.026687 0.061590 0.000313
# 6 0.003562 -0.001152 0.003253 0.012046 0.000313 0.034172
#
#
# Mechanical properties :
#
#
# Convention : Reuss Voigt Hill
#
# Bulk Modulus (GPa) = 30.35277 74.75165 52.55221
# Shear Modulus (GPa) = 25.19514 39.42874 32.31194
#
# Velocity S-wave (km/s) = 3.40616 4.26101 3.85734
# Velocity P-wave (km/s) = 5.42643 7.65703 6.63612
#
# Compressibility (1/GPa) = 0.03294592
#
# Stress axis : x y z
#
# Youngs Moduli (GPa) = 51.28270 153.32510 89.71089
#
# Poissons Ratio (x) = 0.43056 -0.29901
# Poissons Ratio (y) = 0.14401 0.23650
# Poissons Ratio (z) = -0.17093 0.40421
#
# Static dielectric constant tensor:
#      x y z
#    x 4.051690 -0.043850 -0.214440 
#    y -0.043850 4.212880 -0.062330 
#    z -0.214440 -0.062330 4.038760 
# 
# 
# High freq. dielectric constant tensor:
#      x y z
#    x 1.858570 -0.005190 -0.009950 
#    y -0.005190 1.871030 -0.000560 
#    z -0.009950 -0.000560 1.865590 
# 
# From -- ./inp_files/127696.got.cif
#   From: 2010.06.25/outbox.cif.g09.slc.cpg/sg2_64_cif.got.tgz:127696.got - 2010.06.27 13:26:56.
