data_PCOD8028418
_publ_section_title
;
Structure prediction by ZEFSAII (Michael W. Deem and Ramdas Pophale) SiO2 
 PCOD8028418
Probable space group: P -1
;
_chemical_formula_sum "Si O2"
_cell_formula_units_Z 16
_cell_length_a 11.344546
_cell_length_b 14.514074
_cell_length_c 8.620048
_cell_angle_alpha 67.975538
_cell_angle_beta 104.934550
_cell_angle_gamma 146.125119
_cell_volume 729.419058
_symmetry_space_group_name_H-M "P -1"
_symmetry_group_IT_number 2
_symmetry_cell_setting 'triclinic'
loop_
_space_group_symop_operation_xyz
x,y,z
-x,-y,-z
loop_
_atom_site_type_symbol
_atom_site_label
_atom_site_fract_x
_atom_site_fract_y
_atom_site_fract_z
Si Si1 0.319872 0.542964 0.393646
Si Si2 0.826462 0.156171 0.004675
Si Si3 0.361146 0.759286 0.068615
Si Si4 0.201408 0.403473 0.763626
Si Si5 0.931711 0.788281 0.674880
Si Si6 0.288763 0.248201 0.774500
Si Si7 0.520960 0.295737 0.103073
Si Si8 0.152007 0.065576 0.332301
O O1 0.280979 0.622937 0.248853
O O2 0.240606 0.504462 0.568479
O O3 0.567637 0.675165 0.379151
O O4 0.190426 0.367109 0.381115
O O5 0.965002 0.206196 0.158925
O O6 0.606102 0.951044 0.059078
O O7 0.793343 0.250771 0.962000
O O8 0.952838 0.226871 0.839174
O O9 0.344424 0.706647 0.919163
O O10 0.300793 0.368118 0.760485
O O11 0.318056 0.517637 0.887110
O O12 0.782213 0.776868 0.700350
O O13 0.110654 0.967514 0.526309
O O14 0.388857 0.250136 0.942923
O O15 0.049052 0.057841 0.773518
O O16 0.351278 0.146689 0.266156
#
# Coordination Sequence:
#
# PCOD8028418 Si02
#       8
#     2   2   2   2   2   2   2   2
#     4  11  24  41  64  98 132 167 206 263 314 372
#     4  11  24  47  68  91 121 169 216 262 317 377
#     4  10  25  46  69  89 124 166 214 266 319 370
#     4  12  24  38  66  96 132 164 212 259 314 376
#     4  11  23  39  65  94 132 170 205 257 316 377
#     4  11  21  40  61  93 135 171 203 256 313 379
#     4  11  23  38  64  96 128 166 214 257 313 373
#     4  11  23  37  66  99 132 168 209 257 313 379
#
# _framework density 21.935265000000001
#
# number of rings (size 3 to 8) (size 9 to 14) (size 15 to 20)
#    0.000    1.000    1.250    6.375    5.250    2.500 
#    0.000    0.625    0.000    0.000    0.000    0.000 
#    0.000    0.000    0.000    0.000    0.000    0.000 
#
# Total GULP energy -198371.026588 kJ/mol
# GULP energy per Si atom -12398.189162 kJ/mol
# Density = 2.188534 g / cm^3
# Si number density = 21.935265 Si / 1000 Ang^3
#
#
#
# Elastic Constant Matrix: (Units=GPa)
#
#
# Indices 1 2 3 4 5 6 
#
# 1 106.9735 15.7169 59.4988 -8.7408 5.6279 -15.9373
# 2 15.7169 67.5392 20.1164 -3.3828 2.4421 -15.7281
# 3 59.4988 20.1164 101.9795 -1.2446 -12.7239 -3.5433
# 4 -8.7408 -3.3828 -1.2446 27.6984 -5.7552 -6.5673
# 5 5.6279 2.4421 -12.7239 -5.7552 24.6828 -9.7246
# 6 -15.9373 -15.7281 -3.5433 -6.5673 -9.7246 29.4857
#
#
#
# Elastic Compliance Matrix: (Units=1/GPa)
#
#
# Indices 1 2 3 4 5 6 
#
# 1 0.016912 0.001646 -0.010379 0.006187 -0.004514 0.008661
# 2 0.001646 0.018697 -0.003887 0.005999 0.002060 0.012411
# 3 -0.010379 -0.003887 0.017882 -0.001237 0.010794 -0.002250
# 4 0.006187 0.005999 -0.001237 0.047770 0.017479 0.022800
# 5 -0.004514 0.002060 0.010794 0.017479 0.060336 0.023748
# 6 0.008661 0.012411 -0.002250 0.022800 0.023748 0.057857
#
#
# Mechanical properties :
#
#
# Convention : Reuss Voigt Hill
#
# Bulk Modulus (GPa) = 35.39686 51.90628 43.65157
# Shear Modulus (GPa) = 19.67643 28.45072 24.06357
#
# Velocity S-wave (km/s) = 2.99828 3.60534 3.31573
# Velocity P-wave (km/s) = 5.30644 6.40672 5.88236
#
# Compressibility (1/GPa) = 0.02825109
#
# Stress axis : x y z
#
# Youngs Moduli (GPa) = 59.12789 53.48396 55.92362
#
# Poissons Ratio (x) = -0.08802 0.58042
# Poissons Ratio (y) = -0.09731 0.21738
# Poissons Ratio (z) = 0.61368 0.20789
#
# Static dielectric constant tensor:
#      x y z
#    x 4.113690 -0.173770 -0.252010 
#    y -0.173770 4.009560 -0.108450 
#    z -0.252010 -0.108450 4.208080 
# 
# 
# High freq. dielectric constant tensor:
#      x y z
#    x 1.850060 -0.014450 -0.013190 
#    y -0.014450 1.871140 -0.008560 
#    z -0.013190 -0.008560 1.870310 
# 
# From -- ./inp_files/272563.got.cif
#   From: 2010.06.25/outbox.cif.g09.slc.cpg/sg2_137_cif.got.tgz:272563.got - 2010.06.27 13:26:56.
