data_PCOD8028652
_publ_section_title
;
Structure prediction by ZEFSAII (Michael W. Deem and Ramdas Pophale) SiO2 
 PCOD8028652
Probable space group: P -1
;
_chemical_formula_sum "Si O2"
_cell_formula_units_Z 16
_cell_length_a 5.160203
_cell_length_b 17.432198
_cell_length_c 22.665128
_cell_angle_alpha 20.674368
_cell_angle_beta 96.970700
_cell_angle_gamma 105.486181
_cell_volume 642.348631
_symmetry_space_group_name_H-M "P -1"
_symmetry_group_IT_number 2
_symmetry_cell_setting 'triclinic'
loop_
_space_group_symop_operation_xyz
x,y,z
-x,-y,-z
loop_
_atom_site_type_symbol
_atom_site_label
_atom_site_fract_x
_atom_site_fract_y
_atom_site_fract_z
Si Si1 0.661424 0.496277 0.331284
Si Si2 0.669195 0.602542 0.490982
Si Si3 0.183384 0.623216 0.973504
Si Si4 0.226817 0.834040 0.151554
Si Si5 0.453806 0.983668 0.376596
Si Si6 0.991129 0.156152 0.086541
Si Si7 0.472847 0.228083 0.962748
Si Si8 0.933478 0.881773 0.646055
O O1 0.537056 0.388264 0.469168
O O2 0.735506 0.294350 0.447342
O O3 0.449159 0.559314 0.237114
O O4 0.935591 0.761206 0.157146
O O5 0.500000 0.500000 0.500000
O O6 0.804547 0.429082 0.642498
O O7 0.909420 0.873771 0.292713
O O8 0.002653 0.727360 0.933386
O O9 0.493618 0.838550 0.806723
O O10 0.222018 0.407013 0.162923
O O11 0.000000 0.500000 0.000000
O O12 0.500000 0.000000 0.000000
O O13 0.241868 0.972174 0.113327
O O14 0.293748 0.046336 0.379449
O O15 0.773602 0.023502 0.376223
O O16 0.764578 0.209714 0.001683
O O17 0.311280 0.280128 0.976811
O O18 0.000000 0.000000 0.500000
#
# Coordination Sequence:
#
# PCOD8028652 Si02
#       8
#     2   2   2   2   2   2   2   2
#     4  12  28  45  76 105 154 199 253 310 374 453
#     4  12  26  46  74 107 147 195 252 309 371 444
#     4  10  25  50  76 107 153 198 243 307 380 451
#     4  12  26  47  75 105 153 204 252 306 382 445
#     4  11  26  47  74 110 146 197 244 303 381 442
#     4  12  28  48  75 113 148 194 254 312 369 450
#     4  12  28  47  73 107 151 197 249 311 378 435
#     4  11  26  46  77 109 150 190 247 305 372 446
#
# _framework density 24.90859
#
# number of rings (size 3 to 8) (size 9 to 14) (size 15 to 20)
#    0.000    0.500    3.750    2.625    7.000    5.000 
#    0.000    0.000    0.000    0.000    0.000    0.000 
#    0.000    0.000    0.000    0.000    0.000    0.000 
#
# Total GULP energy -198401.762061 kJ/mol
# GULP energy per Si atom -12400.110129 kJ/mol
# Density = 2.485190 g / cm^3
# Si number density = 24.908590 Si / 1000 Ang^3
#
#
#
# Elastic Constant Matrix: (Units=GPa)
#
#
# Indices 1 2 3 4 5 6 
#
# 1 58.5731 0.7960 1.9537 10.4679 -0.2947 -18.3592
# 2 0.7960 109.0145 36.4461 4.4333 3.0955 -29.5838
# 3 1.9537 36.4461 119.9731 11.5810 11.2714 -8.5640
# 4 10.4679 4.4333 11.5810 52.5983 -3.9043 2.9620
# 5 -0.2947 3.0955 11.2714 -3.9043 36.8736 -3.7143
# 6 -18.3592 -29.5838 -8.5640 2.9620 -3.7143 42.9885
#
#
#
# Elastic Compliance Matrix: (Units=1/GPa)
#
#
# Indices 1 2 3 4 5 6 
#
# 1 0.021705 0.003293 -0.000051 -0.005216 0.000563 0.011934
# 2 0.003293 0.012930 -0.003201 -0.001539 0.000747 0.009838
# 3 -0.000051 -0.003201 0.009759 -0.002067 -0.002974 -0.000395
# 4 -0.005216 -0.001539 -0.002067 0.021095 0.002455 -0.004940
# 5 0.000563 0.000747 -0.002974 0.002455 0.028477 0.002454
# 6 0.011934 0.009838 -0.000395 -0.004940 0.002454 0.035602
#
#
# Mechanical properties :
#
#
# Convention : Reuss Voigt Hill
#
# Bulk Modulus (GPa) = 22.48369 40.66137 31.57253
# Shear Modulus (GPa) = 34.64670 43.04976 38.84823
#
# Velocity S-wave (km/s) = 3.73360 4.16180 3.95350
# Velocity P-wave (km/s) = 5.25665 6.28123 5.79164
#
# Compressibility (1/GPa) = 0.04447669
#
# Stress axis : x y z
#
# Youngs Moduli (GPa) = 46.07172 77.33752 102.46760
#
# Poissons Ratio (x) = -0.25471 0.00527
# Poissons Ratio (y) = -0.15173 0.32801
# Poissons Ratio (z) = 0.00237 0.24756
#
# Static dielectric constant tensor:
#      x y z
#    x 8.736190 0.105510 7.959140 
#    y 0.105510 4.777940 0.321050 
#    z 7.959140 0.321050 18.227540 
# 
# 
# High freq. dielectric constant tensor:
#      x y z
#    x 1.977160 -0.006680 0.014230 
#    y -0.006680 2.009400 0.000720 
#    z 0.014230 0.000720 2.011320 
# 
# From -- ./inp_files/135264.got.cif
#   From: 2010.06.25/outbox.cif.g09.slc.cpg/sg2_68_cif.got.tgz:135264.got - 2010.06.27 13:26:56.
