data_PCOD8028394
_publ_section_title
;
Structure prediction by ZEFSAII (Michael W. Deem and Ramdas Pophale) SiO2 
 PCOD8028394
Probable space group: P -1
;
_chemical_formula_sum "Si O2"
_cell_formula_units_Z 16
_cell_length_a 11.939701
_cell_length_b 8.977098
_cell_length_c 13.787317
_cell_angle_alpha 103.619961
_cell_angle_beta 149.023323
_cell_angle_gamma 94.446882
_cell_volume 613.116085
_symmetry_space_group_name_H-M "P -1"
_symmetry_group_IT_number 2
_symmetry_cell_setting 'triclinic'
loop_
_space_group_symop_operation_xyz
x,y,z
-x,-y,-z
loop_
_atom_site_type_symbol
_atom_site_label
_atom_site_fract_x
_atom_site_fract_y
_atom_site_fract_z
Si Si1 0.616098 0.070768 0.449805
Si Si2 0.319608 0.449175 0.211346
Si Si3 0.869574 0.029523 0.797674
Si Si4 0.510547 0.749994 0.003033
Si Si5 0.222873 0.549910 0.352873
Si Si6 0.169088 0.853187 0.957062
Si Si7 0.504672 0.569820 0.159017
Si Si8 0.887835 0.155995 0.309277
O O1 0.763820 0.989598 0.600717
O O2 0.821460 0.291780 0.622764
O O3 0.382827 0.054695 0.336214
O O4 0.479581 0.964171 0.231938
O O5 0.301208 0.571548 0.300127
O O6 0.561863 0.435221 0.413141
O O7 0.371745 0.551234 0.161933
O O8 0.053294 0.248746 0.981827
O O9 0.014027 0.925990 0.913427
O O10 0.411937 0.656069 0.022186
O O11 0.766183 0.958071 0.240217
O O12 0.581221 0.634144 0.969650
O O13 0.280716 0.756923 0.781102
O O14 0.950886 0.357172 0.138044
O O15 0.137953 0.889904 0.830231
O O16 0.819401 0.700932 0.416571
#
# Coordination Sequence:
#
# PCOD8028394 Si02
#       8
#     2   2   2   2   2   2   2   2
#     4  11  25  42  62  93 137 184 220 269 320 385
#     4  11  21  40  69 100 132 183 219 264 333 400
#     4  11  23  42  62  91 137 180 222 271 320 383
#     4  10  25  46  68 102 130 166 226 283 331 400
#     4  11  23  41  67  97 138 178 218 267 320 397
#     4  12  23  44  68  97 136 178 223 267 332 400
#     4  11  23  45  72  97 135 173 217 277 342 388
#     4  11  24  44  73  98 130 174 219 279 339 394
#
# _framework density 26.096198999999999
#
# number of rings (size 3 to 8) (size 9 to 14) (size 15 to 20)
#    0.000    1.000    3.750    3.375    0.000    2.500 
#    4.500    5.000    0.000    0.000    0.000    0.000 
#    0.000    0.000    0.000    0.000    0.000    0.000 
#
# Total GULP energy -198432.314685 kJ/mol
# GULP energy per Si atom -12402.019668 kJ/mol
# Density = 2.603680 g / cm^3
# Si number density = 26.096199 Si / 1000 Ang^3
#
#
#
# Elastic Constant Matrix: (Units=GPa)
#
#
# Indices 1 2 3 4 5 6 
#
# 1 56.4220 13.0505 -8.8533 11.5499 -11.7963 19.1765
# 2 13.0505 130.3257 48.9532 17.3065 -5.6580 13.8401
# 3 -8.8533 48.9532 100.6463 3.3347 -15.3005 -9.5718
# 4 11.5499 17.3065 3.3347 44.0935 9.6356 -3.9467
# 5 -11.7963 -5.6580 -15.3005 9.6356 25.0725 -5.7600
# 6 19.1765 13.8401 -9.5718 -3.9467 -5.7600 24.6849
#
#
#
# Elastic Compliance Matrix: (Units=1/GPa)
#
#
# Indices 1 2 3 4 5 6 
#
# 1 0.032781 0.000443 0.003871 -0.015107 0.018569 -0.022296
# 2 0.000443 0.011973 -0.006978 -0.004831 -0.002020 -0.011007
# 3 0.003871 -0.006978 0.016740 -0.001554 0.013421 0.010279
# 4 -0.015107 -0.004831 -0.001554 0.034098 -0.018827 0.014901
# 5 0.018569 -0.002020 0.013421 -0.018827 0.064498 0.003951
# 6 -0.022296 -0.011007 0.010279 0.014901 0.003951 0.071293
#
#
# Mechanical properties :
#
#
# Convention : Reuss Voigt Hill
#
# Bulk Modulus (GPa) = 17.80444 43.74388 30.77416
# Shear Modulus (GPa) = 19.57472 34.38643 26.98057
#
# Velocity S-wave (km/s) = 2.74176 3.63392 3.21890
# Velocity P-wave (km/s) = 4.10615 5.86567 5.06293
#
# Compressibility (1/GPa) = 0.05616578
#
# Stress axis : x y z
#
# Youngs Moduli (GPa) = 30.50538 83.52447 59.73848
#
# Poissons Ratio (x) = -0.03704 -0.23124
# Poissons Ratio (y) = -0.01353 0.41686
# Poissons Ratio (z) = -0.11808 0.58284
#
# Static dielectric constant tensor:
#      x y z
#    x 4.452800 0.106950 -0.122220 
#    y 0.106950 4.763670 -0.064640 
#    z -0.122220 -0.064640 5.075110 
# 
# 
# High freq. dielectric constant tensor:
#      x y z
#    x 2.019840 0.004750 -0.005740 
#    y 0.004750 2.056310 -0.001670 
#    z -0.005740 -0.001670 2.062760 
# 
# From -- ./inp_files/529847.got.cif
#   From: 2010.06.25/outbox.cif.g09.slc.cpg/sg2_265_cif.got.tgz:529847.got - 2010.06.27 13:26:56.
