data_PCOD8028948
_publ_section_title
;
Structure prediction by ZEFSAII (Michael W. Deem and Ramdas Pophale) SiO2 
 PCOD8028948
Probable space group: P -1
;
_chemical_formula_sum "Si O2"
_cell_formula_units_Z 16
_cell_length_a 9.255077
_cell_length_b 12.398853
_cell_length_c 18.438024
_cell_angle_alpha 46.928007
_cell_angle_beta 76.458099
_cell_angle_gamma 39.245022
_cell_volume 753.147304
_symmetry_space_group_name_H-M "P -1"
_symmetry_group_IT_number 2
_symmetry_cell_setting 'triclinic'
loop_
_space_group_symop_operation_xyz
x,y,z
-x,-y,-z
loop_
_atom_site_type_symbol
_atom_site_label
_atom_site_fract_x
_atom_site_fract_y
_atom_site_fract_z
Si Si1 0.685430 0.336743 0.626550
Si Si2 0.339305 0.631616 0.880266
Si Si3 0.416409 0.301151 0.228775
Si Si4 0.054457 0.361912 0.985801
Si Si5 0.527296 0.720296 0.224069
Si Si6 0.942903 0.632170 0.240359
Si Si7 0.977086 0.674051 0.384228
Si Si8 0.469846 0.244014 0.952200
O O1 0.500000 0.500000 0.500000
O O2 0.463762 0.441160 0.659388
O O3 0.734636 0.466512 0.582471
O O4 0.000088 0.980200 0.756539
O O5 0.534697 0.564171 0.832962
O O6 0.352426 0.451790 0.934115
O O7 0.500000 0.500000 0.000000
O O8 0.241282 0.420910 0.120554
O O9 0.274514 0.352963 0.294916
O O10 0.731525 0.961168 0.330762
O O11 0.249390 0.296650 0.939985
O O12 0.000000 0.500000 0.000000
O O13 0.228637 0.064059 0.123260
O O14 0.810624 0.581231 0.270984
O O15 0.510560 0.686633 0.157494
O O16 0.911863 0.703473 0.294480
O O17 0.783298 0.900825 0.091810
O O18 0.000000 0.500000 0.500000
#
# Coordination Sequence:
#
# PCOD8028948 Si02
#       8
#     2   2   2   2   2   2   2   2
#     4  11  25  46  67  93 131 175 224 271 329 398
#     4  11  24  41  65 100 133 173 217 276 337 392
#     4  11  22  40  63  95 131 165 223 276 333 393
#     4  11  19  35  62  94 130 170 212 267 329 395
#     4  11  21  39  62  97 134 168 213 268 327 396
#     4  11  22  41  66  98 135 169 218 277 332 396
#     4  11  26  45  67  91 124 177 227 275 335 393
#     4  11  21  36  62 100 133 168 212 267 333 393
#
# _framework density 21.244185000000002
#
# number of rings (size 3 to 8) (size 9 to 14) (size 15 to 20)
#    0.000    1.000    2.500    6.750    1.750    2.000 
#    0.000    0.625    0.000    0.000    0.000    0.000 
#    0.000    0.000    0.000    0.000    0.000    0.000 
#
# Total GULP energy -198271.073469 kJ/mol
# GULP energy per Si atom -12391.942092 kJ/mol
# Density = 2.119583 g / cm^3
# Si number density = 21.244185 Si / 1000 Ang^3
#
#
#
# Elastic Constant Matrix: (Units=GPa)
#
#
# Indices 1 2 3 4 5 6 
#
# 1 133.0753 23.2376 51.3047 16.5519 -21.5190 -7.1623
# 2 23.2376 81.6090 32.3935 16.4931 -11.4813 -1.2873
# 3 51.3047 32.3935 87.3937 23.7022 0.8031 -13.8926
# 4 16.5519 16.4931 23.7022 31.9189 -5.9962 -4.8974
# 5 -21.5190 -11.4813 0.8031 -5.9962 34.0255 11.2327
# 6 -7.1623 -1.2873 -13.8926 -4.8974 11.2327 34.8610
#
#
#
# Elastic Compliance Matrix: (Units=1/GPa)
#
#
# Indices 1 2 3 4 5 6 
#
# 1 0.011659 0.000990 -0.008033 0.000576 0.009205 -0.003654
# 2 0.000990 0.016145 -0.006416 -0.003451 0.007114 -0.004534
# 3 -0.008033 -0.006416 0.023118 -0.010585 -0.012963 0.010015
# 4 0.000576 -0.003451 -0.010585 0.041902 0.007035 -0.000607
# 5 0.009205 0.007114 -0.012963 0.007035 0.044566 -0.016384
# 6 -0.003654 -0.004534 0.010015 -0.000607 -0.016384 0.036952
#
#
# Mechanical properties :
#
#
# Convention : Reuss Voigt Hill
#
# Bulk Modulus (GPa) = 41.65928 57.32776 49.49352
# Shear Modulus (GPa) = 23.89349 33.17054 28.53201
#
# Velocity S-wave (km/s) = 3.35730 3.95573 3.66874
# Velocity P-wave (km/s) = 5.88905 6.92153 6.42606
#
# Compressibility (1/GPa) = 0.02400426
#
# Stress axis : x y z
#
# Youngs Moduli (GPa) = 85.77170 61.93842 43.25576
#
# Poissons Ratio (x) = -0.06130 0.34748
# Poissons Ratio (y) = -0.08489 0.27751
# Poissons Ratio (z) = 0.68901 0.39737
#
# Static dielectric constant tensor:
#      x y z
#    x 4.638240 0.158360 -0.190200 
#    y 0.158360 4.314790 0.285980 
#    z -0.190200 0.285980 3.854110 
# 
# 
# High freq. dielectric constant tensor:
#      x y z
#    x 1.856260 -0.012240 -0.003120 
#    y -0.012240 1.834960 0.014910 
#    z -0.003120 0.014910 1.811580 
# 
# From -- ./inp_files/185124.got.cif
#   From: 2010.06.25/outbox.cif.g09.slc.cpg/sg2_93_cif.got.tgz:185124.got - 2010.06.27 13:26:56.
