data_PCOD8028417
_publ_section_title
;
Structure prediction by ZEFSAII (Michael W. Deem and Ramdas Pophale) SiO2 
 PCOD8028417
Probable space group: P -1
;
_chemical_formula_sum "Si O2"
_cell_formula_units_Z 14
_cell_length_a 11.675230
_cell_length_b 5.651292
_cell_length_c 11.957623
_cell_angle_alpha 115.713814
_cell_angle_beta 110.235255
_cell_angle_gamma 51.856451
_cell_volume 555.659808
_symmetry_space_group_name_H-M "P -1"
_symmetry_group_IT_number 2
_symmetry_cell_setting 'triclinic'
loop_
_space_group_symop_operation_xyz
x,y,z
-x,-y,-z
loop_
_atom_site_type_symbol
_atom_site_label
_atom_site_fract_x
_atom_site_fract_y
_atom_site_fract_z
Si Si1 0.941492 0.853543 0.591015
Si Si2 0.679847 0.499707 0.564280
Si Si3 0.439034 0.368242 0.043920
Si Si4 0.157559 0.883282 0.982628
Si Si5 0.125783 0.279111 0.237218
Si Si6 0.857899 0.943172 0.241794
Si Si7 0.552679 0.355293 0.308344
O O1 0.914769 0.901543 0.725860
O O2 0.000000 0.500000 0.500000
O O3 0.786054 0.117659 0.537087
O O4 0.070343 0.913797 0.625196
O O5 0.777184 0.640022 0.640085
O O6 0.603813 0.567925 0.429728
O O7 0.547548 0.681784 0.645669
O O8 0.457416 0.504840 0.195036
O O9 0.500000 0.500000 0.000000
O O10 0.269608 0.522549 0.985176
O O11 0.500000 0.000000 0.000000
O O12 0.172378 0.919549 0.865029
O O13 0.208082 0.080093 0.112992
O O14 0.000000 0.000000 0.000000
O O15 0.970607 0.571927 0.201723
O O16 0.704327 0.026888 0.259074
#
# Coordination Sequence:
#
# PCOD8028417 Si02
#       7
#     2   2   2   2   2   2   2
#     4  11  22  42  69 102 142 188 253 311 381 450
#     4  10  25  46  69 106 146 203 248 317 380 470
#     4  12  30  52  79 115 157 205 261 324 394 470
#     4  12  26  47  74 109 145 201 256 323 389 465
#     4  11  24  44  73 106 145 189 257 316 382 461
#     4  11  24  43  71 107 142 196 252 314 389 457
#     4  11  24  48  71 104 153 199 255 309 396 456
#
# _framework density 25.195271999999999
#
# number of rings (size 3 to 8) (size 9 to 14) (size 15 to 20)
#    0.000    0.857    2.857    3.000    6.000    3.429 
#    2.571    4.286    0.000    0.000    0.000    0.000 
#    0.000    0.000    0.000    0.000    0.000    0.000 
#
# Total GULP energy -173464.437231 kJ/mol
# GULP energy per Si atom -12390.316945 kJ/mol
# Density = 2.513793 g / cm^3
# Si number density = 25.195272 Si / 1000 Ang^3
#
#
#
# Elastic Constant Matrix: (Units=GPa)
#
#
# Indices 1 2 3 4 5 6 
#
# 1 103.9227 50.2882 20.5038 -9.2390 -6.9268 -29.9120
# 2 50.2882 109.8603 30.4369 -11.5046 -0.7798 -11.0456
# 3 20.5038 30.4369 152.5584 -23.2498 -4.0081 -8.4585
# 4 -9.2390 -11.5046 -23.2498 41.8119 -7.0838 5.0964
# 5 -6.9268 -0.7798 -4.0081 -7.0838 36.6477 0.0321
# 6 -29.9120 -11.0456 -8.4585 5.0964 0.0321 36.8568
#
#
#
# Elastic Compliance Matrix: (Units=1/GPa)
#
#
# Indices 1 2 3 4 5 6 
#
# 1 0.016061 -0.006088 -0.000099 0.000994 0.003078 0.011048
# 2 -0.006088 0.012265 -0.001561 0.001242 -0.000819 -0.001794
# 3 -0.000099 -0.001561 0.007554 0.003931 0.001534 0.000641
# 4 0.000994 0.001242 0.003931 0.027904 0.006040 -0.001783
# 5 0.003078 -0.000819 0.001534 0.006040 0.029185 0.001744
# 6 0.011048 -0.001794 0.000641 -0.001783 0.001744 0.035952
#
#
# Mechanical properties :
#
#
# Convention : Reuss Voigt Hill
#
# Bulk Modulus (GPa) = 49.05375 63.19991 56.12683
# Shear Modulus (GPa) = 33.06585 40.73745 36.90165
#
# Velocity S-wave (km/s) = 3.62661 4.02539 3.83120
# Velocity P-wave (km/s) = 6.08672 6.83693 6.47270
#
# Compressibility (1/GPa) = 0.02038580
#
# Stress axis : x y z
#
# Youngs Moduli (GPa) = 62.26119 81.53019 132.37196
#
# Poissons Ratio (x) = 0.49635 0.01313
# Poissons Ratio (y) = 0.37904 0.20658
# Poissons Ratio (z) = 0.00618 0.12724
#
# Static dielectric constant tensor:
#      x y z
#    x 4.680530 -0.443050 0.085640 
#    y -0.443050 4.603460 -0.059840 
#    z 0.085640 -0.059840 5.159310 
# 
# 
# High freq. dielectric constant tensor:
#      x y z
#    x 2.007370 -0.029460 0.003160 
#    y -0.029460 1.988870 -0.008380 
#    z 0.003160 -0.008380 2.036180 
# 
# From -- ./inp_files/411106.got.cif
#   From: 2010.06.25/outbox.cif.g09.slc.cpg/sg2_206_cif.got.tgz:411106.got - 2010.06.27 13:26:56.
