data_PCOD8028180
_publ_section_title
;
Structure prediction by ZEFSAII (Michael W. Deem and Ramdas Pophale) SiO2 
 PCOD8028180
Probable space group: P -1
;
_chemical_formula_sum "Si O2"
_cell_formula_units_Z 16
_cell_length_a 6.749653
_cell_length_b 24.593661
_cell_length_c 11.700144
_cell_angle_alpha 31.826600
_cell_angle_beta 132.797845
_cell_angle_gamma 132.342018
_cell_volume 727.888101
_symmetry_space_group_name_H-M "P -1"
_symmetry_group_IT_number 2
_symmetry_cell_setting 'triclinic'
loop_
_space_group_symop_operation_xyz
x,y,z
-x,-y,-z
loop_
_atom_site_type_symbol
_atom_site_label
_atom_site_fract_x
_atom_site_fract_y
_atom_site_fract_z
Si Si1 0.318307 0.262857 0.776051
Si Si2 0.716678 0.418688 0.485824
Si Si3 0.739480 0.976958 0.863002
Si Si4 0.490692 0.748639 0.886705
Si Si5 0.658703 0.882463 0.492165
Si Si6 0.203663 0.916370 0.524892
Si Si7 0.271254 0.700194 0.528003
Si Si8 0.686691 0.444061 0.996548
O O1 0.561200 0.353261 0.650295
O O2 0.020104 0.274494 0.592748
O O3 0.376288 0.148175 0.979994
O O4 0.318456 0.273635 0.894592
O O5 0.756666 0.333657 0.556261
O O6 0.000000 0.500000 0.500000
O O7 0.525934 0.482733 0.231494
O O8 0.480825 0.018599 0.733962
O O9 0.904624 0.049725 0.696169
O O10 0.000000 0.000000 0.000000
O O11 0.651998 0.827093 0.711682
O O12 0.242423 0.796463 0.754405
O O13 0.362345 0.637013 0.981311
O O14 0.515457 0.804799 0.469943
O O15 0.986855 0.927470 0.517615
O O16 0.500000 0.000000 0.500000
O O17 0.341813 0.606414 0.798369
O O18 0.000000 0.500000 0.000000
#
# Coordination Sequence:
#
# PCOD8028180 Si02
#       8
#     2   2   2   2   2   2   2   2
#     4  12  25  47  70 104 147 180 232 296 351 419
#     4  12  29  46  71 106 140 187 239 293 357 420
#     4  11  24  44  69 105 140 180 228 285 357 410
#     4  10  25  44  69 103 139 184 232 287 354 412
#     4  10  25  44  73 103 140 183 239 281 347 433
#     4  11  24  46  68 101 140 188 225 282 351 419
#     4  11  25  45  73 105 133 184 238 288 356 417
#     4  11  24  47  74  97 137 185 230 295 349 410
#
# _framework density 21.981399
#
# number of rings (size 3 to 8) (size 9 to 14) (size 15 to 20)
#    0.000    1.000    3.750    1.125    5.250    7.500 
#    2.250    0.000    0.000    0.000    0.000    0.000 
#    0.000    0.000    0.000    0.000    0.000    0.000 
#
# Total GULP energy -198265.827962 kJ/mol
# GULP energy per Si atom -12391.614248 kJ/mol
# Density = 2.193137 g / cm^3
# Si number density = 21.981399 Si / 1000 Ang^3
#
#
#
# Elastic Constant Matrix: (Units=GPa)
#
#
# Indices 1 2 3 4 5 6 
#
# 1 134.7012 48.0183 38.4698 3.1272 10.8069 7.3110
# 2 48.0183 104.0776 29.5169 7.1210 -8.3199 -1.9503
# 3 38.4698 29.5169 110.0012 8.9333 8.7416 0.2507
# 4 3.1272 7.1210 8.9333 39.3418 -10.1054 0.4279
# 5 10.8069 -8.3199 8.7416 -10.1054 29.0286 4.8227
# 6 7.3110 -1.9503 0.2507 0.4279 4.8227 42.2899
#
#
#
# Elastic Compliance Matrix: (Units=1/GPa)
#
#
# Indices 1 2 3 4 5 6 
#
# 1 0.009980 -0.004397 -0.001902 -0.000682 -0.004407 -0.001407
# 2 -0.004397 0.012792 -0.002375 0.000091 0.005936 0.000686
# 3 -0.001902 -0.002375 0.010996 -0.003071 -0.004469 0.000695
# 4 -0.000682 0.000091 -0.003071 0.029148 0.011597 -0.001477
# 5 -0.004407 0.005936 -0.004469 0.011597 0.043847 -0.004056
# 6 -0.001407 0.000686 0.000695 -0.001477 -0.004056 0.024395
#
#
# Mechanical properties :
#
#
# Convention : Reuss Voigt Hill
#
# Bulk Modulus (GPa) = 60.90165 64.53222 62.71694
# Shear Modulus (GPa) = 32.47171 37.65040 35.06106
#
# Velocity S-wave (km/s) = 3.84765 4.14313 3.99812
# Velocity P-wave (km/s) = 6.89241 7.23248 7.06449
#
# Compressibility (1/GPa) = 0.01641992
#
# Stress axis : x y z
#
# Youngs Moduli (GPa) = 100.19806 78.17502 90.94084
#
# Poissons Ratio (x) = 0.34376 0.17293
# Poissons Ratio (y) = 0.44060 0.21601
# Poissons Ratio (z) = 0.19053 0.18569
#
# Static dielectric constant tensor:
#      x y z
#    x 3.753030 -0.182040 0.143120 
#    y -0.182040 4.162230 0.278350 
#    z 0.143120 0.278350 4.462130 
# 
# 
# High freq. dielectric constant tensor:
#      x y z
#    x 1.859300 -0.011720 0.005470 
#    y -0.011720 1.876520 0.007360 
#    z 0.005470 0.007360 1.882300 
# 
# From -- ./inp_files/371428.got.cif
#   From: 2010.06.25/outbox.cif.g09.slc.cpg/sg2_186_cif.got.tgz:371428.got - 2010.06.27 13:26:56.
