data_PCOD8028324
_publ_section_title
;
Structure prediction by ZEFSAII (Michael W. Deem and Ramdas Pophale) SiO2 
 PCOD8028324
Probable space group: P -1
;
_chemical_formula_sum "Si O2"
_cell_formula_units_Z 10
_cell_length_a 8.361618
_cell_length_b 9.072908
_cell_length_c 9.214083
_cell_angle_alpha 108.437158
_cell_angle_beta 29.845976
_cell_angle_gamma 103.269378
_cell_volume 328.536192
_symmetry_space_group_name_H-M "P -1"
_symmetry_group_IT_number 2
_symmetry_cell_setting 'triclinic'
loop_
_space_group_symop_operation_xyz
x,y,z
-x,-y,-z
loop_
_atom_site_type_symbol
_atom_site_label
_atom_site_fract_x
_atom_site_fract_y
_atom_site_fract_z
Si Si1 0.360808 0.369396 0.671303
Si Si2 0.372188 0.964959 0.248834
Si Si3 0.040671 0.512447 0.230432
Si Si4 0.156505 0.847270 0.905787
Si Si5 0.970151 0.751877 0.607574
O O1 0.282318 0.472236 0.614147
O O2 0.710384 0.271538 0.362978
O O3 0.335636 0.477884 0.871254
O O4 0.095442 0.243218 0.833403
O O5 0.291512 0.845760 0.407162
O O6 0.542013 0.111720 0.221401
O O7 0.633127 0.872745 0.901139
O O8 0.000000 0.000000 0.500000
O O9 0.045392 0.670556 0.366091
O O10 0.070797 0.369108 0.272489
O O11 0.000000 0.000000 0.000000
#
# Coordination Sequence:
#
# PCOD8028324 Si02
#       5
#     2   2   2   2   2
#     4  11  25  45  72 102 141 185 233 287 349 415
#     4  12  25  45  72 102 140 184 232 287 348 416
#     4  10  25  45  71 104 141 184 233 289 348 414
#     4  12  26  45  71 103 140 184 235 289 347 414
#     4  11  25  44  71 103 139 181 233 288 347 412
#
# _framework density 30.438047000000001
#
# number of rings (size 3 to 8) (size 9 to 14) (size 15 to 20)
#    0.000    0.800    0.000    6.000    0.000   14.400 
#    0.000    0.000    0.000    0.000    0.000    0.000 
#    0.000    0.000    0.000    0.000    0.000    0.000 
#
# Total GULP energy -123919.365176 kJ/mol
# GULP energy per Si atom -12391.936518 kJ/mol
# Density = 3.036877 g / cm^3
# Si number density = 30.438047 Si / 1000 Ang^3
#
#
#
# Elastic Constant Matrix: (Units=GPa)
#
#
# Indices 1 2 3 4 5 6 
#
# 1 124.4176 49.7106 57.8449 5.6514 11.0082 4.0738
# 2 49.7106 168.2504 100.4039 16.0134 -0.5006 8.7773
# 3 57.8449 100.4039 239.3363 18.2583 11.1498 -20.4354
# 4 5.6514 16.0134 18.2583 68.1853 1.7566 -12.1008
# 5 11.0082 -0.5006 11.1498 1.7566 61.8246 -8.0747
# 6 4.0738 8.7773 -20.4354 -12.1008 -8.0747 36.2304
#
#
#
# Elastic Compliance Matrix: (Units=1/GPa)
#
#
# Indices 1 2 3 4 5 6 
#
# 1 0.009758 -0.001729 -0.001713 -0.000276 -0.001711 -0.002118
# 2 -0.001729 0.009045 -0.003649 -0.001825 0.000496 -0.004554
# 3 -0.001713 -0.003649 0.006533 0.000096 -0.000288 0.004730
# 4 -0.000276 -0.001825 0.000096 0.016147 0.000341 0.005997
# 5 -0.001711 0.000496 -0.000288 0.000341 0.017024 0.003818
# 6 -0.002118 -0.004554 0.004730 0.005997 0.003818 0.034464
#
#
# Mechanical properties :
#
#
# Convention : Reuss Voigt Hill
#
# Bulk Modulus (GPa) = 89.66218 105.32480 97.49349
# Shear Modulus (GPa) = 45.09707 54.85102 49.97405
#
# Velocity S-wave (km/s) = 3.85333 4.24967 4.05634
# Velocity P-wave (km/s) = 7.02273 7.66536 7.35107
#
# Compressibility (1/GPa) = 0.01115297
#
# Stress axis : x y z
#
# Youngs Moduli (GPa) = 102.47918 110.56072 153.06808
#
# Poissons Ratio (x) = 0.19117 0.26223
# Poissons Ratio (y) = 0.17720 0.55858
# Poissons Ratio (z) = 0.17556 0.40346
#
# Static dielectric constant tensor:
#      x y z
#    x 5.991310 0.261920 0.214910 
#    y 0.261920 7.603990 -0.158130 
#    z 0.214910 -0.158130 6.460500 
# 
# 
# High freq. dielectric constant tensor:
#      x y z
#    x 2.248830 -0.013820 -0.001590 
#    y -0.013820 2.307220 -0.017450 
#    z -0.001590 -0.017450 2.281500 
# 
# From -- ./inp_files/165274.got.cif
#   From: 2010.06.25/outbox.cif.g09.slc.cpg/sg2_83_cif.got.tgz:165274.got - 2010.06.27 13:26:56.
