data_PCOD8028823
_publ_section_title
;
Structure prediction by ZEFSAII (Michael W. Deem and Ramdas Pophale) SiO2 
 PCOD8028823
Probable space group: P -1
;
_chemical_formula_sum "Si O2"
_cell_formula_units_Z 16
_cell_length_a 12.777173
_cell_length_b 8.438490
_cell_length_c 8.854892
_cell_angle_alpha 122.601862
_cell_angle_beta 121.294330
_cell_angle_gamma 72.016446
_cell_volume 686.731195
_symmetry_space_group_name_H-M "P -1"
_symmetry_group_IT_number 2
_symmetry_cell_setting 'triclinic'
loop_
_space_group_symop_operation_xyz
x,y,z
-x,-y,-z
loop_
_atom_site_type_symbol
_atom_site_label
_atom_site_fract_x
_atom_site_fract_y
_atom_site_fract_z
Si Si1 0.343440 0.563213 0.248836
Si Si2 0.849154 0.735048 0.095978
Si Si3 0.400999 0.606306 0.642428
Si Si4 0.374263 0.939386 0.307475
Si Si5 0.632054 0.031553 0.038605
Si Si6 0.902868 0.528068 0.307900
Si Si7 0.984674 0.788621 0.929122
Si Si8 0.756729 0.703501 0.531103
O O1 0.365056 0.668408 0.477625
O O2 0.452393 0.403102 0.226475
O O3 0.347102 0.721931 0.203323
O O4 0.216260 0.458448 0.095076
O O5 0.923208 0.697379 0.289453
O O6 0.744357 0.899775 0.117297
O O7 0.956580 0.782080 0.082713
O O8 0.335904 0.755509 0.783685
O O9 0.355480 0.395956 0.524920
O O10 0.500000 0.000000 0.500000
O O11 0.272273 0.072306 0.385361
O O12 0.372869 0.987074 0.153949
O O13 0.500000 0.000000 0.000000
O O14 0.776288 0.599118 0.330657
O O15 0.000000 0.500000 0.500000
O O16 0.895528 0.334150 0.104068
O O17 0.875772 0.680160 0.712555
O O18 0.000000 0.000000 0.000000
#
# Coordination Sequence:
#
# PCOD8028823 Si02
#       8
#     2   2   2   2   2   2   2   2
#     4  11  24  41  70 105 145 195 227 280 366 434
#     4  12  25  47  76 103 143 192 234 299 370 423
#     4  11  23  43  67 103 154 187 228 285 352 443
#     4  12  25  42  69 105 151 193 235 284 346 439
#     4  12  26  42  69 110 150 189 240 280 349 448
#     4  10  27  49  72 101 137 184 247 312 355 415
#     4  11  25  50  74  98 134 186 252 307 357 417
#     4  11  24  46  70 100 146 187 231 295 365 415
#
# _framework density 23.298779
#
# number of rings (size 3 to 8) (size 9 to 14) (size 15 to 20)
#    0.000    0.750    5.000    1.125    8.750    0.500 
#    0.000    2.500    0.000    0.000    0.000    0.000 
#    0.000    0.000    0.000    0.000    0.000    0.000 
#
# Total GULP energy -198285.396311 kJ/mol
# GULP energy per Si atom -12392.837269 kJ/mol
# Density = 2.324575 g / cm^3
# Si number density = 23.298779 Si / 1000 Ang^3
#
#
#
# Elastic Constant Matrix: (Units=GPa)
#
#
# Indices 1 2 3 4 5 6 
#
# 1 108.1382 50.3211 39.2023 -1.5310 -34.4749 2.1670
# 2 50.3211 150.2796 58.2936 -9.1258 -31.3574 -1.4208
# 3 39.2023 58.2936 77.0995 -8.2628 -15.9062 -7.1647
# 4 -1.5310 -9.1258 -8.2628 44.5911 -1.5124 -7.7123
# 5 -34.4749 -31.3574 -15.9062 -1.5124 38.2824 13.2548
# 6 2.1670 -1.4208 -7.1647 -7.7123 13.2548 46.1315
#
#
#
# Elastic Compliance Matrix: (Units=1/GPa)
#
#
# Indices 1 2 3 4 5 6 
#
# 1 0.015912 -0.000443 -0.005606 -0.001112 0.013573 -0.005717
# 2 -0.000443 0.010801 -0.006743 0.000744 0.006522 -0.002443
# 3 -0.005606 -0.006743 0.020990 0.003032 -0.003391 0.004797
# 4 -0.001112 0.000744 0.003032 0.023883 0.000267 0.004462
# 5 0.013573 0.006522 -0.003391 0.000267 0.047313 -0.014513
# 6 -0.005717 -0.002443 0.004797 0.004462 -0.014513 0.027531
#
#
# Mechanical properties :
#
#
# Convention : Reuss Voigt Hill
#
# Bulk Modulus (GPa) = 45.21004 70.12791 57.66898
# Shear Modulus (GPa) = 27.87269 38.31436 33.09353
#
# Velocity S-wave (km/s) = 3.46253 4.05962 3.77290
# Velocity P-wave (km/s) = 5.95249 7.22072 6.61705
#
# Compressibility (1/GPa) = 0.02211898
#
# Stress axis : x y z
#
# Youngs Moduli (GPa) = 62.84692 92.58184 47.64187
#
# Poissons Ratio (x) = 0.04101 0.26707
# Poissons Ratio (y) = 0.02784 0.32125
# Poissons Ratio (z) = 0.35231 0.62429
#
# Static dielectric constant tensor:
#      x y z
#    x 4.219650 -0.118380 -0.376700 
#    y -0.118380 4.390860 -0.021580 
#    z -0.376700 -0.021580 4.147700 
# 
# 
# High freq. dielectric constant tensor:
#      x y z
#    x 1.920750 -0.009510 -0.015560 
#    y -0.009510 1.935220 -0.001340 
#    z -0.015560 -0.001340 1.911910 
# 
# From -- ./inp_files/188206.got.cif
#   From: 2010.06.25/outbox.cif.g09.slc.cpg/sg2_95_cif.got.tgz:188206.got - 2010.06.27 13:26:56.
