data_PCOD8028042
_publ_section_title
;
Structure prediction by ZEFSAII (Michael W. Deem and Ramdas Pophale) SiO2 
 PCOD8028042
Probable space group: P -1
;
_chemical_formula_sum "Si O2"
_cell_formula_units_Z 14
_cell_length_a 10.098016
_cell_length_b 12.522341
_cell_length_c 11.214182
_cell_angle_alpha 145.250619
_cell_angle_beta 116.379234
_cell_angle_gamma 86.541934
_cell_volume 581.010835
_symmetry_space_group_name_H-M "P -1"
_symmetry_group_IT_number 2
_symmetry_cell_setting 'triclinic'
loop_
_space_group_symop_operation_xyz
x,y,z
-x,-y,-z
loop_
_atom_site_type_symbol
_atom_site_label
_atom_site_fract_x
_atom_site_fract_y
_atom_site_fract_z
Si Si1 0.622216 0.794705 0.682287
Si Si2 0.095617 0.335460 0.881900
Si Si3 0.141171 0.721026 0.680614
Si Si4 0.053563 0.565479 0.880148
Si Si5 0.431514 0.945702 0.290072
Si Si6 0.716757 0.903890 0.246085
Si Si7 0.445097 0.661897 0.729805
O O1 0.458402 0.662962 0.593616
O O2 0.656601 0.598780 0.491170
O O3 0.533645 0.835706 0.570356
O O4 0.811972 0.034883 0.027346
O O5 0.167160 0.554512 0.025160
O O6 0.231893 0.267936 0.851676
O O7 0.892766 0.160846 0.580587
O O8 0.071591 0.368902 0.043520
O O9 0.335256 0.763781 0.814794
O O10 0.000000 0.500000 0.500000
O O11 0.075617 0.667053 0.466276
O O12 0.208507 0.762626 0.033910
O O13 0.532652 0.840720 0.179105
O O14 0.500000 0.000000 0.500000
O O15 0.655680 0.847702 0.031800
#
# Coordination Sequence:
#
# PCOD8028042 Si02
#       7
#     2   2   2   2   2   2   2
#     4  11  26  46  70 105 138 186 240 292 342 425
#     4  10  25  42  71 102 139 183 238 291 347 423
#     4  12  24  46  69 104 146 183 233 293 356 415
#     4  11  24  44  69 102 140 188 230 291 356 417
#     4  12  25  46  70 100 144 187 228 290 359 418
#     4  11  23  46  69 104 138 183 240 291 349 417
#     4  11  26  44  76 103 135 190 241 287 349 421
#
# _framework density 24.095935000000001
#
# number of rings (size 3 to 8) (size 9 to 14) (size 15 to 20)
#    0.000    0.857    4.286    1.286    8.000    1.143 
#    2.571    0.000    0.000    0.000    0.000    0.000 
#    0.000    0.000    0.000    0.000    0.000    0.000 
#
# Total GULP energy -173462.388906 kJ/mol
# GULP energy per Si atom -12390.170636 kJ/mol
# Density = 2.404109 g / cm^3
# Si number density = 24.095935 Si / 1000 Ang^3
#
#
#
# Elastic Constant Matrix: (Units=GPa)
#
#
# Indices 1 2 3 4 5 6 
#
# 1 65.4105 27.7859 -12.1263 3.3012 0.8389 0.3614
# 2 27.7859 120.9815 19.3976 -10.7380 4.9026 3.4305
# 3 -12.1263 19.3976 67.6723 -17.0784 -0.0627 3.5782
# 4 3.3012 -10.7380 -17.0784 45.7222 0.4149 -0.5780
# 5 0.8389 4.9026 -0.0627 0.4149 29.4521 -1.4366
# 6 0.3614 3.4305 3.5782 -0.5780 -1.4366 25.9416
#
#
#
# Elastic Compliance Matrix: (Units=1/GPa)
#
#
# Indices 1 2 3 4 5 6 
#
# 1 0.018290 -0.005004 0.004518 -0.000814 0.000323 -0.000216
# 2 -0.005004 0.010182 -0.003395 0.001488 -0.001623 -0.000865
# 3 0.004518 -0.003395 0.018078 0.005601 0.000300 -0.001966
# 4 -0.000814 0.001488 0.005601 0.024371 -0.000578 -0.000447
# 5 0.000323 -0.001623 0.000300 -0.000578 0.034323 0.002057
# 6 -0.000216 -0.000865 -0.001966 -0.000447 0.002057 0.039041
#
#
# Mechanical properties :
#
#
# Convention : Reuss Voigt Hill
#
# Bulk Modulus (GPa) = 25.78241 36.01985 30.90113
# Shear Modulus (GPa) = 30.30742 34.82366 32.56554
#
# Velocity S-wave (km/s) = 3.55037 3.80571 3.68026
# Velocity P-wave (km/s) = 5.24690 5.85596 5.55978
#
# Compressibility (1/GPa) = 0.03878613
#
# Stress axis : x y z
#
# Youngs Moduli (GPa) = 54.67616 98.21444 55.31650
#
# Poissons Ratio (x) = 0.49148 -0.24992
# Poissons Ratio (y) = 0.27361 0.18782
# Poissons Ratio (z) = -0.24703 0.33348
#
# Static dielectric constant tensor:
#      x y z
#    x 4.618040 0.139420 -0.067680 
#    y 0.139420 4.431410 -0.127370 
#    z -0.067680 -0.127370 4.537200 
# 
# 
# High freq. dielectric constant tensor:
#      x y z
#    x 1.935950 0.004280 -0.006460 
#    y 0.004280 1.963980 -0.012970 
#    z -0.006460 -0.012970 1.969500 
# 
# From -- ./inp_files/427031.got.cif
#   From: 2010.06.25/outbox.cif.g09.slc.cpg/sg2_214_cif.got.tgz:427031.got - 2010.06.27 13:26:56.
