data_PCOD8028206
_publ_section_title
;
Structure prediction by ZEFSAII (Michael W. Deem and Ramdas Pophale) SiO2 
 PCOD8028206
Probable space group: P -1
;
_chemical_formula_sum "Si O2"
_cell_formula_units_Z 16
_cell_length_a 15.831432
_cell_length_b 15.509594
_cell_length_c 8.655137
_cell_angle_alpha 50.180411
_cell_angle_beta 129.803761
_cell_angle_gamma 151.569623
_cell_volume 759.675850
_symmetry_space_group_name_H-M "P -1"
_symmetry_group_IT_number 2
_symmetry_cell_setting 'triclinic'
loop_
_space_group_symop_operation_xyz
x,y,z
-x,-y,-z
loop_
_atom_site_type_symbol
_atom_site_label
_atom_site_fract_x
_atom_site_fract_y
_atom_site_fract_z
Si Si1 0.494594 0.598984 0.502699
Si Si2 0.304995 0.571405 0.874460
Si Si3 0.097841 0.108996 0.782019
Si Si4 0.863722 0.425626 0.559418
Si Si5 0.057547 0.722586 0.008725
Si Si6 0.668485 0.856483 0.157842
Si Si7 0.750389 0.721564 0.911432
Si Si8 0.904084 0.649072 0.591253
O O1 0.500000 0.500000 0.500000
O O2 0.616194 0.798687 0.342509
O O3 0.575878 0.632766 0.725075
O O4 0.299324 0.494248 0.423706
O O5 0.308172 0.669311 0.631859
O O6 0.132261 0.433923 0.943945
O O7 0.486135 0.737032 0.990798
O O8 0.294900 0.444460 0.921420
O O9 0.247778 0.196211 0.732144
O O10 0.020242 0.169964 0.587669
O O11 0.205201 0.183030 0.984420
O O12 0.929352 0.885897 0.827468
O O13 0.825097 0.291228 0.784919
O O14 0.932843 0.586205 0.557553
O O15 0.000000 0.500000 0.500000
O O16 0.021899 0.693684 0.817473
O O17 0.183211 0.930453 0.954041
#
# Coordination Sequence:
#
# PCOD8028206 Si02
#       8
#     2   2   2   2   2   2   2   2
#     4  12  23  37  63  99 135 169 207 257 329 399
#     4  11  21  42  66  93 131 166 220 268 320 387
#     4  11  24  36  67  99 133 174 210 261 334 397
#     4  10  25  44  71  92 123 179 226 273 323 371
#     4  11  24  44  67  92 130 172 222 270 319 381
#     4  12  24  40  67 101 130 177 208 266 333 388
#     4  11  22  39  58  99 137 169 212 263 321 403
#     4  12  22  42  68  96 131 174 214 270 328 382
#
# _framework density 21.061615
#
# number of rings (size 3 to 8) (size 9 to 14) (size 15 to 20)
#    0.000    0.750    6.250    1.125    1.750    2.500 
#    0.000    0.625    5.500    0.000    0.000    0.000 
#    0.000    0.000    0.000    0.000    0.000    0.000 
#
# Total GULP energy -198295.777651 kJ/mol
# GULP energy per Si atom -12393.486103 kJ/mol
# Density = 2.101368 g / cm^3
# Si number density = 21.061615 Si / 1000 Ang^3
#
#
#
# Elastic Constant Matrix: (Units=GPa)
#
#
# Indices 1 2 3 4 5 6 
#
# 1 85.9100 39.1524 33.9975 -2.7616 6.5479 -4.9601
# 2 39.1524 67.8695 27.4955 2.4581 -1.0048 0.6428
# 3 33.9975 27.4955 156.7854 2.4046 9.7677 -9.7251
# 4 -2.7616 2.4581 2.4046 25.2083 -3.0214 -4.5879
# 5 6.5479 -1.0048 9.7677 -3.0214 25.7582 -3.0610
# 6 -4.9601 0.6428 -9.7251 -4.5879 -3.0610 24.5020
#
#
#
# Elastic Compliance Matrix: (Units=1/GPa)
#
#
# Indices 1 2 3 4 5 6 
#
# 1 0.017133 -0.009384 -0.001712 0.003141 -0.003323 0.003208
# 2 -0.009384 0.021169 -0.002044 -0.003142 0.003207 -0.003454
# 3 -0.001712 -0.002044 0.007396 -0.000552 -0.002246 0.002259
# 4 0.003141 -0.003142 -0.000552 0.042686 0.005384 0.009165
# 5 -0.003323 0.003207 -0.002246 0.005384 0.041820 0.004585
# 6 0.003208 -0.003454 0.002259 0.009165 0.004585 0.044738
#
#
# Mechanical properties :
#
#
# Convention : Reuss Voigt Hill
#
# Bulk Modulus (GPa) = 51.49123 56.87287 54.18205
# Shear Modulus (GPa) = 24.07371 29.08833 26.58102
#
# Velocity S-wave (km/s) = 3.38452 3.72036 3.55640
# Velocity P-wave (km/s) = 6.30668 6.74659 6.53034
#
# Compressibility (1/GPa) = 0.01942078
#
# Stress axis : x y z
#
# Youngs Moduli (GPa) = 58.36525 47.23820 135.20499
#
# Poissons Ratio (x) = 0.44327 0.23144
# Poissons Ratio (y) = 0.54769 0.27630
# Poissons Ratio (z) = 0.09991 0.09653
#
# Static dielectric constant tensor:
#      x y z
#    x 3.677230 0.061990 0.052380 
#    y 0.061990 3.733890 -0.007270 
#    z 0.052380 -0.007270 4.389340 
# 
# 
# High freq. dielectric constant tensor:
#      x y z
#    x 1.809840 0.002330 -0.007750 
#    y 0.002330 1.813870 0.004030 
#    z -0.007750 0.004030 1.850070 
# 
# From -- ./inp_files/272265.got.cif
#   From: 2010.06.25/outbox.cif.g09.slc.cpg/sg2_137_cif.got.tgz:272265.got - 2010.06.27 13:26:56.
