data_PCOD8028824
_publ_section_title
;
Structure prediction by ZEFSAII (Michael W. Deem and Ramdas Pophale) SiO2 
 PCOD8028824
Probable space group: P -1
;
_chemical_formula_sum "Si O2"
_cell_formula_units_Z 14
_cell_length_a 13.934717
_cell_length_b 8.945775
_cell_length_c 14.749801
_cell_angle_alpha 49.477368
_cell_angle_beta 151.016959
_cell_angle_gamma 112.526201
_cell_volume 585.326882
_symmetry_space_group_name_H-M "P -1"
_symmetry_group_IT_number 2
_symmetry_cell_setting 'triclinic'
loop_
_space_group_symop_operation_xyz
x,y,z
-x,-y,-z
loop_
_atom_site_type_symbol
_atom_site_label
_atom_site_fract_x
_atom_site_fract_y
_atom_site_fract_z
Si Si1 0.515915 0.459133 0.135531
Si Si2 0.222300 0.327234 0.400946
Si Si3 0.689598 0.789396 0.182517
Si Si4 0.830987 0.969802 0.666130
Si Si5 0.724865 0.992021 0.948746
Si Si6 0.992264 0.235967 0.403192
Si Si7 0.890046 0.847181 0.953146
O O1 0.642235 0.581367 0.237842
O O2 0.646910 0.195733 0.373472
O O3 0.500000 0.500000 0.000000
O O4 0.255807 0.568835 0.913048
O O5 0.126033 0.249407 0.268216
O O6 0.492891 0.235175 0.652129
O O7 0.187446 0.217677 0.505641
O O8 0.091231 0.596491 0.194072
O O9 0.941058 0.716205 0.460325
O O10 0.500000 0.000000 0.000000
O O11 0.694998 0.841834 0.060362
O O12 0.734755 0.952128 0.692803
O O13 0.071825 0.961757 0.877258
O O14 0.757714 0.858142 0.932580
O O15 0.000000 0.000000 0.500000
O O16 0.000000 0.000000 0.000000
#
# Coordination Sequence:
#
# PCOD8028824 Si02
#       7
#     2   2   2   2   2   2   2
#     4  12  27  45  73 111 155 192 249 313 371 447
#     4  12  26  47  76 107 149 198 244 306 375 434
#     4  12  24  42  75 110 147 202 238 298 389 435
#     4  11  27  49  73 108 146 197 251 303 375 437
#     4  11  25  49  75 106 153 188 251 308 365 445
#     4  12  25  45  71 113 153 187 248 304 365 455
#     4  10  27  51  74 109 146 193 259 306 363 441
#
# _framework density 23.91826
#
# number of rings (size 3 to 8) (size 9 to 14) (size 15 to 20)
#    0.000    0.571    2.857    3.857    8.000    4.000 
#    2.571    0.000    0.000    0.000    0.000    0.000 
#    0.000    0.000    0.000    0.000    0.000    0.000 
#
# Total GULP energy -173615.076386 kJ/mol
# GULP energy per Si atom -12401.076885 kJ/mol
# Density = 2.386382 g / cm^3
# Si number density = 23.918260 Si / 1000 Ang^3
#
#
#
# Elastic Constant Matrix: (Units=GPa)
#
#
# Indices 1 2 3 4 5 6 
#
# 1 135.7933 31.7142 66.4546 -2.8075 -12.4085 -24.9601
# 2 31.7142 141.4024 66.3239 -12.4994 2.5098 -13.0918
# 3 66.4546 66.3239 158.7805 -5.4445 3.4060 -8.2063
# 4 -2.8075 -12.4994 -5.4445 41.6923 -2.0665 4.0049
# 5 -12.4085 2.5098 3.4060 -2.0665 47.8422 8.7183
# 6 -24.9601 -13.0918 -8.2063 4.0049 8.7183 34.4266
#
#
#
# Elastic Compliance Matrix: (Units=1/GPa)
#
#
# Indices 1 2 3 4 5 6 
#
# 1 0.010774 0.000121 -0.004282 -0.000316 0.001915 0.006389
# 2 0.000121 0.009200 -0.003677 0.002005 -0.000581 0.002624
# 3 -0.004282 -0.003677 0.009553 -0.000022 -0.001251 -0.001906
# 4 -0.000316 0.002005 -0.000022 0.024892 0.001385 -0.002718
# 5 0.001915 -0.000581 -0.001251 0.001385 0.022487 -0.004987
# 6 0.006389 0.002624 -0.001906 -0.002718 -0.004987 0.035802
#
#
# Mechanical properties :
#
#
# Convention : Reuss Voigt Hill
#
# Bulk Modulus (GPa) = 72.18598 84.99575 78.59087
# Shear Modulus (GPa) = 37.59405 42.89112 40.24258
#
# Velocity S-wave (km/s) = 3.96886 4.23926 4.10628
# Velocity P-wave (km/s) = 7.15879 7.71847 7.44389
#
# Compressibility (1/GPa) = 0.01385311
#
# Stress axis : x y z
#
# Youngs Moduli (GPa) = 92.81704 108.69681 104.67409
#
# Poissons Ratio (x) = -0.01320 0.44818
# Poissons Ratio (y) = -0.01127 0.38487
# Poissons Ratio (z) = 0.39741 0.39966
#
# Static dielectric constant tensor:
#      x y z
#    x 5.084110 -0.258640 -0.110370 
#    y -0.258640 4.344420 0.124040 
#    z -0.110370 0.124040 4.436160 
# 
# 
# High freq. dielectric constant tensor:
#      x y z
#    x 1.956370 -0.006390 -0.001570 
#    y -0.006390 1.960090 0.006730 
#    z -0.001570 0.006730 1.953090 
# 
# From -- ./inp_files/529431.got.cif
#   From: 2010.06.25/outbox.cif.g09.slc.cpg/sg2_265_cif.got.tgz:529431.got - 2010.06.27 13:26:56.
