data_PCOD8028328
_publ_section_title
;
Structure prediction by ZEFSAII (Michael W. Deem and Ramdas Pophale) SiO2 
 PCOD8028328
Probable space group: P -1
;
_chemical_formula_sum "Si O2"
_cell_formula_units_Z 16
_cell_length_a 12.426082
_cell_length_b 12.741897
_cell_length_c 5.076028
_cell_angle_alpha 76.156638
_cell_angle_beta 104.109612
_cell_angle_gamma 128.730774
_cell_volume 604.034810
_symmetry_space_group_name_H-M "P -1"
_symmetry_group_IT_number 2
_symmetry_cell_setting 'triclinic'
loop_
_space_group_symop_operation_xyz
x,y,z
-x,-y,-z
loop_
_atom_site_type_symbol
_atom_site_label
_atom_site_fract_x
_atom_site_fract_y
_atom_site_fract_z
Si Si1 0.283439 0.976932 0.522882
Si Si2 0.687672 0.460254 0.323265
Si Si3 0.720508 0.714306 0.033896
Si Si4 0.651704 0.106243 0.905510
Si Si5 0.991815 0.882787 0.414601
Si Si6 0.799226 0.370160 0.088462
Si Si7 0.953967 0.627884 0.702880
Si Si8 0.585949 0.732784 0.445968
O O1 0.247786 0.898166 0.826599
O O2 0.143783 0.949824 0.340241
O O3 0.402573 0.133438 0.569829
O O4 0.343923 0.931451 0.367782
O O5 0.671150 0.561753 0.093720
O O6 0.672637 0.344565 0.202743
O O7 0.845093 0.540978 0.462559
O O8 0.572877 0.395338 0.523895
O O9 0.881478 0.824917 0.145168
O O10 0.625712 0.727223 0.174081
O O11 0.694735 0.738446 0.706573
O O12 0.714382 0.265481 0.856405
O O13 0.500000 0.000000 0.000000
O O14 0.957868 0.760921 0.662727
O O15 0.000000 0.000000 0.500000
O O16 0.896833 0.337003 0.310241
O O17 0.897196 0.530998 0.982219
#
# Coordination Sequence:
#
# PCOD8028328 Si02
#       8
#     2   2   2   2   2   2   2   2
#     4  12  27  47  76 110 147 194 253 300 370 444
#     4  11  26  42  74 102 148 192 248 299 377 436
#     4  11  27  45  74 107 148 193 247 307 368 439
#     4  12  28  49  76 111 152 196 245 305 371 442
#     4  11  24  49  77 107 150 193 253 308 375 435
#     4  11  25  45  75 103 152 192 250 304 365 443
#     4  10  25  45  71 108 143 192 248 301 370 431
#     4  12  26  47  72 107 150 192 244 307 371 440
#
# _framework density 26.48854
#
# number of rings (size 3 to 8) (size 9 to 14) (size 15 to 20)
#    0.000    0.750    2.500    3.000    8.750    5.500 
#    0.000    0.000    0.000    0.000    0.000    0.000 
#    0.000    0.000    0.000    0.000    0.000    0.000 
#
# Total GULP energy -198321.758860 kJ/mol
# GULP energy per Si atom -12395.109929 kJ/mol
# Density = 2.642825 g / cm^3
# Si number density = 26.488540 Si / 1000 Ang^3
#
#
#
# Elastic Constant Matrix: (Units=GPa)
#
#
# Indices 1 2 3 4 5 6 
#
# 1 94.9034 33.4888 -9.2813 17.0043 -3.3057 -9.9302
# 2 33.4888 142.3833 -4.2059 1.3635 5.0072 -19.0444
# 3 -9.2813 -4.2059 52.8000 -0.2268 4.3182 -19.1640
# 4 17.0043 1.3635 -0.2268 28.4145 -4.7623 -3.9835
# 5 -3.3057 5.0072 4.3182 -4.7623 24.0246 1.3962
# 6 -9.9302 -19.0444 -19.1640 -3.9835 1.3962 48.1653
#
#
#
# Elastic Compliance Matrix: (Units=1/GPa)
#
#
# Indices 1 2 3 4 5 6 
#
# 1 0.013351 -0.002698 0.002878 -0.007483 0.000271 0.002204
# 2 -0.002698 0.008251 0.001667 0.001339 -0.002331 0.003548
# 3 0.002878 0.001667 0.023923 -0.000941 -0.005068 0.010840
# 4 -0.007483 0.001339 -0.000941 0.041006 0.006884 0.001804
# 5 0.000271 -0.002331 -0.005068 0.006884 0.044632 -0.003607
# 6 0.002204 0.003548 0.010840 0.001804 -0.003607 0.027186
#
#
# Mechanical properties :
#
#
# Convention : Reuss Voigt Hill
#
# Bulk Modulus (GPa) = 20.31793 36.67666 28.49729
# Shear Modulus (GPa) = 29.22899 38.12655 33.67777
#
# Velocity S-wave (km/s) = 3.32544 3.79801 3.56955
# Velocity P-wave (km/s) = 4.73622 5.75408 5.26978
#
# Compressibility (1/GPa) = 0.04921762
#
# Stress axis : x y z
#
# Youngs Moduli (GPa) = 74.89813 121.19935 41.80108
#
# Poissons Ratio (x) = 0.32704 -0.12029
# Poissons Ratio (y) = 0.20210 -0.06968
# Poissons Ratio (z) = -0.21553 -0.20203
#
# Static dielectric constant tensor:
#      x y z
#    x 4.953930 -0.119980 0.397660 
#    y -0.119980 5.210860 -0.205720 
#    z 0.397660 -0.205720 4.504960 
# 
# 
# High freq. dielectric constant tensor:
#      x y z
#    x 2.073220 -0.000760 0.018640 
#    y -0.000760 2.086140 -0.002440 
#    z 0.018640 -0.002440 2.037850 
# 
# From -- ./inp_files/69997.got.cif
#   From: 2010.06.25/outbox.cif.g09.slc.cpg/sg2_35_cif.got.tgz:69997.got - 2010.06.27 13:26:56.
