data_PCOD8028219
_publ_section_title
;
Structure prediction by ZEFSAII (Michael W. Deem and Ramdas Pophale) SiO2 
 PCOD8028219
Probable space group: P -1
;
_chemical_formula_sum "Si O2"
_cell_formula_units_Z 14
_cell_length_a 19.547493
_cell_length_b 15.216227
_cell_length_c 11.088741
_cell_angle_alpha 38.142540
_cell_angle_beta 159.634297
_cell_angle_gamma 148.295617
_cell_volume 602.106131
_symmetry_space_group_name_H-M "P -1"
_symmetry_group_IT_number 2
_symmetry_cell_setting 'triclinic'
loop_
_space_group_symop_operation_xyz
x,y,z
-x,-y,-z
loop_
_atom_site_type_symbol
_atom_site_label
_atom_site_fract_x
_atom_site_fract_y
_atom_site_fract_z
Si Si1 0.072818 0.029820 0.785042
Si Si2 0.322802 0.327445 0.507062
Si Si3 0.501440 0.885528 0.730343
Si Si4 0.088853 0.786685 0.533896
Si Si5 0.324253 0.032751 0.440203
Si Si6 0.577851 0.329716 0.701409
Si Si7 0.213269 0.548168 0.712697
O O1 0.955476 0.137809 0.500506
O O2 0.272277 0.124898 0.910233
O O3 0.167571 0.007439 0.093360
O O4 0.893944 0.851459 0.620932
O O5 0.371996 0.310694 0.466185
O O6 0.259393 0.470275 0.269789
O O7 0.549703 0.376202 0.904925
O O8 0.267802 0.698659 0.547585
O O9 0.500000 0.000000 0.500000
O O10 0.504193 0.974577 0.765012
O O11 0.848470 0.617700 0.283591
O O12 0.166328 0.920424 0.410656
O O13 0.283938 0.743725 0.926289
O O14 0.465630 0.227078 0.503887
O O15 0.000000 0.500000 0.500000
#
# Coordination Sequence:
#
# PCOD8028219 Si02
#       7
#     2   2   2   2   2   2   2
#     4  11  26  44  69 102 141 181 228 286 350 408
#     4  11  25  41  67 106 138 178 231 286 341 406
#     4  10  25  44  73 100 142 182 227 280 354 408
#     4  12  24  40  72 103 137 177 236 288 337 406
#     4  11  22  44  69 100 138 186 232 278 345 408
#     4  11  24  39  67 106 140 175 235 287 337 402
#     4  12  24  44  73 102 135 182 233 283 337 405
#
# _framework density 23.251715999999998
#
# number of rings (size 3 to 8) (size 9 to 14) (size 15 to 20)
#    0.000    0.857    4.286    1.714   10.000    1.143 
#    0.000    0.714    0.000    0.000    0.000    0.000 
#    0.000    0.000    0.000    0.000    0.000    0.000 
#
# Total GULP energy -173546.039404 kJ/mol
# GULP energy per Si atom -12396.145672 kJ/mol
# Density = 2.319879 g / cm^3
# Si number density = 23.251716 Si / 1000 Ang^3
#
#
#
# Elastic Constant Matrix: (Units=GPa)
#
#
# Indices 1 2 3 4 5 6 
#
# 1 86.3071 62.6916 24.4580 13.3553 29.9502 -6.5778
# 2 62.6916 193.1394 41.0642 22.3870 17.4721 -16.3313
# 3 24.4580 41.0642 83.9441 13.9260 1.0952 -3.9400
# 4 13.3553 22.3870 13.9260 44.5767 -2.7501 1.7784
# 5 29.9502 17.4721 1.0952 -2.7501 40.7751 1.4957
# 6 -6.5778 -16.3313 -3.9400 1.7784 1.4957 44.8760
#
#
#
# Elastic Compliance Matrix: (Units=1/GPa)
#
#
# Indices 1 2 3 4 5 6 
#
# 1 0.021277 -0.004329 -0.003117 -0.004169 -0.014041 0.001903
# 2 -0.004329 0.007395 -0.001948 -0.001895 -0.000136 0.001965
# 3 -0.003117 -0.001948 0.014133 -0.002347 0.002583 0.000082
# 4 -0.004169 -0.001895 -0.002347 0.025832 0.005779 -0.002723
# 5 -0.014041 -0.000136 0.002583 0.005779 0.035337 -0.003288
# 6 0.001903 0.001965 0.000082 -0.002723 -0.003288 0.023502
#
#
# Mechanical properties :
#
#
# Convention : Reuss Voigt Hill
#
# Bulk Modulus (GPa) = 41.63796 68.86868 55.25332
# Shear Modulus (GPa) = 32.41023 41.72403 37.06713
#
# Velocity S-wave (km/s) = 3.73753 4.24069 3.99703
# Velocity P-wave (km/s) = 6.04747 7.32537 6.71688
#
# Compressibility (1/GPa) = 0.02401655
#
# Stress axis : x y z
#
# Youngs Moduli (GPa) = 46.99890 135.22265 70.75490
#
# Poissons Ratio (x) = 0.58543 0.22057
# Poissons Ratio (y) = 0.20347 0.13782
# Poissons Ratio (z) = 0.14651 0.26339
#
# Static dielectric constant tensor:
#      x y z
#    x 4.733850 -0.324640 0.404600 
#    y -0.324640 4.930330 0.033350 
#    z 0.404600 0.033350 4.278040 
# 
# 
# High freq. dielectric constant tensor:
#      x y z
#    x 1.904650 -0.013650 0.003940 
#    y -0.013650 1.937350 -0.003080 
#    z 0.003940 -0.003080 1.912370 
# 
# From -- ./inp_files/471913.got.cif
#   From: 2010.06.25/outbox.cif.g09.slc.cpg/sg2_236_cif.got.tgz:471913.got - 2010.06.27 13:26:56.
