data_PCOD8028174
_publ_section_title
;
Structure prediction by ZEFSAII (Michael W. Deem and Ramdas Pophale) SiO2 
 PCOD8028174
Probable space group: P -1
;
_chemical_formula_sum "Si O2"
_cell_formula_units_Z 16
_cell_length_a 11.859471
_cell_length_b 11.712283
_cell_length_c 12.417538
_cell_angle_alpha 50.289157
_cell_angle_beta 34.418431
_cell_angle_gamma 52.565339
_cell_volume 736.924692
_symmetry_space_group_name_H-M "P -1"
_symmetry_group_IT_number 2
_symmetry_cell_setting 'triclinic'
loop_
_space_group_symop_operation_xyz
x,y,z
-x,-y,-z
loop_
_atom_site_type_symbol
_atom_site_label
_atom_site_fract_x
_atom_site_fract_y
_atom_site_fract_z
Si Si1 0.100258 0.643213 0.816425
Si Si2 0.363179 0.825023 0.987197
Si Si3 0.434401 0.168669 0.405020
Si Si4 0.766100 0.823404 0.082651
Si Si5 0.848805 0.321196 0.481465
Si Si6 0.005159 0.324621 0.580835
Si Si7 0.501517 0.826830 0.098436
Si Si8 0.449298 0.361260 0.473258
O O1 0.039281 0.698455 0.709494
O O2 0.345107 0.611026 0.648125
O O3 0.000000 0.500000 0.000000
O O4 0.007571 0.765500 0.907761
O O5 0.194042 0.721011 0.182273
O O6 0.524018 0.766889 0.992681
O O7 0.469638 0.810457 0.798183
O O8 0.265819 0.998192 0.985845
O O9 0.510599 0.286069 0.354732
O O10 0.192214 0.214894 0.555788
O O11 0.500000 0.000000 0.500000
O O12 0.677031 0.754191 0.086560
O O13 0.669024 0.752776 0.302396
O O14 0.014265 0.298758 0.460213
O O15 0.716095 0.191792 0.673033
O O16 0.700158 0.481539 0.517144
O O17 0.000000 0.500000 0.500000
O O18 0.500000 0.000000 0.000000
#
# Coordination Sequence:
#
# PCOD8028174 Si02
#       8
#     2   2   2   2   2   2   2   2
#     4  12  25  38  69 107 134 187 226 280 357 412
#     4  10  25  44  69 100 136 184 230 285 347 411
#     4  12  27  46  74 100 139 190 226 287 353 413
#     4  11  22  42  66 103 139 180 230 285 345 412
#     4  11  22  45  68  99 143 177 229 295 339 412
#     4  11  26  49  70 101 141 184 238 288 338 409
#     4   9  20  42  65  91 137 177 220 288 340 399
#     4  12  24  44  68 101 145 179 231 286 346 413
#
# _framework density 21.711853000000001
#
# number of rings (size 3 to 8) (size 9 to 14) (size 15 to 20)
#    0.000    1.000    5.000    1.125    3.500    3.000 
#    0.000    1.875    0.000    0.000    0.000    0.000 
#    0.000    0.000    0.000    0.000    0.000    0.000 
#
# Total GULP energy -198330.920567 kJ/mol
# GULP energy per Si atom -12395.682535 kJ/mol
# Density = 2.166244 g / cm^3
# Si number density = 21.711853 Si / 1000 Ang^3
#
#
#
# Elastic Constant Matrix: (Units=GPa)
#
#
# Indices 1 2 3 4 5 6 
#
# 1 103.8618 20.1572 38.5877 -6.2966 9.4904 0.8028
# 2 20.1572 90.9026 33.4328 -8.9229 -6.0314 8.4797
# 3 38.5877 33.4328 120.3034 -12.8399 21.9737 16.1893
# 4 -6.2966 -8.9229 -12.8399 40.8055 4.6213 -0.3404
# 5 9.4904 -6.0314 21.9737 4.6213 40.6962 5.7402
# 6 0.8028 8.4797 16.1893 -0.3404 5.7402 32.7272
#
#
#
# Elastic Compliance Matrix: (Units=1/GPa)
#
#
# Indices 1 2 3 4 5 6 
#
# 1 0.011242 -0.001582 -0.003081 0.000609 -0.001534 0.001934
# 2 -0.001582 0.013288 -0.003574 0.001008 0.004494 -0.002414
# 3 -0.003081 -0.003574 0.012327 0.003300 -0.006283 -0.003960
# 4 0.000609 0.001008 0.003300 0.026380 -0.004655 -0.000818
# 5 -0.001534 0.004494 -0.006283 -0.004655 0.029986 -0.003327
# 6 0.001934 -0.002414 -0.003960 -0.000818 -0.003327 0.033667
#
#
# Mechanical properties :
#
#
# Convention : Reuss Voigt Hill
#
# Bulk Modulus (GPa) = 49.06119 55.49148 52.27634
# Shear Modulus (GPa) = 33.29800 37.70513 35.50157
#
# Velocity S-wave (km/s) = 3.92041 4.17179 4.04805
# Velocity P-wave (km/s) = 6.56798 6.98704 6.78075
#
# Compressibility (1/GPa) = 0.02038271
#
# Stress axis : x y z
#
# Youngs Moduli (GPa) = 88.95064 75.25405 81.12586
#
# Poissons Ratio (x) = 0.11906 0.24997
# Poissons Ratio (y) = 0.14072 0.28993
# Poissons Ratio (z) = 0.27408 0.26895
#
# Static dielectric constant tensor:
#      x y z
#    x 4.690970 0.053030 0.348600 
#    y 0.053030 3.797440 -0.282810 
#    z 0.348600 -0.282810 3.575680 
# 
# 
# High freq. dielectric constant tensor:
#      x y z
#    x 1.866140 0.002000 0.010790 
#    y 0.002000 1.850240 -0.012790 
#    z 0.010790 -0.012790 1.857200 
# 
# From -- ./inp_files/427688.got.cif
#   From: 2010.06.25/outbox.cif.g09.slc.cpg/sg2_214_cif.got.tgz:427688.got - 2010.06.27 13:26:56.
