data_PCOD8028259
_publ_section_title
;
Structure prediction by ZEFSAII (Michael W. Deem and Ramdas Pophale) SiO2 
 PCOD8028259
Probable space group: P -1
;
_chemical_formula_sum "Si O2"
_cell_formula_units_Z 16
_cell_length_a 8.716631
_cell_length_b 11.424867
_cell_length_c 12.513321
_cell_angle_alpha 96.172049
_cell_angle_beta 75.477977
_cell_angle_gamma 40.908785
_cell_volume 697.905145
_symmetry_space_group_name_H-M "P -1"
_symmetry_group_IT_number 2
_symmetry_cell_setting 'triclinic'
loop_
_space_group_symop_operation_xyz
x,y,z
-x,-y,-z
loop_
_atom_site_type_symbol
_atom_site_label
_atom_site_fract_x
_atom_site_fract_y
_atom_site_fract_z
Si Si1 0.886163 0.055543 0.193999
Si Si2 0.827973 0.264881 0.576836
Si Si3 0.381785 0.350862 0.657055
Si Si4 0.602899 0.880338 0.241710
Si Si5 0.373612 0.931913 0.585399
Si Si6 0.013680 0.214048 0.305060
Si Si7 0.525908 0.410994 0.155299
Si Si8 0.142010 0.663778 0.062349
O O1 0.657062 0.138323 0.317863
O O2 0.740332 0.177130 0.119038
O O3 0.018593 0.089901 0.227536
O O4 0.117028 0.817826 0.112227
O O5 0.687248 0.221267 0.594424
O O6 0.615011 0.477639 0.695967
O O7 0.870638 0.286667 0.452101
O O8 0.105578 0.093900 0.575454
O O9 0.343370 0.290112 0.760934
O O10 0.372235 0.270231 0.547272
O O11 0.147879 0.589999 0.714913
O O12 0.849273 0.778805 0.114029
O O13 0.575959 0.967474 0.367458
O O14 0.324637 0.068092 0.244826
O O15 0.307986 0.500710 0.113170
O O16 0.684833 0.434258 0.087625
#
# Coordination Sequence:
#
# PCOD8028259 Si02
#       8
#     2   2   2   2   2   2   2   2
#     4  11  21  41  68  95 125 162 216 267 308 370
#     4  12  21  41  67  96 128 162 216 264 310 380
#     4  12  23  39  62  95 132 167 209 254 321 388
#     4  11  25  41  58  92 138 166 208 259 321 380
#     4  11  22  39  63  94 132 170 202 261 324 374
#     4  12  25  38  66 101 127 169 206 259 329 383
#     4  11  22  42  73  93 121 166 225 262 308 369
#     4  10  25  45  67  95 123 170 218 265 309 370
#
# _framework density 22.925750000000001
#
# number of rings (size 3 to 8) (size 9 to 14) (size 15 to 20)
#    0.000    0.750    6.250    3.000    0.000    2.500 
#    0.000    1.250    0.000    0.000    0.000    0.000 
#    0.000    0.000    0.000    0.000    0.000    0.000 
#
# Total GULP energy -198380.345252 kJ/mol
# GULP energy per Si atom -12398.771578 kJ/mol
# Density = 2.287357 g / cm^3
# Si number density = 22.925750 Si / 1000 Ang^3
#
#
#
# Elastic Constant Matrix: (Units=GPa)
#
#
# Indices 1 2 3 4 5 6 
#
# 1 108.2682 56.6532 6.5992 7.1120 -17.7501 -6.6148
# 2 56.6532 125.1579 12.8518 -7.2572 -0.7552 -12.4484
# 3 6.5992 12.8518 41.1950 5.4991 -17.1614 -12.0292
# 4 7.1120 -7.2572 5.4991 24.9274 -5.8130 -1.3316
# 5 -17.7501 -0.7552 -17.1614 -5.8130 27.6341 1.8203
# 6 -6.6148 -12.4484 -12.0292 -1.3316 1.8203 32.7760
#
#
#
# Elastic Compliance Matrix: (Units=1/GPa)
#
#
# Indices 1 2 3 4 5 6 
#
# 1 0.015279 -0.007608 0.006168 -0.004986 0.012284 0.001573
# 2 -0.007608 0.012483 -0.005914 0.005527 -0.007165 0.001658
# 3 0.006168 -0.005914 0.040739 -0.005487 0.027141 0.012220
# 4 -0.004986 0.005527 -0.005487 0.045093 0.002977 0.000746
# 5 0.012284 -0.007165 0.027141 0.002977 0.060938 0.006456
# 6 0.001573 0.001658 0.012220 0.000746 0.006456 0.035614
#
#
# Mechanical properties :
#
#
# Convention : Reuss Voigt Hill
#
# Bulk Modulus (GPa) = 18.58961 47.42550 33.00756
# Shear Modulus (GPa) = 20.59428 30.30197 25.44812
#
# Velocity S-wave (km/s) = 3.00042 3.63952 3.33532
# Velocity P-wave (km/s) = 4.48660 6.19621 5.40937
#
# Compressibility (1/GPa) = 0.05379348
#
# Stress axis : x y z
#
# Youngs Moduli (GPa) = 65.44921 80.10781 24.54627
#
# Poissons Ratio (x) = 0.60946 -0.15141
# Poissons Ratio (y) = 0.49794 0.14518
# Poissons Ratio (z) = -0.40372 0.47379
#
# Static dielectric constant tensor:
#      x y z
#    x 4.092190 0.063070 0.023450 
#    y 0.063070 4.135080 -0.033110 
#    z 0.023450 -0.033110 4.277510 
# 
# 
# High freq. dielectric constant tensor:
#      x y z
#    x 1.889250 0.002310 -0.003980 
#    y 0.002310 1.911510 -0.001050 
#    z -0.003980 -0.001050 1.902570 
# 
# From -- ./inp_files/500400.got.cif
#   From: 2010.06.25/outbox.cif.g09.slc.cpg/sg2_251_cif.got.tgz:500400.got - 2010.06.27 13:26:56.
