data_PCOD8028591
_publ_section_title
;
Structure prediction by ZEFSAII (Michael W. Deem and Ramdas Pophale) SiO2 
 PCOD8028591
Probable space group: P -1
;
_chemical_formula_sum "Si O2"
_cell_formula_units_Z 16
_cell_length_a 11.460274
_cell_length_b 9.211606
_cell_length_c 14.693974
_cell_angle_alpha 97.249388
_cell_angle_beta 29.321426
_cell_angle_gamma 105.130954
_cell_volume 716.236754
_symmetry_space_group_name_H-M "P -1"
_symmetry_group_IT_number 2
_symmetry_cell_setting 'triclinic'
loop_
_space_group_symop_operation_xyz
x,y,z
-x,-y,-z
loop_
_atom_site_type_symbol
_atom_site_label
_atom_site_fract_x
_atom_site_fract_y
_atom_site_fract_z
Si Si1 0.663807 0.301738 0.756691
Si Si2 0.040874 0.541933 0.871382
Si Si3 0.900265 0.736245 0.854221
Si Si4 0.435304 0.338925 0.424136
Si Si5 0.014026 0.929850 0.225245
Si Si6 0.125823 0.535149 0.556893
Si Si7 0.767807 0.002469 0.718160
Si Si8 0.663274 0.238113 0.084640
O O1 0.719982 0.360593 0.620551
O O2 0.651147 0.124515 0.760979
O O3 0.880290 0.402637 0.681939
O O4 0.394880 0.313659 0.970491
O O5 0.337962 0.571159 0.654128
O O6 0.954846 0.690598 0.916485
O O7 0.000000 0.500000 0.000000
O O8 0.857798 0.398382 0.926654
O O9 0.041593 0.646035 0.689355
O O10 0.037108 0.916184 0.760782
O O11 0.307549 0.455998 0.476863
O O12 0.555038 0.258067 0.258143
O O13 0.247224 0.203471 0.598197
O O14 0.164686 0.957847 0.220297
O O15 0.178196 0.882317 0.031750
O O16 0.567431 0.830533 0.834274
O O17 0.000000 0.000000 0.500000
#
# Coordination Sequence:
#
# PCOD8028591 Si02
#       8
#     2   2   2   2   2   2   2   2
#     4  11  23  42  63 104 142 174 223 275 341 408
#     4  10  25  48  72  95 130 186 237 284 333 396
#     4  12  26  41  67 101 139 175 226 283 340 406
#     4  11  24  48  69  96 134 182 238 278 333 398
#     4  12  25  40  69 106 136 178 220 276 352 408
#     4  11  24  42  70 100 137 183 223 280 336 404
#     4  12  22  41  68 102 143 179 216 272 347 415
#     4  11  23  43  70  95 135 182 223 278 336 405
#
# _framework density 22.338981
#
# number of rings (size 3 to 8) (size 9 to 14) (size 15 to 20)
#    0.000    0.750    3.750    3.750    0.000    5.500 
#    0.000    2.500    0.000    0.000    0.000    0.000 
#    0.000    0.000    0.000    0.000    0.000    0.000 
#
# Total GULP energy -198361.473806 kJ/mol
# GULP energy per Si atom -12397.592113 kJ/mol
# Density = 2.228814 g / cm^3
# Si number density = 22.338981 Si / 1000 Ang^3
#
#
#
# Elastic Constant Matrix: (Units=GPa)
#
#
# Indices 1 2 3 4 5 6 
#
# 1 89.1846 61.9443 47.9451 -14.4969 -24.7680 -25.1545
# 2 61.9443 152.3173 75.4880 -2.4306 -10.0458 -28.0092
# 3 47.9451 75.4880 128.7897 6.9061 -23.3163 -3.7051
# 4 -14.4969 -2.4306 6.9061 57.4979 10.6414 -2.3782
# 5 -24.7680 -10.0458 -23.3163 10.6414 42.0445 -3.5768
# 6 -25.1545 -28.0092 -3.7051 -2.3782 -3.5768 36.1264
#
#
#
# Elastic Compliance Matrix: (Units=1/GPa)
#
#
# Indices 1 2 3 4 5 6 
#
# 1 0.024690 -0.004234 -0.004579 0.005185 0.010946 0.014864
# 2 -0.004234 0.012056 -0.005845 0.000856 -0.002595 0.005599
# 3 -0.004579 -0.005845 0.013652 -0.004032 0.003971 -0.006192
# 4 0.005185 0.000856 -0.004032 0.020095 -0.003653 0.004822
# 5 0.010946 -0.002595 0.003971 -0.003653 0.033513 0.009094
# 6 0.014864 0.005599 -0.006192 0.004822 0.009094 0.042954
#
#
# Mechanical properties :
#
#
# Convention : Reuss Voigt Hill
#
# Bulk Modulus (GPa) = 47.43080 82.33849 64.88464
# Shear Modulus (GPa) = 27.27732 39.46138 33.36935
#
# Velocity S-wave (km/s) = 3.49816 4.20751 3.86913
# Velocity P-wave (km/s) = 6.13144 7.78093 7.00491
#
# Compressibility (1/GPa) = 0.02108335
#
# Stress axis : x y z
#
# Youngs Moduli (GPa) = 40.50229 82.94757 73.24945
#
# Poissons Ratio (x) = 0.35117 0.33538
# Poissons Ratio (y) = 0.17147 0.42814
# Poissons Ratio (z) = 0.18544 0.48482
#
# Static dielectric constant tensor:
#      x y z
#    x 4.361080 0.061630 -0.378400 
#    y 0.061630 4.900970 -0.359070 
#    z -0.378400 -0.359070 4.601160 
# 
# 
# High freq. dielectric constant tensor:
#      x y z
#    x 1.866260 0.002230 -0.009800 
#    y 0.002230 1.887380 -0.003620 
#    z -0.009800 -0.003620 1.906120 
# 
# From -- ./inp_files/391668.got.cif
#   From: 2010.06.25/outbox.cif.g09.slc.cpg/sg2_196_cif.got.tgz:391668.got - 2010.06.27 13:26:56.
