data_PCOD8028989
_publ_section_title
;
Structure prediction by ZEFSAII (Michael W. Deem and Ramdas Pophale) SiO2 
 PCOD8028989
Probable space group: P -1
;
_chemical_formula_sum "Si O2"
_cell_formula_units_Z 16
_cell_length_a 15.333862
_cell_length_b 14.223059
_cell_length_c 11.815326
_cell_angle_alpha 30.281945
_cell_angle_beta 64.636048
_cell_angle_gamma 45.002946
_cell_volume 789.810428
_symmetry_space_group_name_H-M "P -1"
_symmetry_group_IT_number 2
_symmetry_cell_setting 'triclinic'
loop_
_space_group_symop_operation_xyz
x,y,z
-x,-y,-z
loop_
_atom_site_type_symbol
_atom_site_label
_atom_site_fract_x
_atom_site_fract_y
_atom_site_fract_z
Si Si1 0.316107 0.546469 0.619045
Si Si2 0.589999 0.096045 0.048933
Si Si3 0.752294 0.943817 0.907016
Si Si4 0.851911 0.304577 0.233520
Si Si5 0.049259 0.455420 0.145266
Si Si6 0.586336 0.409946 0.887478
Si Si7 0.278573 0.813520 0.728880
Si Si8 0.464162 0.233367 0.643015
O O1 0.466072 0.398862 0.744338
O O2 0.228158 0.543536 0.759814
O O3 0.357560 0.364764 0.674187
O O4 0.230963 0.856276 0.316624
O O5 0.611581 0.157264 0.096942
O O6 0.728744 0.916715 0.078277
O O7 0.535478 0.960619 0.225399
O O8 0.626382 0.050533 0.781903
O O9 0.907572 0.640644 0.107044
O O10 0.757042 0.303907 0.211744
O O11 0.871341 0.459074 0.984951
O O12 0.000000 0.000000 0.500000
O O13 0.157649 0.143000 0.450209
O O14 0.000000 0.500000 0.000000
O O15 0.429541 0.681128 0.741713
O O16 0.609766 0.508328 0.664509
O O17 0.704136 0.282123 0.051953
#
# Coordination Sequence:
#
# PCOD8028989 Si02
#       8
#     2   2   2   2   2   2   2   2
#     4  11  19  37  62  96 130 157 205 266 312 360
#     4  11  22  36  65  93 125 164 210 264 305 365
#     4  11  20  38  60  96 131 160 207 262 314 361
#     4  12  23  39  62  97 127 161 205 258 315 367
#     4  12  25  38  64  93 129 164 204 255 315 376
#     4  11  23  45  63  90 131 165 212 254 312 371
#     4  11  26  43  65  91 127 172 206 257 310 381
#     4  11  22  36  66  96 124 164 205 263 317 362
#
# _framework density 20.258026999999998
#
# number of rings (size 3 to 8) (size 9 to 14) (size 15 to 20)
#    0.000    0.750    6.250    3.000    5.250    1.000 
#    0.000    3.125    0.000    3.750    0.000    0.000 
#    0.000    0.000    0.000    0.000    0.000    0.000 
#
# Total GULP energy -198370.264102 kJ/mol
# GULP energy per Si atom -12398.141506 kJ/mol
# Density = 2.021192 g / cm^3
# Si number density = 20.258027 Si / 1000 Ang^3
#
#
#
# Elastic Constant Matrix: (Units=GPa)
#
#
# Indices 1 2 3 4 5 6 
#
# 1 62.0627 19.5281 37.8798 -0.7027 -1.8768 6.3612
# 2 19.5281 127.2272 41.0209 -11.8879 8.1226 -6.8142
# 3 37.8798 41.0209 95.9623 -10.0880 5.0274 0.8872
# 4 -0.7027 -11.8879 -10.0880 31.6452 4.6314 -0.1594
# 5 -1.8768 8.1226 5.0274 4.6314 32.8257 2.2698
# 6 6.3612 -6.8142 0.8872 -0.1594 2.2698 27.7495
#
#
#
# Elastic Compliance Matrix: (Units=1/GPa)
#
#
# Indices 1 2 3 4 5 6 
#
# 1 0.022609 -0.001507 -0.008797 -0.003466 0.003890 -0.005610
# 2 -0.001507 0.009716 -0.003131 0.003022 -0.002649 0.003065
# 3 -0.008797 -0.003131 0.015797 0.004078 -0.002792 0.000995
# 4 -0.003466 0.003022 0.004078 0.034943 -0.006649 0.002151
# 5 0.003890 -0.002649 -0.002792 -0.006649 0.032997 -0.004190
# 6 -0.005610 0.003065 0.000995 0.002151 -0.004190 0.038399
#
#
# Mechanical properties :
#
#
# Convention : Reuss Voigt Hill
#
# Bulk Modulus (GPa) = 47.04866 53.56775 50.30821
# Shear Modulus (GPa) = 26.53723 30.89897 28.71810
#
# Velocity S-wave (km/s) = 3.62327 3.90971 3.76921
# Velocity P-wave (km/s) = 6.38586 6.84699 6.62044
#
# Compressibility (1/GPa) = 0.02125459
#
# Stress axis : x y z
#
# Youngs Moduli (GPa) = 44.22949 102.92047 63.30218
#
# Poissons Ratio (x) = 0.15506 0.55687
# Poissons Ratio (y) = 0.06664 0.19817
# Poissons Ratio (z) = 0.38909 0.32220
#
# Static dielectric constant tensor:
#      x y z
#    x 3.758400 -0.080840 -0.274660 
#    y -0.080840 4.291760 0.314670 
#    z -0.274660 0.314670 3.770950 
# 
# 
# High freq. dielectric constant tensor:
#      x y z
#    x 1.776130 0.006780 -0.022280 
#    y 0.006780 1.802080 -0.008620 
#    z -0.022280 -0.008620 1.775010 
# 
# From -- ./inp_files/433247.got.cif
#   From: 2010.06.25/outbox.cif.g09.slc.cpg/sg2_217_cif.got.tgz:433247.got - 2010.06.27 13:26:56.
