data_PCOD8028658
_publ_section_title
;
Structure prediction by ZEFSAII (Michael W. Deem and Ramdas Pophale) SiO2 
 PCOD8028658
Probable space group: P -1
;
_chemical_formula_sum "Si O2"
_cell_formula_units_Z 16
_cell_length_a 12.355820
_cell_length_b 8.308311
_cell_length_c 13.117159
_cell_angle_alpha 107.855139
_cell_angle_beta 33.183504
_cell_angle_gamma 116.257338
_cell_volume 655.373205
_symmetry_space_group_name_H-M "P -1"
_symmetry_group_IT_number 2
_symmetry_cell_setting 'triclinic'
loop_
_space_group_symop_operation_xyz
x,y,z
-x,-y,-z
loop_
_atom_site_type_symbol
_atom_site_label
_atom_site_fract_x
_atom_site_fract_y
_atom_site_fract_z
Si Si1 0.892647 0.188946 0.527202
Si Si2 0.924415 0.997070 0.816976
Si Si3 0.232475 0.304029 0.737346
Si Si4 0.977892 0.752925 0.905756
Si Si5 0.277603 0.524508 0.300618
Si Si6 0.320030 0.562220 0.032487
Si Si7 0.372835 0.718782 0.686956
Si Si8 0.474671 0.919067 0.858890
O O1 0.988213 0.067015 0.363526
O O2 0.766759 0.300342 0.585738
O O3 0.092338 0.342648 0.453983
O O4 0.717572 0.052731 0.714531
O O5 0.979084 0.895726 0.848295
O O6 0.048867 0.210619 0.780268
O O7 0.675472 0.960641 0.994763
O O8 0.253834 0.511076 0.769791
O O9 0.441832 0.267338 0.534953
O O10 0.166415 0.219283 0.884113
O O11 0.213370 0.795014 0.770506
O O12 0.887011 0.550478 0.890494
O O13 0.503511 0.523402 0.155833
O O14 0.265325 0.533553 0.188845
O O15 0.404769 0.772944 0.976289
O O16 0.464372 0.830857 0.738678
#
# Coordination Sequence:
#
# PCOD8028658 Si02
#       8
#     2   2   2   2   2   2   2   2
#     4  11  25  49  71 101 139 177 231 298 339 404
#     4  12  25  43  68 104 141 183 230 280 340 413
#     4  11  23  42  63 101 144 179 227 273 335 415
#     4  12  23  42  68  99 138 189 221 275 339 407
#     4  10  25  52  72  97 136 179 241 289 344 408
#     4  11  24  47  78  99 133 188 230 286 349 404
#     4  11  24  41  66 100 144 181 223 272 340 418
#     4  12  25  45  72 105 142 180 225 285 347 412
#
# _framework density 24.413568000000001
#
# number of rings (size 3 to 8) (size 9 to 14) (size 15 to 20)
#    0.000    0.750    5.000    2.250    1.750    3.500 
#    4.500    0.000    0.000    0.000    0.000    0.000 
#    0.000    0.000    0.000    0.000    0.000    0.000 
#
# Total GULP energy -198384.901017 kJ/mol
# GULP energy per Si atom -12399.056314 kJ/mol
# Density = 2.435800 g / cm^3
# Si number density = 24.413568 Si / 1000 Ang^3
#
#
#
# Elastic Constant Matrix: (Units=GPa)
#
#
# Indices 1 2 3 4 5 6 
#
# 1 46.7499 -7.2207 15.4862 3.2490 -4.2427 -4.1460
# 2 -7.2207 83.9574 23.3743 -2.5524 -2.2912 6.2116
# 3 15.4862 23.3743 111.4018 10.5154 -16.3360 -2.6319
# 4 3.2490 -2.5524 10.5154 44.3922 0.8850 -6.4485
# 5 -4.2427 -2.2912 -16.3360 0.8850 14.9144 3.6551
# 6 -4.1460 6.2116 -2.6319 -6.4485 3.6551 34.4868
#
#
#
# Elastic Compliance Matrix: (Units=1/GPa)
#
#
# Indices 1 2 3 4 5 6 
#
# 1 0.023397 0.002881 -0.003306 -0.000594 0.003121 0.001600
# 2 0.002881 0.013278 -0.003397 0.001066 -0.000420 -0.002061
# 3 -0.003306 -0.003397 0.012241 -0.003209 0.012321 -0.000757
# 4 -0.000594 0.001066 -0.003209 0.024190 -0.006097 0.004661
# 5 0.003121 -0.000420 0.012321 -0.006097 0.083846 -0.008635
# 6 0.001600 -0.002061 -0.000757 0.004661 -0.008635 0.031289
#
#
# Mechanical properties :
#
#
# Convention : Reuss Voigt Hill
#
# Bulk Modulus (GPa) = 24.22956 33.93207 29.08082
# Shear Modulus (GPa) = 23.85031 32.78997 28.32014
#
# Velocity S-wave (km/s) = 3.12898 3.66881 3.40960
# Velocity P-wave (km/s) = 4.79585 5.64588 5.23814
#
# Compressibility (1/GPa) = 0.04127189
#
# Stress axis : x y z
#
# Youngs Moduli (GPa) = 42.74090 75.31323 81.69525
#
# Poissons Ratio (x) = -0.21700 0.27004
# Poissons Ratio (y) = -0.12315 0.27756
# Poissons Ratio (z) = 0.14128 0.25587
#
# Static dielectric constant tensor:
#      x y z
#    x 4.070470 0.194880 -0.169980 
#    y 0.194880 4.715240 -0.040100 
#    z -0.169980 -0.040100 4.639850 
# 
# 
# High freq. dielectric constant tensor:
#      x y z
#    x 1.939930 0.006420 -0.011110 
#    y 0.006420 1.986460 0.001750 
#    z -0.011110 0.001750 1.989500 
# 
# From -- ./inp_files/529964.got.cif
#   From: 2010.06.25/outbox.cif.g09.slc.cpg/sg2_265_cif.got.tgz:529964.got - 2010.06.27 13:26:56.
