data_PCOD8028427
_publ_section_title
;
Structure prediction by ZEFSAII (Michael W. Deem and Ramdas Pophale) SiO2 
 PCOD8028427
Probable space group: P -1
;
_chemical_formula_sum "Si O2"
_cell_formula_units_Z 14
_cell_length_a 13.890700
_cell_length_b 15.081634
_cell_length_c 8.674167
_cell_angle_alpha 45.246201
_cell_angle_beta 122.582290
_cell_angle_gamma 153.286516
_cell_volume 556.350196
_symmetry_space_group_name_H-M "P -1"
_symmetry_group_IT_number 2
_symmetry_cell_setting 'triclinic'
loop_
_space_group_symop_operation_xyz
x,y,z
-x,-y,-z
loop_
_atom_site_type_symbol
_atom_site_label
_atom_site_fract_x
_atom_site_fract_y
_atom_site_fract_z
Si Si1 0.580844 0.217035 0.815372
Si Si2 0.992802 0.554668 0.593320
Si Si3 0.163541 0.014501 0.693079
Si Si4 0.445270 0.356336 0.270516
Si Si5 0.210140 0.172207 0.864332
Si Si6 0.177371 0.518461 0.979930
Si Si7 0.398433 0.123358 0.270020
O O1 0.376815 0.121848 0.749982
O O2 0.757373 0.405829 0.596156
O O3 0.722731 0.370356 0.903521
O O4 0.500000 0.000000 0.000000
O O5 0.998138 0.455332 0.855183
O O6 0.000000 0.500000 0.500000
O O7 0.198174 0.839286 0.444822
O O8 0.209709 0.147768 0.419220
O O9 0.143026 0.083502 0.739908
O O10 0.935368 0.723645 0.834758
O O11 0.636386 0.559350 0.316218
O O12 0.434647 0.207988 0.371236
O O13 0.500000 0.500000 0.000000
O O14 0.347820 0.183642 0.029522
O O15 0.000000 0.000000 0.000000
O O16 0.370742 0.721429 0.771559
#
# Coordination Sequence:
#
# PCOD8028427 Si02
#       7
#     2   2   2   2   2   2   2
#     4  12  26  45  71 110 153 189 253 294 373 461
#     4  12  26  43  72 109 151 201 241 303 372 449
#     4  12  25  47  78 106 148 199 240 316 380 434
#     4  10  25  46  70 102 140 187 251 308 372 434
#     4  11  24  48  71 105 145 190 254 311 366 439
#     4  12  25  47  73 107 154 190 246 303 373 457
#     4  11  24  45  70 107 145 193 247 305 374 438
#
# _framework density 25.164006000000001
#
# number of rings (size 3 to 8) (size 9 to 14) (size 15 to 20)
#    0.000    0.571    2.857    4.714    6.000    0.000 
#    0.000    5.714    0.000    0.000    0.000    0.000 
#    0.000    0.000    0.000    0.000    0.000    0.000 
#
# Total GULP energy -173539.821832 kJ/mol
# GULP energy per Si atom -12395.701559 kJ/mol
# Density = 2.510673 g / cm^3
# Si number density = 25.164006 Si / 1000 Ang^3
#
#
#
# Elastic Constant Matrix: (Units=GPa)
#
#
# Indices 1 2 3 4 5 6 
#
# 1 109.8629 54.6483 37.0605 -10.0890 -27.2188 -35.2605
# 2 54.6483 157.2217 53.4573 -28.4192 0.6983 -49.4596
# 3 37.0605 53.4573 130.0036 -31.2527 -22.8252 -23.2514
# 4 -10.0890 -28.4192 -31.2527 63.4313 2.7510 6.8218
# 5 -27.2188 0.6983 -22.8252 2.7510 53.1578 2.8562
# 6 -35.2605 -49.4596 -23.2514 6.8218 2.8562 60.8939
#
#
#
# Elastic Compliance Matrix: (Units=1/GPa)
#
#
# Indices 1 2 3 4 5 6 
#
# 1 0.014202 -0.003185 -0.000735 -0.000369 0.006744 0.005081
# 2 -0.003185 0.010534 -0.002353 0.002583 -0.003218 0.005675
# 3 -0.000735 -0.002353 0.010684 0.003799 0.003985 0.001131
# 4 -0.000369 0.002583 0.003799 0.018586 0.000380 0.001235
# 5 0.006744 -0.003218 0.003985 0.000380 0.023910 0.001649
# 6 0.005081 0.005675 0.001131 0.001235 0.001649 0.024190
#
#
# Mechanical properties :
#
#
# Convention : Reuss Voigt Hill
#
# Bulk Modulus (GPa) = 43.71467 76.38003 60.04735
# Shear Modulus (GPa) = 40.89107 52.29141 46.59124
#
# Velocity S-wave (km/s) = 4.03548 4.56348 4.30758
# Velocity P-wave (km/s) = 6.25485 7.62797 6.97528
#
# Compressibility (1/GPa) = 0.02287561
#
# Stress axis : x y z
#
# Youngs Moduli (GPa) = 70.41114 94.93237 93.59750
#
# Poissons Ratio (x) = 0.30234 0.06878
# Poissons Ratio (y) = 0.22425 0.22020
# Poissons Ratio (z) = 0.05174 0.22334
#
# Static dielectric constant tensor:
#      x y z
#    x 4.688510 -0.284510 -0.321120 
#    y -0.284510 5.052820 -0.255110 
#    z -0.321120 -0.255110 4.525630 
# 
# 
# High freq. dielectric constant tensor:
#      x y z
#    x 2.017110 -0.010720 -0.012200 
#    y -0.010720 2.021750 -0.013850 
#    z -0.012200 -0.013850 2.010000 
# 
# From -- ./inp_files/314713.got.cif
#   From: 2010.06.25/outbox.cif.g09.slc.cpg/sg2_158_cif.got.tgz:314713.got - 2010.06.27 13:26:56.
