data_PCOD8028341
_publ_section_title
;
Structure prediction by ZEFSAII (Michael W. Deem and Ramdas Pophale) SiO2 
 PCOD8028341
Probable space group: P -1
;
_chemical_formula_sum "Si O2"
_cell_formula_units_Z 14
_cell_length_a 14.151816
_cell_length_b 5.165134
_cell_length_c 14.071274
_cell_angle_alpha 62.177301
_cell_angle_beta 39.001333
_cell_angle_gamma 80.791035
_cell_volume 533.171193
_symmetry_space_group_name_H-M "P -1"
_symmetry_group_IT_number 2
_symmetry_cell_setting 'triclinic'
loop_
_space_group_symop_operation_xyz
x,y,z
-x,-y,-z
loop_
_atom_site_type_symbol
_atom_site_label
_atom_site_fract_x
_atom_site_fract_y
_atom_site_fract_z
Si Si1 0.101987 0.354917 0.588559
Si Si2 0.066107 0.181752 0.321161
Si Si3 0.606567 0.730840 0.198551
Si Si4 0.600550 0.376915 0.809507
Si Si5 0.388982 0.706218 0.977932
Si Si6 0.191728 0.609844 0.829679
Si Si7 0.695940 0.668811 0.388997
O O1 0.017355 0.563702 0.670455
O O2 0.213122 0.526525 0.382895
O O3 0.208718 0.266382 0.598173
O O4 0.967775 0.040035 0.706624
O O5 0.258189 0.353024 0.147229
O O6 0.000000 0.000000 0.500000
O O7 0.507481 0.749319 0.178062
O O8 0.747310 0.588261 0.106001
O O9 0.492087 0.546275 0.406812
O O10 0.676856 0.111617 0.084192
O O11 0.581665 0.162673 0.957004
O O12 0.559052 0.685075 0.816458
O O13 0.237229 0.516968 0.706311
O O14 0.280934 0.978325 0.724189
O O15 0.000000 0.500000 0.000000
#
# Coordination Sequence:
#
# PCOD8028341 Si02
#       7
#     2   2   2   2   2   2   2
#     4  11  26  47  77 106 152 205 247 302 378 442
#     4  12  26  45  73 107 158 201 251 305 372 437
#     4  11  27  45  78 105 152 197 252 302 386 434
#     4  10  25  45  72 107 152 198 252 300 364 447
#     4  11  26  44  72 110 154 198 253 305 365 447
#     4  12  28  51  80 113 149 187 252 319 381 447
#     4  11  27  50  79 107 150 195 252 307 376 452
#
# _framework density 26.257982999999999
#
# number of rings (size 3 to 8) (size 9 to 14) (size 15 to 20)
#    0.000    0.857    1.429    3.000   14.000    1.143 
#    0.000    0.000    0.000    0.000    0.000    0.000 
#    0.000    0.000    0.000    0.000    0.000    0.000 
#
# Total GULP energy -173515.250355 kJ/mol
# GULP energy per Si atom -12393.946454 kJ/mol
# Density = 2.619822 g / cm^3
# Si number density = 26.257983 Si / 1000 Ang^3
#
#
#
# Elastic Constant Matrix: (Units=GPa)
#
#
# Indices 1 2 3 4 5 6 
#
# 1 38.8835 11.0275 30.7596 -1.7367 -5.1249 -19.2614
# 2 11.0275 112.8650 42.4346 -4.8792 -1.8282 -21.6199
# 3 30.7596 42.4346 113.9798 -9.0006 -4.2520 -13.4513
# 4 -1.7367 -4.8792 -9.0006 39.0457 -5.1591 6.6775
# 5 -5.1249 -1.8282 -4.2520 -5.1591 45.4628 -2.3959
# 6 -19.2614 -21.6199 -13.4513 6.6775 -2.3959 51.7651
#
#
#
# Elastic Compliance Matrix: (Units=1/GPa)
#
#
# Indices 1 2 3 4 5 6 
#
# 1 0.040437 0.002535 -0.010221 -0.002064 0.004203 0.013910
# 2 0.002535 0.011084 -0.004273 -0.000186 0.000549 0.004512
# 3 -0.010221 -0.004273 0.013020 0.002449 0.000039 -0.002518
# 4 -0.002064 -0.000186 0.002449 0.027050 0.002870 -0.003566
# 5 0.004203 0.000549 0.000039 0.002870 0.022953 0.002495
# 6 0.013910 0.004512 -0.002518 -0.003566 0.002495 0.026299
#
#
# Mechanical properties :
#
#
# Convention : Reuss Voigt Hill
#
# Bulk Modulus (GPa) = 24.61591 48.24129 36.42860
# Shear Modulus (GPa) = 28.04260 39.35516 33.69888
#
# Velocity S-wave (km/s) = 3.27152 3.87562 3.58631
# Velocity P-wave (km/s) = 4.86471 6.19993 5.57246
#
# Compressibility (1/GPa) = 0.04062414
#
# Stress axis : x y z
#
# Youngs Moduli (GPa) = 24.73003 90.22099 76.80415
#
# Poissons Ratio (x) = -0.22875 0.78503
# Poissons Ratio (y) = -0.06270 0.32815
# Poissons Ratio (z) = 0.25277 0.38547
#
# Static dielectric constant tensor:
#      x y z
#    x 4.854580 -0.040630 0.043150 
#    y -0.040630 4.871750 -0.102060 
#    z 0.043150 -0.102060 4.782620 
# 
# 
# High freq. dielectric constant tensor:
#      x y z
#    x 2.072980 -0.000090 0.007130 
#    y -0.000090 2.060270 -0.007240 
#    z 0.007130 -0.007240 2.055430 
# 
# From -- ./inp_files/525502.got.cif
#   From: 2010.06.25/outbox.cif.g09.slc.cpg/sg2_263_cif.got.tgz:525502.got - 2010.06.27 13:26:56.
