data_PCOD8028444
_publ_section_title
;
Structure prediction by ZEFSAII (Michael W. Deem and Ramdas Pophale) SiO2 
 PCOD8028444
Probable space group: P -1
;
_chemical_formula_sum "Si O2"
_cell_formula_units_Z 12
_cell_length_a 8.853817
_cell_length_b 7.401057
_cell_length_c 14.802245
_cell_angle_alpha 137.022756
_cell_angle_beta 130.190172
_cell_angle_gamma 50.818861
_cell_volume 480.796898
_symmetry_space_group_name_H-M "P -1"
_symmetry_group_IT_number 2
_symmetry_cell_setting 'triclinic'
loop_
_space_group_symop_operation_xyz
x,y,z
-x,-y,-z
loop_
_atom_site_type_symbol
_atom_site_label
_atom_site_fract_x
_atom_site_fract_y
_atom_site_fract_z
Si Si1 0.656456 0.697878 0.459826
Si Si2 0.935615 0.826637 0.277212
Si Si3 0.338916 0.399996 0.220619
Si Si4 0.754274 0.105727 0.938123
Si Si5 0.018457 0.375675 0.581729
Si Si6 0.405437 0.343559 0.019882
O O1 0.526902 0.495604 0.365473
O O2 0.835597 0.662552 0.592238
O O3 0.765310 0.613724 0.373511
O O4 0.500000 0.000000 0.500000
O O5 0.721765 0.831983 0.148130
O O6 0.128888 0.660499 0.228703
O O7 0.952052 0.650852 0.310871
O O8 0.947069 0.131339 0.415989
O O9 0.318699 0.169143 0.200285
O O10 0.393780 0.272786 0.094657
O O11 0.642094 0.257495 0.042320
O O12 0.691440 0.321833 0.909781
O O13 0.000000 0.000000 0.000000
#
# Coordination Sequence:
#
# PCOD8028444 Si02
#       6
#     2   2   2   2   2   2
#     4  11  24  47  70 103 136 188 237 291 353 414
#     4  11  23  47  71 104 141 187 235 288 356 418
#     4  12  25  45  73 105 141 185 234 289 356 420
#     4  11  25  44  68 104 139 190 228 284 353 415
#     4  10  25  46  71 100 142 184 238 294 344 418
#     4  11  26  47  70 105 147 180 231 294 354 423
#
# _framework density 24.958563000000002
#
# number of rings (size 3 to 8) (size 9 to 14) (size 15 to 20)
#    0.000    1.000    3.333    2.000    4.667    2.000 
#    3.000    0.000    0.000    0.000    0.000    0.000 
#    0.000    0.000    0.000    0.000    0.000    0.000 
#
# Total GULP energy -148782.997605 kJ/mol
# GULP energy per Si atom -12398.583134 kJ/mol
# Density = 2.490176 g / cm^3
# Si number density = 24.958563 Si / 1000 Ang^3
#
#
#
# Elastic Constant Matrix: (Units=GPa)
#
#
# Indices 1 2 3 4 5 6 
#
# 1 119.4565 20.5273 16.3201 -9.4959 22.4853 -19.4537
# 2 20.5273 96.4462 0.8188 3.4699 13.3883 -21.9054
# 3 16.3201 0.8188 56.0046 1.7676 12.2314 -2.3379
# 4 -9.4959 3.4699 1.7676 31.7809 10.6358 3.8961
# 5 22.4853 13.3883 12.2314 10.6358 47.3668 3.5849
# 6 -19.4537 -21.9054 -2.3379 3.8961 3.5849 57.7699
#
#
#
# Elastic Compliance Matrix: (Units=1/GPa)
#
#
# Indices 1 2 3 4 5 6 
#
# 1 0.010786 -0.000931 -0.001902 0.004950 -0.005722 0.003223
# 2 -0.000931 0.012108 0.001054 -0.001101 -0.003354 0.004603
# 3 -0.001902 0.001054 0.019398 -0.000400 -0.004378 0.000843
# 4 0.004950 -0.001101 -0.000400 0.036539 -0.010094 -0.000605
# 5 -0.005722 -0.003354 -0.004378 -0.010094 0.028511 -0.004464
# 6 0.003223 0.004603 0.000843 -0.000605 -0.004464 0.020493
#
#
# Mechanical properties :
#
#
# Convention : Reuss Voigt Hill
#
# Bulk Modulus (GPa) = 25.81686 38.58220 32.19953
# Shear Modulus (GPa) = 34.64860 42.99958 38.82409
#
# Velocity S-wave (km/s) = 3.72996 4.15521 3.94831
# Velocity P-wave (km/s) = 5.37740 6.20589 5.80644
#
# Compressibility (1/GPa) = 0.03873438
#
# Stress axis : x y z
#
# Youngs Moduli (GPa) = 92.70859 82.58828 51.55044
#
# Poissons Ratio (x) = 0.07692 0.09804
# Poissons Ratio (y) = 0.08634 -0.05432
# Poissons Ratio (z) = 0.17631 -0.08702
#
# Static dielectric constant tensor:
#      x y z
#    x 4.878360 0.003180 0.381810 
#    y 0.003180 4.773670 0.518620 
#    z 0.381810 0.518620 4.568030 
# 
# 
# High freq. dielectric constant tensor:
#      x y z
#    x 2.015000 -0.008720 0.018540 
#    y -0.008720 2.013450 0.016810 
#    z 0.018540 0.016810 1.963600 
# 
# From -- ./inp_files/555750.got.cif
#   From: 2010.06.25/outbox.cif.g09.slc.cpg/sg2_278_cif.got.tgz:555750.got - 2010.06.27 13:26:56.
