data_PCOD8028115
_publ_section_title
;
Structure prediction by ZEFSAII (Michael W. Deem and Ramdas Pophale) SiO2 
 PCOD8028115
Probable space group: P -1
;
_chemical_formula_sum "Si O2"
_cell_formula_units_Z 16
_cell_length_a 23.114648
_cell_length_b 9.251278
_cell_length_c 20.347139
_cell_angle_alpha 149.615859
_cell_angle_beta 158.944971
_cell_angle_gamma 41.213427
_cell_volume 756.533415
_symmetry_space_group_name_H-M "P -1"
_symmetry_group_IT_number 2
_symmetry_cell_setting 'triclinic'
loop_
_space_group_symop_operation_xyz
x,y,z
-x,-y,-z
loop_
_atom_site_type_symbol
_atom_site_label
_atom_site_fract_x
_atom_site_fract_y
_atom_site_fract_z
Si Si1 0.509715 0.288465 0.664283
Si Si2 0.060465 0.720587 0.475932
Si Si3 0.138552 0.233462 0.985575
Si Si4 0.184401 0.884686 0.325938
Si Si5 0.749750 0.257687 0.024492
Si Si6 0.479773 0.782255 0.123450
Si Si7 0.692337 0.876375 0.008931
Si Si8 0.868245 0.785692 0.726090
O O1 0.619666 0.574706 0.853970
O O2 0.321664 0.303432 0.483546
O O3 0.500000 0.000000 0.500000
O O4 0.605403 0.253612 0.818004
O O5 0.093117 0.529865 0.372703
O O6 0.922049 0.503338 0.289065
O O7 0.000000 0.000000 0.500000
O O8 0.224279 0.851890 0.746245
O O9 0.218658 0.582319 0.219595
O O10 0.173751 0.160929 0.918939
O O11 0.937881 0.155093 0.755841
O O12 0.221909 0.067401 0.063201
O O13 0.365395 0.096801 0.617074
O O14 0.106091 0.028788 0.240899
O O15 0.691144 0.342501 0.065894
O O16 0.463439 0.039798 0.157085
O O17 0.500000 0.500000 0.000000
O O18 0.000000 0.000000 0.000000
#
# Coordination Sequence:
#
# PCOD8028115 Si02
#       8
#     2   2   2   2   2   2   2   2
#     4  12  26  45  73 105 144 183 239 291 357 421
#     4  12  26  47  71 106 146 184 239 292 358 422
#     4  10  25  43  73 101 140 183 235 290 354 416
#     4  11  23  45  71 103 141 180 242 291 348 420
#     4  11  24  45  70  98 141 187 225 296 348 420
#     4  11  26  43  68 100 137 186 234 287 353 414
#     4  11  27  44  70 106 140 185 234 287 357 419
#     4  12  27  47  76 103 145 188 240 293 357 425
#
# _framework density 21.149097999999999
#
# number of rings (size 3 to 8) (size 9 to 14) (size 15 to 20)
#    0.000    0.750    3.750    2.250    5.250    4.500 
#    0.000    0.000    0.000    0.000    0.000    0.000 
#    0.000    0.000    0.000    0.000    0.000    0.000 
#
# Total GULP energy -198379.493825 kJ/mol
# GULP energy per Si atom -12398.718364 kJ/mol
# Density = 2.110096 g / cm^3
# Si number density = 21.149098 Si / 1000 Ang^3
#
#
#
# Elastic Constant Matrix: (Units=GPa)
#
#
# Indices 1 2 3 4 5 6 
#
# 1 103.0283 49.2706 50.2585 10.2301 -1.6193 -18.5446
# 2 49.2706 136.7101 38.6816 14.3067 -12.4644 -9.1183
# 3 50.2585 38.6816 127.5862 6.0182 -7.2252 -6.4237
# 4 10.2301 14.3067 6.0182 36.0654 -1.2217 -6.6291
# 5 -1.6193 -12.4644 -7.2252 -1.2217 37.6795 -1.1276
# 6 -18.5446 -9.1183 -6.4237 -6.6291 -1.1276 43.9501
#
#
#
# Elastic Compliance Matrix: (Units=1/GPa)
#
#
# Indices 1 2 3 4 5 6 
#
# 1 0.014520 -0.003692 -0.004396 -0.001137 -0.001342 0.004512
# 2 -0.003692 0.009466 -0.001153 -0.002436 0.002671 -0.000061
# 3 -0.004396 -0.001153 0.009964 -0.000026 0.001321 -0.000607
# 4 -0.001137 -0.002436 -0.000026 0.029669 0.000207 0.003492
# 5 -0.001342 0.002671 0.001321 0.000207 0.027653 0.000922
# 6 0.004512 -0.000061 -0.000607 0.003492 0.000922 0.025106
#
#
# Mechanical properties :
#
#
# Convention : Reuss Voigt Hill
#
# Bulk Modulus (GPa) = 64.64042 71.52732 68.08387
# Shear Modulus (GPa) = 35.71073 38.81326 37.26200
#
# Velocity S-wave (km/s) = 4.11362 4.28860 4.20202
# Velocity P-wave (km/s) = 7.29335 7.64308 7.47026
#
# Compressibility (1/GPa) = 0.01547020
#
# Stress axis : x y z
#
# Youngs Moduli (GPa) = 68.87213 105.64456 100.35939
#
# Poissons Ratio (x) = 0.39000 0.44113
# Poissons Ratio (y) = 0.25425 0.11567
# Poissons Ratio (z) = 0.30273 0.12176
#
# Static dielectric constant tensor:
#      x y z
#    x 3.877100 -0.169060 0.146310 
#    y -0.169060 4.135140 0.215030 
#    z 0.146310 0.215030 3.689350 
# 
# 
# High freq. dielectric constant tensor:
#      x y z
#    x 1.839500 -0.003490 0.005940 
#    y -0.003490 1.847830 0.002060 
#    z 0.005940 0.002060 1.830050 
# 
# From -- ./inp_files/283476.got.cif
#   From: 2010.06.25/outbox.cif.g09.slc.cpg/sg2_142_cif.got.tgz:283476.got - 2010.06.27 13:26:56.
