data_PCOD8028825
_publ_section_title
;
Structure prediction by ZEFSAII (Michael W. Deem and Ramdas Pophale) SiO2 
 PCOD8028825
Probable space group: P -1
;
_chemical_formula_sum "Si O2"
_cell_formula_units_Z 12
_cell_length_a 9.353193
_cell_length_b 5.136754
_cell_length_c 20.585968
_cell_angle_alpha 112.846073
_cell_angle_beta 148.224713
_cell_angle_gamma 79.978887
_cell_volume 454.473056
_symmetry_space_group_name_H-M "P -1"
_symmetry_group_IT_number 2
_symmetry_cell_setting 'triclinic'
loop_
_space_group_symop_operation_xyz
x,y,z
-x,-y,-z
loop_
_atom_site_type_symbol
_atom_site_label
_atom_site_fract_x
_atom_site_fract_y
_atom_site_fract_z
Si Si1 0.493488 0.633030 0.915256
Si Si2 0.654096 0.679717 0.746244
Si Si3 0.519859 0.815015 0.569105
Si Si4 0.524855 0.009554 0.182892
Si Si5 0.895286 0.890934 0.520267
Si Si6 0.968080 0.647809 0.191755
O O1 0.511356 0.885328 0.893599
O O2 0.186734 0.540744 0.823919
O O3 0.542346 0.344523 0.873409
O O4 0.744242 0.772778 0.078716
O O5 0.649326 0.855206 0.695334
O O6 0.690591 0.902745 0.842698
O O7 0.358669 0.414980 0.613643
O O8 0.925642 0.561248 0.836851
O O9 0.500000 0.500000 0.500000
O O10 0.211220 0.863207 0.459088
O O11 0.754000 0.086336 0.647190
O O12 0.852620 0.169319 0.347052
O O13 0.000000 0.000000 0.500000
#
# Coordination Sequence:
#
# PCOD8028825 Si02
#       6
#     2   2   2   2   2   2
#     4  11  29  50  80 109 151 208 254 312 370 461
#     4  11  26  44  74 110 152 193 252 321 375 447
#     4  11  27  46  78 110 151 201 249 319 383 449
#     4  12  27  46  78 115 149 203 253 306 386 448
#     4  11  24  46  70 110 156 195 246 315 378 449
#     4  10  28  51  73 110 153 198 260 313 376 448
#
# _framework density 26.404207
#
# number of rings (size 3 to 8) (size 9 to 14) (size 15 to 20)
#    0.000    1.000    1.667    1.500   14.000    4.000 
#    0.000    2.500    0.000    0.000    0.000    0.000 
#    0.000    0.000    0.000    0.000    0.000    0.000 
#
# Total GULP energy -148858.896697 kJ/mol
# GULP energy per Si atom -12404.908058 kJ/mol
# Density = 2.634411 g / cm^3
# Si number density = 26.404207 Si / 1000 Ang^3
#
#
#
# Elastic Constant Matrix: (Units=GPa)
#
#
# Indices 1 2 3 4 5 6 
#
# 1 133.8496 38.3287 18.1113 1.1790 2.4375 -30.4374
# 2 38.3287 95.2145 -3.7066 -0.5731 6.0536 -27.8071
# 3 18.1113 -3.7066 47.7567 -12.9733 11.6660 -15.8885
# 4 1.1790 -0.5731 -12.9733 42.8363 4.8115 -15.4313
# 5 2.4375 6.0536 11.6660 4.8115 35.9124 -7.9877
# 6 -30.4374 -27.8071 -15.8885 -15.4313 -7.9877 55.3904
#
#
#
# Elastic Compliance Matrix: (Units=1/GPa)
#
#
# Indices 1 2 3 4 5 6 
#
# 1 0.009466 -0.003314 -0.003598 -0.000664 0.001746 0.002572
# 2 -0.003314 0.015233 0.008370 0.006697 -0.003837 0.009539
# 3 -0.003598 0.008370 0.036084 0.018208 -0.011780 0.015949
# 4 -0.000664 0.006697 0.018208 0.036028 -0.008022 0.017100
# 5 0.001746 -0.003837 -0.011780 -0.008022 0.032866 -0.001841
# 6 0.002572 0.009539 0.015949 0.017100 -0.001841 0.033329
#
#
# Mechanical properties :
#
#
# Convention : Reuss Voigt Hill
#
# Bulk Modulus (GPa) = 15.69954 42.47638 29.08796
# Shear Modulus (GPa) = 27.57489 41.76699 34.67094
#
# Velocity S-wave (km/s) = 3.23513 3.98154 3.62758
# Velocity P-wave (km/s) = 4.46245 6.10400 5.34660
#
# Compressibility (1/GPa) = 0.06369612
#
# Stress axis : x y z
#
# Youngs Moduli (GPa) = 105.64029 65.64789 27.71334
#
# Poissons Ratio (x) = 0.21759 0.09972
# Poissons Ratio (y) = 0.35014 -0.23195
# Poissons Ratio (z) = 0.38013 -0.54944
#
# Static dielectric constant tensor:
#      x y z
#    x 5.521240 0.272170 0.399180 
#    y 0.272170 5.274610 0.072520 
#    z 0.399180 0.072520 4.965810 
# 
# 
# High freq. dielectric constant tensor:
#      x y z
#    x 2.076200 -0.007890 0.005110 
#    y -0.007890 2.061190 -0.008070 
#    z 0.005110 -0.008070 2.059290 
# 
# From -- ./inp_files/339821.got.cif
#   From: 2010.06.25/outbox.cif.g09.slc.cpg/sg2_170_cif.got.tgz:339821.got - 2010.06.27 13:26:56.
