data_PCOD8028058
_publ_section_title
;
Structure prediction by ZEFSAII (Michael W. Deem and Ramdas Pophale) SiO2 
 PCOD8028058
Probable space group: P -1
;
_chemical_formula_sum "Si O2"
_cell_formula_units_Z 16
_cell_length_a 8.628447
_cell_length_b 18.136158
_cell_length_c 4.921027
_cell_angle_alpha 119.278440
_cell_angle_beta 94.524713
_cell_angle_gamma 86.632649
_cell_volume 669.428157
_symmetry_space_group_name_H-M "P -1"
_symmetry_group_IT_number 2
_symmetry_cell_setting 'triclinic'
loop_
_space_group_symop_operation_xyz
x,y,z
-x,-y,-z
loop_
_atom_site_type_symbol
_atom_site_label
_atom_site_fract_x
_atom_site_fract_y
_atom_site_fract_z
Si Si1 0.566302 0.164564 0.712678
Si Si2 0.921529 0.181252 0.779804
Si Si3 0.867869 0.533408 0.230829
Si Si4 0.108230 0.630340 0.757510
Si Si5 0.439817 0.414029 0.953372
Si Si6 0.065043 0.093142 0.145761
Si Si7 0.425307 0.087725 0.059893
Si Si8 0.426156 0.664211 0.664830
O O1 0.748580 0.146809 0.647829
O O2 0.484930 0.161564 0.401402
O O3 0.485167 0.097427 0.777455
O O4 0.534167 0.251447 0.020439
O O5 0.046337 0.139214 0.516221
O O6 0.925079 0.283252 0.924185
O O7 0.966323 0.152467 0.035971
O O8 0.806888 0.447716 0.208974
O O9 0.744952 0.583180 0.114674
O O10 0.942778 0.600681 0.568093
O O11 0.000000 0.500000 0.000000
O O12 0.240548 0.651195 0.590835
O O13 0.512583 0.337984 0.639753
O O14 0.500000 0.500000 0.000000
O O15 0.481289 0.405660 0.262008
O O16 0.239886 0.086616 0.050121
O O17 0.000000 0.000000 0.000000
O O18 0.500000 0.000000 0.000000
#
# Coordination Sequence:
#
# PCOD8028058 Si02
#       8
#     2   2   2   2   2   2   2   2
#     4  11  24  45  68 101 136 178 222 276 337 394
#     4  11  25  45  72  99 139 180 225 276 338 403
#     4  11  25  42  64  94 134 178 228 275 337 391
#     4  10  25  43  65  95 134 179 222 276 335 395
#     4  12  24  41  68  92 128 172 227 274 329 385
#     4  12  26  46  72 104 137 176 224 272 336 409
#     4  12  25  45  71 101 138 174 220 274 334 399
#     4  11  25  44  67  96 130 175 225 274 330 392
#
# _framework density 23.900998000000001
#
# number of rings (size 3 to 8) (size 9 to 14) (size 15 to 20)
#    0.000    0.750    1.250    5.625    5.250    5.000 
#    0.000    0.000    0.000    0.000    0.000    0.000 
#    0.000    0.000    0.000    0.000    0.000    0.000 
#
# Total GULP energy -198358.336836 kJ/mol
# GULP energy per Si atom -12397.396052 kJ/mol
# Density = 2.384660 g / cm^3
# Si number density = 23.900998 Si / 1000 Ang^3
#
#
#
# Elastic Constant Matrix: (Units=GPa)
#
#
# Indices 1 2 3 4 5 6 
#
# 1 112.7484 14.3294 11.3063 13.7337 3.8525 -1.6984
# 2 14.3294 67.3112 7.5622 10.8740 11.1380 -1.1186
# 3 11.3063 7.5622 85.6099 9.6098 -6.2484 6.1816
# 4 13.7337 10.8740 9.6098 43.4775 -2.0954 -0.1538
# 5 3.8525 11.1380 -6.2484 -2.0954 41.2434 -1.8025
# 6 -1.6984 -1.1186 6.1816 -0.1538 -1.8025 32.5355
#
#
#
# Elastic Compliance Matrix: (Units=1/GPa)
#
#
# Indices 1 2 3 4 5 6 
#
# 1 0.009475 -0.001376 -0.000949 -0.002474 -0.000758 0.000574
# 2 -0.001376 0.016676 -0.001256 -0.003685 -0.004732 0.000461
# 3 -0.000949 -0.001256 0.012471 -0.002049 0.002110 -0.002355
# 4 -0.002474 -0.003685 -0.002049 0.025264 0.002216 0.000376
# 5 -0.000758 -0.004732 0.002110 0.002216 0.026065 0.000851
# 6 0.000574 0.000461 -0.002355 0.000376 0.000851 0.031278
#
#
# Mechanical properties :
#
#
# Convention : Reuss Voigt Hill
#
# Bulk Modulus (GPa) = 31.78594 36.89616 34.34105
# Shear Modulus (GPa) = 36.00251 38.94938 37.47594
#
# Velocity S-wave (km/s) = 3.88534 4.04123 3.96405
# Velocity P-wave (km/s) = 5.78409 6.10294 5.94566
#
# Compressibility (1/GPa) = 0.03146045
#
# Stress axis : x y z
#
# Youngs Moduli (GPa) = 105.53882 59.96467 80.18422
#
# Poissons Ratio (x) = 0.08251 0.07609
# Poissons Ratio (y) = 0.14522 0.10074
# Poissons Ratio (z) = 0.10015 0.07534
#
# Static dielectric constant tensor:
#      x y z
#    x 4.109060 0.027180 -0.617160 
#    y 0.027180 4.314000 -0.525900 
#    z -0.617160 -0.525900 5.024470 
# 
# 
# High freq. dielectric constant tensor:
#      x y z
#    x 1.954110 0.000940 -0.001150 
#    y 0.000940 1.950820 0.004000 
#    z -0.001150 0.004000 1.955980 
# 
# From -- ./inp_files/45818.got.cif
#   From: 2010.06.25/outbox.cif.g09.slc.cpg/sg2_23_cif.got.tgz:45818.got - 2010.06.27 13:26:56.
