data_PCOD8028435
_publ_section_title
;
Structure prediction by ZEFSAII (Michael W. Deem and Ramdas Pophale) SiO2 
 PCOD8028435
Probable space group: P -1
;
_chemical_formula_sum "Si O2"
_cell_formula_units_Z 10
_cell_length_a 4.815411
_cell_length_b 13.800458
_cell_length_c 7.200177
_cell_angle_alpha 107.396256
_cell_angle_beta 74.958769
_cell_angle_gamma 70.150138
_cell_volume 393.196826
_symmetry_space_group_name_H-M "P -1"
_symmetry_group_IT_number 2
_symmetry_cell_setting 'triclinic'
loop_
_space_group_symop_operation_xyz
x,y,z
-x,-y,-z
loop_
_atom_site_type_symbol
_atom_site_label
_atom_site_fract_x
_atom_site_fract_y
_atom_site_fract_z
Si Si1 0.612237 0.394549 0.056354
Si Si2 0.749077 0.840951 0.778659
Si Si3 0.207971 0.156846 0.791530
Si Si4 0.994687 0.598377 0.684020
Si Si5 0.767040 0.074755 0.374262
O O1 0.322331 0.360559 0.107122
O O2 0.689619 0.439519 0.263991
O O3 0.500000 0.500000 0.000000
O O4 0.920405 0.281511 0.870716
O O5 0.952894 0.705715 0.628652
O O6 0.924183 0.901748 0.667615
O O7 0.711316 0.866310 0.017941
O O8 0.606230 0.111395 0.218977
O O9 0.514604 0.148947 0.619489
O O10 0.112091 0.059104 0.681422
O O11 0.000000 0.500000 0.500000
#
# Coordination Sequence:
#
# PCOD8028435 Si02
#       5
#     2   2   2   2   2
#     4  11  25  46  71 102 141 186 231 299 352 411
#     4  11  24  45  71 103 142 182 234 292 354 410
#     4  10  25  46  70 107 144 177 243 283 350 428
#     4  11  25  47  70 102 140 184 241 289 351 428
#     4  11  25  43  75 104 138 191 225 291 356 421
#
# _framework density 25.432554
#
# number of rings (size 3 to 8) (size 9 to 14) (size 15 to 20)
#    0.000    1.200    0.000    4.800    2.800   11.200 
#    0.000    0.000    0.000    0.000    0.000    0.000 
#    0.000    0.000    0.000    0.000    0.000    0.000 
#
# Total GULP energy -124044.445911 kJ/mol
# GULP energy per Si atom -12404.444591 kJ/mol
# Density = 2.537467 g / cm^3
# Si number density = 25.432554 Si / 1000 Ang^3
#
#
#
# Elastic Constant Matrix: (Units=GPa)
#
#
# Indices 1 2 3 4 5 6 
#
# 1 75.2233 20.0954 -14.8163 -15.7103 1.7510 -4.5061
# 2 20.0954 131.3874 39.7605 3.9531 22.5679 -16.9897
# 3 -14.8163 39.7605 98.3130 2.6964 -5.1590 0.4687
# 4 -15.7103 3.9531 2.6964 42.5802 6.6880 0.2869
# 5 1.7510 22.5679 -5.1590 6.6880 13.5067 -2.2224
# 6 -4.5061 -16.9897 0.4687 0.2869 -2.2224 50.2391
#
#
#
# Elastic Compliance Matrix: (Units=1/GPa)
#
#
# Indices 1 2 3 4 5 6 
#
# 1 0.016567 -0.005032 0.004663 0.005447 0.005336 -0.000054
# 2 -0.005032 0.017242 -0.009500 0.002174 -0.032199 0.004031
# 3 0.004663 -0.009500 0.015928 -0.001839 0.021941 -0.001962
# 4 0.005447 0.002174 -0.001839 0.028402 -0.019067 0.000235
# 5 0.005336 -0.032199 0.021941 -0.019067 0.144290 -0.004123
# 6 -0.000054 0.004031 -0.001962 0.000235 -0.004123 0.021098
#
#
# Mechanical properties :
#
#
# Convention : Reuss Voigt Hill
#
# Bulk Modulus (GPa) = 33.33667 43.88919 38.61293
# Shear Modulus (GPa) = 18.29728 38.59080 28.44404
#
# Velocity S-wave (km/s) = 2.68515 3.89958 3.34789
# Velocity P-wave (km/s) = 4.76967 6.12945 5.49181
#
# Compressibility (1/GPa) = 0.02999700
#
# Stress axis : x y z
#
# Youngs Moduli (GPa) = 60.36269 57.99681 62.78425
#
# Poissons Ratio (x) = 0.29185 -0.29274
# Poissons Ratio (y) = 0.30376 0.59646
# Poissons Ratio (z) = -0.28145 0.55098
#
# Static dielectric constant tensor:
#      x y z
#    x 4.747890 0.085500 -0.057720 
#    y 0.085500 4.758320 0.064490 
#    z -0.057720 0.064490 4.605630 
# 
# 
# High freq. dielectric constant tensor:
#      x y z
#    x 2.026600 -0.000900 0.003290 
#    y -0.000900 2.029450 0.002220 
#    z 0.003290 0.002220 2.015860 
# 
# From -- ./inp_files/131702.got.cif
#   From: 2010.06.25/outbox.cif.g09.slc.cpg/sg2_66_cif.got.tgz:131702.got - 2010.06.27 13:26:56.
