data_PCOD8028226
_publ_section_title
;
Structure prediction by ZEFSAII (Michael W. Deem and Ramdas Pophale) SiO2 
 PCOD8028226
Probable space group: P -1
;
_chemical_formula_sum "Si O2"
_cell_formula_units_Z 14
_cell_length_a 16.030996
_cell_length_b 9.084500
_cell_length_c 9.726148
_cell_angle_alpha 138.904373
_cell_angle_beta 130.755375
_cell_angle_gamma 38.947683
_cell_volume 577.591394
_symmetry_space_group_name_H-M "P -1"
_symmetry_group_IT_number 2
_symmetry_cell_setting 'triclinic'
loop_
_space_group_symop_operation_xyz
x,y,z
-x,-y,-z
loop_
_atom_site_type_symbol
_atom_site_label
_atom_site_fract_x
_atom_site_fract_y
_atom_site_fract_z
Si Si1 0.942148 0.806017 0.608589
Si Si2 0.922208 0.892778 0.082370
Si Si3 0.345427 0.616684 0.898521
Si Si4 0.686458 0.310784 0.792887
Si Si5 0.892207 0.714050 0.200214
Si Si6 0.552327 0.755334 0.486806
Si Si7 0.373256 0.212933 0.107381
O O1 0.877970 0.867962 0.432187
O O2 0.000000 0.500000 0.500000
O O3 0.823406 0.008301 0.727588
O O4 0.049997 0.881942 0.772780
O O5 0.958570 0.793783 0.210721
O O6 0.760888 0.052124 0.994817
O O7 0.013049 0.613709 0.896329
O O8 0.327144 0.495629 0.652500
O O9 0.500000 0.500000 0.000000
O O10 0.314834 0.540436 0.961829
O O11 0.560544 0.293282 0.633585
O O12 0.681952 0.479521 0.777085
O O13 0.742624 0.830255 0.072794
O O14 0.598966 0.815176 0.719818
O O15 0.500000 0.000000 0.500000
O O16 0.500000 0.000000 0.000000
#
# Coordination Sequence:
#
# PCOD8028226 Si02
#       7
#     2   2   2   2   2   2   2
#     4  12  27  46  74 107 149 198 248 309 376 441
#     4  11  26  48  73 102 152 193 254 297 377 447
#     4  10  25  44  74 101 144 188 241 303 364 443
#     4  11  25  46  69 108 148 187 253 306 375 436
#     4  11  27  47  75 108 147 200 249 306 375 449
#     4  11  26  44  71 106 144 196 245 297 375 447
#     4  12  26  45  75 107 152 191 247 317 371 438
#
# _framework density 24.238588
#
# number of rings (size 3 to 8) (size 9 to 14) (size 15 to 20)
#    0.000    0.857    1.429    3.429   14.000    3.429 
#    0.000    0.000    0.000    0.000    0.000    0.000 
#    0.000    0.000    0.000    0.000    0.000    0.000 
#
# Total GULP energy -173492.027302 kJ/mol
# GULP energy per Si atom -12392.287664 kJ/mol
# Density = 2.418342 g / cm^3
# Si number density = 24.238588 Si / 1000 Ang^3
#
#
#
# Elastic Constant Matrix: (Units=GPa)
#
#
# Indices 1 2 3 4 5 6 
#
# 1 81.0388 29.4027 33.3480 9.9446 -8.7804 4.2230
# 2 29.4027 122.9633 32.4331 9.9911 -11.5061 -12.8155
# 3 33.3480 32.4331 119.3864 -7.7262 -33.5804 -17.6617
# 4 9.9446 9.9911 -7.7262 41.2266 1.5270 -2.5493
# 5 -8.7804 -11.5061 -33.5804 1.5270 47.8340 7.9125
# 6 4.2230 -12.8155 -17.6617 -2.5493 7.9125 51.6032
#
#
#
# Elastic Compliance Matrix: (Units=1/GPa)
#
#
# Indices 1 2 3 4 5 6 
#
# 1 0.015890 -0.002644 -0.004602 -0.004277 -0.000199 -0.003713
# 2 -0.002644 0.009573 -0.001575 -0.001877 0.000459 0.001892
# 3 -0.004602 -0.001575 0.012851 0.003853 0.007099 0.003486
# 4 -0.004277 -0.001877 0.003853 0.026611 0.000208 0.002485
# 5 -0.000199 0.000459 0.007099 0.000208 0.026195 -0.001447
# 6 -0.003713 0.001892 0.003486 0.002485 -0.001447 0.021690
#
#
# Mechanical properties :
#
#
# Convention : Reuss Voigt Hill
#
# Bulk Modulus (GPa) = 48.37460 57.08401 52.72931
# Shear Modulus (GPa) = 36.40557 43.34639 39.87598
#
# Velocity S-wave (km/s) = 3.87973 4.23344 4.06044
# Velocity P-wave (km/s) = 6.33014 6.89188 6.61698
#
# Compressibility (1/GPa) = 0.02067200
#
# Stress axis : x y z
#
# Youngs Moduli (GPa) = 62.93445 104.46466 77.81363
#
# Poissons Ratio (x) = 0.27617 0.35813
# Poissons Ratio (y) = 0.16638 0.12253
# Poissons Ratio (z) = 0.28965 0.16450
#
# Static dielectric constant tensor:
#      x y z
#    x 4.188610 0.046130 -0.042120 
#    y 0.046130 4.437260 0.017150 
#    z -0.042120 0.017150 4.900060 
# 
# 
# High freq. dielectric constant tensor:
#      x y z
#    x 1.970790 0.000110 -0.026730 
#    y 0.000110 1.974290 -0.000770 
#    z -0.026730 -0.000770 1.960180 
# 
# From -- ./inp_files/296947.got.cif
#   From: 2010.06.25/outbox.cif.g09.slc.cpg/sg2_149_cif.got.tgz:296947.got - 2010.06.27 13:26:56.
