data_PCOD8028501
_publ_section_title
;
Structure prediction by ZEFSAII (Michael W. Deem and Ramdas Pophale) SiO2 
 PCOD8028501
Probable space group: P -1
;
_chemical_formula_sum "Si O2"
_cell_formula_units_Z 16
_cell_length_a 9.186196
_cell_length_b 14.779150
_cell_length_c 9.408363
_cell_angle_alpha 63.519541
_cell_angle_beta 135.405801
_cell_angle_gamma 94.089653
_cell_volume 738.529337
_symmetry_space_group_name_H-M "P -1"
_symmetry_group_IT_number 2
_symmetry_cell_setting 'triclinic'
loop_
_space_group_symop_operation_xyz
x,y,z
-x,-y,-z
loop_
_atom_site_type_symbol
_atom_site_label
_atom_site_fract_x
_atom_site_fract_y
_atom_site_fract_z
Si Si1 0.780697 0.653991 0.842758
Si Si2 0.157224 0.753047 0.683244
Si Si3 0.954809 0.584616 0.702691
Si Si4 0.712666 0.225523 0.547301
Si Si5 0.407316 0.286111 0.827413
Si Si6 0.605489 0.027016 0.692983
Si Si7 0.839374 0.780168 0.049389
Si Si8 0.653952 0.894649 0.268044
O O1 0.518283 0.679696 0.626145
O O2 0.886431 0.643192 0.768149
O O3 0.903066 0.543959 0.095597
O O4 0.796257 0.755654 0.872936
O O5 0.104922 0.644924 0.695353
O O6 0.278825 0.778218 0.614645
O O7 0.924567 0.860226 0.470426
O O8 0.336895 0.727452 0.955352
O O9 0.745705 0.599495 0.439593
O O10 0.742207 0.104000 0.705071
O O11 0.894635 0.268085 0.706716
O O12 0.285219 0.273478 0.895048
O O13 0.415834 0.199917 0.773356
O O14 0.404785 0.089169 0.618743
O O15 0.500000 0.000000 0.500000
O O16 0.765653 0.908503 0.948408
O O17 0.500000 0.000000 0.000000
#
# Coordination Sequence:
#
# PCOD8028501 Si02
#       8
#     2   2   2   2   2   2   2   2
#     4  11  25  46  71  96 134 171 221 282 334 395
#     4  11  23  43  69  99 135 173 226 272 329 398
#     4  10  25  47  68  98 132 173 220 280 337 392
#     4  12  23  43  68 100 133 174 224 271 329 396
#     4  11  22  44  66  98 136 174 219 273 331 393
#     4  12  24  44  66  95 138 179 215 268 331 387
#     4  12  24  44  66 100 135 173 224 271 328 399
#     4  11  23  43  64  96 137 173 222 274 318 391
#
# _framework density 21.664679
#
# number of rings (size 3 to 8) (size 9 to 14) (size 15 to 20)
#    0.000    0.750    6.250    1.875    0.000    4.500 
#    2.250    2.500    0.000    0.000    0.000    0.000 
#    0.000    0.000    0.000    0.000    0.000    0.000 
#
# Total GULP energy -198359.661247 kJ/mol
# GULP energy per Si atom -12397.478828 kJ/mol
# Density = 2.161537 g / cm^3
# Si number density = 21.664679 Si / 1000 Ang^3
#
#
#
# Elastic Constant Matrix: (Units=GPa)
#
#
# Indices 1 2 3 4 5 6 
#
# 1 82.4631 26.4907 24.5838 -4.2260 -1.0653 -2.2686
# 2 26.4907 52.9893 13.2623 3.4972 10.1635 -8.9264
# 3 24.5838 13.2623 129.5928 4.8782 18.3380 16.7382
# 4 -4.2260 3.4972 4.8782 42.1058 4.5373 -2.7536
# 5 -1.0653 10.1635 18.3380 4.5373 41.9473 4.8916
# 6 -2.2686 -8.9264 16.7382 -2.7536 4.8916 28.3812
#
#
#
# Elastic Compliance Matrix: (Units=1/GPa)
#
#
# Indices 1 2 3 4 5 6 
#
# 1 0.015624 -0.007903 -0.002699 0.002187 0.003254 0.000006
# 2 -0.007903 0.026176 -0.001372 -0.001447 -0.006890 0.009457
# 3 -0.002699 -0.001372 0.009623 -0.001323 -0.003110 -0.005915
# 4 0.002187 -0.001447 -0.001323 0.024678 -0.002063 0.003250
# 5 0.003254 -0.006890 -0.003110 -0.002063 0.027764 -0.005058
# 6 0.000006 0.009457 -0.005915 0.003250 -0.005058 0.042885
#
#
# Mechanical properties :
#
#
# Convention : Reuss Voigt Hill
#
# Bulk Modulus (GPa) = 36.39527 43.74652 40.07090
# Shear Modulus (GPa) = 27.80021 35.86744 31.83382
#
# Velocity S-wave (km/s) = 3.58607 4.07329 3.83742
# Velocity P-wave (km/s) = 5.82944 6.50835 6.17823
#
# Compressibility (1/GPa) = 0.02747609
#
# Stress axis : x y z
#
# Youngs Moduli (GPa) = 64.00313 38.20289 103.92169
#
# Poissons Ratio (x) = 0.30192 0.28046
# Poissons Ratio (y) = 0.50581 0.14255
# Poissons Ratio (z) = 0.17273 0.05240
#
# Static dielectric constant tensor:
#      x y z
#    x 3.896680 -0.161250 0.162790 
#    y -0.161250 3.923120 -0.575930 
#    z 0.162790 -0.575930 5.501850 
# 
# 
# High freq. dielectric constant tensor:
#      x y z
#    x 1.848990 -0.009910 -0.005160 
#    y -0.009910 1.833500 -0.000760 
#    z -0.005160 -0.000760 1.876950 
# 
# From -- ./inp_files/206532.got.cif
#   From: 2010.06.25/outbox.cif.g09.slc.cpg/sg2_104_cif.got.tgz:206532.got - 2010.06.27 13:26:56.
