data_PCOD8028759
_publ_section_title
;
Structure prediction by ZEFSAII (Michael W. Deem and Ramdas Pophale) SiO2 
 PCOD8028759
Probable space group: P -1
;
_chemical_formula_sum "Si O2"
_cell_formula_units_Z 14
_cell_length_a 17.356874
_cell_length_b 8.893336
_cell_length_c 10.732184
_cell_angle_alpha 112.741060
_cell_angle_beta 33.508442
_cell_angle_gamma 131.867321
_cell_volume 620.167392
_symmetry_space_group_name_H-M "P -1"
_symmetry_group_IT_number 2
_symmetry_cell_setting 'triclinic'
loop_
_space_group_symop_operation_xyz
x,y,z
-x,-y,-z
loop_
_atom_site_type_symbol
_atom_site_label
_atom_site_fract_x
_atom_site_fract_y
_atom_site_fract_z
Si Si1 0.176302 0.552359 0.221755
Si Si2 0.111662 0.351199 0.977970
Si Si3 0.389209 0.967108 0.938911
Si Si4 0.651945 0.475119 0.795203
Si Si5 0.025013 0.884443 0.322243
Si Si6 0.544123 0.191659 0.423564
Si Si7 0.171501 0.055956 0.913427
O O1 0.257214 0.467291 0.169631
O O2 0.000000 0.500000 0.500000
O O3 0.104254 0.434685 0.146906
O O4 0.331987 0.821336 0.092584
O O5 0.251675 0.557449 0.760169
O O6 0.911682 0.172075 0.117689
O O7 0.171103 0.211848 0.875348
O O8 0.474796 0.887672 0.716501
O O9 0.550635 0.226254 0.823466
O O10 0.198481 0.898815 0.117712
O O11 0.821678 0.630539 0.515689
O O12 0.500000 0.500000 0.000000
O O13 0.061527 0.995891 0.173948
O O14 0.000000 0.000000 0.500000
O O15 0.500000 0.000000 0.500000
O O16 0.394239 0.204900 0.678141
#
# Coordination Sequence:
#
# PCOD8028759 Si02
#       7
#     2   2   2   2   2   2   2
#     4  11  24  46  73 101 149 182 230 301 350 416
#     4  10  26  47  67 103 137 191 232 284 355 415
#     4  11  25  44  67 107 138 185 233 288 358 412
#     4  12  26  44  72 105 137 188 235 285 356 425
#     4  12  24  44  70 105 141 178 233 295 352 410
#     4  11  24  43  70  99 142 181 231 288 342 419
#     4  11  25  46  72  98 142 185 234 286 349 425
#
# _framework density 22.574552000000001
#
# number of rings (size 3 to 8) (size 9 to 14) (size 15 to 20)
#    0.000    0.857    4.286    1.714    4.000    0.571 
#   10.286    0.000    0.000    0.000    0.000    0.000 
#    0.000    0.000    0.000    0.000    0.000    0.000 
#
# Total GULP energy -173447.963830 kJ/mol
# GULP energy per Si atom -12389.140274 kJ/mol
# Density = 2.252317 g / cm^3
# Si number density = 22.574552 Si / 1000 Ang^3
#
#
#
# Elastic Constant Matrix: (Units=GPa)
#
#
# Indices 1 2 3 4 5 6 
#
# 1 76.6912 7.9717 27.8122 -4.3005 8.9195 -13.2590
# 2 7.9717 116.0174 38.3574 -19.9679 15.6710 1.2587
# 3 27.8122 38.3574 129.9864 -12.0804 16.1068 -0.3048
# 4 -4.3005 -19.9679 -12.0804 38.9477 -9.6515 5.7739
# 5 8.9195 15.6710 16.1068 -9.6515 33.1241 -3.6517
# 6 -13.2590 1.2587 -0.3048 5.7739 -3.6517 40.3314
#
#
#
# Elastic Compliance Matrix: (Units=1/GPa)
#
#
# Indices 1 2 3 4 5 6 
#
# 1 0.015203 0.000135 -0.003043 -0.000478 -0.002285 0.004832
# 2 0.000135 0.010502 -0.002404 0.004140 -0.002756 -0.001144
# 3 -0.003043 -0.002404 0.009446 0.000921 -0.002502 -0.001212
# 4 -0.000478 0.004140 0.000921 0.030131 0.006056 -0.004045
# 5 -0.002285 -0.002756 -0.002502 0.006056 0.035271 0.001642
# 6 0.004832 -0.001144 -0.001212 -0.004045 0.001642 0.027138
#
#
# Mechanical properties :
#
#
# Convention : Reuss Voigt Hill
#
# Bulk Modulus (GPa) = 40.77018 52.33083 46.55050
# Shear Modulus (GPa) = 34.13178 39.05088 36.59133
#
# Velocity S-wave (km/s) = 3.89261 4.16367 4.03042
# Velocity P-wave (km/s) = 6.18891 6.80783 6.50574
#
# Compressibility (1/GPa) = 0.02452773
#
# Stress axis : x y z
#
# Youngs Moduli (GPa) = 65.77605 95.21761 105.85993
#
# Poissons Ratio (x) = -0.01288 0.32211
# Poissons Ratio (y) = -0.00890 0.25454
# Poissons Ratio (z) = 0.20014 0.22895
#
# Static dielectric constant tensor:
#      x y z
#    x 3.867970 0.021570 0.040010 
#    y 0.021570 4.366950 -0.380760 
#    z 0.040010 -0.380760 3.998440 
# 
# 
# High freq. dielectric constant tensor:
#      x y z
#    x 1.880100 -0.012780 0.012630 
#    y -0.012780 1.905160 -0.016610 
#    z 0.012630 -0.016610 1.899600 
# 
# From -- ./inp_files/272578.got.cif
#   From: 2010.06.25/outbox.cif.g09.slc.cpg/sg2_137_cif.got.tgz:272578.got - 2010.06.27 13:26:56.
