data_PCOD8028208
_publ_section_title
;
Structure prediction by ZEFSAII (Michael W. Deem and Ramdas Pophale) SiO2 
 PCOD8028208
Probable space group: P -1
;
_chemical_formula_sum "Si O2"
_cell_formula_units_Z 16
_cell_length_a 18.155295
_cell_length_b 8.680005
_cell_length_c 12.100673
_cell_angle_alpha 101.000781
_cell_angle_beta 140.889360
_cell_angle_gamma 49.833989
_cell_volume 704.515371
_symmetry_space_group_name_H-M "P -1"
_symmetry_group_IT_number 2
_symmetry_cell_setting 'triclinic'
loop_
_space_group_symop_operation_xyz
x,y,z
-x,-y,-z
loop_
_atom_site_type_symbol
_atom_site_label
_atom_site_fract_x
_atom_site_fract_y
_atom_site_fract_z
Si Si1 0.674576 0.795072 0.962168
Si Si2 0.136390 0.914525 0.916216
Si Si3 0.623919 0.625448 0.254168
Si Si4 0.742839 0.219152 0.480217
Si Si5 0.709566 0.203975 0.691457
Si Si6 0.957353 0.431466 0.721442
Si Si7 0.379524 0.052729 0.465219
Si Si8 0.408646 0.410711 0.033126
O O1 0.576903 0.059489 0.930040
O O2 0.537673 0.863546 0.720336
O O3 0.896139 0.587621 0.149313
O O4 0.684445 0.655452 0.051638
O O5 0.327662 0.648302 0.038753
O O6 0.097832 0.139856 0.883996
O O7 0.156423 0.866148 0.065253
O O8 0.967376 0.991587 0.672005
O O9 0.629648 0.498267 0.345724
O O10 0.623606 0.530060 0.126266
O O11 0.815232 0.531918 0.469124
O O12 0.776480 0.181083 0.645231
O O13 0.640398 0.173969 0.303989
O O14 0.500000 0.500000 0.500000
O O15 0.702896 0.025093 0.677541
O O16 0.811759 0.640701 0.679892
O O17 0.500000 0.000000 0.500000
#
# Coordination Sequence:
#
# PCOD8028208 Si02
#       8
#     2   2   2   2   2   2   2   2
#     4  11  23  43  67  97 137 172 223 277 331 397
#     4  11  25  42  69  96 136 173 224 272 334 396
#     4  10  25  44  71  95 135 179 223 275 336 391
#     4  11  24  44  65  97 133 175 222 274 330 394
#     4  12  24  43  68  97 135 173 218 273 336 397
#     4  10  25  45  66 101 133 177 224 269 337 399
#     4  11  25  43  68  97 137 176 222 271 333 401
#     4  12  24  44  68 103 132 175 226 279 332 391
#
# _framework density 22.710646000000001
#
# number of rings (size 3 to 8) (size 9 to 14) (size 15 to 20)
#    0.000    1.000    2.500    2.625    7.000    5.500 
#    0.000    0.000    0.000    0.000    0.000    0.000 
#    0.000    0.000    0.000    0.000    0.000    0.000 
#
# Total GULP energy -198330.540006 kJ/mol
# GULP energy per Si atom -12395.658750 kJ/mol
# Density = 2.265896 g / cm^3
# Si number density = 22.710646 Si / 1000 Ang^3
#
#
#
# Elastic Constant Matrix: (Units=GPa)
#
#
# Indices 1 2 3 4 5 6 
#
# 1 105.8353 47.5265 43.5527 1.8053 11.6384 8.8904
# 2 47.5265 99.7619 37.3065 6.1344 -13.1443 -0.8841
# 3 43.5527 37.3065 115.8414 14.6992 10.1279 -3.3465
# 4 1.8053 6.1344 14.6992 29.3129 -0.0111 -7.8252
# 5 11.6384 -13.1443 10.1279 -0.0111 35.2028 9.3620
# 6 8.8904 -0.8841 -3.3465 -7.8252 9.3620 28.5849
#
#
#
# Elastic Compliance Matrix: (Units=1/GPa)
#
#
# Indices 1 2 3 4 5 6 
#
# 1 0.014525 -0.006608 -0.003086 0.001259 -0.005610 -0.002901
# 2 -0.006608 0.015691 -0.003217 -0.001615 0.009323 -0.001332
# 3 -0.003086 -0.003217 0.011830 -0.004425 -0.004229 0.002419
# 4 0.001259 -0.001615 -0.004425 0.039445 -0.002575 0.010682
# 5 -0.005610 0.009323 -0.004229 -0.002575 0.038051 -0.011629
# 6 -0.002901 -0.001332 0.002419 0.010682 -0.011629 0.042861
#
#
# Mechanical properties :
#
#
# Convention : Reuss Voigt Hill
#
# Bulk Modulus (GPa) = 61.64025 64.24556 62.94291
# Shear Modulus (GPa) = 25.82203 31.49030 28.65616
#
# Velocity S-wave (km/s) = 3.37560 3.72773 3.55603
# Velocity P-wave (km/s) = 6.51102 6.84676 6.68100
#
# Compressibility (1/GPa) = 0.01622317
#
# Stress axis : x y z
#
# Youngs Moduli (GPa) = 68.84649 63.73113 84.53070
#
# Poissons Ratio (x) = 0.42113 0.26087
# Poissons Ratio (y) = 0.45493 0.27197
# Poissons Ratio (z) = 0.21246 0.20505
#
# Static dielectric constant tensor:
#      x y z
#    x 3.384110 0.500210 0.374950 
#    y 0.500210 3.495410 -0.202380 
#    z 0.374950 -0.202380 4.135600 
# 
# 
# High freq. dielectric constant tensor:
#      x y z
#    x 1.894970 0.006240 0.008390 
#    y 0.006240 1.883590 0.002070 
#    z 0.008390 0.002070 1.911970 
# 
# From -- ./inp_files/333225.got.cif
#   From: 2010.06.25/outbox.cif.g09.slc.cpg/sg2_167_cif.got.tgz:333225.got - 2010.06.27 13:26:56.
