data_PCOD8028732
_publ_section_title
;
Structure prediction by ZEFSAII (Michael W. Deem and Ramdas Pophale) SiO2 
 PCOD8028732
Probable space group: P -1
;
_chemical_formula_sum "Si O2"
_cell_formula_units_Z 14
_cell_length_a 11.984240
_cell_length_b 21.203178
_cell_length_c 8.901786
_cell_angle_alpha 38.508657
_cell_angle_beta 123.383496
_cell_angle_gamma 150.541541
_cell_volume 625.934164
_symmetry_space_group_name_H-M "P -1"
_symmetry_group_IT_number 2
_symmetry_cell_setting 'triclinic'
loop_
_space_group_symop_operation_xyz
x,y,z
-x,-y,-z
loop_
_atom_site_type_symbol
_atom_site_label
_atom_site_fract_x
_atom_site_fract_y
_atom_site_fract_z
Si Si1 0.266357 0.849789 0.382838
Si Si2 0.056202 0.384415 0.140846
Si Si3 0.767816 0.056205 0.345322
Si Si4 0.955950 0.501335 0.634263
Si Si5 0.391347 0.247911 0.038983
Si Si6 0.629794 0.853229 0.102488
Si Si7 0.042573 0.946760 0.759899
O O1 0.165132 0.739447 0.671110
O O2 0.097907 0.697826 0.405881
O O3 0.555677 0.006551 0.277251
O O4 0.239241 0.953035 0.176006
O O5 0.999860 0.248243 0.255076
O O6 0.318557 0.534357 0.140916
O O7 0.076807 0.495227 0.844030
O O8 0.869188 0.100270 0.168618
O O9 0.653172 0.882547 0.656809
O O10 0.665406 0.326034 0.775359
O O11 0.000000 0.500000 0.500000
O O12 0.219149 0.228656 0.013857
O O13 0.306223 0.175618 0.938974
O O14 0.741173 0.875690 0.295577
O O15 0.000000 0.000000 0.500000
#
# Coordination Sequence:
#
# PCOD8028732 Si02
#       7
#     2   2   2   2   2   2   2
#     4  12  23  41  69 107 134 170 220 278 345 393
#     4  12  23  41  69 104 139 175 215 271 344 398
#     4  11  22  41  68 100 138 174 218 271 342 394
#     4  12  26  38  65 107 144 171 212 276 343 405
#     4  11  23  45  68  95 136 182 227 267 320 407
#     4  12  24  44  71 100 134 173 228 280 329 398
#     4  10  26  46  68  92 134 188 223 272 330 394
#
# _framework density 22.366568999999998
#
# number of rings (size 3 to 8) (size 9 to 14) (size 15 to 20)
#    0.000    0.571    5.714    3.000    4.000    1.714 
#    0.000    3.571    0.000    0.000    0.000    0.000 
#    0.000    0.000    0.000    0.000    0.000    0.000 
#
# Total GULP energy -173632.430123 kJ/mol
# GULP energy per Si atom -12402.316437 kJ/mol
# Density = 2.231566 g / cm^3
# Si number density = 22.366569 Si / 1000 Ang^3
#
#
#
# Elastic Constant Matrix: (Units=GPa)
#
#
# Indices 1 2 3 4 5 6 
#
# 1 154.6554 64.4412 33.6365 -6.5564 -39.9151 -26.2101
# 2 64.4412 158.7339 34.2980 -7.6639 -8.7450 -28.3473
# 3 33.6365 34.2980 57.2217 -6.9719 -5.6746 -15.1611
# 4 -6.5564 -7.6639 -6.9719 40.3417 -8.2719 -0.9738
# 5 -39.9151 -8.7450 -5.6746 -8.2719 28.5530 5.8373
# 6 -26.2101 -28.3473 -15.1611 -0.9738 5.8373 40.6902
#
#
#
# Elastic Compliance Matrix: (Units=1/GPa)
#
#
# Indices 1 2 3 4 5 6 
#
# 1 0.014116 -0.003226 -0.003031 0.005127 0.018991 0.003114
# 2 -0.003226 0.008626 -0.002669 0.000108 -0.003057 0.003378
# 3 -0.003031 -0.002669 0.022373 0.002826 -0.000750 0.004699
# 4 0.005127 0.000108 0.002826 0.029418 0.015695 0.002883
# 5 0.018991 -0.003057 -0.000750 0.015695 0.064849 0.000896
# 6 0.003114 0.003378 0.004699 0.002883 0.000896 0.030627
#
#
# Mechanical properties :
#
#
# Convention : Reuss Voigt Hill
#
# Bulk Modulus (GPa) = 36.68036 70.59583 53.63809
# Shear Modulus (GPa) = 25.38733 37.79934 31.59334
#
# Velocity S-wave (km/s) = 3.37272 4.11541 3.76243
# Velocity P-wave (km/s) = 5.62158 7.36300 6.55042
#
# Compressibility (1/GPa) = 0.02726255
#
# Stress axis : x y z
#
# Youngs Moduli (GPa) = 70.84202 115.92510 44.69749
#
# Poissons Ratio (x) = 0.37395 0.13548
# Poissons Ratio (y) = 0.22852 0.11931
# Poissons Ratio (z) = 0.21473 0.30943
#
# Static dielectric constant tensor:
#      x y z
#    x 4.095590 -0.209940 0.222790 
#    y -0.209940 4.215430 -0.088320 
#    z 0.222790 -0.088320 3.401330 
# 
# 
# High freq. dielectric constant tensor:
#      x y z
#    x 1.892000 -0.014110 -0.018190 
#    y -0.014110 1.894540 -0.003620 
#    z -0.018190 -0.003620 1.859010 
# 
# From -- ./inp_files/255659.got.cif
#   From: 2010.06.25/outbox.cif.g09.slc.cpg/sg2_128_cif.got.tgz:255659.got - 2010.06.27 13:26:56.
