data_PCOD8028622
_publ_section_title
;
Structure prediction by ZEFSAII (Michael W. Deem and Ramdas Pophale) SiO2 
 PCOD8028622
Probable space group: P -1
;
_chemical_formula_sum "Si O2"
_cell_formula_units_Z 14
_cell_length_a 5.368417
_cell_length_b 17.817315
_cell_length_c 15.495046
_cell_angle_alpha 151.878637
_cell_angle_beta 123.067859
_cell_angle_gamma 51.612519
_cell_volume 547.559305
_symmetry_space_group_name_H-M "P -1"
_symmetry_group_IT_number 2
_symmetry_cell_setting 'triclinic'
loop_
_space_group_symop_operation_xyz
x,y,z
-x,-y,-z
loop_
_atom_site_type_symbol
_atom_site_label
_atom_site_fract_x
_atom_site_fract_y
_atom_site_fract_z
Si Si1 0.080046 0.768466 0.558606
Si Si2 0.135814 0.498828 0.844112
Si Si3 0.098681 0.201160 0.019940
Si Si4 0.137746 0.048369 0.462651
Si Si5 0.215456 0.994639 0.118972
Si Si6 0.143629 0.717156 0.211891
Si Si7 0.314649 0.392332 0.401053
O O1 0.449181 0.733997 0.613129
O O2 0.070411 0.595511 0.338195
O O3 0.949842 0.928006 0.630446
O O4 0.880203 0.819101 0.662725
O O5 0.479086 0.361592 0.788184
O O6 0.134090 0.654523 0.940318
O O7 0.006992 0.588097 0.003982
O O8 0.240335 0.279442 0.201318
O O9 0.409726 0.075846 0.901102
O O10 0.876444 0.112742 0.932359
O O11 0.983055 0.236286 0.667931
O O12 0.500000 0.000000 0.500000
O O13 0.022071 0.899871 0.324736
O O14 0.000000 0.000000 0.000000
O O15 0.500000 0.500000 0.500000
O O16 0.000000 0.500000 0.500000
#
# Coordination Sequence:
#
# PCOD8028622 Si02
#       7
#     2   2   2   2   2   2   2
#     4  12  27  46  78 110 148 205 251 319 381 456
#     4  11  25  46  75 110 145 200 253 313 388 447
#     4  12  27  49  76 110 151 202 250 313 376 457
#     4  11  24  46  73 106 145 195 251 312 377 450
#     4  12  28  50  75 109 155 198 255 309 376 449
#     4  10  25  49  72 105 150 192 255 317 376 455
#     4  12  27  47  76 115 156 195 255 317 379 453
#
# _framework density 25.568004999999999
#
# number of rings (size 3 to 8) (size 9 to 14) (size 15 to 20)
#    0.000    0.571    4.286    2.143    4.000    1.714 
#    0.000    0.000    0.000    0.000    0.000    0.000 
#    0.000    0.000    0.000    0.000    0.000    0.000 
#
# Total GULP energy -173528.360627 kJ/mol
# GULP energy per Si atom -12394.882902 kJ/mol
# Density = 2.550981 g / cm^3
# Si number density = 25.568005 Si / 1000 Ang^3
#
#
#
# Elastic Constant Matrix: (Units=GPa)
#
#
# Indices 1 2 3 4 5 6 
#
# 1 98.6902 12.7696 29.4107 7.8830 -29.3740 0.2167
# 2 12.7696 141.8808 25.7814 -4.2133 -24.3565 1.7743
# 3 29.4107 25.7814 180.0928 -24.4763 -37.6362 -9.0113
# 4 7.8830 -4.2133 -24.4763 46.7785 1.6507 -1.7133
# 5 -29.3740 -24.3565 -37.6362 1.6507 41.7865 5.4440
# 6 0.2167 1.7743 -9.0113 -1.7133 5.4440 31.3207
#
#
#
# Elastic Compliance Matrix: (Units=1/GPa)
#
#
# Indices 1 2 3 4 5 6 
#
# 1 0.013335 0.000485 -0.000820 -0.003040 0.009317 -0.002141
# 2 0.000485 0.007915 -0.000209 0.000298 0.004930 -0.001352
# 3 -0.000820 -0.000209 0.007515 0.003900 0.005734 0.001396
# 4 -0.003040 0.000298 0.003900 0.024035 0.000289 0.002391
# 5 0.009317 0.004930 0.005734 0.000289 0.039223 -0.005496
# 6 -0.002141 -0.001352 0.001396 0.002391 -0.005496 0.033507
#
#
# Mechanical properties :
#
#
# Convention : Reuss Voigt Hill
#
# Bulk Modulus (GPa) = 36.13345 61.84304 48.98824
# Shear Modulus (GPa) = 36.80706 47.49062 42.14884
#
# Velocity S-wave (km/s) = 3.79829 4.31446 4.06458
# Velocity P-wave (km/s) = 5.77918 7.00426 6.42100
#
# Compressibility (1/GPa) = 0.02767519
#
# Stress axis : x y z
#
# Youngs Moduli (GPa) = 74.99063 126.34779 133.07018
#
# Poissons Ratio (x) = -0.06125 0.10917
# Poissons Ratio (y) = -0.03635 0.02781
# Poissons Ratio (z) = 0.06152 0.02641
#
# Static dielectric constant tensor:
#      x y z
#    x 4.599230 0.321490 -0.300410 
#    y 0.321490 5.211800 -0.036130 
#    z -0.300410 -0.036130 5.616670 
# 
# 
# High freq. dielectric constant tensor:
#      x y z
#    x 1.997900 0.007560 -0.010250 
#    y 0.007560 2.043350 -0.007290 
#    z -0.010250 -0.007290 2.055260 
# 
# From -- ./inp_files/340215.got.cif
#   From: 2010.06.25/outbox.cif.g09.slc.cpg/sg2_171_cif.got.tgz:340215.got - 2010.06.27 13:26:56.
