data_PCOD8028119
_publ_section_title
;
Structure prediction by ZEFSAII (Michael W. Deem and Ramdas Pophale) SiO2 
 PCOD8028119
Probable space group: P -1
;
_chemical_formula_sum "Si O2"
_cell_formula_units_Z 16
_cell_length_a 8.983207
_cell_length_b 20.439450
_cell_length_c 9.141343
_cell_angle_alpha 148.710170
_cell_angle_beta 59.937866
_cell_angle_gamma 125.650586
_cell_volume 708.345074
_symmetry_space_group_name_H-M "P -1"
_symmetry_group_IT_number 2
_symmetry_cell_setting 'triclinic'
loop_
_space_group_symop_operation_xyz
x,y,z
-x,-y,-z
loop_
_atom_site_type_symbol
_atom_site_label
_atom_site_fract_x
_atom_site_fract_y
_atom_site_fract_z
Si Si1 0.209291 0.287317 0.190353
Si Si2 0.003956 0.004925 0.334184
Si Si3 0.585696 0.899475 0.684502
Si Si4 0.602274 0.306833 0.147973
Si Si5 0.620201 0.415796 0.829384
Si Si6 0.179411 0.511536 0.844793
Si Si7 0.653451 0.045270 0.630455
Si Si8 0.189467 0.483318 0.344119
O O1 0.407724 0.277903 0.109294
O O2 0.158760 0.374453 0.507583
O O3 0.197262 0.342826 0.136800
O O4 0.057629 0.140934 0.989509
O O5 0.849800 0.071962 0.503513
O O6 0.000000 0.000000 0.500000
O O7 0.209361 0.082465 0.320225
O O8 0.461050 0.744290 0.467631
O O9 0.610946 0.934814 0.567698
O O10 0.500000 0.000000 0.000000
O O11 0.766157 0.367969 0.067727
O O12 0.631148 0.409738 0.463530
O O13 0.637335 0.180639 0.962807
O O14 0.799359 0.488480 0.781068
O O15 0.500000 0.500000 0.000000
O O16 0.656203 0.448343 0.043479
O O17 0.000000 0.500000 0.000000
O O18 0.500000 0.000000 0.500000
O O19 0.000000 0.500000 0.500000
#
# Coordination Sequence:
#
# PCOD8028119 Si02
#       8
#     2   2   2   2   2   2   2   2
#     4  11  23  46  70 100 138 185 237 282 353 417
#     4  10  25  43  73  98 140 184 236 284 350 426
#     4  11  27  45  70 102 146 186 229 296 364 418
#     4  11  22  43  70  97 136 184 236 283 349 421
#     4  12  25  43  69 100 139 176 228 292 357 409
#     4  11  25  42  66 101 140 180 224 296 351 413
#     4  11  22  44  70  98 131 181 238 281 342 426
#     4  11  25  39  71 102 131 179 233 285 337 424
#
# _framework density 22.587862000000001
#
# number of rings (size 3 to 8) (size 9 to 14) (size 15 to 20)
#    0.000    1.000    1.250    6.000   12.250    1.000 
#    0.000    0.625    0.000    0.000    0.000    0.000 
#    0.000    0.000    0.000    0.000    0.000    0.000 
#
# Total GULP energy -198229.126149 kJ/mol
# GULP energy per Si atom -12389.320384 kJ/mol
# Density = 2.253645 g / cm^3
# Si number density = 22.587862 Si / 1000 Ang^3
#
#
#
# Elastic Constant Matrix: (Units=GPa)
#
#
# Indices 1 2 3 4 5 6 
#
# 1 103.3254 14.2773 23.4295 2.7321 -14.0413 9.5962
# 2 14.2773 73.0349 26.8887 -6.6343 -10.9341 0.0443
# 3 23.4295 26.8887 109.2134 5.9134 -9.3109 2.9165
# 4 2.7321 -6.6343 5.9134 34.6205 -1.6324 -9.7806
# 5 -14.0413 -10.9341 -9.3109 -1.6324 47.7904 -3.8345
# 6 9.5962 0.0443 2.9165 -9.7806 -3.8345 37.3504
#
#
#
# Elastic Compliance Matrix: (Units=1/GPa)
#
#
# Indices 1 2 3 4 5 6 
#
# 1 0.010846 -0.001304 -0.001653 -0.001511 0.002288 -0.002817
# 2 -0.001304 0.016182 -0.003760 0.004579 0.002912 0.002108
# 3 -0.001653 -0.003760 0.010657 -0.002680 0.000555 -0.001048
# 4 -0.001511 0.004579 -0.002680 0.033106 0.001971 0.009464
# 5 0.002288 0.002912 0.000555 0.001971 0.022615 0.002203
# 6 -0.002817 0.002108 -0.001048 0.009464 0.002203 0.030281
#
#
# Mechanical properties :
#
#
# Convention : Reuss Voigt Hill
#
# Bulk Modulus (GPa) = 41.23878 46.08498 43.66188
# Shear Modulus (GPa) = 34.43376 38.68413 36.55895
#
# Velocity S-wave (km/s) = 3.90864 4.14286 4.02745
# Velocity P-wave (km/s) = 6.21825 6.58264 6.40304
#
# Compressibility (1/GPa) = 0.02424902
#
# Stress axis : x y z
#
# Youngs Moduli (GPa) = 92.20091 61.79688 93.83275
#
# Poissons Ratio (x) = 0.08061 0.15515
# Poissons Ratio (y) = 0.12027 0.35283
# Poissons Ratio (z) = 0.15245 0.23237
#
# Static dielectric constant tensor:
#      x y z
#    x 5.292380 -0.927210 -0.146590 
#    y -0.927210 5.141710 0.503080 
#    z -0.146590 0.503080 4.089860 
# 
# 
# High freq. dielectric constant tensor:
#      x y z
#    x 1.909480 0.005050 -0.002420 
#    y 0.005050 1.877600 -0.000050 
#    z -0.002420 -0.000050 1.898610 
# 
# From -- ./inp_files/224346.got.cif
#   From: 2010.06.25/outbox.cif.g09.slc.cpg/sg2_113_cif.got.tgz:224346.got - 2010.06.27 13:26:56.
