data_PCOD8028582
_publ_section_title
;
Structure prediction by ZEFSAII (Michael W. Deem and Ramdas Pophale) SiO2 
 PCOD8028582
Probable space group: P -1
;
_chemical_formula_sum "Si O2"
_cell_formula_units_Z 16
_cell_length_a 9.152854
_cell_length_b 11.058511
_cell_length_c 8.132851
_cell_angle_alpha 98.289700
_cell_angle_beta 60.679395
_cell_angle_gamma 91.894131
_cell_volume 709.555039
_symmetry_space_group_name_H-M "P -1"
_symmetry_group_IT_number 2
_symmetry_cell_setting 'triclinic'
loop_
_space_group_symop_operation_xyz
x,y,z
-x,-y,-z
loop_
_atom_site_type_symbol
_atom_site_label
_atom_site_fract_x
_atom_site_fract_y
_atom_site_fract_z
Si Si1 0.027164 0.317690 0.887232
Si Si2 0.703703 0.773100 0.509195
Si Si3 0.576520 0.122262 0.908697
Si Si4 0.854875 0.960002 0.685085
Si Si5 0.420643 0.875281 0.479910
Si Si6 0.580285 0.627122 0.818009
Si Si7 0.944827 0.121781 0.153613
Si Si8 0.254397 0.492827 0.990493
O O1 0.122803 0.229327 0.687845
O O2 0.875273 0.390900 0.892602
O O3 0.171656 0.404993 0.887974
O O4 0.950908 0.241930 0.063319
O O5 0.713898 0.893793 0.641950
O O6 0.537926 0.774028 0.488069
O O7 0.691750 0.650384 0.600678
O O8 0.561100 0.149520 0.728193
O O9 0.773502 0.088310 0.828142
O O10 0.510646 0.243142 0.059113
O O11 0.500000 0.000000 0.000000
O O12 0.916824 0.868222 0.776906
O O13 0.000000 0.000000 0.500000
O O14 0.234292 0.880265 0.658586
O O15 0.500000 0.000000 0.500000
O O16 0.712806 0.574727 0.867949
O O17 0.436291 0.533422 0.836401
O O18 0.000000 0.000000 0.000000
#
# Coordination Sequence:
#
# PCOD8028582 Si02
#       8
#     2   2   2   2   2   2   2   2
#     4  11  25  46  69 100 134 177 223 283 334 393
#     4  12  25  41  70 100 137 175 224 279 336 403
#     4  12  25  41  71 101 140 176 217 278 341 404
#     4  12  24  42  61 106 143 176 216 268 345 411
#     4  12  23  42  60 100 142 178 216 264 334 414
#     4  11  24  46  70  99 130 181 228 276 331 399
#     4  12  27  41  70 101 140 177 219 278 344 399
#     4  10  25  48  70  91 132 181 234 274 329 392
#
# _framework density 22.549344999999999
#
# number of rings (size 3 to 8) (size 9 to 14) (size 15 to 20)
#    0.000    0.500    3.750    3.750    8.750    1.000 
#    0.000    5.000    0.000    0.000    0.000    0.000 
#    0.000    0.000    0.000    0.000    0.000    0.000 
#
# Total GULP energy -198309.418042 kJ/mol
# GULP energy per Si atom -12394.338628 kJ/mol
# Density = 2.249802 g / cm^3
# Si number density = 22.549345 Si / 1000 Ang^3
#
#
#
# Elastic Constant Matrix: (Units=GPa)
#
#
# Indices 1 2 3 4 5 6 
#
# 1 136.1275 31.9813 35.5894 -12.9041 -2.3584 -31.0979
# 2 31.9813 87.1120 26.9360 -17.4018 7.4486 -20.6341
# 3 35.5894 26.9360 110.9618 -22.9219 0.1097 -11.8127
# 4 -12.9041 -17.4018 -22.9219 38.6445 -9.4318 0.7134
# 5 -2.3584 7.4486 0.1097 -9.4318 24.2258 -1.6740
# 6 -31.0979 -20.6341 -11.8127 0.7134 -1.6740 43.4620
#
#
#
# Elastic Compliance Matrix: (Units=1/GPa)
#
#
# Indices 1 2 3 4 5 6 
#
# 1 0.009720 -0.001454 -0.001706 0.002112 0.002629 0.005867
# 2 -0.001454 0.014934 -0.001642 0.004534 -0.002585 0.005430
# 3 -0.001706 -0.001642 0.011320 0.006049 0.002717 0.001082
# 4 0.002112 0.004534 0.006049 0.035257 0.012872 0.005225
# 5 0.002629 -0.002585 0.002717 0.012872 0.047536 0.003012
# 6 0.005867 0.005430 0.001082 0.005225 0.003012 0.030109
#
#
# Mechanical properties :
#
#
# Convention : Reuss Voigt Hill
#
# Bulk Modulus (GPa) = 37.92193 58.13498 48.02846
# Shear Modulus (GPa) = 29.89200 37.24607 33.56904
#
# Velocity S-wave (km/s) = 3.64487 4.06859 3.86254
# Velocity P-wave (km/s) = 5.87939 6.92159 6.42167
#
# Compressibility (1/GPa) = 0.02636997
#
# Stress axis : x y z
#
# Youngs Moduli (GPa) = 102.88231 66.96224 88.34067
#
# Poissons Ratio (x) = 0.09736 0.15073
# Poissons Ratio (y) = 0.14958 0.14502
# Poissons Ratio (z) = 0.17554 0.10993
#
# Static dielectric constant tensor:
#      x y z
#    x 5.584180 -0.708760 0.587380 
#    y -0.708760 4.551670 -0.537730 
#    z 0.587380 -0.537730 4.427310 
# 
# 
# High freq. dielectric constant tensor:
#      x y z
#    x 1.907240 -0.011360 -0.004110 
#    y -0.011360 1.884490 -0.016670 
#    z -0.004110 -0.016670 1.895790 
# 
# From -- ./inp_files/179958.got.cif
#   From: 2010.06.25/outbox.cif.g09.slc.cpg/sg2_90_cif.got.tgz:179958.got - 2010.06.27 13:26:56.
