data_PCOD8028514
_publ_section_title
;
Structure prediction by ZEFSAII (Michael W. Deem and Ramdas Pophale) SiO2 
 PCOD8028514
Probable space group: P -1
;
_chemical_formula_sum "Si O2"
_cell_formula_units_Z 14
_cell_length_a 15.480108
_cell_length_b 6.437889
_cell_length_c 15.720785
_cell_angle_alpha 79.116270
_cell_angle_beta 153.046452
_cell_angle_gamma 112.057911
_cell_volume 617.176488
_symmetry_space_group_name_H-M "P -1"
_symmetry_group_IT_number 2
_symmetry_cell_setting 'triclinic'
loop_
_space_group_symop_operation_xyz
x,y,z
-x,-y,-z
loop_
_atom_site_type_symbol
_atom_site_label
_atom_site_fract_x
_atom_site_fract_y
_atom_site_fract_z
Si Si1 0.939877 0.430896 0.243811
Si Si2 0.517189 0.261669 0.547608
Si Si3 0.312397 0.001899 0.059698
Si Si4 0.865214 0.837414 0.472157
Si Si5 0.431505 0.482314 0.036971
Si Si6 0.793028 0.037120 0.841181
Si Si7 0.739590 0.046753 0.497874
O O1 0.037486 0.338296 0.409679
O O2 0.116571 0.696902 0.351064
O O3 0.743712 0.428600 0.121400
O O4 0.856626 0.260335 0.101603
O O5 0.500000 0.500000 0.500000
O O6 0.758888 0.280293 0.777755
O O7 0.424216 0.135555 0.385619
O O8 0.357353 0.138170 0.495920
O O9 0.323701 0.207814 0.992352
O O10 0.551998 0.038173 0.274216
O O11 0.226092 0.033519 0.072369
O O12 0.619412 0.665463 0.247414
O O13 0.884127 0.985171 0.563990
O O14 0.000000 0.000000 0.500000
O O15 0.500000 0.500000 0.000000
O O16 0.000000 0.000000 0.000000
#
# Coordination Sequence:
#
# PCOD8028514 Si02
#       7
#     2   2   2   2   2   2   2
#     4  12  26  46  75 104 150 191 242 300 363 431
#     4  10  25  48  74 106 148 192 242 312 368 432
#     4  11  25  48  74 106 145 195 243 299 366 432
#     4  12  27  45  73 109 146 193 241 302 366 431
#     4  12  27  46  73 108 147 187 246 302 358 440
#     4  10  25  47  70 108 145 187 247 298 369 441
#     4  11  25  48  75 106 148 193 245 299 367 435
#
# _framework density 22.683948999999998
#
# number of rings (size 3 to 8) (size 9 to 14) (size 15 to 20)
#    0.000    0.857    2.857    2.571    8.000    4.000 
#    0.000    0.000    0.000    0.000    0.000    0.000 
#    0.000    0.000    0.000    0.000    0.000    0.000 
#
# Total GULP energy -173447.171839 kJ/mol
# GULP energy per Si atom -12389.083703 kJ/mol
# Density = 2.263232 g / cm^3
# Si number density = 22.683949 Si / 1000 Ang^3
#
#
#
# Elastic Constant Matrix: (Units=GPa)
#
#
# Indices 1 2 3 4 5 6 
#
# 1 162.8823 70.9731 39.5465 -12.2790 -5.4701 7.0117
# 2 70.9731 146.6192 52.4229 -9.9571 10.4141 1.4189
# 3 39.5465 52.4229 103.0010 1.0155 20.3823 -1.3872
# 4 -12.2790 -9.9571 1.0155 52.0616 -16.5831 -0.0212
# 5 -5.4701 10.4141 20.3823 -16.5831 41.4810 -4.0482
# 6 7.0117 1.4189 -1.3872 -0.0212 -4.0482 26.2731
#
#
#
# Elastic Compliance Matrix: (Units=1/GPa)
#
#
# Indices 1 2 3 4 5 6 
#
# 1 0.008629 -0.003390 -0.002455 0.002752 0.004139 -0.001609
# 2 -0.003390 0.009853 -0.003561 0.000897 -0.000806 0.000061
# 3 -0.002455 -0.003561 0.014079 -0.004063 -0.007936 0.000365
# 4 0.002752 0.000897 -0.004063 0.023851 0.011750 0.000832
# 5 0.004139 -0.000806 -0.007936 0.011750 0.033818 0.003740
# 6 -0.001609 0.000061 0.000365 0.000832 0.003740 0.039084
#
#
# Mechanical properties :
#
#
# Convention : Reuss Voigt Hill
#
# Bulk Modulus (GPa) = 72.74478 82.04305 77.39391
# Shear Modulus (GPa) = 32.74207 40.60046 36.67127
#
# Velocity S-wave (km/s) = 3.80334 4.23523 4.02508
# Velocity P-wave (km/s) = 7.17116 7.75646 7.46955
#
# Compressibility (1/GPa) = 0.01374669
#
# Stress axis : x y z
#
# Youngs Moduli (GPa) = 115.89462 101.49704 71.02699
#
# Poissons Ratio (x) = 0.34412 0.17437
# Poissons Ratio (y) = 0.39294 0.25295
# Poissons Ratio (z) = 0.28452 0.36146
#
# Static dielectric constant tensor:
#      x y z
#    x 4.143880 -0.267750 0.156700 
#    y -0.267750 4.080140 -0.238900 
#    z 0.156700 -0.238900 4.518500 
# 
# 
# High freq. dielectric constant tensor:
#      x y z
#    x 1.899840 -0.014580 -0.002490 
#    y -0.014580 1.900200 -0.015190 
#    z -0.002490 -0.015190 1.915390 
# 
# From -- ./inp_files/98422.got.cif
#   From: 2010.06.25/outbox.cif.g09.slc.cpg/sg2_50_cif.got.tgz:98422.got - 2010.06.27 13:26:56.
