data_PCOD8028070
_publ_section_title
;
Structure prediction by ZEFSAII (Michael W. Deem and Ramdas Pophale) SiO2 
 PCOD8028070
Probable space group: P -1
;
_chemical_formula_sum "Si O2"
_cell_formula_units_Z 14
_cell_length_a 11.747968
_cell_length_b 11.655831
_cell_length_c 9.158210
_cell_angle_alpha 50.350213
_cell_angle_beta 59.298992
_cell_angle_gamma 42.553871
_cell_volume 651.020082
_symmetry_space_group_name_H-M "P -1"
_symmetry_group_IT_number 2
_symmetry_cell_setting 'triclinic'
loop_
_space_group_symop_operation_xyz
x,y,z
-x,-y,-z
loop_
_atom_site_type_symbol
_atom_site_label
_atom_site_fract_x
_atom_site_fract_y
_atom_site_fract_z
Si Si1 0.836762 0.782793 0.599011
Si Si2 0.719081 0.299407 0.815304
Si Si3 0.655803 0.490891 0.160784
Si Si4 0.883372 0.203073 0.487462
Si Si5 0.765529 0.958075 0.194275
Si Si6 0.114737 0.595996 0.180436
Si Si7 0.445915 0.106665 0.100132
O O1 0.773393 0.925077 0.389017
O O2 0.863220 0.596295 0.677686
O O3 0.699961 0.888224 0.732334
O O4 0.008933 0.726354 0.598742
O O5 0.518221 0.466977 0.806470
O O6 0.793718 0.197609 0.693118
O O7 0.805405 0.393862 0.731148
O O8 0.768383 0.134202 0.029834
O O9 0.730533 0.354100 0.360578
O O10 0.790999 0.388497 0.025947
O O11 0.620969 0.684828 0.067708
O O12 0.000000 0.000000 0.500000
O O13 0.918357 0.773222 0.158266
O O14 0.596472 0.007646 0.198154
O O15 0.500000 0.000000 0.000000
#
# Coordination Sequence:
#
# PCOD8028070 Si02
#       7
#     2   2   2   2   2   2   2
#     4  11  26  44  67 102 133 177 225 276 338 392
#     4  11  24  45  69 100 133 179 223 273 338 394
#     4  10  25  43  66  98 135 176 222 275 335 398
#     4  12  27  44  67 100 138 178 227 273 334 401
#     4  11  23  43  69  99 136 174 227 271 334 401
#     4  11  23  43  70 100 130 174 227 280 331 394
#     4  10  25  43  69  99 136 178 217 279 339 396
#
# _framework density 21.504712000000001
#
# number of rings (size 3 to 8) (size 9 to 14) (size 15 to 20)
#    0.000    1.143    1.429    3.000   10.000    1.143 
#    2.571    0.000    0.000    0.000    0.000    0.000 
#    0.000    0.000    0.000    0.000    0.000    0.000 
#
# Total GULP energy -173679.331689 kJ/mol
# GULP energy per Si atom -12405.666549 kJ/mol
# Density = 2.145577 g / cm^3
# Si number density = 21.504712 Si / 1000 Ang^3
#
#
#
# Elastic Constant Matrix: (Units=GPa)
#
#
# Indices 1 2 3 4 5 6 
#
# 1 67.5675 25.7494 43.2104 -15.7642 -1.0512 1.5972
# 2 25.7494 111.5590 50.4131 2.9086 4.1141 -2.5017
# 3 43.2104 50.4131 107.7029 -12.9315 7.5150 -1.4117
# 4 -15.7642 2.9086 -12.9315 33.5429 -6.7474 5.9275
# 5 -1.0512 4.1141 7.5150 -6.7474 30.9226 5.2112
# 6 1.5972 -2.5017 -1.4117 5.9275 5.2112 37.3135
#
#
#
# Elastic Compliance Matrix: (Units=1/GPa)
#
#
# Indices 1 2 3 4 5 6 
#
# 1 0.022932 -0.002581 -0.007236 0.010037 0.005715 -0.003821
# 2 -0.002581 0.012078 -0.005054 -0.004888 -0.001830 0.001761
# 3 -0.007236 -0.005054 0.015018 0.002148 -0.002855 0.000597
# 4 0.010037 -0.004888 0.002148 0.039372 0.010475 -0.008393
# 5 0.005715 -0.001830 -0.002855 0.010475 0.036987 -0.007305
# 6 -0.003821 0.001761 0.000597 -0.008393 -0.007305 0.029458
#
#
# Mechanical properties :
#
#
# Convention : Reuss Voigt Hill
#
# Bulk Modulus (GPa) = 49.29475 58.39724 53.84600
# Shear Modulus (GPa) = 25.99436 31.51957 28.75696
#
# Velocity S-wave (km/s) = 3.48052 3.83261 3.66080
# Velocity P-wave (km/s) = 6.25496 6.84103 6.55455
#
# Compressibility (1/GPa) = 0.02028613
#
# Stress axis : x y z
#
# Youngs Moduli (GPa) = 43.60697 82.79569 66.58498
#
# Poissons Ratio (x) = 0.21372 0.48181
# Poissons Ratio (y) = 0.11256 0.33651
# Poissons Ratio (z) = 0.31554 0.41844
#
# Static dielectric constant tensor:
#      x y z
#    x 3.976850 -0.096180 -0.060090 
#    y -0.096180 4.114290 0.162680 
#    z -0.060090 0.162680 3.903200 
# 
# 
# High freq. dielectric constant tensor:
#      x y z
#    x 1.850560 -0.008310 -0.001650 
#    y -0.008310 1.857030 0.011010 
#    z -0.001650 0.011010 1.849840 
# 
# From -- ./inp_files/154179.got.cif
#   From: 2010.06.25/outbox.cif.g09.slc.cpg/sg2_78_cif.got.tgz:154179.got - 2010.06.27 13:26:56.
