data_PCOD8028637
_publ_section_title
;
Structure prediction by ZEFSAII (Michael W. Deem and Ramdas Pophale) SiO2 
 PCOD8028637
Probable space group: P -1
;
_chemical_formula_sum "Si O2"
_cell_formula_units_Z 16
_cell_length_a 31.020969
_cell_length_b 11.770076
_cell_length_c 5.050101
_cell_angle_alpha 57.390419
_cell_angle_beta 119.545752
_cell_angle_gamma 156.113528
_cell_volume 628.939274
_symmetry_space_group_name_H-M "P -1"
_symmetry_group_IT_number 2
_symmetry_cell_setting 'triclinic'
loop_
_space_group_symop_operation_xyz
x,y,z
-x,-y,-z
loop_
_atom_site_type_symbol
_atom_site_label
_atom_site_fract_x
_atom_site_fract_y
_atom_site_fract_z
Si Si1 0.572693 0.152856 0.283007
Si Si2 0.097868 0.495793 0.943729
Si Si3 0.782374 0.795154 0.263596
Si Si4 0.088945 0.107831 0.716726
Si Si5 0.595284 0.691423 0.351455
Si Si6 0.201040 0.622344 0.605225
Si Si7 0.597249 0.906185 0.672257
Si Si8 0.203678 0.001574 0.430246
O O1 0.668638 0.490304 0.164649
O O2 0.500000 0.000000 0.500000
O O3 0.621122 0.120744 0.497038
O O4 0.500000 0.000000 0.000000
O O5 0.168953 0.576805 0.862279
O O6 0.111294 0.685131 0.672448
O O7 0.134687 0.554443 0.282434
O O8 0.973258 0.153578 0.963240
O O9 0.855650 0.836531 0.433064
O O10 0.767733 0.818028 0.485473
O O11 0.837263 0.030479 0.925407
O O12 0.179427 0.409906 0.766690
O O13 0.000000 0.000000 0.500000
O O14 0.500000 0.500000 0.500000
O O15 0.528949 0.426295 0.299387
O O16 0.697131 0.852091 0.551861
O O17 0.640675 0.928918 0.028559
O O18 0.328201 0.962453 0.519730
#
# Coordination Sequence:
#
# PCOD8028637 Si02
#       8
#     2   2   2   2   2   2   2   2
#     4  12  27  47  69 103 145 195 243 298 366 438
#     4  11  24  43  73 101 140 186 233 297 370 421
#     4  12  27  48  72 106 149 194 243 305 368 438
#     4  10  25  49  77 107 144 186 251 311 365 439
#     4  11  25  42  69 106 140 192 242 299 354 435
#     4  11  22  44  69 108 133 181 238 305 357 428
#     4  11  24  41  70  98 139 183 242 290 363 420
#     4  12  27  46  70 104 154 190 244 298 369 439
#
# _framework density 25.439657
#
# number of rings (size 3 to 8) (size 9 to 14) (size 15 to 20)
#    0.000    0.750    2.500    4.125    7.000    5.000 
#    0.000    0.000    0.000    0.000    0.000    0.000 
#    0.000    0.000    0.000    0.000    0.000    0.000 
#
# Total GULP energy -198298.876721 kJ/mol
# GULP energy per Si atom -12393.679795 kJ/mol
# Density = 2.538176 g / cm^3
# Si number density = 25.439657 Si / 1000 Ang^3
#
#
#
# Elastic Constant Matrix: (Units=GPa)
#
#
# Indices 1 2 3 4 5 6 
#
# 1 137.0703 0.5707 22.1934 4.5877 -5.2877 10.5950
# 2 0.5707 81.6348 17.8379 -26.6835 0.1699 8.6865
# 3 22.1934 17.8379 75.8645 -11.1802 -3.4690 0.4787
# 4 4.5877 -26.6835 -11.1802 41.0148 -3.4243 -0.7712
# 5 -5.2877 0.1699 -3.4690 -3.4243 44.0585 -5.4733
# 6 10.5950 8.6865 0.4787 -0.7712 -5.4733 35.2815
#
#
#
# Elastic Compliance Matrix: (Units=1/GPa)
#
#
# Indices 1 2 3 4 5 6 
#
# 1 0.007958 0.000301 -0.002576 -0.001413 0.000342 -0.002407
# 2 0.000301 0.016442 -0.002464 0.009925 0.000068 -0.003878
# 3 -0.002576 -0.002464 0.014992 0.002906 0.001285 0.001440
# 4 -0.001413 0.009925 0.002906 0.031969 0.002383 -0.000990
# 5 0.000342 0.000068 0.001285 0.002383 0.023466 0.003555
# 6 -0.002407 -0.003878 0.001440 -0.000990 0.003555 0.030531
#
#
# Mechanical properties :
#
#
# Convention : Reuss Voigt Hill
#
# Bulk Modulus (GPa) = 33.42916 41.75263 37.59089
# Shear Modulus (GPa) = 34.52828 41.00215 37.76522
#
# Velocity S-wave (km/s) = 3.68810 4.01901 3.85710
# Velocity P-wave (km/s) = 5.59511 6.16316 5.88599
#
# Compressibility (1/GPa) = 0.02991401
#
# Stress axis : x y z
#
# Youngs Moduli (GPa) = 125.66091 60.81824 66.70068
#
# Poissons Ratio (x) = -0.01829 0.17183
# Poissons Ratio (y) = -0.03778 0.16434
# Poissons Ratio (z) = 0.32372 0.14985
#
# Static dielectric constant tensor:
#      x y z
#    x 4.604750 -0.136120 0.119420 
#    y -0.136120 5.345260 -0.638100 
#    z 0.119420 -0.638100 4.539040 
# 
# 
# High freq. dielectric constant tensor:
#      x y z
#    x 2.023450 -0.002780 -0.000950 
#    y -0.002780 2.027450 -0.026940 
#    z -0.000950 -0.026940 2.008420 
# 
# From -- ./inp_files/128406.got.cif
#   From: 2010.06.25/outbox.cif.g09.slc.cpg/sg2_65_cif.got.tgz:128406.got - 2010.06.27 13:26:56.
