data_PCOD8028807
_publ_section_title
;
Structure prediction by ZEFSAII (Michael W. Deem and Ramdas Pophale) SiO2 
 PCOD8028807
Probable space group: P -1
;
_chemical_formula_sum "Si O2"
_cell_formula_units_Z 14
_cell_length_a 4.996224
_cell_length_b 12.924208
_cell_length_c 9.576122
_cell_angle_alpha 104.755121
_cell_angle_beta 82.399714
_cell_angle_gamma 97.224459
_cell_volume 589.966549
_symmetry_space_group_name_H-M "P -1"
_symmetry_group_IT_number 2
_symmetry_cell_setting 'triclinic'
loop_
_space_group_symop_operation_xyz
x,y,z
-x,-y,-z
loop_
_atom_site_type_symbol
_atom_site_label
_atom_site_fract_x
_atom_site_fract_y
_atom_site_fract_z
Si Si1 0.495440 0.649302 0.265115
Si Si2 0.162377 0.098836 0.099647
Si Si3 0.976523 0.518798 0.166587
Si Si4 0.566302 0.628960 0.554470
Si Si5 0.448240 0.141451 0.823582
Si Si6 0.957222 0.314145 0.265136
Si Si7 0.060246 0.972234 0.324806
O O1 0.670665 0.546679 0.221938
O O2 0.519949 0.692594 0.436173
O O3 0.611353 0.738865 0.176860
O O4 0.183569 0.616041 0.239656
O O5 0.993375 0.202056 0.149398
O O6 0.216185 0.067663 0.248323
O O7 0.427476 0.128345 0.990662
O O8 0.000000 0.000000 0.000000
O O9 0.062222 0.411467 0.192725
O O10 0.000000 0.500000 0.000000
O O11 0.500000 0.500000 0.500000
O O12 0.362490 0.679689 0.691618
O O13 0.872335 0.663693 0.595777
O O14 0.745157 0.123505 0.735698
O O15 0.230044 0.057500 0.734777
O O16 0.000000 0.000000 0.500000
#
# Coordination Sequence:
#
# PCOD8028807 Si02
#       7
#     2   2   2   2   2   2   2
#     4  12  25  42  69  99 145 179 226 288 349 421
#     4  10  26  49  73 102 141 187 240 297 350 416
#     4  12  24  42  66 101 139 182 230 281 342 429
#     4  12  24  44  68 102 143 186 228 287 354 422
#     4  11  25  46  70  99 140 184 229 289 358 411
#     4  12  25  43  72 101 140 187 234 285 356 416
#     4  11  25  45  71 102 135 178 240 296 349 412
#
# _framework density 23.730159
#
# number of rings (size 3 to 8) (size 9 to 14) (size 15 to 20)
#    0.000    0.571    2.857    4.286    4.000    6.857 
#    0.000    0.000    0.000    0.000    0.000    0.000 
#    0.000    0.000    0.000    0.000    0.000    0.000 
#
# Total GULP energy -173518.879862 kJ/mol
# GULP energy per Si atom -12394.205704 kJ/mol
# Density = 2.367615 g / cm^3
# Si number density = 23.730159 Si / 1000 Ang^3
#
#
#
# Elastic Constant Matrix: (Units=GPa)
#
#
# Indices 1 2 3 4 5 6 
#
# 1 91.6836 11.4918 28.4227 2.1932 -10.7848 -19.0282
# 2 11.4918 123.3648 51.9176 -12.6850 -8.7519 -9.3560
# 3 28.4227 51.9176 162.1990 -27.7739 -17.2391 -10.5407
# 4 2.1932 -12.6850 -27.7739 47.9948 -10.6596 -9.5607
# 5 -10.7848 -8.7519 -17.2391 -10.6596 38.1186 1.0484
# 6 -19.0282 -9.3560 -10.5407 -9.5607 1.0484 21.8291
#
#
#
# Elastic Compliance Matrix: (Units=1/GPa)
#
#
# Indices 1 2 3 4 5 6 
#
# 1 0.014277 0.000624 -0.001001 0.002444 0.004053 0.013106
# 2 0.000624 0.009770 -0.002273 0.002614 0.001994 0.004683
# 3 -0.001001 -0.002273 0.009153 0.006951 0.005130 0.005371
# 4 0.002444 0.002614 0.006951 0.032319 0.012919 0.020143
# 5 0.004053 0.001994 0.005130 0.012919 0.033471 0.010916
# 6 0.013106 0.004683 0.005371 0.020143 0.010916 0.070133
#
#
# Mechanical properties :
#
#
# Convention : Reuss Voigt Hill
#
# Bulk Modulus (GPa) = 35.84045 62.32353 49.08199
# Shear Modulus (GPa) = 27.21497 40.61617 33.91557
#
# Velocity S-wave (km/s) = 3.39019 4.14162 3.78460
# Velocity P-wave (km/s) = 5.51912 7.01364 6.31078
#
# Compressibility (1/GPa) = 0.02790143
#
# Stress axis : x y z
#
# Youngs Moduli (GPa) = 70.04102 102.35660 109.25838
#
# Poissons Ratio (x) = -0.06386 0.10931
# Poissons Ratio (y) = -0.04370 0.24830
# Poissons Ratio (z) = 0.07008 0.23261
#
# Static dielectric constant tensor:
#      x y z
#    x 3.809650 -0.028820 0.016940 
#    y -0.028820 4.373220 -0.389150 
#    z 0.016940 -0.389150 4.507410 
# 
# 
# High freq. dielectric constant tensor:
#      x y z
#    x 1.938770 -0.008510 -0.006410 
#    y -0.008510 1.939530 -0.016040 
#    z -0.006410 -0.016040 1.950820 
# 
# From -- ./inp_files/131812.got.cif
#   From: 2010.06.25/outbox.cif.g09.slc.cpg/sg2_66_cif.got.tgz:131812.got - 2010.06.27 13:26:56.
