data_PCOD8028757
_publ_section_title
;
Structure prediction by ZEFSAII (Michael W. Deem and Ramdas Pophale) SiO2 
 PCOD8028757
Probable space group: P -1
;
_chemical_formula_sum "Si O2"
_cell_formula_units_Z 10
_cell_length_a 9.410360
_cell_length_b 11.382243
_cell_length_c 9.507820
_cell_angle_alpha 124.977184
_cell_angle_beta 149.187932
_cell_angle_gamma 50.225857
_cell_volume 400.189044
_symmetry_space_group_name_H-M "P -1"
_symmetry_group_IT_number 2
_symmetry_cell_setting 'triclinic'
loop_
_space_group_symop_operation_xyz
x,y,z
-x,-y,-z
loop_
_atom_site_type_symbol
_atom_site_label
_atom_site_fract_x
_atom_site_fract_y
_atom_site_fract_z
Si Si1 0.776491 0.747631 0.045903
Si Si2 0.260811 0.463669 0.363795
Si Si3 0.338547 0.412518 0.711469
Si Si4 0.183749 0.954410 0.805066
Si Si5 0.417707 0.080326 0.632299
O O1 0.965141 0.616668 0.226499
O O2 0.899502 0.890859 0.255506
O O3 0.813496 0.673666 0.870517
O O4 0.431535 0.808480 0.842000
O O5 0.500000 0.500000 0.500000
O O6 0.410012 0.406491 0.601926
O O7 0.431165 0.246776 0.741921
O O8 0.000000 0.500000 0.500000
O O9 0.500000 0.500000 0.000000
O O10 0.898903 0.913672 0.574727
O O11 0.328040 0.004638 0.098840
O O12 0.500000 0.000000 0.500000
#
# Coordination Sequence:
#
# PCOD8028757 Si02
#       5
#     2   2   2   2   2
#     4  10  26  46  76 111 151 197 257 315 381 447
#     4  11  27  46  78 107 155 197 260 311 379 448
#     4  12  29  49  77 110 152 201 252 312 382 452
#     4  11  26  47  76 110 148 199 252 315 376 454
#     4  12  27  47  75 107 156 196 257 306 387 452
#
# _framework density 24.988189999999999
#
# number of rings (size 3 to 8) (size 9 to 14) (size 15 to 20)
#    0.000    0.800    0.000    4.200   19.600    1.600 
#    0.000    0.000    0.000    0.000    0.000    0.000 
#    0.000    0.000    0.000    0.000    0.000    0.000 
#
# Total GULP energy -124028.002019 kJ/mol
# GULP energy per Si atom -12402.800202 kJ/mol
# Density = 2.493132 g / cm^3
# Si number density = 24.988190 Si / 1000 Ang^3
#
#
#
# Elastic Constant Matrix: (Units=GPa)
#
#
# Indices 1 2 3 4 5 6 
#
# 1 129.6205 31.7169 36.5180 7.5167 9.9918 2.1451
# 2 31.7169 141.5592 24.4130 15.0182 14.2653 6.5269
# 3 36.5180 24.4130 113.4903 6.4812 6.6932 11.3065
# 4 7.5167 15.0182 6.4812 39.3204 2.1395 -2.1758
# 5 9.9918 14.2653 6.6932 2.1395 51.2563 12.1627
# 6 2.1451 6.5269 11.3065 -2.1758 12.1627 26.9755
#
#
#
# Elastic Compliance Matrix: (Units=1/GPa)
#
#
# Indices 1 2 3 4 5 6 
#
# 1 0.008898 -0.001415 -0.002573 -0.000599 -0.001274 0.001239
# 2 -0.001415 0.008015 -0.000935 -0.002609 -0.001493 -0.000972
# 3 -0.002573 -0.000935 0.010293 -0.001104 0.000455 -0.004177
# 4 -0.000599 -0.002609 -0.001104 0.026991 -0.001038 0.003787
# 5 -0.001274 -0.001493 0.000455 -0.001038 0.022523 -0.009967
# 6 0.001239 -0.000972 -0.004177 0.003787 -0.009967 0.043758
#
#
# Mechanical properties :
#
#
# Convention : Reuss Voigt Hill
#
# Bulk Modulus (GPa) = 57.60471 63.32953 60.46712
# Shear Modulus (GPa) = 36.73517 42.97858 39.85688
#
# Velocity S-wave (km/s) = 3.83835 4.15173 3.99811
# Velocity P-wave (km/s) = 6.53810 6.95567 6.75011
#
# Compressibility (1/GPa) = 0.01735969
#
# Stress axis : x y z
#
# Youngs Moduli (GPa) = 112.37962 124.77302 97.15640
#
# Poissons Ratio (x) = 0.17659 0.24998
# Poissons Ratio (y) = 0.15905 0.09081
# Poissons Ratio (z) = 0.28915 0.11663
#
# Static dielectric constant tensor:
#      x y z
#    x 4.372100 -0.204680 0.048980 
#    y -0.204680 4.849010 0.117190 
#    z 0.048980 0.117190 4.377440 
# 
# 
# High freq. dielectric constant tensor:
#      x y z
#    x 2.003030 0.000620 -0.010490 
#    y 0.000620 2.010300 0.005240 
#    z -0.010490 0.005240 2.009830 
# 
# From -- ./inp_files/200032.got.cif
#   From: 2010.06.25/outbox.cif.g09.slc.cpg/sg2_101_cif.got.tgz:200032.got - 2010.06.27 13:26:56.
