data_PCOD8028668
_publ_section_title
;
Structure prediction by ZEFSAII (Michael W. Deem and Ramdas Pophale) SiO2 
 PCOD8028668
Probable space group: P -1
;
_chemical_formula_sum "Si O2"
_cell_formula_units_Z 16
_cell_length_a 17.995182
_cell_length_b 9.524097
_cell_length_c 13.532654
_cell_angle_alpha 40.570591
_cell_angle_beta 152.702044
_cell_angle_gamma 135.273064
_cell_volume 686.900169
_symmetry_space_group_name_H-M "P -1"
_symmetry_group_IT_number 2
_symmetry_cell_setting 'triclinic'
loop_
_space_group_symop_operation_xyz
x,y,z
-x,-y,-z
loop_
_atom_site_type_symbol
_atom_site_label
_atom_site_fract_x
_atom_site_fract_y
_atom_site_fract_z
Si Si1 0.465452 0.436024 0.606031
Si Si2 0.550400 0.740487 0.890430
Si Si3 0.826580 0.889700 0.567995
Si Si4 0.263466 0.794198 0.859111
Si Si5 0.787667 0.073334 0.630400
Si Si6 0.000895 0.494944 0.384088
Si Si7 0.610002 0.813596 0.710286
Si Si8 0.143881 0.056640 0.750515
O O1 0.500000 0.500000 0.500000
O O2 0.274566 0.346664 0.442230
O O3 0.501244 0.645343 0.602837
O O4 0.571234 0.245272 0.869559
O O5 0.390611 0.858422 0.632840
O O6 0.641766 0.708961 0.910229
O O7 0.500000 0.500000 0.000000
O O8 0.673249 0.906205 0.010916
O O9 0.721606 0.067427 0.298445
O O10 0.838545 0.932621 0.675179
O O11 0.012756 0.901512 0.743522
O O12 0.177798 0.553975 0.851899
O O13 0.152100 0.935450 0.719933
O O14 0.917542 0.283477 0.685523
O O15 0.778370 0.918256 0.799854
O O16 0.092587 0.298437 0.556394
O O17 0.000000 0.500000 0.500000
O O18 0.500000 0.000000 0.500000
#
# Coordination Sequence:
#
# PCOD8028668 Si02
#       8
#     2   2   2   2   2   2   2   2
#     4  12  26  47  70  98 138 180 233 282 341 413
#     4  11  24  39  69 101 133 174 229 282 336 402
#     4  11  23  43  72  97 138 179 224 283 340 402
#     4  11  26  42  71 103 134 182 232 278 347 402
#     4  11  21  43  67  99 139 181 221 285 340 406
#     4  11  21  40  70 105 140 171 229 288 336 399
#     4  10  26  43  66  98 135 177 227 279 344 400
#     4  11  24  42  67 105 141 171 231 284 338 402
#
# _framework density 23.293050999999998
#
# number of rings (size 3 to 8) (size 9 to 14) (size 15 to 20)
#    0.000    1.000    5.000    2.625    7.000    2.000 
#    2.250    1.875    0.000    0.000    0.000    0.000 
#    0.000    0.000    0.000    0.000    0.000    0.000 
#
# Total GULP energy -198314.391359 kJ/mol
# GULP energy per Si atom -12394.649460 kJ/mol
# Density = 2.324003 g / cm^3
# Si number density = 23.293051 Si / 1000 Ang^3
#
#
#
# Elastic Constant Matrix: (Units=GPa)
#
#
# Indices 1 2 3 4 5 6 
#
# 1 129.9768 64.6954 11.9104 8.6774 -25.4094 14.8006
# 2 64.6954 174.1678 7.6605 33.4017 -8.2437 18.6540
# 3 11.9104 7.6605 53.1307 14.2066 -5.6599 6.4483
# 4 8.6774 33.4017 14.2066 35.4934 1.0029 3.9173
# 5 -25.4094 -8.2437 -5.6599 1.0029 38.8826 0.6333
# 6 14.8006 18.6540 6.4483 3.9173 0.6333 59.7728
#
#
#
# Elastic Compliance Matrix: (Units=1/GPa)
#
#
# Indices 1 2 3 4 5 6 
#
# 1 0.011032 -0.003872 -0.001484 0.001535 0.006158 -0.001529
# 2 -0.003872 0.008756 0.001870 -0.007876 -0.000175 -0.001457
# 3 -0.001484 0.001870 0.022145 -0.010126 0.002944 -0.001973
# 4 0.001535 -0.007876 -0.010126 0.039284 -0.003164 0.000629
# 5 0.006158 -0.000175 0.002944 -0.003164 0.030247 -0.001901
# 6 -0.001529 -0.001457 -0.001973 0.000629 -0.001901 0.017755
#
#
# Mechanical properties :
#
#
# Convention : Reuss Voigt Hill
#
# Bulk Modulus (GPa) = 28.60308 58.42308 43.51308
# Shear Modulus (GPa) = 33.81933 45.03037 39.42485
#
# Velocity S-wave (km/s) = 3.81452 4.40160 4.11853
# Velocity P-wave (km/s) = 5.63091 7.13921 6.42944
#
# Compressibility (1/GPa) = 0.03496127
#
# Stress axis : x y z
#
# Youngs Moduli (GPa) = 90.64250 114.20969 45.15665
#
# Poissons Ratio (x) = 0.44221 0.06700
# Poissons Ratio (y) = 0.35096 -0.08443
# Poissons Ratio (z) = 0.13449 -0.21354
#
# Static dielectric constant tensor:
#      x y z
#    x 4.705020 0.281550 -0.265180 
#    y 0.281550 4.643390 0.202500 
#    z -0.265180 0.202500 4.248570 
# 
# 
# High freq. dielectric constant tensor:
#      x y z
#    x 1.930050 0.001930 -0.004750 
#    y 0.001930 1.938000 0.015410 
#    z -0.004750 0.015410 1.907700 
# 
# From -- ./inp_files/184206.got.cif
#   From: 2010.06.25/outbox.cif.g09.slc.cpg/sg2_93_cif.got.tgz:184206.got - 2010.06.27 13:26:56.
