data_PCOD8028837
_publ_section_title
;
Structure prediction by ZEFSAII (Michael W. Deem and Ramdas Pophale) SiO2 
 PCOD8028837
Probable space group: P -1
;
_chemical_formula_sum "Si O2"
_cell_formula_units_Z 16
_cell_length_a 11.485380
_cell_length_b 12.239513
_cell_length_c 12.400566
_cell_angle_alpha 59.665646
_cell_angle_beta 48.991195
_cell_angle_gamma 99.207768
_cell_volume 745.113002
_symmetry_space_group_name_H-M "P -1"
_symmetry_group_IT_number 2
_symmetry_cell_setting 'triclinic'
loop_
_space_group_symop_operation_xyz
x,y,z
-x,-y,-z
loop_
_atom_site_type_symbol
_atom_site_label
_atom_site_fract_x
_atom_site_fract_y
_atom_site_fract_z
Si Si1 0.472957 0.886343 0.475843
Si Si2 0.496798 0.648360 0.696070
Si Si3 0.473761 0.793729 0.026779
Si Si4 0.063696 0.795654 0.454406
Si Si5 0.324321 0.273267 0.227926
Si Si6 0.232491 0.433785 0.464192
Si Si7 0.175128 0.748128 0.056520
Si Si8 0.016416 0.420518 0.188402
O O1 0.552919 0.794890 0.505261
O O2 0.201765 0.710397 0.694016
O O3 0.500000 0.000000 0.500000
O O4 0.635283 0.030551 0.205840
O O5 0.635485 0.770554 0.660111
O O6 0.586359 0.570554 0.631457
O O7 0.219194 0.464694 0.983869
O O8 0.368595 0.652873 0.263275
O O9 0.270813 0.731876 0.110300
O O10 0.623813 0.790289 0.866092
O O11 0.667118 0.014388 0.840588
O O12 0.944141 0.844529 0.558536
O O13 0.914301 0.666533 0.506121
O O14 0.061750 0.682052 0.597941
O O15 0.500000 0.500000 0.000000
O O16 0.065116 0.331379 0.721264
O O17 0.120702 0.624305 0.049047
#
# Coordination Sequence:
#
# PCOD8028837 Si02
#       8
#     2   2   2   2   2   2   2   2
#     4  12  26  45  70  98 123 170 230 269 315 379
#     4  11  22  43  67  93 133 173 212 269 320 382
#     4  12  20  38  62  96 132 169 216 257 326 386
#     4  11  22  35  66  99 132 169 208 269 325 387
#     4  11  17  37  62  95 131 163 211 267 327 375
#     4  11  25  44  62  98 142 169 206 266 336 387
#     4  12  25  42  68  96 132 176 213 270 322 383
#     4  12  22  43  70  97 125 167 226 270 317 379
#
# _framework density 21.473251999999999
#
# number of rings (size 3 to 8) (size 9 to 14) (size 15 to 20)
#    0.000    0.500    8.750    1.125    0.000    2.000 
#    2.250    0.625    0.000    0.000    0.000    0.000 
#    0.000    0.000    0.000    0.000    0.000    0.000 
#
# Total GULP energy -198432.700305 kJ/mol
# GULP energy per Si atom -12402.043769 kJ/mol
# Density = 2.142438 g / cm^3
# Si number density = 21.473252 Si / 1000 Ang^3
#
#
#
# Elastic Constant Matrix: (Units=GPa)
#
#
# Indices 1 2 3 4 5 6 
#
# 1 106.0015 28.7889 37.6339 -11.1057 1.5087 -9.4865
# 2 28.7889 28.2096 29.3129 -1.5286 -8.4587 -12.4653
# 3 37.6339 29.3129 129.9962 -6.2524 -7.2004 -21.3280
# 4 -11.1057 -1.5286 -6.2524 37.7334 -5.3052 -3.3941
# 5 1.5087 -8.4587 -7.2004 -5.3052 36.1286 -8.2439
# 6 -9.4865 -12.4653 -21.3280 -3.3941 -8.2439 20.4669
#
#
#
# Elastic Compliance Matrix: (Units=1/GPa)
#
#
# Indices 1 2 3 4 5 6 
#
# 1 0.014851 -0.020013 -0.001822 0.001250 -0.007798 -0.010138
# 2 -0.020013 0.101803 -0.003452 0.009413 0.040669 0.067071
# 3 -0.001822 -0.003452 0.011166 0.002774 0.004392 0.010918
# 4 0.001250 0.009413 0.002774 0.031054 0.011606 0.019027
# 5 -0.007798 0.040669 0.004392 0.011606 0.051114 0.048244
# 6 -0.010138 0.067071 0.010918 0.019027 0.048244 0.118975
#
#
# Mechanical properties :
#
#
# Convention : Reuss Voigt Hill
#
# Bulk Modulus (GPa) = 12.94569 50.63097 31.78833
# Shear Modulus (GPa) = 12.33699 30.09722 21.21710
#
# Velocity S-wave (km/s) = 2.39953 3.74788 3.14677
# Velocity P-wave (km/s) = 3.70390 6.50835 5.29516
#
# Compressibility (1/GPa) = 0.07724576
#
# Stress axis : x y z
#
# Youngs Moduli (GPa) = 67.33763 9.82292 89.55503
#
# Poissons Ratio (x) = 0.19659 0.16313
# Poissons Ratio (y) = 1.34763 0.30917
# Poissons Ratio (z) = 0.12266 0.03391
#
# Static dielectric constant tensor:
#      x y z
#    x 3.874450 0.797140 -0.456620 
#    y 0.797140 -6.687450 3.686490 
#    z -0.456620 3.686490 2.859460 
# 
# 
# High freq. dielectric constant tensor:
#      x y z
#    x 1.835660 -0.011690 -0.006640 
#    y -0.011690 1.825510 -0.003740 
#    z -0.006640 -0.003740 1.855810 
# 
# From -- ./inp_files/427743.got.cif
#   From: 2010.06.25/outbox.cif.g09.slc.cpg/sg2_214_cif.got.tgz:427743.got - 2010.06.27 13:26:56.
