data_PCOD8028055
_publ_section_title
;
Structure prediction by ZEFSAII (Michael W. Deem and Ramdas Pophale) SiO2 
 PCOD8028055
Probable space group: P -1
;
_chemical_formula_sum "Si O2"
_cell_formula_units_Z 16
_cell_length_a 12.444461
_cell_length_b 11.381960
_cell_length_c 8.541364
_cell_angle_alpha 55.149644
_cell_angle_beta 126.863011
_cell_angle_gamma 91.907669
_cell_volume 700.539003
_symmetry_space_group_name_H-M "P -1"
_symmetry_group_IT_number 2
_symmetry_cell_setting 'triclinic'
loop_
_space_group_symop_operation_xyz
x,y,z
-x,-y,-z
loop_
_atom_site_type_symbol
_atom_site_label
_atom_site_fract_x
_atom_site_fract_y
_atom_site_fract_z
Si Si1 0.583093 0.390416 0.301749
Si Si2 0.886738 0.576645 0.199989
Si Si3 0.470637 0.207460 0.553248
Si Si4 0.776445 0.144763 0.426079
Si Si5 0.007252 0.241085 0.443660
Si Si6 0.307365 0.160600 0.952797
Si Si7 0.487750 0.302482 0.831492
Si Si8 0.845910 0.791168 0.736204
O O1 0.478911 0.315907 0.336407
O O2 0.740517 0.245265 0.481731
O O3 0.610122 0.503859 0.365799
O O4 0.500000 0.500000 0.000000
O O5 0.726995 0.718737 0.019669
O O6 0.000000 0.500000 0.500000
O O7 0.876969 0.425606 0.226449
O O8 0.945857 0.660785 0.056705
O O9 0.523723 0.269278 0.705394
O O10 0.300190 0.235394 0.403629
O O11 0.587091 0.021122 0.759573
O O12 0.930783 0.126307 0.496284
O O13 0.795524 0.969939 0.621037
O O14 0.644637 0.227993 0.119368
O O15 0.152795 0.177617 0.731296
O O16 0.054084 0.237528 0.308261
O O17 0.393252 0.208500 0.861125
#
# Coordination Sequence:
#
# PCOD8028055 Si02
#       8
#     2   2   2   2   2   2   2   2
#     4  10  25  43  64  99 139 179 221 285 334 397
#     4  10  25  44  65  99 135 186 225 274 333 405
#     4  12  24  42  72 106 132 177 231 282 338 397
#     4  11  24  43  69 103 138 177 223 281 344 398
#     4  11  24  46  67 100 142 179 220 277 344 407
#     4  11  22  44  71 101 137 175 227 280 336 407
#     4  11  22  43  67 103 138 174 226 278 340 403
#     4  12  24  42  73 102 136 179 229 278 336 408
#
# _framework density 22.839554
#
# number of rings (size 3 to 8) (size 9 to 14) (size 15 to 20)
#    0.000    1.000    2.500    3.750    7.000    1.000 
#    0.000   10.625    0.000    0.000    0.000    0.000 
#    0.000    0.000    0.000    0.000    0.000    0.000 
#
# Total GULP energy -198388.199965 kJ/mol
# GULP energy per Si atom -12399.262498 kJ/mol
# Density = 2.278757 g / cm^3
# Si number density = 22.839554 Si / 1000 Ang^3
#
#
#
# Elastic Constant Matrix: (Units=GPa)
#
#
# Indices 1 2 3 4 5 6 
#
# 1 124.1813 31.7262 32.9538 -0.7991 -8.5601 19.8949
# 2 31.7262 106.0521 48.2236 -26.8823 1.3691 -3.4306
# 3 32.9538 48.2236 88.8666 -17.1879 -11.5478 10.5523
# 4 -0.7991 -26.8823 -17.1879 27.7359 8.6360 7.4782
# 5 -8.5601 1.3691 -11.5478 8.6360 35.4448 -5.7918
# 6 19.8949 -3.4306 10.5523 7.4782 -5.7918 42.3065
#
#
#
# Elastic Compliance Matrix: (Units=1/GPa)
#
#
# Indices 1 2 3 4 5 6 
#
# 1 0.010109 -0.003216 -0.002035 -0.003844 0.002264 -0.003518
# 2 -0.003216 0.016994 -0.006253 0.014360 -0.006809 0.000980
# 3 -0.002035 -0.006253 0.017246 0.004581 0.003571 -0.004173
# 4 -0.003844 0.014360 0.004581 0.060914 -0.016665 -0.011220
# 5 0.002264 -0.006809 0.003571 -0.016665 0.035103 0.005244
# 6 -0.003518 0.000980 -0.004173 -0.011220 0.005244 0.029113
#
#
# Mechanical properties :
#
#
# Convention : Reuss Voigt Hill
#
# Bulk Modulus (GPa) = 46.85755 60.54524 53.70140
# Shear Modulus (GPa) = 25.04970 34.84388 29.94679
#
# Velocity S-wave (km/s) = 3.31534 3.91012 3.62495
# Velocity P-wave (km/s) = 5.93429 6.85215 6.40967
#
# Compressibility (1/GPa) = 0.02134128
#
# Stress axis : x y z
#
# Youngs Moduli (GPa) = 98.91789 58.84284 57.98346
#
# Poissons Ratio (x) = 0.18926 0.11799
# Poissons Ratio (y) = 0.31815 0.36258
# Poissons Ratio (z) = 0.20129 0.36796
#
# Static dielectric constant tensor:
#      x y z
#    x 4.132140 -0.318650 -0.117840 
#    y -0.318650 4.718760 -0.415810 
#    z -0.117840 -0.415810 4.123190 
# 
# 
# High freq. dielectric constant tensor:
#      x y z
#    x 1.903610 -0.011690 -0.015000 
#    y -0.011690 1.916380 -0.017050 
#    z -0.015000 -0.017050 1.890450 
# 
# From -- ./inp_files/261706.got.cif
#   From: 2010.06.25/outbox.cif.g09.slc.cpg/sg2_131_cif.got.tgz:261706.got - 2010.06.27 13:26:56.
