data_PCOD8028771
_publ_section_title
;
Structure prediction by ZEFSAII (Michael W. Deem and Ramdas Pophale) SiO2 
 PCOD8028771
Probable space group: P -1
;
_chemical_formula_sum "Si O2"
_cell_formula_units_Z 14
_cell_length_a 27.329694
_cell_length_b 15.397215
_cell_length_c 13.956533
_cell_angle_alpha 161.325538
_cell_angle_beta 160.285006
_cell_angle_gamma 20.861584
_cell_volume 582.880574
_symmetry_space_group_name_H-M "P -1"
_symmetry_group_IT_number 2
_symmetry_cell_setting 'triclinic'
loop_
_space_group_symop_operation_xyz
x,y,z
-x,-y,-z
loop_
_atom_site_type_symbol
_atom_site_label
_atom_site_fract_x
_atom_site_fract_y
_atom_site_fract_z
Si Si1 0.196590 0.420125 0.461687
Si Si2 0.897580 0.664208 0.287885
Si Si3 0.463825 0.910677 0.235638
Si Si4 0.406488 0.172890 0.211667
Si Si5 0.873594 0.216607 0.923433
Si Si6 0.166159 0.890359 0.745751
Si Si7 0.447957 0.477789 0.273577
O O1 0.366894 0.347358 0.751761
O O2 0.190536 0.587753 0.526668
O O3 0.061162 0.619802 0.492134
O O4 0.167677 0.127095 0.075313
O O5 0.818575 0.001071 0.532395
O O6 0.771854 0.631021 0.946529
O O7 0.936166 0.417581 0.183917
O O8 0.500000 0.000000 0.500000
O O9 0.418525 0.178812 0.355725
O O10 0.313782 0.817791 0.868005
O O11 0.527208 0.284982 0.501370
O O12 0.455939 0.834715 0.921679
O O13 0.737970 0.439676 0.974524
O O14 0.000000 0.000000 0.000000
O O15 0.000000 0.000000 0.500000
O O16 0.500000 0.500000 0.500000
#
# Coordination Sequence:
#
# PCOD8028771 Si02
#       7
#     2   2   2   2   2   2   2
#     4  11  25  42  68  99 138 177 229 289 349 412
#     4  12  24  45  67 104 139 183 235 279 344 430
#     4  10  26  47  71 105 142 183 239 296 353 413
#     4  12  25  43  74 101 138 189 233 286 350 417
#     4  12  27  43  69  99 146 179 227 291 349 409
#     4  11  23  45  70  97 135 179 230 289 351 413
#     4  12  24  46  70 103 140 179 235 287 346 419
#
# _framework density 24.018643000000001
#
# number of rings (size 3 to 8) (size 9 to 14) (size 15 to 20)
#    0.000    0.571    2.857    4.286    4.000    6.857 
#    0.000    0.000    0.000    0.000    0.000    0.000 
#    0.000    0.000    0.000    0.000    0.000    0.000 
#
# Total GULP energy -173603.334027 kJ/mol
# GULP energy per Si atom -12400.238145 kJ/mol
# Density = 2.396398 g / cm^3
# Si number density = 24.018643 Si / 1000 Ang^3
#
#
#
# Elastic Constant Matrix: (Units=GPa)
#
#
# Indices 1 2 3 4 5 6 
#
# 1 137.2220 40.3170 29.3452 -15.2079 36.8236 20.8460
# 2 40.3170 112.6625 15.6342 -44.0653 15.6000 6.8817
# 3 29.3452 15.6342 65.2192 -30.3912 11.9239 9.5805
# 4 -15.2079 -44.0653 -30.3912 36.8159 -18.3626 17.7396
# 5 36.8236 15.6000 11.9239 -18.3626 39.8146 9.6674
# 6 20.8460 6.8817 9.5805 17.7396 9.6674 40.7699
#
#
#
# Elastic Compliance Matrix: (Units=1/GPa)
#
#
# Indices 1 2 3 4 5 6 
#
# 1 0.009902 0.001359 0.002201 0.010716 -0.003040 -0.009752
# 2 0.001359 -0.001780 -0.016363 -0.034297 -0.016912 0.022384
# 3 0.002201 -0.016363 -0.002241 -0.044180 -0.021775 0.026550
# 4 0.010716 -0.034297 -0.044180 -0.099311 -0.044707 0.064504
# 5 -0.003040 -0.016912 -0.021775 -0.044707 0.014240 0.025602
# 6 -0.009752 0.022384 0.026550 0.064504 0.025602 -0.014641
#
#
# Mechanical properties :
#
#
# Convention : Reuss Voigt Hill
#
# Bulk Modulus (GPa) = -50.69790 53.96627 1.63418
# Shear Modulus (GPa) = -66.84676 38.80056 -14.02310
#
# Velocity S-wave (km/s) = -5.28125 4.02361 -2.41890
# Velocity P-wave (km/s) = 7.63822 6.64102 2.66826
#
# Compressibility (1/GPa) = -0.01972468
#
# Stress axis : x y z
#
# Youngs Moduli (GPa) = 100.98568 -561.93553 -446.27700
#
# Poissons Ratio (x) = 0.76366 0.98206
# Poissons Ratio (y) = -0.13724 -7.30240
# Poissons Ratio (z) = -0.22223 -9.19491
#
# Static dielectric constant tensor:
#      x y z
#    x 4.128010 0.219780 0.126830 
#    y 0.219780 4.266040 -0.220790 
#    z 0.126830 -0.220790 4.373900 
# 
# 
# High freq. dielectric constant tensor:
#      x y z
#    x 1.960110 0.004360 0.012400 
#    y 0.004360 1.971340 -0.007340 
#    z 0.012400 -0.007340 1.948390 
# 
# From -- ./inp_files/535738.got.cif
#   From: 2010.06.25/outbox.cif.g09.slc.cpg/sg2_268_cif.got.tgz:535738.got - 2010.06.27 13:26:56.
