data_PCOD8028643
_publ_section_title
;
Structure prediction by ZEFSAII (Michael W. Deem and Ramdas Pophale) SiO2 
 PCOD8028643
Probable space group: P -1
;
_chemical_formula_sum "Si O2"
_cell_formula_units_Z 16
_cell_length_a 5.518545
_cell_length_b 15.314406
_cell_length_c 7.995598
_cell_angle_alpha 105.658647
_cell_angle_beta 79.181304
_cell_angle_gamma 75.346332
_cell_volume 605.259152
_symmetry_space_group_name_H-M "P -1"
_symmetry_group_IT_number 2
_symmetry_cell_setting 'triclinic'
loop_
_space_group_symop_operation_xyz
x,y,z
-x,-y,-z
loop_
_atom_site_type_symbol
_atom_site_label
_atom_site_fract_x
_atom_site_fract_y
_atom_site_fract_z
Si Si1 0.225067 0.572738 0.867850
Si Si2 0.745279 0.077768 0.134177
Si Si3 0.833157 0.469510 0.767547
Si Si4 0.977083 0.136489 0.437697
Si Si5 0.219021 0.295010 0.486501
Si Si6 0.568616 0.273165 0.120458
Si Si7 0.507661 0.232437 0.754547
Si Si8 0.556256 0.028108 0.688570
O O1 0.537510 0.520458 0.771518
O O2 0.191546 0.682693 0.872334
O O3 0.030094 0.533432 0.763254
O O4 0.155304 0.571148 0.069146
O O5 0.652830 0.157057 0.041274
O O6 0.769046 0.145768 0.321053
O O7 0.549912 0.019917 0.170871
O O8 0.000000 0.000000 0.000000
O O9 0.945630 0.379882 0.581132
O O10 0.180057 0.192971 0.401918
O O11 0.816768 0.183321 0.648138
O O12 0.129314 0.021576 0.365494
O O13 0.368290 0.317764 0.318819
O O14 0.366043 0.292886 0.644261
O O15 0.454355 0.303291 0.960156
O O16 0.419983 0.141823 0.770830
O O17 0.500000 0.000000 0.500000
#
# Coordination Sequence:
#
# PCOD8028643 Si02
#       8
#     2   2   2   2   2   2   2   2
#     4  10  25  49  82 115 151 203 255 312 395 470
#     4  12  28  45  68 109 149 195 255 316 370 450
#     4  10  25  49  81 114 157 196 253 324 386 466
#     4  12  23  46  71  99 151 200 244 319 373 448
#     4  12  27  48  74 113 152 191 253 318 376 460
#     4  12  27  49  74 115 144 199 256 307 387 459
#     4  12  27  45  75 105 147 201 252 308 381 450
#     4  12  23  45  66 103 144 197 253 303 377 444
#
# _framework density 26.434958000000002
#
# number of rings (size 3 to 8) (size 9 to 14) (size 15 to 20)
#    0.000    0.500    5.000    1.875   10.500    4.000 
#    0.000    0.000    0.000    0.000    0.000    0.000 
#    0.000    0.000    0.000    0.000    0.000    0.000 
#
# Total GULP energy -198282.294451 kJ/mol
# GULP energy per Si atom -12392.643403 kJ/mol
# Density = 2.637479 g / cm^3
# Si number density = 26.434958 Si / 1000 Ang^3
#
#
#
# Elastic Constant Matrix: (Units=GPa)
#
#
# Indices 1 2 3 4 5 6 
#
# 1 92.6071 13.4062 39.4613 -11.5277 -14.6148 11.8077
# 2 13.4062 84.4254 31.1190 -10.3760 -23.3907 22.4022
# 3 39.4613 31.1190 143.4181 -1.7141 -3.5947 -4.9581
# 4 -11.5277 -10.3760 -1.7141 37.2400 -4.6400 -8.8677
# 5 -14.6148 -23.3907 -3.5947 -4.6400 42.4427 -3.3374
# 6 11.8077 22.4022 -4.9581 -8.8677 -3.3374 42.9426
#
#
#
# Elastic Compliance Matrix: (Units=1/GPa)
#
#
# Indices 1 2 3 4 5 6 
#
# 1 0.014514 0.002963 -0.004576 0.004818 0.006410 -0.004572
# 2 0.002963 0.019526 -0.005043 0.005222 0.011168 -0.009637
# 3 -0.004576 -0.005043 0.009369 -0.001783 -0.003415 0.004337
# 4 0.004818 0.005222 -0.001783 0.031399 0.008043 0.002854
# 5 0.006410 0.011168 -0.003415 0.008043 0.032213 -0.003818
# 6 -0.004572 -0.009637 0.004337 0.002854 -0.003818 0.030365
#
#
# Mechanical properties :
#
#
# Convention : Reuss Voigt Hill
#
# Bulk Modulus (GPa) = 33.22568 54.26932 43.74750
# Shear Modulus (GPa) = 31.10818 40.28936 35.69877
#
# Velocity S-wave (km/s) = 3.43415 3.90820 3.67882
# Velocity P-wave (km/s) = 5.32171 6.39838 5.88472
#
# Compressibility (1/GPa) = 0.03009720
#
# Stress axis : x y z
#
# Youngs Moduli (GPa) = 68.90071 51.21344 106.73468
#
# Poissons Ratio (x) = -0.15177 0.48844
# Poissons Ratio (y) = -0.20419 0.53827
# Poissons Ratio (z) = 0.31531 0.25827
#
# Static dielectric constant tensor:
#      x y z
#    x 3.881700 0.275660 -0.340150 
#    y 0.275660 4.204570 0.233640 
#    z -0.340150 0.233640 4.757870 
# 
# 
# High freq. dielectric constant tensor:
#      x y z
#    x 2.047480 0.004820 -0.010480 
#    y 0.004820 2.068540 -0.001150 
#    z -0.010480 -0.001150 2.070540 
# 
# From -- ./inp_files/135468.got.cif
#   From: 2010.06.25/outbox.cif.g09.slc.cpg/sg2_68_cif.got.tgz:135468.got - 2010.06.27 13:26:56.
