data_PCOD8028601
_publ_section_title
;
Structure prediction by ZEFSAII (Michael W. Deem and Ramdas Pophale) SiO2 
 PCOD8028601
Probable space group: P -1
;
_chemical_formula_sum "Si O2"
_cell_formula_units_Z 12
_cell_length_a 11.778081
_cell_length_b 10.587296
_cell_length_c 8.976552
_cell_angle_alpha 76.041100
_cell_angle_beta 133.864153
_cell_angle_gamma 67.128515
_cell_volume 475.735937
_symmetry_space_group_name_H-M "P -1"
_symmetry_group_IT_number 2
_symmetry_cell_setting 'triclinic'
loop_
_space_group_symop_operation_xyz
x,y,z
-x,-y,-z
loop_
_atom_site_type_symbol
_atom_site_label
_atom_site_fract_x
_atom_site_fract_y
_atom_site_fract_z
Si Si1 0.311675 0.708245 0.484493
Si Si2 0.022486 0.098613 0.610285
Si Si3 0.067876 0.360922 0.464268
Si Si4 0.188675 0.526202 0.083474
Si Si5 0.505000 0.835796 0.299769
Si Si6 0.159394 0.097858 0.155644
O O1 0.613768 0.486204 0.781208
O O2 0.247170 0.725769 0.593149
O O3 0.281761 0.881032 0.373733
O O4 0.133973 0.730168 0.219597
O O5 0.053559 0.220120 0.534732
O O6 0.000000 0.000000 0.500000
O O7 0.265594 0.906501 0.995886
O O8 0.358440 0.190780 0.712159
O O9 0.000000 0.500000 0.500000
O O10 0.863506 0.525170 0.098057
O O11 0.284556 0.383957 0.354266
O O12 0.897598 0.771457 0.792222
O O13 0.353385 0.032081 0.224523
#
# Coordination Sequence:
#
# PCOD8028601 Si02
#       6
#     2   2   2   2   2   2
#     4   9  20  38  66 109 138 178 235 307 352 419
#     4  11  25  48  75 105 148 194 238 296 370 428
#     4  12  29  48  69 110 153 192 236 297 373 432
#     4  11  23  44  76 102 140 191 246 296 354 431
#     4  10  25  48  74 105 145 192 244 299 353 438
#     4   9  19  40  70 107 138 178 245 302 355 407
#
# _framework density 25.224077000000001
#
# number of rings (size 3 to 8) (size 9 to 14) (size 15 to 20)
#    0.000    1.667    0.000    3.500    7.000    2.667 
#    6.000    0.000    0.000    0.000    0.000    0.000 
#    0.000    0.000    0.000    0.000    0.000    0.000 
#
# Total GULP energy -148675.108309 kJ/mol
# GULP energy per Si atom -12389.592359 kJ/mol
# Density = 2.516667 g / cm^3
# Si number density = 25.224077 Si / 1000 Ang^3
#
#
#
# Elastic Constant Matrix: (Units=GPa)
#
#
# Indices 1 2 3 4 5 6 
#
# 1 173.7738 79.1538 26.4791 -12.1291 27.0008 -43.9405
# 2 79.1538 156.7647 31.4499 -3.6591 -2.6625 -26.4089
# 3 26.4791 31.4499 82.4203 -0.2565 -6.0393 -17.8299
# 4 -12.1291 -3.6591 -0.2565 28.3183 -20.0554 6.3009
# 5 27.0008 -2.6625 -6.0393 -20.0554 44.2207 -15.9135
# 6 -43.9405 -26.4089 -17.8299 6.3009 -15.9135 47.8164
#
#
#
# Elastic Compliance Matrix: (Units=1/GPa)
#
#
# Indices 1 2 3 4 5 6 
#
# 1 0.009613 -0.003974 -0.000904 -0.000977 -0.004955 0.004782
# 2 -0.003974 0.009152 -0.001423 0.002219 0.004542 0.002091
# 3 -0.000904 -0.001423 0.014506 0.002157 0.005326 0.005280
# 4 -0.000977 0.002219 0.002157 0.053061 0.026108 0.002829
# 5 -0.004955 0.004542 0.005326 0.026108 0.042286 0.010574
# 6 0.004782 0.002091 0.005280 0.002829 0.010574 0.031578
#
#
# Mechanical properties :
#
#
# Convention : Reuss Voigt Hill
#
# Bulk Modulus (GPa) = 48.38139 76.34715 62.36427
# Shear Modulus (GPa) = 27.82590 42.46280 35.14435
#
# Velocity S-wave (km/s) = 3.32497 4.10741 3.73672
# Velocity P-wave (km/s) = 5.82777 7.26826 6.58751
#
# Compressibility (1/GPa) = 0.02066910
#
# Stress axis : x y z
#
# Youngs Moduli (GPa) = 104.02208 109.26087 68.93843
#
# Poissons Ratio (x) = 0.43421 0.06230
# Poissons Ratio (y) = 0.41339 0.09813
# Poissons Ratio (z) = 0.09400 0.15553
#
# Static dielectric constant tensor:
#      x y z
#    x 4.810850 -0.464350 0.299570 
#    y -0.464350 4.460240 0.068870 
#    z 0.299570 0.068870 4.766450 
# 
# 
# High freq. dielectric constant tensor:
#      x y z
#    x 2.018030 -0.031730 0.021880 
#    y -0.031730 1.998690 0.008660 
#    z 0.021880 0.008660 2.004740 
# 
# From -- ./inp_files/258243.got.cif
#   From: 2010.06.25/outbox.cif.g09.slc.cpg/sg2_130_cif.got.tgz:258243.got - 2010.06.27 13:26:56.
