data_PCOD8028322
_publ_section_title
;
Structure prediction by ZEFSAII (Michael W. Deem and Ramdas Pophale) SiO2 
 PCOD8028322
Probable space group: P -1
;
_chemical_formula_sum "Si O2"
_cell_formula_units_Z 16
_cell_length_a 14.994928
_cell_length_b 18.677317
_cell_length_c 11.930875
_cell_angle_alpha 30.331093
_cell_angle_beta 52.451065
_cell_angle_gamma 30.125287
_cell_volume 712.295965
_symmetry_space_group_name_H-M "P -1"
_symmetry_group_IT_number 2
_symmetry_cell_setting 'triclinic'
loop_
_space_group_symop_operation_xyz
x,y,z
-x,-y,-z
loop_
_atom_site_type_symbol
_atom_site_label
_atom_site_fract_x
_atom_site_fract_y
_atom_site_fract_z
Si Si1 0.167365 0.699815 0.259279
Si Si2 0.671940 0.488625 0.844650
Si Si3 0.330875 0.557915 0.565334
Si Si4 0.952526 0.987850 0.431907
Si Si5 0.780281 0.904136 0.591518
Si Si6 0.627377 0.803361 0.956955
Si Si7 0.978049 0.409911 0.387984
Si Si8 0.826897 0.616226 0.551679
O O1 0.323542 0.563364 0.219635
O O2 0.296714 0.547817 0.478742
O O3 0.050915 0.671249 0.377392
O O4 0.000000 0.000000 0.000000
O O5 0.847239 0.425747 0.807018
O O6 0.452859 0.782441 0.660411
O O7 0.737007 0.288339 0.144075
O O8 0.500000 0.500000 0.500000
O O9 0.391298 0.342512 0.869206
O O10 0.137234 0.830624 0.414852
O O11 0.911940 0.861022 0.638139
O O12 0.000000 0.000000 0.500000
O O13 0.774725 0.742591 0.843728
O O14 0.898288 0.799446 0.524984
O O15 0.393557 0.115378 0.705413
O O16 0.744584 0.704708 0.121074
O O17 0.130570 0.369711 0.374072
O O18 0.000000 0.500000 0.500000
#
# Coordination Sequence:
#
# PCOD8028322 Si02
#       8
#     2   2   2   2   2   2   2   2
#     4  11  21  43  70  95 137 187 228 283 350 409
#     4  11  25  45  67 105 137 179 241 284 355 417
#     4  11  26  44  69 106 134 182 235 289 349 416
#     4  12  27  44  67 103 141 184 228 290 352 411
#     4  11  24  48  69  99 140 188 229 286 352 425
#     4  10  25  45  71 102 138 180 240 277 354 416
#     4  11  23  44  73  98 139 187 233 288 349 418
#     4  11  25  42  70 104 137 179 228 296 347 410
#
# _framework density 22.462571000000001
#
# number of rings (size 3 to 8) (size 9 to 14) (size 15 to 20)
#    0.000    1.000    5.000    0.750    7.000    3.500 
#    2.250    0.000    0.000    0.000    0.000    0.000 
#    0.000    0.000    0.000    0.000    0.000    0.000 
#
# Total GULP energy -198233.687214 kJ/mol
# GULP energy per Si atom -12389.605451 kJ/mol
# Density = 2.241145 g / cm^3
# Si number density = 22.462571 Si / 1000 Ang^3
#
#
#
# Elastic Constant Matrix: (Units=GPa)
#
#
# Indices 1 2 3 4 5 6 
#
# 1 123.9934 38.0548 28.4605 8.2739 -8.3946 -0.2153
# 2 38.0548 72.6600 21.2174 6.7944 5.6975 -3.0711
# 3 28.4605 21.2174 97.7623 10.2837 -5.8494 -7.4000
# 4 8.2739 6.7944 10.2837 31.0353 -7.8730 -2.1772
# 5 -8.3946 5.6975 -5.8494 -7.8730 39.7510 9.2432
# 6 -0.2153 -3.0711 -7.4000 -2.1772 9.2432 46.0380
#
#
#
# Elastic Compliance Matrix: (Units=1/GPa)
#
#
# Indices 1 2 3 4 5 6 
#
# 1 0.010245 -0.005086 -0.001755 -0.000401 0.002824 -0.001160
# 2 -0.005086 0.017812 -0.002246 -0.002932 -0.004923 0.001653
# 3 -0.001755 -0.002246 0.011658 -0.002595 0.000821 0.001428
# 4 -0.000401 -0.002932 -0.002595 0.035603 0.007088 -0.000354
# 5 0.002824 -0.004923 0.000821 0.007088 0.029317 -0.005734
# 6 -0.001160 0.001653 0.001428 -0.000354 -0.005734 0.023190
#
#
# Mechanical properties :
#
#
# Convention : Reuss Voigt Hill
#
# Bulk Modulus (GPa) = 46.42547 52.20901 49.31724
# Shear Modulus (GPa) = 32.64149 37.14372 34.89261
#
# Velocity S-wave (km/s) = 3.81616 4.07084 3.94555
# Velocity P-wave (km/s) = 6.33484 6.73712 6.53907
#
# Compressibility (1/GPa) = 0.02153990
#
# Stress axis : x y z
#
# Youngs Moduli (GPa) = 97.61122 56.14053 85.78161
#
# Poissons Ratio (x) = 0.28553 0.15057
# Poissons Ratio (y) = 0.49645 0.19268
# Poissons Ratio (z) = 0.17133 0.12610
#
# Static dielectric constant tensor:
#      x y z
#    x 3.497080 -0.739330 -0.154450 
#    y -0.739330 4.255850 0.794730 
#    z -0.154450 0.794730 5.530820 
# 
# 
# High freq. dielectric constant tensor:
#      x y z
#    x 1.888700 -0.011450 -0.019050 
#    y -0.011450 1.886940 0.006410 
#    z -0.019050 0.006410 1.886780 
# 
# From -- ./inp_files/456905.got.cif
#   From: 2010.06.25/outbox.cif.g09.slc.cpg/sg2_229_cif.got.tgz:456905.got - 2010.06.27 13:26:56.
