data_PCOD8028879
_publ_section_title
;
Structure prediction by ZEFSAII (Michael W. Deem and Ramdas Pophale) SiO2 
 PCOD8028879
Probable space group: P -1
;
_chemical_formula_sum "Si O2"
_cell_formula_units_Z 14
_cell_length_a 9.487238
_cell_length_b 11.236026
_cell_length_c 11.580763
_cell_angle_alpha 48.605135
_cell_angle_beta 47.335892
_cell_angle_gamma 54.546650
_cell_volume 661.226525
_symmetry_space_group_name_H-M "P -1"
_symmetry_group_IT_number 2
_symmetry_cell_setting 'triclinic'
loop_
_space_group_symop_operation_xyz
x,y,z
-x,-y,-z
loop_
_atom_site_type_symbol
_atom_site_label
_atom_site_fract_x
_atom_site_fract_y
_atom_site_fract_z
Si Si1 0.720888 0.067732 0.622095
Si Si2 0.436906 0.860852 0.916003
Si Si3 0.140536 0.749675 0.769476
Si Si4 0.103161 0.906292 0.256688
Si Si5 0.860864 0.702316 0.782852
Si Si6 0.121896 0.361948 0.438736
Si Si7 0.453224 0.647770 0.841973
O O1 0.718864 0.188046 0.439354
O O2 0.770224 0.147575 0.662703
O O3 0.500434 0.033752 0.773968
O O4 0.879732 0.891866 0.624405
O O5 0.632202 0.716741 0.936438
O O6 0.383515 0.817582 0.842975
O O7 0.254644 0.859058 0.098292
O O8 0.275964 0.633976 0.862748
O O9 0.012560 0.639699 0.843766
O O10 0.993728 0.901080 0.817090
O O11 0.935278 0.807671 0.393742
O O12 0.918902 0.595188 0.703104
O O13 0.353376 0.345021 0.344749
O O14 0.000000 0.500000 0.500000
O O15 0.500000 0.500000 0.000000
#
# Coordination Sequence:
#
# PCOD8028879 Si02
#       7
#     2   2   2   2   2   2   2
#     4   9  17  34  61  93 118 147 188 246 294 344
#     4   9  20  34  60  91 128 150 186 240 297 355
#     4  11  19  36  66  86 120 154 200 247 290 352
#     4  11  18  35  66  95 120 151 194 241 295 354
#     4   8  17  36  58  92 116 156 187 236 298 350
#     4  11  21  38  64  82 121 164 193 235 302 357
#     4  11  25  43  55  83 122 163 200 246 303 344
#
# _framework density 21.172775000000001
#
# number of rings (size 3 to 8) (size 9 to 14) (size 15 to 20)
#    0.857    1.143    2.857    2.143    0.000    2.857 
#    0.000    5.000    0.000    0.000    0.000    0.000 
#    0.000    0.000    0.000    0.000    0.000    0.000 
#
# Total GULP energy -173488.991760 kJ/mol
# GULP energy per Si atom -12392.070840 kJ/mol
# Density = 2.112458 g / cm^3
# Si number density = 21.172775 Si / 1000 Ang^3
#
#
#
# Elastic Constant Matrix: (Units=GPa)
#
#
# Indices 1 2 3 4 5 6 
#
# 1 140.4466 30.7223 14.2017 17.0457 8.2017 -13.9070
# 2 30.7223 70.7561 26.7768 29.8905 13.5022 7.3342
# 3 14.2017 26.7768 75.1483 31.3306 -0.3783 -18.7115
# 4 17.0457 29.8905 31.3306 39.7767 -3.1045 5.7179
# 5 8.2017 13.5022 -0.3783 -3.1045 28.7445 -2.1280
# 6 -13.9070 7.3342 -18.7115 5.7179 -2.1280 25.6946
#
#
#
# Elastic Compliance Matrix: (Units=1/GPa)
#
#
# Indices 1 2 3 4 5 6 
#
# 1 0.009638 -0.004626 0.005830 -0.007045 -0.000349 0.012321
# 2 -0.004626 0.028747 -0.008130 -0.012190 -0.014728 -0.015136
# 3 0.005830 -0.008130 0.039328 -0.033189 0.002174 0.041682
# 4 -0.007045 -0.012190 -0.033189 0.070015 0.011967 -0.039092
# 5 -0.000349 -0.014728 0.002174 0.011967 0.043613 0.006547
# 6 0.012321 -0.015136 0.041682 -0.039092 0.006547 0.089503
#
#
# Mechanical properties :
#
#
# Convention : Reuss Voigt Hill
#
# Bulk Modulus (GPa) = 15.65852 47.75029 31.70440
# Shear Modulus (GPa) = 15.82367 33.15318 24.48843
#
# Velocity S-wave (km/s) = 2.73675 3.96136 3.40457
# Velocity P-wave (km/s) = 4.17110 6.59734 5.51919
#
# Compressibility (1/GPa) = 0.06386301
#
# Stress axis : x y z
#
# Youngs Moduli (GPa) = 103.75741 34.78606 25.42689
#
# Poissons Ratio (x) = 0.16090 -0.14824
# Poissons Ratio (y) = 0.47993 0.20671
# Poissons Ratio (z) = -0.60490 0.28280
#
# Static dielectric constant tensor:
#      x y z
#    x 4.105160 0.330720 -0.265910 
#    y 0.330720 3.395300 0.144220 
#    z -0.265910 0.144220 3.644930 
# 
# 
# High freq. dielectric constant tensor:
#      x y z
#    x 1.839400 0.028140 -0.022080 
#    y 0.028140 1.786570 0.016870 
#    z -0.022080 0.016870 1.823510 
# 
# From -- ./inp_files/388948.got.cif
#   From: 2010.06.25/outbox.cif.g09.slc.cpg/sg2_195_cif.got.tgz:388948.got - 2010.06.27 13:26:56.
