data_PCOD8028739
_publ_section_title
;
Structure prediction by ZEFSAII (Michael W. Deem and Ramdas Pophale) SiO2 
 PCOD8028739
Probable space group: P -1
;
_chemical_formula_sum "Si O2"
_cell_formula_units_Z 16
_cell_length_a 14.585688
_cell_length_b 12.236280
_cell_length_c 9.329604
_cell_angle_alpha 132.238549
_cell_angle_beta 69.034209
_cell_angle_gamma 72.181213
_cell_volume 704.961223
_symmetry_space_group_name_H-M "P -1"
_symmetry_group_IT_number 2
_symmetry_cell_setting 'triclinic'
loop_
_space_group_symop_operation_xyz
x,y,z
-x,-y,-z
loop_
_atom_site_type_symbol
_atom_site_label
_atom_site_fract_x
_atom_site_fract_y
_atom_site_fract_z
Si Si1 0.162867 0.716913 0.678249
Si Si2 0.728681 0.915187 0.764183
Si Si3 0.498644 0.431520 0.285419
Si Si4 0.758510 0.547355 0.316514
Si Si5 0.963978 0.403051 0.836828
Si Si6 0.734063 0.601241 0.905754
Si Si7 0.591134 0.047055 0.252591
Si Si8 0.456279 0.423710 0.849946
O O1 0.319246 0.635344 0.498747
O O2 0.175881 0.635424 0.757933
O O3 0.159985 0.589485 0.450835
O O4 0.000000 0.000000 0.000000
O O5 0.743151 0.732445 0.542318
O O6 0.874916 0.838463 0.549604
O O7 0.725920 0.918480 0.942843
O O8 0.567408 0.183078 0.030732
O O9 0.500000 0.500000 0.500000
O O10 0.608101 0.407873 0.103677
O O11 0.583008 0.712988 0.506222
O O12 0.887181 0.374641 0.962917
O O13 0.837618 0.582004 0.936803
O O14 0.000000 0.500000 0.000000
O O15 0.599477 0.869747 0.151278
O O16 0.667170 0.542380 0.980203
O O17 0.607282 0.145039 0.461211
O O18 0.500000 0.500000 0.000000
#
# Coordination Sequence:
#
# PCOD8028739 Si02
#       8
#     2   2   2   2   2   2   2   2
#     4  12  27  46  74 110 154 199 255 312 383 452
#     4  11  23  43  77 106 141 197 251 309 363 455
#     4  12  25  46  70 107 149 198 253 301 379 452
#     4  11  22  48  75 110 145 196 250 311 379 446
#     4  10  26  46  70 112 151 190 248 315 379 435
#     4  12  26  48  75 113 149 201 259 312 376 446
#     4  12  23  45  82 106 148 198 259 309 368 456
#     4  12  26  43  69 113 152 188 243 316 376 434
#
# _framework density 22.696282
#
# number of rings (size 3 to 8) (size 9 to 14) (size 15 to 20)
#    0.000    0.500    6.250    1.500    1.750    2.500 
#    4.500    1.250    0.000    0.000    0.000    0.000 
#    0.000    0.000    0.000    0.000    0.000    0.000 
#
# Total GULP energy -198235.309975 kJ/mol
# GULP energy per Si atom -12389.706873 kJ/mol
# Density = 2.264462 g / cm^3
# Si number density = 22.696282 Si / 1000 Ang^3
#
#
#
# Elastic Constant Matrix: (Units=GPa)
#
#
# Indices 1 2 3 4 5 6 
#
# 1 99.5244 51.7676 60.9935 -0.3420 10.5025 -13.5247
# 2 51.7676 166.9169 68.3678 -2.5350 -4.3364 4.5169
# 3 60.9935 68.3678 136.1287 -13.5096 2.6284 -1.4935
# 4 -0.3420 -2.5350 -13.5096 56.4537 1.4610 2.6971
# 5 10.5025 -4.3364 2.6284 1.4610 41.2116 -3.7998
# 6 -13.5247 4.5169 -1.4935 2.6971 -3.7998 38.8360
#
#
#
# Elastic Compliance Matrix: (Units=1/GPa)
#
#
# Indices 1 2 3 4 5 6 
#
# 1 0.016273 -0.002913 -0.005859 -0.001609 -0.003511 0.005549
# 2 -0.002913 0.008161 -0.002874 -0.000290 0.001620 -0.001895
# 3 -0.005859 -0.002874 0.011662 0.002688 0.000220 -0.001423
# 4 -0.001609 -0.000290 0.002688 0.018434 -0.000608 -0.001763
# 5 -0.003511 0.001620 0.000220 -0.000608 0.025442 0.001129
# 6 0.005549 -0.001895 -0.001423 -0.001763 0.001129 0.028080
#
#
# Mechanical properties :
#
#
# Convention : Reuss Voigt Hill
#
# Bulk Modulus (GPa) = 78.10954 84.98089 81.54521
# Shear Modulus (GPa) = 36.87010 42.06297 39.46654
#
# Velocity S-wave (km/s) = 4.03488 4.30967 4.17453
# Velocity P-wave (km/s) = 7.49646 7.89229 7.69692
#
# Compressibility (1/GPa) = 0.01280253
#
# Stress axis : x y z
#
# Youngs Moduli (GPa) = 61.45283 122.53967 85.75036
#
# Poissons Ratio (x) = 0.35692 0.50243
# Poissons Ratio (y) = 0.17899 0.24648
# Poissons Ratio (z) = 0.36006 0.35222
#
# Static dielectric constant tensor:
#      x y z
#    x 0.000000 0.000000 0.000000 
#    y 0.000000 0.000000 0.000000 
#    z 0.000000 0.000000 0.000000 
# 
# 
# High freq. dielectric constant tensor:
#      x y z
#    x 1.887770 0.006910 0.018230 
#    y 0.006910 1.907870 -0.029780 
#    z 0.018230 -0.029780 1.894720 
# 
# From -- ./inp_files/308511.got.cif
#   From: 2010.06.25/outbox.cif.g09.slc.cpg/sg2_155_cif.got.tgz:308511.got - 2010.06.27 13:26:56.
