data_PCOD8028178
_publ_section_title
;
Structure prediction by ZEFSAII (Michael W. Deem and Ramdas Pophale) SiO2 
 PCOD8028178
Probable space group: P -1
;
_chemical_formula_sum "Si O2"
_cell_formula_units_Z 16
_cell_length_a 27.942232
_cell_length_b 8.868545
_cell_length_c 5.207219
_cell_angle_alpha 98.163461
_cell_angle_beta 78.274598
_cell_angle_gamma 149.248526
_cell_volume 644.650210
_symmetry_space_group_name_H-M "P -1"
_symmetry_group_IT_number 2
_symmetry_cell_setting 'triclinic'
loop_
_space_group_symop_operation_xyz
x,y,z
-x,-y,-z
loop_
_atom_site_type_symbol
_atom_site_label
_atom_site_fract_x
_atom_site_fract_y
_atom_site_fract_z
Si Si1 0.636862 0.738410 0.862395
Si Si2 0.916752 0.877620 0.682416
Si Si3 0.912704 0.204078 0.680884
Si Si4 0.370701 0.856636 0.717280
Si Si5 0.822875 0.521037 0.220196
Si Si6 0.546919 0.793276 0.788201
Si Si7 0.716341 0.695461 0.470516
Si Si8 0.809820 0.159533 0.090062
O O1 0.563666 0.544465 0.135261
O O2 0.636246 0.567423 0.695022
O O3 0.607468 0.797886 0.718427
O O4 0.746831 0.057511 0.898066
O O5 0.835305 0.652756 0.498446
O O6 0.943585 0.125945 0.749012
O O7 0.888361 0.744580 0.963008
O O8 0.000000 0.000000 0.500000
O O9 0.000000 0.500000 0.500000
O O10 0.814485 0.922126 0.564746
O O11 0.896911 0.285591 0.942058
O O12 0.286605 0.754956 0.801376
O O13 0.328082 0.574760 0.666225
O O14 0.424713 0.016450 0.966029
O O15 0.440895 0.086170 0.463448
O O16 0.850288 0.419956 0.242775
O O17 0.737683 0.869957 0.264546
#
# Coordination Sequence:
#
# PCOD8028178 Si02
#       8
#     2   2   2   2   2   2   2   2
#     4  10  25  44  69 102 138 178 232 287 341 407
#     4  12  27  47  72 105 136 179 235 290 342 410
#     4  11  26  46  68 101 140 181 228 286 346 412
#     4  12  25  45  71 101 140 186 228 282 346 407
#     4  12  25  46  73 100 140 183 232 281 346 410
#     4  11  26  45  72 103 138 183 234 286 339 411
#     4  11  26  44  70  98 140 182 229 282 348 415
#     4  11  25  44  72  98 138 186 228 282 349 409
#
# _framework density 24.819661
#
# number of rings (size 3 to 8) (size 9 to 14) (size 15 to 20)
#    0.000    0.750    2.500    3.375   10.500    2.500 
#    0.000    0.000    0.000    0.000    0.000    0.000 
#    0.000    0.000    0.000    0.000    0.000    0.000 
#
# Total GULP energy -198381.381211 kJ/mol
# GULP energy per Si atom -12398.836326 kJ/mol
# Density = 2.476317 g / cm^3
# Si number density = 24.819661 Si / 1000 Ang^3
#
#
#
# Elastic Constant Matrix: (Units=GPa)
#
#
# Indices 1 2 3 4 5 6 
#
# 1 118.3284 29.1390 30.7524 -8.6653 -26.0022 -31.3424
# 2 29.1390 68.3140 22.9648 -10.1004 -3.7882 -32.1675
# 3 30.7524 22.9648 97.0925 -5.9956 -7.5209 -19.0277
# 4 -8.6653 -10.1004 -5.9956 43.3082 -4.0675 -0.9434
# 5 -26.0022 -3.7882 -7.5209 -4.0675 38.5660 -0.2638
# 6 -31.3424 -32.1675 -19.0277 -0.9434 -0.2638 53.8042
#
#
#
# Elastic Compliance Matrix: (Units=1/GPa)
#
#
# Indices 1 2 3 4 5 6 
#
# 1 0.012996 -0.000969 -0.001755 0.003089 0.008694 0.006467
# 2 -0.000969 0.022346 -0.002147 0.005149 0.001749 0.012135
# 3 -0.001755 -0.002147 0.011876 0.000931 0.001033 0.001915
# 4 0.003089 0.005149 0.000931 0.025680 0.005517 0.005684
# 5 0.008694 0.001749 0.001033 0.005517 0.032793 0.006733
# 6 0.006467 0.012135 0.001915 0.005684 0.006733 0.030418
#
#
# Mechanical properties :
#
#
# Convention : Reuss Voigt Hill
#
# Bulk Modulus (GPa) = 26.68485 49.93857 38.31171
# Shear Modulus (GPa) = 31.57722 40.52760 36.05241
#
# Velocity S-wave (km/s) = 3.57075 4.04528 3.81540
# Velocity P-wave (km/s) = 5.27022 6.47945 5.90587
#
# Compressibility (1/GPa) = 0.03747445
#
# Stress axis : x y z
#
# Youngs Moduli (GPa) = 76.94919 44.75162 84.20312
#
# Poissons Ratio (x) = 0.04338 0.14780
# Poissons Ratio (y) = 0.07458 0.18077
# Poissons Ratio (z) = 0.13507 0.09607
#
# Static dielectric constant tensor:
#      x y z
#    x 3.312340 0.683990 1.582480 
#    y 0.683990 4.060370 -0.772900 
#    z 1.582480 -0.772900 2.092220 
# 
# 
# High freq. dielectric constant tensor:
#      x y z
#    x 1.999600 -0.005360 -0.015940 
#    y -0.005360 1.990750 0.003290 
#    z -0.015940 0.003290 1.988180 
# 
# From -- ./inp_files/37928.got.cif
#   From: 2010.06.25/outbox.cif.g09.slc.cpg/sg2_19_cif.got.tgz:37928.got - 2010.06.27 13:26:56.
