data_PCOD8028947
_publ_section_title
;
Structure prediction by ZEFSAII (Michael W. Deem and Ramdas Pophale) SiO2 
 PCOD8028947
Probable space group: P -1
;
_chemical_formula_sum "Si O2"
_cell_formula_units_Z 14
_cell_length_a 11.760589
_cell_length_b 6.546546
_cell_length_c 13.906189
_cell_angle_alpha 82.388765
_cell_angle_beta 123.637298
_cell_angle_gamma 59.437747
_cell_volume 626.544204
_symmetry_space_group_name_H-M "P -1"
_symmetry_group_IT_number 2
_symmetry_cell_setting 'triclinic'
loop_
_space_group_symop_operation_xyz
x,y,z
-x,-y,-z
loop_
_atom_site_type_symbol
_atom_site_label
_atom_site_fract_x
_atom_site_fract_y
_atom_site_fract_z
Si Si1 0.882695 0.039362 0.237294
Si Si2 0.740500 0.416643 0.665470
Si Si3 0.519163 0.272988 0.645971
Si Si4 0.806730 0.606060 0.862248
Si Si5 0.682313 0.452782 0.280931
Si Si6 0.650325 0.910336 0.154465
Si Si7 0.364401 0.512796 0.066698
O O1 0.847047 0.132550 0.328346
O O2 0.825226 0.863388 0.198420
O O3 0.746024 0.340943 0.094667
O O4 0.098331 0.843978 0.314934
O O5 0.663238 0.312542 0.701397
O O6 0.568387 0.690175 0.501802
O O7 0.827180 0.504107 0.768425
O O8 0.337110 0.531039 0.613253
O O9 0.633633 0.956343 0.763437
O O10 0.773346 0.436087 0.920316
O O11 0.000000 0.500000 0.000000
O O12 0.741198 0.619470 0.268106
O O13 0.463750 0.624381 0.134264
O O14 0.538447 0.167997 0.162387
O O15 0.500000 0.000000 0.000000
#
# Coordination Sequence:
#
# PCOD8028947 Si02
#       7
#     2   2   2   2   2   2   2
#     4  11  24  37  63 103 133 167 216 277 326 391
#     4  11  27  47  65  96 138 175 223 271 327 396
#     4  11  25  48  71  90 133 186 217 269 332 394
#     4  12  26  40  70 102 129 171 225 276 327 393
#     4  11  21  40  67  95 129 172 219 264 330 389
#     4  11  19  35  62  93 133 172 207 269 334 379
#     4  11  21  36  62  99 130 165 214 273 326 383
#
# _framework density 22.344792000000002
#
# number of rings (size 3 to 8) (size 9 to 14) (size 15 to 20)
#    0.000    0.857    5.714    2.143    4.000    2.857 
#    0.000    0.714    0.000    0.000    0.000    0.000 
#    0.000    0.000    0.000    0.000    0.000    0.000 
#
# Total GULP energy -173525.136997 kJ/mol
# GULP energy per Si atom -12394.652643 kJ/mol
# Density = 2.229393 g / cm^3
# Si number density = 22.344792 Si / 1000 Ang^3
#
#
#
# Elastic Constant Matrix: (Units=GPa)
#
#
# Indices 1 2 3 4 5 6 
#
# 1 136.5709 47.1803 17.6886 1.8376 -7.2410 -0.3617
# 2 47.1803 97.1034 26.0119 12.4450 -0.5321 -4.4112
# 3 17.6886 26.0119 59.1115 18.8773 -6.5455 5.3384
# 4 1.8376 12.4450 18.8773 29.6982 -2.1835 -3.1937
# 5 -7.2410 -0.5321 -6.5455 -2.1835 19.2165 0.1125
# 6 -0.3617 -4.4112 5.3384 -3.1937 0.1125 41.3174
#
#
#
# Elastic Compliance Matrix: (Units=1/GPa)
#
#
# Indices 1 2 3 4 5 6 
#
# 1 0.009130 -0.004400 -0.001150 0.002236 0.003181 -0.000077
# 2 -0.004400 0.014064 -0.004490 -0.002800 -0.003127 0.001835
# 3 -0.001150 -0.004490 0.024797 -0.013857 0.006342 -0.004782
# 4 0.002236 -0.002800 -0.013857 0.044120 0.001030 0.004919
# 5 0.003181 -0.003127 0.006342 0.001030 0.055435 -0.001197
# 6 -0.000077 0.001835 -0.004782 0.004919 -0.001197 0.025399
#
#
# Mechanical properties :
#
#
# Convention : Reuss Voigt Hill
#
# Bulk Modulus (GPa) = 35.83109 52.72751 44.27930
# Shear Modulus (GPa) = 24.71224 31.50674 28.10949
#
# Velocity S-wave (km/s) = 3.32919 3.75911 3.55066
# Velocity P-wave (km/s) = 5.55413 6.51841 6.05549
#
# Compressibility (1/GPa) = 0.02790872
#
# Stress axis : x y z
#
# Youngs Moduli (GPa) = 109.53197 71.10250 40.32825
#
# Poissons Ratio (x) = 0.31288 0.04640
# Poissons Ratio (y) = 0.48198 0.18107
# Poissons Ratio (z) = 0.12601 0.31925
#
# Static dielectric constant tensor:
#      x y z
#    x 4.253100 0.187540 -0.036490 
#    y 0.187540 4.202800 0.227530 
#    z -0.036490 0.227530 3.714040 
# 
# 
# High freq. dielectric constant tensor:
#      x y z
#    x 1.893720 0.001060 -0.003290 
#    y 0.001060 1.875200 0.016030 
#    z -0.003290 0.016030 1.854600 
# 
# From -- ./inp_files/68273.got.cif
#   From: 2010.06.25/outbox.cif.g09.slc.cpg/sg2_35_cif.got.tgz:68273.got - 2010.06.27 13:26:56.
