data_PCOD8028247
_publ_section_title
;
Structure prediction by ZEFSAII (Michael W. Deem and Ramdas Pophale) SiO2 
 PCOD8028247
Probable space group: P -1
;
_chemical_formula_sum "Si O2"
_cell_formula_units_Z 12
_cell_length_a 14.741051
_cell_length_b 11.625119
_cell_length_c 7.876974
_cell_angle_alpha 75.555516
_cell_angle_beta 92.676273
_cell_angle_gamma 30.382047
_cell_volume 558.680971
_symmetry_space_group_name_H-M "P -1"
_symmetry_group_IT_number 2
_symmetry_cell_setting 'triclinic'
loop_
_space_group_symop_operation_xyz
x,y,z
-x,-y,-z
loop_
_atom_site_type_symbol
_atom_site_label
_atom_site_fract_x
_atom_site_fract_y
_atom_site_fract_z
Si Si1 0.692874 0.655089 0.312121
Si Si2 0.307669 0.432509 0.275950
Si Si3 0.464409 0.503471 0.307618
Si Si4 0.853336 0.954881 0.092272
Si Si5 0.933123 0.953845 0.437387
Si Si6 0.388427 0.983632 0.855676
O O1 0.633228 0.692954 0.488127
O O2 0.904512 0.339472 0.378411
O O3 0.733209 0.747839 0.268118
O O4 0.506698 0.835526 0.101927
O O5 0.319824 0.560094 0.248291
O O6 0.459367 0.206322 0.224258
O O7 0.067646 0.680193 0.101870
O O8 0.500000 0.500000 0.500000
O O9 0.692700 0.204114 0.362929
O O10 0.351140 0.751949 0.126285
O O11 0.787843 0.911152 0.198418
O O12 0.940978 0.948762 0.236479
O O13 0.000000 0.000000 0.500000
#
# Coordination Sequence:
#
# PCOD8028247 Si02
#       6
#     2   2   2   2   2   2
#     4  10  25  45  66 101 132 173 230 271 326 403
#     4  11  24  42  67 101 131 176 221 274 333 395
#     4  12  24  40  65 100 136 170 221 280 329 395
#     4  11  24  43  67 100 129 175 225 266 338 400
#     4  11  23  40  66  94 132 172 215 276 327 388
#     4  11  23  47  70  92 138 178 218 279 329 390
#
# _framework density 21.479163
#
# number of rings (size 3 to 8) (size 9 to 14) (size 15 to 20)
#    0.000    1.000    1.667    5.500    4.667    2.667 
#    3.000    1.667    0.000    0.000    0.000    0.000 
#    0.000    0.000    0.000    0.000    0.000    0.000 
#
# Total GULP energy -148749.768727 kJ/mol
# GULP energy per Si atom -12395.814061 kJ/mol
# Density = 2.143028 g / cm^3
# Si number density = 21.479163 Si / 1000 Ang^3
#
#
#
# Elastic Constant Matrix: (Units=GPa)
#
#
# Indices 1 2 3 4 5 6 
#
# 1 141.4802 69.1133 50.5132 -14.5752 -8.5293 0.7712
# 2 69.1133 120.7150 47.5127 -24.6037 -4.3036 -2.8031
# 3 50.5132 47.5127 99.5855 -10.6636 -17.2577 10.2725
# 4 -14.5752 -24.6037 -10.6636 37.9259 3.2825 4.7658
# 5 -8.5293 -4.3036 -17.2577 3.2825 29.3762 -2.3032
# 6 0.7712 -2.8031 10.2725 4.7658 -2.3032 42.2540
#
#
#
# Elastic Compliance Matrix: (Units=1/GPa)
#
#
# Indices 1 2 3 4 5 6 
#
# 1 0.010518 -0.004837 -0.002942 -0.000008 0.000636 0.000238
# 2 -0.004837 0.013804 -0.004010 0.006022 -0.002319 0.001173
# 3 -0.002942 -0.004010 0.015078 0.000336 0.007102 -0.003529
# 4 -0.000008 0.006022 0.000336 0.031012 -0.002649 -0.003324
# 5 0.000636 -0.002319 0.007102 -0.002649 0.038394 0.000499
# 6 0.000238 0.001173 -0.003529 -0.003324 0.000499 0.025000
#
#
# Mechanical properties :
#
#
# Convention : Reuss Voigt Hill
#
# Bulk Modulus (GPa) = 63.21140 77.33991 70.27566
# Shear Modulus (GPa) = 30.73929 34.88731 32.81330
#
# Velocity S-wave (km/s) = 3.78712 4.03456 3.91280
# Velocity P-wave (km/s) = 6.97253 7.60189 7.29400
#
# Compressibility (1/GPa) = 0.01581993
#
# Stress axis : x y z
#
# Youngs Moduli (GPa) = 95.07673 72.44404 66.32106
#
# Poissons Ratio (x) = 0.35042 0.19514
# Poissons Ratio (y) = 0.45990 0.26597
# Poissons Ratio (z) = 0.27975 0.29053
#
# Static dielectric constant tensor:
#      x y z
#    x 3.852720 -0.109890 0.082710 
#    y -0.109890 3.676320 0.116690 
#    z 0.082710 0.116690 3.921570 
# 
# 
# High freq. dielectric constant tensor:
#      x y z
#    x 1.848460 0.003640 0.005330 
#    y 0.003640 1.850990 -0.002930 
#    z 0.005330 -0.002930 1.850210 
# 
# From -- ./inp_files/162791.got.cif
#   From: 2010.06.25/outbox.cif.g09.slc.cpg/sg2_82_cif.got.tgz:162791.got - 2010.06.27 13:26:56.
