data_PCOD8028786
_publ_section_title
;
Structure prediction by ZEFSAII (Michael W. Deem and Ramdas Pophale) SiO2 
 PCOD8028786
Probable space group: P -1
;
_chemical_formula_sum "Si O2"
_cell_formula_units_Z 12
_cell_length_a 11.850003
_cell_length_b 10.969612
_cell_length_c 5.115823
_cell_angle_alpha 112.416106
_cell_angle_beta 110.350006
_cell_angle_gamma 53.701055
_cell_volume 488.768230
_symmetry_space_group_name_H-M "P -1"
_symmetry_group_IT_number 2
_symmetry_cell_setting 'triclinic'
loop_
_space_group_symop_operation_xyz
x,y,z
-x,-y,-z
loop_
_atom_site_type_symbol
_atom_site_label
_atom_site_fract_x
_atom_site_fract_y
_atom_site_fract_z
Si Si1 0.512960 0.873982 0.105793
Si Si2 0.983222 0.633038 0.912065
Si Si3 0.784403 0.418716 0.272775
Si Si4 0.395875 0.449881 0.272987
Si Si5 0.258021 0.124641 0.405978
Si Si6 0.999170 0.146807 0.511017
O O1 0.664339 0.803196 0.314027
O O2 0.378750 0.955257 0.259044
O O3 0.511557 0.734247 0.850667
O O4 0.500000 0.000000 0.000000
O O5 0.091386 0.549794 0.686400
O O6 0.822299 0.751916 0.789990
O O7 0.000000 0.500000 0.000000
O O8 0.037291 0.732763 0.185047
O O9 0.675195 0.458586 0.979719
O O10 0.713326 0.519655 0.557772
O O11 0.870449 0.234009 0.267411
O O12 0.500000 0.500000 0.500000
O O13 0.151083 0.099014 0.471591
O O14 0.000000 0.000000 0.500000
#
# Coordination Sequence:
#
# PCOD8028786 Si02
#       6
#     2   2   2   2   2   2
#     4  11  27  47  76 113 159 203 261 319 388 472
#     4  11  26  47  81 114 154 201 258 326 390 465
#     4  11  27  51  78 115 156 203 262 319 394 461
#     4  12  29  52  79 112 157 210 262 321 390 467
#     4  10  26  47  78 117 155 206 257 322 395 461
#     4  11  26  48  79 114 156 201 260 327 388 462
#
# _framework density 24.551514999999998
#
# number of rings (size 3 to 8) (size 9 to 14) (size 15 to 20)
#    0.000    1.000    1.667    1.500   11.667    8.000 
#    3.000    2.500    0.000    0.000    0.000    0.000 
#    0.000    0.000    0.000    0.000    0.000    0.000 
#
# Total GULP energy -148809.121424 kJ/mol
# GULP energy per Si atom -12400.760119 kJ/mol
# Density = 2.449563 g / cm^3
# Si number density = 24.551515 Si / 1000 Ang^3
#
#
#
# Elastic Constant Matrix: (Units=GPa)
#
#
# Indices 1 2 3 4 5 6 
#
# 1 111.9977 72.1670 45.4141 14.0188 -9.8172 -2.2512
# 2 72.1670 170.6536 72.8018 -13.8154 10.6543 12.1832
# 3 45.4141 72.8018 130.7476 -3.7043 -0.4331 -1.3137
# 4 14.0188 -13.8154 -3.7043 57.2000 -5.5425 2.0725
# 5 -9.8172 10.6543 -0.4331 -5.5425 52.2945 -0.2371
# 6 -2.2512 12.1832 -1.3137 2.0725 -0.2371 47.8464
#
#
#
# Elastic Compliance Matrix: (Units=1/GPa)
#
#
# Indices 1 2 3 4 5 6 
#
# 1 0.014624 -0.006254 -0.001702 -0.004956 0.003491 0.002466
# 2 -0.006254 0.010862 -0.003814 0.003736 -0.003038 -0.003342
# 3 -0.001702 -0.003814 0.010382 0.000181 0.000568 0.001171
# 4 -0.004956 0.003736 0.000181 0.019723 0.000391 -0.002032
# 5 0.003491 -0.003038 0.000568 0.000391 0.020448 0.001038
# 6 0.002466 -0.003342 0.001171 -0.002032 0.001038 0.021992
#
#
# Mechanical properties :
#
#
# Convention : Reuss Voigt Hill
#
# Bulk Modulus (GPa) = 81.10311 88.24052 84.67182
# Shear Modulus (GPa) = 39.78397 46.33594 43.05996
#
# Velocity S-wave (km/s) = 4.02982 4.34901 4.19246
# Velocity P-wave (km/s) = 7.39988 7.82544 7.61563
#
# Compressibility (1/GPa) = 0.01232998
#
# Stress axis : x y z
#
# Youngs Moduli (GPa) = 68.37927 92.06360 96.32389
#
# Poissons Ratio (x) = 0.57574 0.16390
# Poissons Ratio (y) = 0.42763 0.36735
# Poissons Ratio (z) = 0.11635 0.35111
#
# Static dielectric constant tensor:
#      x y z
#    x 4.420040 -0.281370 -0.103410 
#    y -0.281370 4.418250 -0.428280 
#    z -0.103410 -0.428280 3.816140 
# 
# 
# High freq. dielectric constant tensor:
#      x y z
#    x 1.975780 -0.017230 -0.015990 
#    y -0.017230 1.988830 -0.012960 
#    z -0.015990 -0.012960 1.988180 
# 
# From -- ./inp_files/22483.got.cif
#   From: 2010.06.25/outbox.cif.g09.slc.cpg/sg2_12_cif.got.tgz:22483.got - 2010.06.27 13:26:56.
