data_PCOD8028776
_publ_section_title
;
Structure prediction by ZEFSAII (Michael W. Deem and Ramdas Pophale) SiO2 
 PCOD8028776
Probable space group: P -1
;
_chemical_formula_sum "Si O2"
_cell_formula_units_Z 16
_cell_length_a 26.370271
_cell_length_b 18.947431
_cell_length_c 5.066547
_cell_angle_alpha 99.725541
_cell_angle_beta 106.885801
_cell_angle_gamma 17.889316
_cell_volume 692.553575
_symmetry_space_group_name_H-M "P -1"
_symmetry_group_IT_number 2
_symmetry_cell_setting 'triclinic'
loop_
_space_group_symop_operation_xyz
x,y,z
-x,-y,-z
loop_
_atom_site_type_symbol
_atom_site_label
_atom_site_fract_x
_atom_site_fract_y
_atom_site_fract_z
Si Si1 0.435281 0.242898 0.645429
Si Si2 0.245012 0.435809 0.971684
Si Si3 0.387021 0.466406 0.789881
Si Si4 0.965730 0.425842 0.432100
Si Si5 0.212540 0.003613 0.829442
Si Si6 0.869709 0.978478 0.775217
Si Si7 0.166870 0.271194 0.297260
Si Si8 0.797501 0.234636 0.800609
O O1 0.401641 0.244541 0.868487
O O2 0.346954 0.435510 0.651207
O O3 0.650009 0.971812 0.747429
O O4 0.336474 0.325646 0.323087
O O5 0.156589 0.471333 0.853352
O O6 0.084370 0.702001 0.845395
O O7 0.268156 0.666573 0.533771
O O8 0.600277 0.205738 0.914562
O O9 0.333067 0.555365 0.062320
O O10 0.827222 0.667482 0.463144
O O11 0.130910 0.244831 0.390248
O O12 0.064706 0.258069 0.721184
O O13 0.242590 0.921266 0.549666
O O14 0.136851 0.048833 0.965367
O O15 0.785262 0.165969 0.787305
O O16 0.000000 0.500000 0.000000
O O17 0.000000 0.000000 0.000000
#
# Coordination Sequence:
#
# PCOD8028776 Si02
#       8
#     2   2   2   2   2   2   2   2
#     4  12  27  45  72 104 143 185 240 288 349 419
#     4  11  26  46  72 104 141 189 233 292 346 426
#     4  12  26  42  71 102 141 182 242 290 349 415
#     4  10  26  47  73 105 142 188 234 285 363 419
#     4  11  25  43  75 101 138 186 233 292 352 424
#     4  11  24  45  71 101 142 184 235 286 359 419
#     4  11  27  46  76 103 145 185 236 292 353 431
#     4  12  26  44  68  98 143 188 232 294 355 415
#
# _framework density 23.102905
#
# number of rings (size 3 to 8) (size 9 to 14) (size 15 to 20)
#    0.000    0.750    0.000    6.375   15.750    4.000 
#    0.000    0.000    0.000    0.000    0.000    0.000 
#    0.000    0.000    0.000    0.000    0.000    0.000 
#
# Total GULP energy -198505.432275 kJ/mol
# GULP energy per Si atom -12406.589517 kJ/mol
# Density = 2.305032 g / cm^3
# Si number density = 23.102905 Si / 1000 Ang^3
#
#
#
# Elastic Constant Matrix: (Units=GPa)
#
#
# Indices 1 2 3 4 5 6 
#
# 1 139.1843 41.2493 35.7026 5.4307 7.4160 10.6339
# 2 41.2493 100.5547 13.3675 10.7830 14.9773 -5.0272
# 3 35.7026 13.3675 105.2369 3.3520 2.0846 3.6024
# 4 5.4307 10.7830 3.3520 35.8855 -4.6188 -0.4786
# 5 7.4160 14.9773 2.0846 -4.6188 31.9719 0.2060
# 6 10.6339 -5.0272 3.6024 -0.4786 0.2060 31.0654
#
#
#
# Elastic Compliance Matrix: (Units=1/GPa)
#
#
# Indices 1 2 3 4 5 6 
#
# 1 0.009164 -0.003528 -0.002532 -0.000176 -0.000311 -0.003415
# 2 -0.003528 0.012894 -0.000311 -0.004014 -0.005803 0.003307
# 3 -0.002532 -0.000311 0.010431 -0.000505 -0.000017 -0.000401
# 4 -0.000176 -0.004014 -0.000505 0.029953 0.006282 -0.000111
# 5 -0.000311 -0.005803 -0.000017 0.006282 0.034983 -0.000966
# 6 -0.003415 0.003307 -0.000401 -0.000111 -0.000966 0.033945
#
#
# Mechanical properties :
#
#
# Convention : Reuss Voigt Hill
#
# Bulk Modulus (GPa) = 50.64409 58.40164 54.52286
# Shear Modulus (GPa) = 33.17940 36.76165 34.97053
#
# Velocity S-wave (km/s) = 3.79378 3.99333 3.89483
# Velocity P-wave (km/s) = 6.41553 6.82613 6.62401
#
# Compressibility (1/GPa) = 0.01974564
#
# Stress axis : x y z
#
# Youngs Moduli (GPa) = 109.11956 77.55779 95.86678
#
# Poissons Ratio (x) = 0.27364 0.24276
# Poissons Ratio (y) = 0.38500 0.02983
# Poissons Ratio (z) = 0.27632 0.02414
#
# Static dielectric constant tensor:
#      x y z
#    x 4.296490 0.018410 0.119180 
#    y 0.018410 4.404910 0.227950 
#    z 0.119180 0.227950 4.205880 
# 
# 
# High freq. dielectric constant tensor:
#      x y z
#    x 1.921290 -0.002030 0.005730 
#    y -0.002030 1.914420 0.008720 
#    z 0.005730 0.008720 1.925350 
# 
# From -- ./inp_files/124836.got.cif
#   From: 2010.06.25/outbox.cif.g09.slc.cpg/sg2_63_cif.got.tgz:124836.got - 2010.06.27 13:26:56.
