data_PCOD8028603
_publ_section_title
;
Structure prediction by ZEFSAII (Michael W. Deem and Ramdas Pophale) SiO2 
 PCOD8028603
Probable space group: P -1
;
_chemical_formula_sum "Si O2"
_cell_formula_units_Z 8
_cell_length_a 9.283266
_cell_length_b 16.437783
_cell_length_c 7.741759
_cell_angle_alpha 34.974767
_cell_angle_beta 32.235863
_cell_angle_gamma 29.993103
_cell_volume 297.842990
_symmetry_space_group_name_H-M "P -1"
_symmetry_group_IT_number 2
_symmetry_cell_setting 'triclinic'
loop_
_space_group_symop_operation_xyz
x,y,z
-x,-y,-z
loop_
_atom_site_type_symbol
_atom_site_label
_atom_site_fract_x
_atom_site_fract_y
_atom_site_fract_z
Si Si1 0.804644 0.807274 0.546931
Si Si2 0.686302 0.352007 0.425130
Si Si3 0.524382 0.330029 0.075238
Si Si4 0.617219 0.124510 0.670555
O O1 0.672323 0.689551 0.846791
O O2 0.942647 0.778508 0.654309
O O3 0.500000 0.000000 0.500000
O O4 0.092203 0.769011 0.189299
O O5 0.500000 0.500000 0.500000
O O6 0.529551 0.244816 0.721827
O O7 0.657149 0.460760 0.092778
O O8 0.474013 0.252773 0.430753
O O9 0.000000 0.000000 0.500000
O O10 0.500000 0.000000 0.000000
#
# Coordination Sequence:
#
# PCOD8028603 Si02
#       4
#     2   2   2   2
#     4  11  23  43  72 110 146 186 238 300 361 429
#     4  10  25  48  74 107 145 190 241 298 360 431
#     4  11  24  44  72 105 143 191 240 296 360 428
#     4  12  27  47  72 106 146 191 242 298 359 428
#
# _framework density 26.859788999999999
#
# number of rings (size 3 to 8) (size 9 to 14) (size 15 to 20)
#    0.000    1.000    0.000    5.250    0.000   14.000 
#    0.000    8.750    0.000    0.000    0.000    0.000 
#    0.000    0.000    0.000    0.000    0.000    0.000 
#
# Total GULP energy -99128.533114 kJ/mol
# GULP energy per Si atom -12391.066639 kJ/mol
# Density = 2.679866 g / cm^3
# Si number density = 26.859789 Si / 1000 Ang^3
#
#
#
# Elastic Constant Matrix: (Units=GPa)
#
#
# Indices 1 2 3 4 5 6 
#
# 1 143.0832 88.7250 60.9329 -35.1524 -34.3971 -7.2720
# 2 88.7250 135.1848 81.3206 -27.6708 -15.2064 -25.8650
# 3 60.9329 81.3206 156.1788 -32.0853 -53.1319 -3.0914
# 4 -35.1524 -27.6708 -32.0853 58.8953 -3.3653 -0.1747
# 5 -34.3971 -15.2064 -53.1319 -3.3653 63.2864 -16.1092
# 6 -7.2720 -25.8650 -3.0914 -0.1747 -16.1092 60.5561
#
#
#
# Elastic Compliance Matrix: (Units=1/GPa)
#
#
# Indices 1 2 3 4 5 6 
#
# 1 0.015768 -0.010012 0.004044 0.007489 0.010093 0.000530
# 2 -0.010012 0.018777 -0.008721 -0.002306 -0.007245 0.004439
# 3 0.004044 -0.008721 0.015774 0.007719 0.014097 0.001338
# 4 0.007489 -0.002306 0.007719 0.025283 0.012269 0.003645
# 5 0.010093 -0.007245 0.014097 0.012269 0.034052 0.007931
# 6 0.000530 0.004439 0.001338 0.003645 0.007931 0.020662
#
#
# Mechanical properties :
#
#
# Convention : Reuss Voigt Hill
#
# Bulk Modulus (GPa) = 47.75477 99.60044 73.67760
# Shear Modulus (GPa) = 29.99836 50.11212 40.05524
#
# Velocity S-wave (km/s) = 3.34556 4.32405 3.86589
# Velocity P-wave (km/s) = 5.72202 7.87985 6.88598
#
# Compressibility (1/GPa) = 0.02094032
#
# Stress axis : x y z
#
# Youngs Moduli (GPa) = 63.41821 53.25631 63.39429
#
# Poissons Ratio (x) = 0.53320 -0.25634
# Poissons Ratio (y) = 0.63495 0.55288
# Poissons Ratio (z) = -0.25644 0.46446
#
# Static dielectric constant tensor:
#      x y z
#    x 6.538730 -0.431850 0.260600 
#    y -0.431850 5.389710 -0.685610 
#    z 0.260600 -0.685610 5.315980 
# 
# 
# High freq. dielectric constant tensor:
#      x y z
#    x 2.095270 -0.015530 -0.013870 
#    y -0.015530 2.082260 -0.023280 
#    z -0.013870 -0.023280 2.093280 
# 
# From -- ./inp_files/17530.got.cif
#   From: 2010.06.25/outbox.cif.g09.slc.cpg/sg2_9_cif.got.tgz:17530.got - 2010.06.27 13:26:56.
