data_PCOD8028754
_publ_section_title
;
Structure prediction by ZEFSAII (Michael W. Deem and Ramdas Pophale) SiO2 
 PCOD8028754
Probable space group: P -1
;
_chemical_formula_sum "Si O2"
_cell_formula_units_Z 16
_cell_length_a 18.471493
_cell_length_b 25.666521
_cell_length_c 5.020071
_cell_angle_alpha 87.905000
_cell_angle_beta 79.503654
_cell_angle_gamma 18.396181
_cell_volume 663.462346
_symmetry_space_group_name_H-M "P -1"
_symmetry_group_IT_number 2
_symmetry_cell_setting 'triclinic'
loop_
_space_group_symop_operation_xyz
x,y,z
-x,-y,-z
loop_
_atom_site_type_symbol
_atom_site_label
_atom_site_fract_x
_atom_site_fract_y
_atom_site_fract_z
Si Si1 0.443364 0.981013 0.437360
Si Si2 0.471309 0.649032 0.793649
Si Si3 0.529172 0.187439 0.769282
Si Si4 0.748705 0.984452 0.156330
Si Si5 0.007554 0.599512 0.125512
Si Si6 0.718519 0.170056 0.613471
Si Si7 0.667916 0.370053 0.161741
Si Si8 0.998986 0.324629 0.378502
O O1 0.725657 0.763677 0.227552
O O2 0.500000 0.000000 0.500000
O O3 0.284539 0.054090 0.743331
O O4 0.266342 0.110281 0.268669
O O5 0.361988 0.768479 0.651104
O O6 0.298125 0.715407 0.851078
O O7 0.772672 0.435737 0.559321
O O8 0.467312 0.670995 0.096424
O O9 0.706165 0.118053 0.709138
O O10 0.579495 0.132378 0.450989
O O11 0.226496 0.407195 0.969759
O O12 0.625542 0.078127 0.931442
O O13 0.051902 0.793204 0.996787
O O14 0.023221 0.612119 0.410067
O O15 0.037796 0.627259 0.898480
O O16 0.000000 0.000000 0.500000
O O17 0.500000 0.500000 0.500000
O O18 0.500000 0.500000 0.000000
#
# Coordination Sequence:
#
# PCOD8028754 Si02
#       8
#     2   2   2   2   2   2   2   2
#     4  10  26  46  73  99 134 180 240 296 343 413
#     4  12  22  40  68  98 133 183 225 274 337 398
#     4  12  24  44  69 100 149 179 226 284 346 421
#     4  12  27  46  69 103 141 184 225 287 358 409
#     4  11  23  43  69 102 134 181 229 287 346 398
#     4  12  23  40  65 100 135 182 229 270 329 410
#     4  12  26  45  67 101 142 183 231 281 344 410
#     4  11  21  42  68 102 134 173 239 286 336 397
#
# _framework density 24.115914
#
# number of rings (size 3 to 8) (size 9 to 14) (size 15 to 20)
#    0.000    0.500    2.500    6.000    0.000    7.000 
#    0.000    0.000    0.000    0.000    0.000    0.000 
#    0.000    0.000    0.000    0.000    0.000    0.000 
#
# Total GULP energy -198421.858752 kJ/mol
# GULP energy per Si atom -12401.366172 kJ/mol
# Density = 2.406103 g / cm^3
# Si number density = 24.115914 Si / 1000 Ang^3
#
#
#
# Elastic Constant Matrix: (Units=GPa)
#
#
# Indices 1 2 3 4 5 6 
#
# 1 87.0814 12.5760 24.2690 4.9294 -25.4802 10.0794
# 2 12.5760 143.3214 34.2413 8.0812 -20.1135 -11.1848
# 3 24.2690 34.2413 103.6781 -0.0364 -12.3838 -4.4785
# 4 4.9294 8.0812 -0.0364 46.8923 -10.8299 -11.8530
# 5 -25.4802 -20.1135 -12.3838 -10.8299 48.2055 4.6964
# 6 10.0794 -11.1848 -4.4785 -11.8530 4.6964 37.8641
#
#
#
# Elastic Compliance Matrix: (Units=1/GPa)
#
#
# Indices 1 2 3 4 5 6 
#
# 1 0.015255 0.000053 -0.002930 -0.001312 0.007598 -0.005745
# 2 0.000053 0.008027 -0.002289 -0.000387 0.002542 0.001650
# 3 -0.002930 -0.002289 0.011223 0.001272 0.000493 0.001768
# 4 -0.001312 -0.000387 0.001272 0.024402 0.004223 0.007501
# 5 0.007598 0.002542 0.000493 0.004223 0.027215 -0.003267
# 6 -0.005745 0.001650 0.001768 0.007501 -0.003267 0.031389
#
#
# Mechanical properties :
#
#
# Convention : Reuss Voigt Hill
#
# Bulk Modulus (GPa) = 41.36672 52.91704 47.14188
# Shear Modulus (GPa) = 36.79235 44.12538 40.45886
#
# Velocity S-wave (km/s) = 3.91019 4.28216 4.10040
# Velocity P-wave (km/s) = 6.12998 6.81467 6.48137
#
# Compressibility (1/GPa) = 0.02417402
#
# Stress axis : x y z
#
# Youngs Moduli (GPa) = 65.55419 124.58422 89.10609
#
# Poissons Ratio (x) = -0.00664 0.26104
# Poissons Ratio (y) = -0.00349 0.20394
# Poissons Ratio (z) = 0.19204 0.28513
#
# Static dielectric constant tensor:
#      x y z
#    x 4.375110 -0.265950 -0.250250 
#    y -0.265950 4.781880 0.217570 
#    z -0.250250 0.217570 4.835130 
# 
# 
# High freq. dielectric constant tensor:
#      x y z
#    x 1.952600 -0.012390 -0.009450 
#    y -0.012390 1.967260 0.001730 
#    z -0.009450 0.001730 1.971230 
# 
# From -- ./inp_files/112817.got.cif
#   From: 2010.06.25/outbox.cif.g09.slc.cpg/sg2_57_cif.got.tgz:112817.got - 2010.06.27 13:26:56.
