data_PCOD8028018
_publ_section_title
;
Structure prediction by ZEFSAII (Michael W. Deem and Ramdas Pophale) SiO2 
 PCOD8028018
Probable space group: P -1
;
_chemical_formula_sum "Si O2"
_cell_formula_units_Z 14
_cell_length_a 8.765828
_cell_length_b 11.967355
_cell_length_c 8.482851
_cell_angle_alpha 53.300137
_cell_angle_beta 117.184847
_cell_angle_gamma 99.810891
_cell_volume 628.067970
_symmetry_space_group_name_H-M "P -1"
_symmetry_group_IT_number 2
_symmetry_cell_setting 'triclinic'
loop_
_space_group_symop_operation_xyz
x,y,z
-x,-y,-z
loop_
_atom_site_type_symbol
_atom_site_label
_atom_site_fract_x
_atom_site_fract_y
_atom_site_fract_z
Si Si1 0.751019 0.502443 0.345920
Si Si2 0.146227 0.035787 0.424339
Si Si3 0.086988 0.703669 0.879822
Si Si4 0.947653 0.534247 0.704606
Si Si5 0.537481 0.275637 0.080440
Si Si6 0.691946 0.198281 0.532458
Si Si7 0.497165 0.008413 0.804116
O O1 0.880462 0.541752 0.238608
O O2 0.774907 0.332130 0.523991
O O3 0.796236 0.573604 0.471612
O O4 0.558125 0.572349 0.147061
O O5 0.314683 0.053310 0.591972
O O6 0.052039 0.185061 0.184436
O O7 0.178029 0.921634 0.395863
O O8 0.000000 0.000000 0.500000
O O9 0.996253 0.672244 0.697544
O O10 0.269513 0.756160 0.878174
O O11 0.126010 0.564762 0.119336
O O12 0.546931 0.268318 0.280763
O O13 0.430693 0.150693 0.083279
O O14 0.616935 0.122431 0.709339
O O15 0.500000 0.000000 0.000000
#
# Coordination Sequence:
#
# PCOD8028018 Si02
#       7
#     2   2   2   2   2   2   2
#     4  11  24  44  69  99 137 171 232 279 331 397
#     4  11  21  43  71  92 138 174 226 272 333 404
#     4  11  23  42  68  98 133 181 222 269 344 398
#     4  10  25  42  64 102 134 175 225 279 336 391
#     4  11  23  44  69  98 135 180 223 271 338 408
#     4  11  24  44  70 100 134 184 221 274 342 406
#     4  11  27  44  66 103 136 176 230 278 339 400
#
# _framework density 22.290579999999999
#
# number of rings (size 3 to 8) (size 9 to 14) (size 15 to 20)
#    0.000    1.143    4.286    2.143    8.000    1.714 
#    0.000    1.429    0.000    0.000    0.000    0.000 
#    0.000    0.000    0.000    0.000    0.000    0.000 
#
# Total GULP energy -173499.546211 kJ/mol
# GULP energy per Si atom -12392.824729 kJ/mol
# Density = 2.223985 g / cm^3
# Si number density = 22.290580 Si / 1000 Ang^3
#
#
#
# Elastic Constant Matrix: (Units=GPa)
#
#
# Indices 1 2 3 4 5 6 
#
# 1 86.9067 21.6444 47.5170 -0.2040 -14.8172 0.2015
# 2 21.6444 86.0248 37.8588 -0.5503 4.4600 0.9013
# 3 47.5170 37.8588 90.7611 -9.9196 1.7923 -9.9579
# 4 -0.2040 -0.5503 -9.9196 29.1149 -3.5821 -3.6121
# 5 -14.8172 4.4600 1.7923 -3.5821 40.2810 -10.6803
# 6 0.2015 0.9013 -9.9579 -3.6121 -10.6803 29.8060
#
#
#
# Elastic Compliance Matrix: (Units=1/GPa)
#
#
# Indices 1 2 3 4 5 6 
#
# 1 0.018137 -0.000592 -0.009807 -0.002580 0.006591 -0.001332
# 2 -0.000592 0.014839 -0.006571 -0.002815 -0.002883 -0.004014
# 3 -0.009807 -0.006571 0.020593 0.007644 -0.001079 0.007685
# 4 -0.002580 -0.002815 0.007644 0.038604 0.004862 0.009077
# 5 0.006591 -0.002883 -0.001079 0.004862 0.031074 0.011406
# 6 -0.001332 -0.004014 0.007685 0.009077 0.011406 0.041435
#
#
# Mechanical properties :
#
#
# Convention : Reuss Voigt Hill
#
# Bulk Modulus (GPa) = 50.94367 53.08145 52.01256
# Shear Modulus (GPa) = 24.37089 30.28522 27.32805
#
# Velocity S-wave (km/s) = 3.31014 3.68999 3.50521
# Velocity P-wave (km/s) = 6.12481 6.48227 6.30607
#
# Compressibility (1/GPa) = 0.01962952
#
# Stress axis : x y z
#
# Youngs Moduli (GPa) = 55.13741 67.39095 48.56065
#
# Poissons Ratio (x) = 0.03988 0.47621
# Poissons Ratio (y) = 0.03263 0.31909
# Poissons Ratio (z) = 0.54071 0.44283
#
# Static dielectric constant tensor:
#      x y z
#    x 4.707960 -0.864450 0.961300 
#    y -0.864450 5.394880 -1.400020 
#    z 0.961300 -1.400020 5.354930 
# 
# 
# High freq. dielectric constant tensor:
#      x y z
#    x 1.867780 0.005170 -0.012180 
#    y 0.005170 1.885360 -0.009040 
#    z -0.012180 -0.009040 1.872510 
# 
# From -- ./inp_files/184506.got.cif
#   From: 2010.06.25/outbox.cif.g09.slc.cpg/sg2_93_cif.got.tgz:184506.got - 2010.06.27 13:26:56.
