data_PCOD8028694
_publ_section_title
;
Structure prediction by ZEFSAII (Michael W. Deem and Ramdas Pophale) SiO2 
 PCOD8028694
Probable space group: P -1
;
_chemical_formula_sum "Si O2"
_cell_formula_units_Z 14
_cell_length_a 15.362067
_cell_length_b 6.355515
_cell_length_c 15.051351
_cell_angle_alpha 75.158102
_cell_angle_beta 155.993834
_cell_angle_gamma 99.331035
_cell_volume 568.176794
_symmetry_space_group_name_H-M "P -1"
_symmetry_group_IT_number 2
_symmetry_cell_setting 'triclinic'
loop_
_space_group_symop_operation_xyz
x,y,z
-x,-y,-z
loop_
_atom_site_type_symbol
_atom_site_label
_atom_site_fract_x
_atom_site_fract_y
_atom_site_fract_z
Si Si1 0.653071 0.459681 0.353377
Si Si2 0.348546 0.187627 0.176484
Si Si3 0.708696 0.845484 0.248852
Si Si4 0.254301 0.473253 0.218821
Si Si5 0.026976 0.924366 0.393109
Si Si6 0.661437 0.729800 0.506600
Si Si7 0.101330 0.876826 0.918660
O O1 0.422867 0.377951 0.164179
O O2 0.636675 0.617036 0.234915
O O3 0.841135 0.250267 0.533486
O O4 0.716904 0.590331 0.484160
O O5 0.341519 0.253621 0.265836
O O6 0.496496 0.955680 0.313038
O O7 0.113622 0.125101 0.940037
O O8 0.886782 0.800763 0.341518
O O9 0.804165 0.958029 0.409029
O O10 0.500000 0.000000 0.000000
O O11 0.389333 0.437057 0.443120
O O12 0.284500 0.684970 0.160037
O O13 0.000000 0.500000 0.000000
O O14 0.873140 0.108469 0.167324
O O15 0.871815 0.814151 0.733141
#
# Coordination Sequence:
#
# PCOD8028694 Si02
#       7
#     2   2   2   2   2   2   2
#     4  12  25  49  74 107 145 190 233 298 365 419
#     4  12  26  43  74 106 147 193 239 296 352 421
#     4  11  27  50  76 105 142 182 241 295 359 434
#     4  10  26  44  72 107 144 198 241 291 352 417
#     4  11  26  48  75 107 144 186 232 300 356 430
#     4  11  25  49  70 103 150 190 247 294 348 422
#     4  11  25  46  71 106 146 188 240 290 354 421
#
# _framework density 24.640217
#
# number of rings (size 3 to 8) (size 9 to 14) (size 15 to 20)
#    0.000    0.857    2.857    1.714   10.000    6.286 
#    2.571    0.000    0.000    0.000    0.000    0.000 
#    0.000    0.000    0.000    0.000    0.000    0.000 
#
# Total GULP energy -173496.878566 kJ/mol
# GULP energy per Si atom -12392.634183 kJ/mol
# Density = 2.458413 g / cm^3
# Si number density = 24.640217 Si / 1000 Ang^3
#
#
#
# Elastic Constant Matrix: (Units=GPa)
#
#
# Indices 1 2 3 4 5 6 
#
# 1 148.5063 71.0067 32.4093 -11.3702 -19.5657 7.0375
# 2 71.0067 128.9562 35.9623 5.1392 -5.6992 23.0566
# 3 32.4093 35.9623 78.6663 -8.3388 -36.9147 10.5474
# 4 -11.3702 5.1392 -8.3388 31.9292 1.6137 -0.4103
# 5 -19.5657 -5.6992 -36.9147 1.6137 45.9691 -10.0381
# 6 7.0375 23.0566 10.5474 -0.4103 -10.0381 58.8316
#
#
#
# Elastic Compliance Matrix: (Units=1/GPa)
#
#
# Indices 1 2 3 4 5 6 
#
# 1 0.010458 -0.006394 0.001129 0.004829 0.004812 0.001907
# 2 -0.006394 0.014129 -0.007512 -0.006179 -0.007835 -0.004806
# 3 0.001129 -0.007512 0.025791 0.007339 0.020377 0.001713
# 4 0.004829 -0.006179 0.007339 0.035654 0.006337 0.001858
# 5 0.004812 -0.007835 0.020377 0.006337 0.040227 0.005750
# 6 0.001907 -0.004806 0.001713 0.001858 0.005750 0.019340
#
#
# Mechanical properties :
#
#
# Convention : Reuss Voigt Hill
#
# Bulk Modulus (GPa) = 40.28403 70.54281 55.41342
# Shear Modulus (GPa) = 27.86623 41.79601 34.83112
#
# Velocity S-wave (km/s) = 3.36657 4.12303 3.76385
# Velocity P-wave (km/s) = 5.61214 7.16639 6.43635
#
# Compressibility (1/GPa) = 0.02482373
#
# Stress axis : x y z
#
# Youngs Moduli (GPa) = 95.62115 70.77440 38.77269
#
# Poissons Ratio (x) = 0.45253 -0.04376
# Poissons Ratio (y) = 0.61140 0.29127
# Poissons Ratio (z) = -0.10792 0.53167
#
# Static dielectric constant tensor:
#      x y z
#    x 4.854490 0.595720 -0.135890 
#    y 0.595720 4.928030 0.321700 
#    z -0.135890 0.321700 4.902260 
# 
# 
# High freq. dielectric constant tensor:
#      x y z
#    x 1.995830 0.030900 -0.002440 
#    y 0.030900 1.996540 0.014760 
#    z -0.002440 0.014760 1.987620 
# 
# From -- ./inp_files/106184.got.cif
#   From: 2010.06.25/outbox.cif.g09.slc.cpg/sg2_54_cif.got.tgz:106184.got - 2010.06.27 13:26:56.
