data_PCOD8028169
_publ_section_title
;
Structure prediction by ZEFSAII (Michael W. Deem and Ramdas Pophale) SiO2 
 PCOD8028169
Probable space group: P -1
;
_chemical_formula_sum "Si O2"
_cell_formula_units_Z 16
_cell_length_a 13.966664
_cell_length_b 8.177771
_cell_length_c 11.682111
_cell_angle_alpha 139.728921
_cell_angle_beta 57.488571
_cell_angle_gamma 103.696766
_cell_volume 689.586735
_symmetry_space_group_name_H-M "P -1"
_symmetry_group_IT_number 2
_symmetry_cell_setting 'triclinic'
loop_
_space_group_symop_operation_xyz
x,y,z
-x,-y,-z
loop_
_atom_site_type_symbol
_atom_site_label
_atom_site_fract_x
_atom_site_fract_y
_atom_site_fract_z
Si Si1 0.937070 0.953706 0.627995
Si Si2 0.519763 0.719101 0.401819
Si Si3 0.712279 0.771407 0.918028
Si Si4 0.031310 0.342781 0.212125
Si Si5 0.305617 0.750769 0.430875
Si Si6 0.057348 0.071756 0.827635
Si Si7 0.542160 0.064013 0.752111
Si Si8 0.333568 0.852016 0.063900
O O1 0.978832 0.637732 0.455617
O O2 0.797208 0.067259 0.754319
O O3 0.000000 0.000000 0.500000
O O4 0.968288 0.115187 0.800277
O O5 0.390733 0.672587 0.447223
O O6 0.558780 0.766695 0.531550
O O7 0.500000 0.000000 0.500000
O O8 0.620422 0.467477 0.149308
O O9 0.828743 0.795228 0.920374
O O10 0.750541 0.484196 0.679613
O O11 0.667102 0.010717 0.984210
O O12 0.601506 0.786400 0.081721
O O13 0.022252 0.331380 0.072371
O O14 0.949844 0.180166 0.229251
O O15 0.193443 0.015761 0.665799
O O16 0.386488 0.781606 0.287349
O O17 0.584104 0.047901 0.847724
#
# Coordination Sequence:
#
# PCOD8028169 Si02
#       8
#     2   2   2   2   2   2   2   2
#     4  12  26  43  70 101 140 178 225 282 336 402
#     4  10  25  44  68  98 133 173 223 278 335 405
#     4  12  23  44  72  97 138 178 226 279 335 402
#     4  11  25  46  73  98 135 187 225 279 335 400
#     4  11  22  42  73  98 133 180 227 274 338 406
#     4  11  23  46  72 101 134 180 234 272 337 403
#     4  11  25  43  68  99 135 180 220 279 344 396
#     4  12  26  44  65 102 138 175 224 281 336 402
#
# _framework density 23.202300999999999
#
# number of rings (size 3 to 8) (size 9 to 14) (size 15 to 20)
#    0.000    0.750    3.750    3.375    1.750    4.000 
#    2.250    0.000    0.000    0.000    0.000    0.000 
#    0.000    0.000    0.000    0.000    0.000    0.000 
#
# Total GULP energy -198365.414434 kJ/mol
# GULP energy per Si atom -12397.838402 kJ/mol
# Density = 2.314949 g / cm^3
# Si number density = 23.202301 Si / 1000 Ang^3
#
#
#
# Elastic Constant Matrix: (Units=GPa)
#
#
# Indices 1 2 3 4 5 6 
#
# 1 127.8995 7.6120 61.1692 6.6698 16.9129 4.4961
# 2 7.6120 46.3676 4.3947 -3.5624 1.8810 5.8239
# 3 61.1692 4.3947 109.3679 -1.4029 4.2366 5.3444
# 4 6.6698 -3.5624 -1.4029 27.2670 3.9950 -6.4620
# 5 16.9129 1.8810 4.2366 3.9950 56.9515 -10.4520
# 6 4.4961 5.8239 5.3444 -6.4620 -10.4520 28.6776
#
#
#
# Elastic Compliance Matrix: (Units=1/GPa)
#
#
# Indices 1 2 3 4 5 6 
#
# 1 0.011526 -0.001147 -0.006210 -0.003381 -0.003110 -0.002312
# 2 -0.001147 0.022540 0.000033 0.002394 -0.001375 -0.004366
# 3 -0.006210 0.000033 0.012651 0.001908 0.000634 -0.000729
# 4 -0.003381 0.002394 0.001908 0.040002 -0.000457 0.008536
# 5 -0.003110 -0.001375 0.000634 -0.000457 0.019947 0.007816
# 6 -0.002312 -0.004366 -0.000729 0.008536 0.007816 0.041027
#
#
# Mechanical properties :
#
#
# Convention : Reuss Voigt Hill
#
# Bulk Modulus (GPa) = 31.18283 47.77634 39.47958
# Shear Modulus (GPa) = 28.89655 36.60982 32.75318
#
# Velocity S-wave (km/s) = 3.53288 3.97653 3.76125
# Velocity P-wave (km/s) = 5.48729 6.45907 5.99291
#
# Compressibility (1/GPa) = 0.03206893
#
# Stress axis : x y z
#
# Youngs Moduli (GPa) = 86.76145 44.36559 79.04491
#
# Poissons Ratio (x) = 0.05088 0.49089
# Poissons Ratio (y) = 0.09949 -0.00261
# Poissons Ratio (z) = 0.53881 -0.00146
#
# Static dielectric constant tensor:
#      x y z
#    x 4.634070 0.267130 0.450370 
#    y 0.267130 3.700100 -0.178880 
#    z 0.450370 -0.178880 4.381430 
# 
# 
# High freq. dielectric constant tensor:
#      x y z
#    x 1.933290 0.016750 0.009120 
#    y 0.016750 1.892990 -0.009650 
#    z 0.009120 -0.009650 1.927360 
# 
# From -- ./inp_files/446682.got.cif
#   From: 2010.06.25/outbox.cif.g09.slc.cpg/sg2_224_cif.got.tgz:446682.got - 2010.06.27 13:26:56.
