data_PCOD8028434
_publ_section_title
;
Structure prediction by ZEFSAII (Michael W. Deem and Ramdas Pophale) SiO2 
 PCOD8028434
Probable space group: P -1
;
_chemical_formula_sum "Si O2"
_cell_formula_units_Z 16
_cell_length_a 12.777237
_cell_length_b 5.033381
_cell_length_c 11.224975
_cell_angle_alpha 98.369191
_cell_angle_beta 78.620488
_cell_angle_gamma 84.998001
_cell_volume 695.162557
_symmetry_space_group_name_H-M "P -1"
_symmetry_group_IT_number 2
_symmetry_cell_setting 'triclinic'
loop_
_space_group_symop_operation_xyz
x,y,z
-x,-y,-z
loop_
_atom_site_type_symbol
_atom_site_label
_atom_site_fract_x
_atom_site_fract_y
_atom_site_fract_z
Si Si1 0.555165 0.752232 0.544553
Si Si2 0.421141 0.014012 0.197302
Si Si3 0.365005 0.239128 0.974842
Si Si4 0.767080 0.240861 0.061954
Si Si5 0.049785 0.833495 0.168000
Si Si6 0.204909 0.398276 0.497105
Si Si7 0.790335 0.141072 0.661486
Si Si8 0.909440 0.399332 0.234373
O O1 0.500000 0.500000 0.500000
O O2 0.540686 0.801170 0.693024
O O3 0.680328 0.711248 0.478881
O O4 0.500000 0.000000 0.500000
O O5 0.518438 0.799076 0.115751
O O6 0.327518 0.845294 0.252662
O O7 0.375467 0.210219 0.113053
O O8 0.310628 0.539910 0.980002
O O9 0.292942 0.021924 0.923102
O O10 0.880040 0.154409 0.965529
O O11 0.798119 0.354226 0.190468
O O12 0.127360 0.757359 0.257176
O O13 0.972958 0.599802 0.155265
O O14 0.981246 0.118858 0.222212
O O15 0.217616 0.666036 0.437567
O O16 0.117884 0.462454 0.623625
O O17 0.166329 0.164928 0.407243
#
# Coordination Sequence:
#
# PCOD8028434 Si02
#       8
#     2   2   2   2   2   2   2   2
#     4  11  25  41  69  97 140 179 218 266 340 406
#     4  10  25  46  70 107 139 178 231 277 340 410
#     4  11  26  43  75 102 136 182 227 287 336 405
#     4  12  26  46  71 101 140 179 230 284 350 399
#     4  12  25  45  74  98 135 185 226 289 353 387
#     4  11  26  44  68 102 138 182 225 282 336 404
#     4  11  24  45  72  98 144 175 232 279 339 411
#     4  12  27  45  70 101 141 175 237 284 333 417
#
# _framework density 23.016202
#
# number of rings (size 3 to 8) (size 9 to 14) (size 15 to 20)
#    0.000    0.750    1.250    5.250    7.000    8.000 
#    0.000    0.000    0.000    0.000    0.000    0.000 
#    0.000    0.000    0.000    0.000    0.000    0.000 
#
# Total GULP energy -198536.875026 kJ/mol
# GULP energy per Si atom -12408.554689 kJ/mol
# Density = 2.296382 g / cm^3
# Si number density = 23.016202 Si / 1000 Ang^3
#
#
#
# Elastic Constant Matrix: (Units=GPa)
#
#
# Indices 1 2 3 4 5 6 
#
# 1 -135.1170 43.5117 53.8272 76.0825 -248.9193 2.1605
# 2 43.5117 94.6554 5.5255 -13.3124 32.0139 -2.6282
# 3 53.8272 5.5255 93.4254 -6.8598 31.9099 1.0835
# 4 76.0825 -13.3124 -6.8598 2.0032 99.1858 2.2793
# 5 -248.9193 32.0139 31.9099 99.1858 -273.0366 16.4793
# 6 2.1605 -2.6282 1.0835 2.2793 16.4793 35.1478
#
#
#
# Elastic Compliance Matrix: (Units=1/GPa)
#
#
# Indices 1 2 3 4 5 6 
#
# 1 0.013367 -0.001500 -0.003606 0.004556 -0.010888 0.003987
# 2 -0.001500 0.010436 -0.000606 0.000035 0.002515 -0.000290
# 3 -0.003606 -0.000606 0.011440 -0.002443 0.003564 -0.001689
# 4 0.004556 0.000035 -0.002443 0.029379 0.005942 -0.004893
# 5 -0.010888 0.002515 0.003564 0.005942 0.008904 -0.003812
# 6 0.003987 -0.000290 -0.001689 -0.004893 -0.003812 0.030341
#
#
# Mechanical properties :
#
#
# Convention : Reuss Voigt Hill
#
# Bulk Modulus (GPa) = 41.98360 28.74363 35.36361
# Shear Modulus (GPa) = 40.57444 -50.50384 -4.96470
#
# Velocity S-wave (km/s) = 4.20320 -4.68939 -1.47028
# Velocity P-wave (km/s) = 6.46810 4.09938 3.53776
#
# Compressibility (1/GPa) = 0.02381883
#
# Stress axis : x y z
#
# Youngs Moduli (GPa) = 74.81013 95.82521 87.41280
#
# Poissons Ratio (x) = 0.14376 0.31518
# Poissons Ratio (y) = 0.11223 0.05298
# Poissons Ratio (z) = 0.26974 0.05808
#
# Static dielectric constant tensor:
#      x y z
#    x 4.408070 0.178680 0.084430 
#    y 0.178680 4.313040 0.119120 
#    z 0.084430 0.119120 4.259970 
# 
# 
# High freq. dielectric constant tensor:
#      x y z
#    x 1.921560 -0.000020 0.004810 
#    y -0.000020 1.917380 0.007060 
#    z 0.004810 0.007060 1.913290 
# 
# From -- ./inp_files/409311.got.cif
#   From: 2010.06.25/outbox.cif.g09.slc.cpg/sg2_205_cif.got.tgz:409311.got - 2010.06.27 13:26:56.
