data_PCOD8028097
_publ_section_title
;
Structure prediction by ZEFSAII (Michael W. Deem and Ramdas Pophale) SiO2 
 PCOD8028097
Probable space group: P -1
;
_chemical_formula_sum "Si O2"
_cell_formula_units_Z 16
_cell_length_a 16.677043
_cell_length_b 9.003595
_cell_length_c 9.549845
_cell_angle_alpha 108.858459
_cell_angle_beta 107.417779
_cell_angle_gamma 129.379628
_cell_volume 759.598032
_symmetry_space_group_name_H-M "P -1"
_symmetry_group_IT_number 2
_symmetry_cell_setting 'triclinic'
loop_
_space_group_symop_operation_xyz
x,y,z
-x,-y,-z
loop_
_atom_site_type_symbol
_atom_site_label
_atom_site_fract_x
_atom_site_fract_y
_atom_site_fract_z
Si Si1 0.153479 0.163499 0.782012
Si Si2 0.330693 0.083161 0.146036
Si Si3 0.858962 0.884229 0.559709
Si Si4 0.383206 0.651958 0.557575
Si Si5 0.397913 0.537254 0.230877
Si Si6 0.853773 0.220024 0.771871
Si Si7 0.849243 0.200193 0.291810
Si Si8 0.322008 0.916718 0.588714
O O1 0.192146 0.234514 0.660016
O O2 0.121342 0.938364 0.739004
O O3 0.284822 0.425730 0.022405
O O4 0.016557 0.056626 0.721122
O O5 0.468700 0.179849 0.244306
O O6 0.380349 0.330647 0.202133
O O7 0.266679 0.991915 0.239411
O O8 0.209292 0.833445 0.900982
O O9 0.749807 0.641260 0.536118
O O10 0.871698 0.088925 0.651850
O O11 0.382571 0.625416 0.383252
O O12 0.368406 0.813932 0.627159
O O13 0.552006 0.788497 0.319361
O O14 0.802834 0.277094 0.653568
O O15 0.000000 0.500000 0.000000
O O16 0.727903 0.065350 0.295888
O O17 0.000000 0.500000 0.500000
#
# Coordination Sequence:
#
# PCOD8028097 Si02
#       8
#     2   2   2   2   2   2   2   2
#     4  10  25  43  69  98 129 182 217 275 328 393
#     4  11  25  43  70  98 131 177 221 272 332 393
#     4  11  24  46  69  98 134 175 227 266 328 404
#     4  12  25  44  68 100 135 171 225 276 329 395
#     4  11  24  45  69  95 136 170 226 273 334 394
#     4  12  25  44  71  99 134 179 217 272 333 392
#     4  11  24  46  65  98 139 173 221 276 330 392
#     4  12  26  43  67 100 135 176 219 277 333 389
#
# _framework density 21.063773000000001
#
# number of rings (size 3 to 8) (size 9 to 14) (size 15 to 20)
#    0.000    0.750    3.750    3.000    3.500    3.000 
#    2.250    0.000    0.000    0.000    0.000    0.000 
#    0.000    0.000    0.000    0.000    0.000    0.000 
#
# Total GULP energy -198484.955269 kJ/mol
# GULP energy per Si atom -12405.309704 kJ/mol
# Density = 2.101583 g / cm^3
# Si number density = 21.063773 Si / 1000 Ang^3
#
#
#
# Elastic Constant Matrix: (Units=GPa)
#
#
# Indices 1 2 3 4 5 6 
#
# 1 113.1190 32.8869 31.1179 -6.9692 14.7877 4.5094
# 2 32.8869 63.0351 3.2880 0.9165 -0.8101 7.2118
# 3 31.1179 3.2880 104.9428 -11.2076 11.5383 1.4474
# 4 -6.9692 0.9165 -11.2076 33.5702 -3.3606 -2.2186
# 5 14.7877 -0.8101 11.5383 -3.3606 27.4976 -6.5389
# 6 4.5094 7.2118 1.4474 -2.2186 -6.5389 37.4069
#
#
#
# Elastic Compliance Matrix: (Units=1/GPa)
#
#
# Indices 1 2 3 4 5 6 
#
# 1 0.012252 -0.006217 -0.002662 0.001172 -0.005777 -0.001116
# 2 -0.006217 0.019423 0.000812 -0.001446 0.002773 -0.002627
# 3 -0.002662 0.000812 0.010916 0.002736 -0.002935 -0.000609
# 4 0.001172 -0.001446 0.002736 0.031397 0.002574 0.002344
# 5 -0.005777 0.002773 -0.002935 0.002574 0.042990 0.007943
# 6 -0.001116 -0.002627 -0.000609 0.002344 0.007943 0.028925
#
#
# Mechanical properties :
#
#
# Convention : Reuss Voigt Hill
#
# Bulk Modulus (GPa) = 37.79891 46.18696 41.99294
# Shear Modulus (GPa) = 29.26424 33.94854 31.60639
#
# Velocity S-wave (km/s) = 3.73140 4.01896 3.87784
# Velocity P-wave (km/s) = 6.04552 6.59627 6.32689
#
# Compressibility (1/GPa) = 0.02645579
#
# Stress axis : x y z
#
# Youngs Moduli (GPa) = 81.61931 51.48631 91.60598
#
# Poissons Ratio (x) = 0.32009 0.24390
# Poissons Ratio (y) = 0.50742 -0.07437
# Poissons Ratio (z) = 0.21731 -0.04180
#
# Static dielectric constant tensor:
#      x y z
#    x 3.937360 0.093210 0.094640 
#    y 0.093210 3.786040 -0.173400 
#    z 0.094640 -0.173400 4.245210 
# 
# 
# High freq. dielectric constant tensor:
#      x y z
#    x 1.837360 0.007450 0.007980 
#    y 0.007450 1.829710 -0.008770 
#    z 0.007980 -0.008770 1.839340 
# 
# From -- ./inp_files/189787.got.cif
#   From: 2010.06.25/outbox.cif.g09.slc.cpg/sg2_95_cif.got.tgz:189787.got - 2010.06.27 13:26:56.
