data_PCOD8028639
_publ_section_title
;
Structure prediction by ZEFSAII (Michael W. Deem and Ramdas Pophale) SiO2 
 PCOD8028639
Probable space group: P -1
;
_chemical_formula_sum "Si O2"
_cell_formula_units_Z 12
_cell_length_a 5.298213
_cell_length_b 19.214460
_cell_length_c 5.350485
_cell_angle_alpha 89.313788
_cell_angle_beta 90.541094
_cell_angle_gamma 56.890745
_cell_volume 456.134546
_symmetry_space_group_name_H-M "P -1"
_symmetry_group_IT_number 2
_symmetry_cell_setting 'triclinic'
loop_
_space_group_symop_operation_xyz
x,y,z
-x,-y,-z
loop_
_atom_site_type_symbol
_atom_site_label
_atom_site_fract_x
_atom_site_fract_y
_atom_site_fract_z
Si Si1 0.488779 0.091300 0.254135
Si Si2 0.251644 0.500518 0.162109
Si Si3 0.595413 0.320781 0.366341
Si Si4 0.903566 0.680559 0.350908
Si Si5 0.402559 0.789720 0.001248
Si Si6 0.167168 0.097017 0.738301
O O1 0.276549 0.124435 0.496785
O O2 0.756991 0.995572 0.303007
O O3 0.634390 0.145483 0.215447
O O4 0.311527 0.100947 0.998269
O O5 0.421273 0.419712 0.339222
O O6 0.096780 0.581694 0.326352
O O7 0.500000 0.500000 0.000000
O O8 0.000000 0.500000 0.000000
O O9 0.374258 0.296007 0.475069
O O10 0.889861 0.289182 0.538639
O O11 0.695188 0.271662 0.105155
O O12 0.753873 0.731615 0.091956
O O13 0.192011 0.840342 0.234999
#
# Coordination Sequence:
#
# PCOD8028639 Si02
#       6
#     2   2   2   2   2   2
#     4  10  25  49  79 114 160 217 273 335 414 500
#     4  12  24  50  78 107 157 214 269 330 404 488
#     4  12  29  49  78 114 157 214 267 338 410 486
#     4  12  29  49  78 114 157 214 267 338 410 486
#     4  12  29  45  78 116 166 198 278 339 421 474
#     4  10  25  49  79 114 160 217 273 335 414 500
#
# _framework density 26.308029000000001
#
# number of rings (size 3 to 8) (size 9 to 14) (size 15 to 20)
#    0.000    0.667    1.667    3.500    9.333    0.000 
#    0.000    5.000    0.000    3.000    0.000    0.000 
#    0.000    0.000    0.000    0.000    0.000    0.000 
#
# Total GULP energy -148845.407705 kJ/mol
# GULP energy per Si atom -12403.783975 kJ/mol
# Density = 2.624815 g / cm^3
# Si number density = 26.308029 Si / 1000 Ang^3
#
#
#
# Elastic Constant Matrix: (Units=GPa)
#
#
# Indices 1 2 3 4 5 6 
#
# 1 151.7744 39.6829 56.3730 20.4649 2.6480 -9.9479
# 2 39.6829 163.7696 43.4976 20.7568 -8.3730 -4.9927
# 3 56.3730 43.4976 140.5962 12.7329 -4.4090 -8.0834
# 4 20.4649 20.7568 12.7329 26.5851 1.7713 -6.0436
# 5 2.6480 -8.3730 -4.4090 1.7713 58.1861 -6.5422
# 6 -9.9479 -4.9927 -8.0834 -6.0436 -6.5422 18.0905
#
#
#
# Elastic Compliance Matrix: (Units=1/GPa)
#
#
# Indices 1 2 3 4 5 6 
#
# 1 0.008478 -0.000772 -0.002692 -0.004223 -0.000382 0.001697
# 2 -0.000772 0.007319 -0.001524 -0.004508 0.001088 -0.000198
# 3 -0.002692 -0.001524 0.008864 -0.000543 0.000837 0.002181
# 4 -0.004223 -0.004508 -0.000543 0.047367 -0.000614 0.011793
# 5 -0.000382 0.001088 0.000837 -0.000614 0.018212 0.006845
# 6 0.001697 -0.000198 0.002181 0.011793 0.006845 0.063546
#
#
# Mechanical properties :
#
#
# Convention : Reuss Voigt Hill
#
# Bulk Modulus (GPa) = 68.09681 81.69413 74.89547
# Shear Modulus (GPa) = 29.64591 41.67813 35.66202
#
# Velocity S-wave (km/s) = 3.36054 3.98456 3.68578
# Velocity P-wave (km/s) = 6.40299 7.23114 6.82963
#
# Compressibility (1/GPa) = 0.01468498
#
# Stress axis : x y z
#
# Youngs Moduli (GPa) = 117.95472 136.63439 112.81084
#
# Poissons Ratio (x) = 0.10544 0.30374
# Poissons Ratio (y) = 0.09102 0.17191
# Poissons Ratio (z) = 0.31759 0.20822
#
# Static dielectric constant tensor:
#      x y z
#    x 4.664470 0.047030 -0.045300 
#    y 0.047030 5.072000 0.036890 
#    z -0.045300 0.036890 4.650310 
# 
# 
# High freq. dielectric constant tensor:
#      x y z
#    x 2.051530 0.001670 -0.000850 
#    y 0.001670 2.086420 0.001740 
#    z -0.000850 0.001740 2.053180 
# 
# From -- ./inp_files/6302.got.cif
#   From: 2010.06.25/outbox.cif.g09.slc.cpg/sg2_4_cif.got.tgz:6302.got - 2010.06.27 13:26:56.
