data_PCOD8028189
_publ_section_title
;
Structure prediction by ZEFSAII (Michael W. Deem and Ramdas Pophale) SiO2 
 PCOD8028189
Probable space group: P -1
;
_chemical_formula_sum "Si O2"
_cell_formula_units_Z 12
_cell_length_a 18.682284
_cell_length_b 5.107346
_cell_length_c 14.355783
_cell_angle_alpha 88.817819
_cell_angle_beta 20.848686
_cell_angle_gamma 87.475104
_cell_volume 486.221358
_symmetry_space_group_name_H-M "P -1"
_symmetry_group_IT_number 2
_symmetry_cell_setting 'triclinic'
loop_
_space_group_symop_operation_xyz
x,y,z
-x,-y,-z
loop_
_atom_site_type_symbol
_atom_site_label
_atom_site_fract_x
_atom_site_fract_y
_atom_site_fract_z
Si Si1 0.676492 0.790411 0.760740
Si Si2 0.746224 0.437984 0.155367
Si Si3 0.409100 0.517583 0.958385
Si Si4 0.787337 0.929483 0.221200
Si Si5 0.451966 0.185848 0.734574
Si Si6 0.886474 0.164480 0.818150
O O1 0.608636 0.649209 0.750216
O O2 0.886861 0.923487 0.488195
O O3 0.708153 0.591563 0.809937
O O4 0.500000 0.000000 0.000000
O O5 0.703424 0.149897 0.247778
O O6 0.544348 0.579464 0.350539
O O7 0.822844 0.637080 0.138088
O O8 0.901413 0.381228 0.880728
O O9 0.494046 0.292664 0.785275
O O10 0.247700 0.722182 0.105402
O O11 0.622610 0.951875 0.505337
O O12 0.000000 0.000000 0.000000
O O13 0.226539 0.084665 0.005393
#
# Coordination Sequence:
#
# PCOD8028189 Si02
#       6
#     2   2   2   2   2   2
#     4  11  25  46  72 103 147 184 245 306 366 437
#     4  11  25  47  71 105 144 197 237 294 361 433
#     4  10  25  44  70 105 140 194 241 299 366 436
#     4  12  27  44  73 108 151 188 245 300 361 428
#     4  11  25  45  74 102 145 192 246 294 360 440
#     4  11  25  45  74 104 147 190 244 297 369 432
#
# _framework density 24.680118
#
# number of rings (size 3 to 8) (size 9 to 14) (size 15 to 20)
#    0.000    1.000    1.667    3.000    7.000   10.667 
#    0.000    0.000    0.000    0.000    0.000    0.000 
#    0.000    0.000    0.000    0.000    0.000    0.000 
#
# Total GULP energy -148749.602793 kJ/mol
# GULP energy per Si atom -12395.800233 kJ/mol
# Density = 2.462394 g / cm^3
# Si number density = 24.680118 Si / 1000 Ang^3
#
#
#
# Elastic Constant Matrix: (Units=GPa)
#
#
# Indices 1 2 3 4 5 6 
#
# 1 116.8375 34.9984 43.0640 7.7961 8.8238 29.5984
# 2 34.9984 103.4468 15.9219 -1.2249 7.3911 9.6596
# 3 43.0640 15.9219 101.2680 -1.6993 -17.0762 -4.9828
# 4 7.7961 -1.2249 -1.6993 34.4329 8.6949 0.1861
# 5 8.8238 7.3911 -17.0762 8.6949 18.8545 6.3070
# 6 29.5984 9.6596 -4.9828 0.1861 6.3070 42.4115
#
#
#
# Elastic Compliance Matrix: (Units=1/GPa)
#
#
# Indices 1 2 3 4 5 6 
#
# 1 0.015856 -0.002388 -0.008616 -0.001452 -0.010273 -0.010000
# 2 -0.002388 0.011199 -0.001696 0.002322 -0.005803 -0.000231
# 3 -0.008616 -0.001696 0.017342 -0.002228 0.019579 0.005535
# 4 -0.001452 0.002322 -0.002228 0.034112 -0.018946 0.002891
# 5 -0.010273 -0.005803 0.019579 -0.018946 0.087295 -0.002107
# 6 -0.010000 -0.000231 0.005535 0.002891 -0.002107 0.031561
#
#
# Mechanical properties :
#
#
# Convention : Reuss Voigt Hill
#
# Bulk Modulus (GPa) = 52.63945 56.61344 54.62644
# Shear Modulus (GPa) = 21.82485 34.31099 28.06792
#
# Velocity S-wave (km/s) = 2.97696 3.73262 3.37600
# Velocity P-wave (km/s) = 5.76120 6.44712 6.11378
#
# Compressibility (1/GPa) = 0.01899716
#
# Stress axis : x y z
#
# Youngs Moduli (GPa) = 63.06858 89.29102 57.66390
#
# Poissons Ratio (x) = 0.21320 0.49683
# Poissons Ratio (y) = 0.15059 0.09782
# Poissons Ratio (z) = 0.54339 0.15146
#
# Static dielectric constant tensor:
#      x y z
#    x 4.687920 -0.023220 0.381290 
#    y -0.023220 4.672790 0.024140 
#    z 0.381290 0.024140 4.305000 
# 
# 
# High freq. dielectric constant tensor:
#      x y z
#    x 1.991760 0.006950 0.020920 
#    y 0.006950 1.986830 0.005030 
#    z 0.020920 0.005030 1.971780 
# 
# From -- ./inp_files/539783.got.cif
#   From: 2010.06.25/outbox.cif.g09.slc.cpg/sg2_270_cif.got.tgz:539783.got - 2010.06.27 13:26:56.
