data_PCOD8028146
_publ_section_title
;
Structure prediction by ZEFSAII (Michael W. Deem and Ramdas Pophale) SiO2 
 PCOD8028146
Probable space group: P -1
;
_chemical_formula_sum "Si O2"
_cell_formula_units_Z 14
_cell_length_a 19.354127
_cell_length_b 16.569339
_cell_length_c 8.516409
_cell_angle_alpha 127.888027
_cell_angle_beta 42.855945
_cell_angle_gamma 159.286688
_cell_volume 627.264868
_symmetry_space_group_name_H-M "P -1"
_symmetry_group_IT_number 2
_symmetry_cell_setting 'triclinic'
loop_
_space_group_symop_operation_xyz
x,y,z
-x,-y,-z
loop_
_atom_site_type_symbol
_atom_site_label
_atom_site_fract_x
_atom_site_fract_y
_atom_site_fract_z
Si Si1 0.511062 0.402511 0.281009
Si Si2 0.161048 0.731621 0.428982
Si Si3 0.627258 0.132658 0.279985
Si Si4 0.945137 0.091549 0.436570
Si Si5 0.961078 0.155534 0.133808
Si Si6 0.989995 0.627969 0.251636
Si Si7 0.299520 0.248319 0.110917
O O1 0.500000 0.500000 0.500000
O O2 0.404493 0.308493 0.172106
O O3 0.339921 0.169176 0.381303
O O4 0.777784 0.603531 0.090436
O O5 0.129726 0.811468 0.664524
O O6 0.113984 0.698469 0.285134
O O7 0.000000 0.500000 0.500000
O O8 0.430292 0.938915 0.243770
O O9 0.731015 0.341315 0.335502
O O10 0.500000 0.000000 0.500000
O O11 0.843959 0.250346 0.028811
O O12 0.000715 0.138286 0.215603
O O13 0.051627 0.289244 0.576519
O O14 0.061599 0.100816 0.342410
O O15 0.769789 0.916384 0.067868
O O16 0.500000 0.500000 0.000000
#
# Coordination Sequence:
#
# PCOD8028146 Si02
#       7
#     2   2   2   2   2   2   2
#     4  12  25  45  67  96 138 177 226 274 331 404
#     4  11  24  44  69  97 134 178 221 278 341 393
#     4  11  23  45  69  94 136 174 227 277 335 399
#     4  11  24  44  68  99 136 174 222 278 339 395
#     4  11  26  45  66 100 135 176 227 276 337 398
#     4  10  25  44  66 102 133 174 223 280 336 404
#     4  12  24  44  71  97 137 178 221 278 336 401
#
# _framework density 22.319120000000002
#
# number of rings (size 3 to 8) (size 9 to 14) (size 15 to 20)
#    0.000    0.857    4.286    2.143    4.000    1.143 
#    0.000    0.000    0.000    0.000    0.000    0.000 
#    0.000    0.000    0.000    0.000    0.000    0.000 
#
# Total GULP energy -173612.310285 kJ/mol
# GULP energy per Si atom -12400.879306 kJ/mol
# Density = 2.226832 g / cm^3
# Si number density = 22.319120 Si / 1000 Ang^3
#
#
#
# Elastic Constant Matrix: (Units=GPa)
#
#
# Indices 1 2 3 4 5 6 
#
# 1 42.4895 12.9434 6.6331 6.7546 -1.8544 -3.4325
# 2 12.9434 161.8803 42.4172 0.6330 1.5192 -6.1332
# 3 6.6331 42.4172 95.4493 -2.7289 10.4204 -10.2956
# 4 6.7546 0.6330 -2.7289 55.2581 -2.8800 -0.5367
# 5 -1.8544 1.5192 10.4204 -2.8800 23.3153 -0.0183
# 6 -3.4325 -6.1332 -10.2956 -0.5367 -0.0183 36.5324
#
#
#
# Elastic Compliance Matrix: (Units=1/GPa)
#
#
# Indices 1 2 3 4 5 6 
#
# 1 0.024917 -0.001636 -0.001150 -0.002951 0.002239 0.001700
# 2 -0.001636 0.007125 -0.003122 0.000008 0.000802 0.000163
# 3 -0.001150 -0.003122 0.012894 0.000551 -0.005580 0.003007
# 4 -0.002951 0.000008 0.000551 0.018581 0.001814 0.000153
# 5 0.002239 0.000802 -0.005580 0.001814 0.045733 -0.001178
# 6 0.001700 0.000163 0.003007 0.000153 -0.001178 0.028409
#
#
# Mechanical properties :
#
#
# Convention : Reuss Voigt Hill
#
# Bulk Modulus (GPa) = 30.19416 47.08964 38.64190
# Shear Modulus (GPa) = 31.14968 38.87617 35.01292
#
# Velocity S-wave (km/s) = 3.73989 4.17805 3.96503
# Velocity P-wave (km/s) = 5.67510 6.66476 6.18974
#
# Compressibility (1/GPa) = 0.03311898
#
# Stress axis : x y z
#
# Youngs Moduli (GPa) = 40.13276 140.35109 77.55827
#
# Poissons Ratio (x) = 0.22962 0.08919
# Poissons Ratio (y) = 0.06566 0.24217
# Poissons Ratio (z) = 0.04615 0.43823
#
# Static dielectric constant tensor:
#      x y z
#    x 4.218420 -0.029760 0.159690 
#    y -0.029760 4.495390 -0.150220 
#    z 0.159690 -0.150220 4.136290 
# 
# 
# High freq. dielectric constant tensor:
#      x y z
#    x 1.862700 -0.000880 0.006750 
#    y -0.000880 1.907120 -0.004570 
#    z 0.006750 -0.004570 1.884910 
# 
# From -- ./inp_files/55313.got.cif
#   From: 2010.06.25/outbox.cif.g09.slc.cpg/sg2_28_cif.got.tgz:55313.got - 2010.06.27 13:26:56.
