data_PCOD8028812
_publ_section_title
;
Structure prediction by ZEFSAII (Michael W. Deem and Ramdas Pophale) SiO2 
 PCOD8028812
Probable space group: P -1
;
_chemical_formula_sum "Si O2"
_cell_formula_units_Z 16
_cell_length_a 14.799139
_cell_length_b 11.513488
_cell_length_c 14.685803
_cell_angle_alpha 40.045629
_cell_angle_beta 28.023389
_cell_angle_gamma 37.913771
_cell_volume 701.422247
_symmetry_space_group_name_H-M "P -1"
_symmetry_group_IT_number 2
_symmetry_cell_setting 'triclinic'
loop_
_space_group_symop_operation_xyz
x,y,z
-x,-y,-z
loop_
_atom_site_type_symbol
_atom_site_label
_atom_site_fract_x
_atom_site_fract_y
_atom_site_fract_z
Si Si1 0.313910 0.271578 0.477153
Si Si2 0.911040 0.588309 0.665214
Si Si3 0.709211 0.029202 0.826119
Si Si4 0.692308 0.721134 0.308271
Si Si5 0.164430 0.988227 0.081058
Si Si6 0.096737 0.709575 0.600474
Si Si7 0.351356 0.653757 0.972454
Si Si8 0.266561 0.032011 0.512150
O O1 0.281212 0.255891 0.622068
O O2 0.527200 0.298549 0.248159
O O3 0.308593 0.073748 0.554889
O O4 0.122534 0.465541 0.495222
O O5 0.753057 0.766343 0.640728
O O6 0.966706 0.680374 0.649413
O O7 0.806374 0.434811 0.877727
O O8 0.688530 0.095664 0.910733
O O9 0.918741 0.834565 0.753810
O O10 0.746555 0.186646 0.632172
O O11 0.500000 0.000000 0.000000
O O12 0.758249 0.494330 0.360289
O O13 0.455778 0.849094 0.413277
O O14 0.839503 0.802429 0.071704
O O15 0.933169 0.017259 0.297221
O O16 0.235098 0.847959 0.016181
O O17 0.500000 0.500000 0.000000
#
# Coordination Sequence:
#
# PCOD8028812 Si02
#       8
#     2   2   2   2   2   2   2   2
#     4  11  23  40  60 100 146 188 227 272 336 408
#     4  11  22  41  71 102 137 183 235 288 332 409
#     4  11  27  48  80  99 130 178 242 298 343 408
#     4  11  27  43  67 102 150 183 223 283 353 417
#     4  12  26  43  68 107 139 187 235 277 347 420
#     4  10  26  50  70 105 135 174 236 295 347 406
#     4  12  23  35  68 105 141 180 230 277 339 413
#     4  12  22  40  67  96 149 184 225 283 338 408
#
# _framework density 22.810797999999998
#
# number of rings (size 3 to 8) (size 9 to 14) (size 15 to 20)
#    0.000    0.750    5.000    1.500    5.250    4.000 
#    0.000    1.250    0.000    0.000    0.000    0.000 
#    0.000    0.000    0.000    0.000    0.000    0.000 
#
# Total GULP energy -198417.936118 kJ/mol
# GULP energy per Si atom -12401.121007 kJ/mol
# Density = 2.275888 g / cm^3
# Si number density = 22.810798 Si / 1000 Ang^3
#
#
#
# Elastic Constant Matrix: (Units=GPa)
#
#
# Indices 1 2 3 4 5 6 
#
# 1 51.9181 2.0280 51.2216 -1.2238 -20.1190 2.9393
# 2 2.0280 138.5695 38.3488 -8.9264 -5.9138 -17.4005
# 3 51.2216 38.3488 148.4676 -14.0995 -20.3033 -5.2866
# 4 -1.2238 -8.9264 -14.0995 29.2358 1.3450 0.2099
# 5 -20.1190 -5.9138 -20.3033 1.3450 36.2883 -3.5815
# 6 2.9393 -17.4005 -5.2866 0.2099 -3.5815 28.3970
#
#
#
# Elastic Compliance Matrix: (Units=1/GPa)
#
#
# Indices 1 2 3 4 5 6 
#
# 1 0.036153 0.002750 -0.011755 -0.003934 0.013816 -0.002474
# 2 0.002750 0.008672 -0.002631 0.001373 0.001886 0.004767
# 3 -0.011755 -0.002631 0.011919 0.004453 -0.000269 0.001757
# 4 -0.003934 0.001373 0.004453 0.036624 -0.000653 0.001725
# 5 0.013816 0.001886 -0.000269 -0.000653 0.035813 0.004197
# 6 -0.002474 0.004767 0.001757 0.001725 0.004197 0.039236
#
#
# Mechanical properties :
#
#
# Convention : Reuss Voigt Hill
#
# Bulk Modulus (GPa) = 29.87620 58.01690 43.94655
# Shear Modulus (GPa) = 24.64927 35.27467 29.96197
#
# Velocity S-wave (km/s) = 3.29081 3.93670 3.62816
# Velocity P-wave (km/s) = 5.25024 6.79357 6.07115
#
# Compressibility (1/GPa) = 0.03347146
#
# Stress axis : x y z
#
# Youngs Moduli (GPa) = 27.66050 115.31494 83.89836
#
# Poissons Ratio (x) = -0.31708 0.98625
# Poissons Ratio (y) = -0.07606 0.22070
# Poissons Ratio (z) = 0.32516 0.30334
#
# Static dielectric constant tensor:
#      x y z
#    x 3.965540 -0.004440 -0.112940 
#    y -0.004440 4.513910 0.029210 
#    z -0.112940 0.029210 4.307570 
# 
# 
# High freq. dielectric constant tensor:
#      x y z
#    x 1.886000 0.000350 -0.008030 
#    y 0.000350 1.906160 0.001720 
#    z -0.008030 0.001720 1.905810 
# 
# From -- ./inp_files/531608.got.cif
#   From: 2010.06.25/outbox.cif.g09.slc.cpg/sg2_266_cif.got.tgz:531608.got - 2010.06.27 13:26:56.
