data_PCOD8028367
_publ_section_title
;
Structure prediction by ZEFSAII (Michael W. Deem and Ramdas Pophale) SiO2 
 PCOD8028367
Probable space group: P -1
;
_chemical_formula_sum "Si O2"
_cell_formula_units_Z 16
_cell_length_a 14.976977
_cell_length_b 6.681684
_cell_length_c 8.902341
_cell_angle_alpha 78.553347
_cell_angle_beta 116.330792
_cell_angle_gamma 82.587920
_cell_volume 758.298679
_symmetry_space_group_name_H-M "P -1"
_symmetry_group_IT_number 2
_symmetry_cell_setting 'triclinic'
loop_
_space_group_symop_operation_xyz
x,y,z
-x,-y,-z
loop_
_atom_site_type_symbol
_atom_site_label
_atom_site_fract_x
_atom_site_fract_y
_atom_site_fract_z
Si Si1 0.105946 0.947243 0.856176
Si Si2 0.560479 0.167755 0.568831
Si Si3 0.644422 0.572854 0.058759
Si Si4 0.960720 0.376231 0.695255
Si Si5 0.517878 0.540478 0.256101
Si Si6 0.116736 0.513603 0.086828
Si Si7 0.730301 0.870898 0.904985
Si Si8 0.881863 0.370830 0.309152
O O1 0.090310 0.876054 0.682758
O O2 0.126207 0.734069 0.996298
O O3 0.005978 0.127882 0.801615
O O4 0.204758 0.039933 0.935972
O O5 0.564223 0.317326 0.406461
O O6 0.504613 0.287523 0.655641
O O7 0.500000 0.000000 0.500000
O O8 0.676588 0.049962 0.719545
O O9 0.598703 0.593637 0.189598
O O10 0.762588 0.451598 0.173885
O O11 0.584792 0.454023 0.917397
O O12 0.642601 0.798010 0.947117
O O13 0.866454 0.472077 0.722572
O O14 0.908994 0.407995 0.491702
O O15 0.054313 0.495579 0.763544
O O16 0.199767 0.317508 0.112340
O O17 0.000000 0.500000 0.000000
#
# Coordination Sequence:
#
# PCOD8028367 Si02
#       8
#     2   2   2   2   2   2   2   2
#     4  12  21  41  67  90 126 183 216 268 328 384
#     4  11  24  46  68 102 132 170 218 277 337 393
#     4  11  21  48  66  98 131 175 219 274 335 396
#     4  11  24  40  64  96 132 179 216 272 328 383
#     4  10  25  45  75  93 136 172 216 283 337 394
#     4  12  23  43  65  95 134 173 224 272 316 396
#     4  12  25  40  73  98 132 177 225 270 333 398
#     4  11  23  42  63  94 138 166 219 279 322 390
#
# _framework density 21.099865000000001
#
# number of rings (size 3 to 8) (size 9 to 14) (size 15 to 20)
#    0.000    0.750    6.250    1.500    0.000    2.500 
#    2.250    0.000    0.000    0.000    0.000    0.000 
#    0.000    0.000    0.000    0.000    0.000    0.000 
#
# Total GULP energy -198285.078283 kJ/mol
# GULP energy per Si atom -12392.817393 kJ/mol
# Density = 2.105184 g / cm^3
# Si number density = 21.099865 Si / 1000 Ang^3
#
#
#
# Elastic Constant Matrix: (Units=GPa)
#
#
# Indices 1 2 3 4 5 6 
#
# 1 100.7774 41.5514 56.1662 0.7585 -20.7668 0.1167
# 2 41.5514 122.1720 46.7698 3.3203 -9.7499 -2.3242
# 3 56.1662 46.7698 97.7747 -0.2213 -9.3074 -8.4722
# 4 0.7585 3.3203 -0.2213 38.7640 -2.9103 5.2755
# 5 -20.7668 -9.7499 -9.3074 -2.9103 35.2721 2.0296
# 6 0.1167 -2.3242 -8.4722 5.2755 2.0296 24.6896
#
#
#
# Elastic Compliance Matrix: (Units=1/GPa)
#
#
# Indices 1 2 3 4 5 6 
#
# 1 0.017010 -0.002065 -0.008409 0.000902 0.007528 -0.003972
# 2 -0.002065 0.010387 -0.003741 -0.000801 0.000612 -0.000175
# 3 -0.008409 -0.003741 0.017177 -0.000343 -0.001815 0.005804
# 4 0.000902 -0.000801 -0.000343 0.026896 0.002793 -0.006174
# 5 0.007528 0.000612 -0.001815 0.002793 0.032929 -0.003904
# 6 -0.003972 -0.000175 0.005804 -0.006174 -0.003904 0.044137
#
#
# Mechanical properties :
#
#
# Convention : Reuss Voigt Hill
#
# Bulk Modulus (GPa) = 61.94380 67.74431 64.84406
# Shear Modulus (GPa) = 27.42024 31.49426 29.45725
#
# Velocity S-wave (km/s) = 3.60883 3.86765 3.74048
# Velocity P-wave (km/s) = 6.84003 7.21950 7.03233
#
# Compressibility (1/GPa) = 0.01614366
#
# Stress axis : x y z
#
# Youngs Moduli (GPa) = 58.78890 96.27448 58.21797
#
# Poissons Ratio (x) = 0.19885 0.48955
# Poissons Ratio (y) = 0.12142 0.21778
# Poissons Ratio (z) = 0.49435 0.36014
#
# Static dielectric constant tensor:
#      x y z
#    x 4.219860 -0.136520 -0.608700 
#    y -0.136520 4.320960 0.403180 
#    z -0.608700 0.403180 4.764260 
# 
# 
# High freq. dielectric constant tensor:
#      x y z
#    x 1.815200 0.004130 -0.003650 
#    y 0.004130 1.835650 0.011680 
#    z -0.003650 0.011680 1.847560 
# 
# From -- ./inp_files/288900.got.cif
#   From: 2010.06.25/outbox.cif.g09.slc.cpg/sg2_145_cif.got.tgz:288900.got - 2010.06.27 13:26:56.
