data_PCOD8028862
_publ_section_title
;
Structure prediction by ZEFSAII (Michael W. Deem and Ramdas Pophale) SiO2 
 PCOD8028862
Probable space group: P -1
;
_chemical_formula_sum "Si O2"
_cell_formula_units_Z 14
_cell_length_a 16.424077
_cell_length_b 29.007663
_cell_length_c 11.909529
_cell_angle_alpha 157.663672
_cell_angle_beta 34.368177
_cell_angle_gamma 158.331981
_cell_volume 772.203353
_symmetry_space_group_name_H-M "P -1"
_symmetry_group_IT_number 2
_symmetry_cell_setting 'triclinic'
loop_
_space_group_symop_operation_xyz
x,y,z
-x,-y,-z
loop_
_atom_site_type_symbol
_atom_site_label
_atom_site_fract_x
_atom_site_fract_y
_atom_site_fract_z
Si Si1 0.180108 0.332084 0.209197
Si Si2 0.642926 0.804139 0.268591
Si Si3 0.164370 0.494046 0.793421
Si Si4 0.889868 0.755804 0.550318
Si Si5 0.008594 0.871484 0.249185
Si Si6 0.332046 0.406189 0.795637
Si Si7 0.353288 0.174923 0.940385
O O1 0.092957 0.368199 0.483393
O O2 0.443337 0.533442 0.330253
O O3 0.175246 0.189366 0.938527
O O4 0.012073 0.233920 0.070712
O O5 0.590154 0.822355 0.246875
O O6 0.756233 0.984436 0.622779
O O7 0.415681 0.601981 0.131304
O O8 0.143897 0.401955 0.722699
O O9 0.425227 0.708864 0.974273
O O10 0.000000 0.500000 0.000000
O O11 0.839658 0.733847 0.425890
O O12 0.714369 0.727302 0.753326
O O13 0.149767 0.962002 0.741506
O O14 0.791845 0.700650 0.188055
O O15 0.000000 0.000000 0.500000
#
# Coordination Sequence:
#
# PCOD8028862 Si02
#       7
#     2   2   2   2   2   2   2
#     4   9  19  33  48  77 121 134 181 214 277 330
#     4   9  17  29  54  79 108 133 178 225 276 318
#     4  12  23  38  55  79 119 153 180 224 278 332
#     4  11  20  33  60  83 110 140 189 236 275 320
#     4  10  19  29  49  85 114 137 169 231 288 316
#     4  10  17  30  53  81 109 138 175 228 274 328
#     4  11  19  34  58  86 107 140 187 238 276 320
#
# _framework density 18.129939
#
# number of rings (size 3 to 8) (size 9 to 14) (size 15 to 20)
#    0.857    0.857    5.714    0.857    0.000    0.571 
#    0.000    0.000    0.000    1.714    0.000    0.000 
#    0.000    0.000    0.000    0.000    0.000    0.000 
#
# Total GULP energy -173475.763630 kJ/mol
# GULP energy per Si atom -12391.125974 kJ/mol
# Density = 1.808867 g / cm^3
# Si number density = 18.129939 Si / 1000 Ang^3
#
#
#
# Elastic Constant Matrix: (Units=GPa)
#
#
# Indices 1 2 3 4 5 6 
#
# 1 72.0272 28.3725 43.2433 -6.5328 27.2961 1.4053
# 2 28.3725 75.0318 31.4401 12.9813 4.1962 3.3216
# 3 43.2433 31.4401 73.4691 0.5617 26.5330 12.5813
# 4 -6.5328 12.9813 0.5617 21.0664 -0.6560 6.5513
# 5 27.2961 4.1962 26.5330 -0.6560 34.0865 -1.2885
# 6 1.4053 3.3216 12.5813 6.5513 -1.2885 30.8721
#
#
#
# Elastic Compliance Matrix: (Units=1/GPa)
#
#
# Indices 1 2 3 4 5 6 
#
# 1 0.029985 -0.010058 -0.007074 0.015597 -0.017021 -0.001420
# 2 -0.010058 0.023425 -0.009560 -0.018888 0.012489 0.006363
# 3 -0.007074 -0.009560 0.030200 0.006413 -0.017035 -0.013029
# 4 0.015597 -0.018888 0.006413 0.068429 -0.014460 -0.016416
# 5 -0.017021 0.012489 -0.017035 -0.014460 0.054855 0.011731
# 6 -0.001420 0.006363 -0.013029 -0.016416 0.011731 0.041054
#
#
# Mechanical properties :
#
#
# Convention : Reuss Voigt Hill
#
# Bulk Modulus (GPa) = 33.08354 47.40445 40.24399
# Shear Modulus (GPa) = 16.05613 25.03648 20.54630
#
# Velocity S-wave (km/s) = 2.97916 3.72014 3.37008
# Velocity P-wave (km/s) = 5.48830 6.68255 6.11465
#
# Compressibility (1/GPa) = 0.03022651
#
# Stress axis : x y z
#
# Youngs Moduli (GPa) = 33.34948 42.69022 33.11254
#
# Poissons Ratio (x) = 0.42939 0.23424
# Poissons Ratio (y) = 0.33543 0.31654
# Poissons Ratio (z) = 0.23591 0.40810
#
# Static dielectric constant tensor:
#      x y z
#    x 3.311770 -0.009370 0.538060 
#    y -0.009370 3.117460 0.340790 
#    z 0.538060 0.340790 3.305610 
# 
# 
# High freq. dielectric constant tensor:
#      x y z
#    x 1.689760 -0.016970 0.046030 
#    y -0.016970 1.683960 0.037290 
#    z 0.046030 0.037290 1.674360 
# 
# From -- ./inp_files/331458.got.cif
#   From: 2010.06.25/outbox.cif.g09.slc.cpg/sg2_166_cif.got.tgz:331458.got - 2010.06.27 13:26:56.
