data_PCOD8028187
_publ_section_title
;
Structure prediction by ZEFSAII (Michael W. Deem and Ramdas Pophale) SiO2 
 PCOD8028187
Probable space group: P -1
;
_chemical_formula_sum "Si O2"
_cell_formula_units_Z 14
_cell_length_a 9.974508
_cell_length_b 11.332486
_cell_length_c 9.562093
_cell_angle_alpha 109.526690
_cell_angle_beta 134.382811
_cell_angle_gamma 54.036292
_cell_volume 619.735815
_symmetry_space_group_name_H-M "P -1"
_symmetry_group_IT_number 2
_symmetry_cell_setting 'triclinic'
loop_
_space_group_symop_operation_xyz
x,y,z
-x,-y,-z
loop_
_atom_site_type_symbol
_atom_site_label
_atom_site_fract_x
_atom_site_fract_y
_atom_site_fract_z
Si Si1 0.005174 0.329323 0.320204
Si Si2 0.611616 0.361837 0.628886
Si Si3 0.130122 0.830386 0.492853
Si Si4 0.972433 0.642239 0.964855
Si Si5 0.643052 0.632748 0.288109
Si Si6 0.744615 0.906329 0.081151
Si Si7 0.237856 0.818234 0.864362
O O1 0.776781 0.467458 0.263493
O O2 0.966136 0.192316 0.225841
O O3 0.200852 0.299042 0.557401
O O4 0.069505 0.363805 0.231278
O O5 0.500000 0.500000 0.500000
O O6 0.702774 0.220018 0.536546
O O7 0.445141 0.363881 0.619826
O O8 0.808419 0.353867 0.855956
O O9 0.268138 0.749390 0.701694
O O10 0.929355 0.805079 0.294387
O O11 0.000000 0.000000 0.500000
O O12 0.760597 0.791359 0.931868
O O13 0.000000 0.500000 0.000000
O O14 0.457341 0.725789 0.076620
O O15 0.818348 0.014522 0.112042
O O16 0.500000 0.000000 0.000000
#
# Coordination Sequence:
#
# PCOD8028187 Si02
#       7
#     2   2   2   2   2   2   2
#     4  11  25  42  67 104 142 177 237 280 355 401
#     4  11  22  41  68 100 135 180 234 277 340 414
#     4   9  22  42  66  97 132 181 222 276 338 411
#     4  11  25  43  68 102 139 181 235 286 341 419
#     4  11  25  42  68 106 137 186 229 288 343 416
#     4  10  25  44  70 103 137 184 235 282 347 416
#     4  11  23  44  72  95 145 179 226 288 349 401
#
# _framework density 22.590271999999999
#
# number of rings (size 3 to 8) (size 9 to 14) (size 15 to 20)
#    0.000    1.429    1.429    2.143    6.000    6.286 
#    2.571    0.714    0.000    0.000    0.000    0.000 
#    0.000    0.000    0.000    0.000    0.000    0.000 
#
# Total GULP energy -173491.711934 kJ/mol
# GULP energy per Si atom -12392.265138 kJ/mol
# Density = 2.253886 g / cm^3
# Si number density = 22.590272 Si / 1000 Ang^3
#
#
#
# Elastic Constant Matrix: (Units=GPa)
#
#
# Indices 1 2 3 4 5 6 
#
# 1 119.9695 73.2182 46.8579 3.4446 -17.5036 -12.7969
# 2 73.2182 125.1089 35.0512 11.5468 -2.2286 -8.9935
# 3 46.8579 35.0512 151.1564 -7.4127 -11.7051 -1.9484
# 4 3.4446 11.5468 -7.4127 28.1453 0.0478 0.7389
# 5 -17.5036 -2.2286 -11.7051 0.0478 39.5953 8.8243
# 6 -12.7969 -8.9935 -1.9484 0.7389 8.8243 50.9465
#
#
#
# Elastic Compliance Matrix: (Units=1/GPa)
#
#
# Indices 1 2 3 4 5 6 
#
# 1 0.015024 -0.008020 -0.002339 0.000791 0.005195 0.001357
# 2 -0.008020 0.013458 -0.001118 -0.004854 -0.003328 0.000965
# 3 -0.002339 -0.001118 0.007836 0.002826 0.001387 -0.000766
# 4 0.000791 -0.004854 0.002826 0.038201 0.001157 -0.001304
# 5 0.005195 -0.003328 0.001387 0.001157 0.028714 -0.004220
# 6 0.001357 0.000965 -0.000766 -0.001304 -0.004220 0.020860
#
#
# Mechanical properties :
#
#
# Convention : Reuss Voigt Hill
#
# Bulk Modulus (GPa) = 74.82736 78.49884 76.66310
# Shear Modulus (GPa) = 33.00307 39.81125 36.40716
#
# Velocity S-wave (km/s) = 3.82637 4.20255 4.01887
# Velocity P-wave (km/s) = 7.26066 7.64022 7.45286
#
# Compressibility (1/GPa) = 0.01336409
#
# Stress axis : x y z
#
# Youngs Moduli (GPa) = 66.56146 74.30585 127.61491
#
# Poissons Ratio (x) = 0.59593 0.29849
# Poissons Ratio (y) = 0.53382 0.14265
# Poissons Ratio (z) = 0.15568 0.08306
#
# Static dielectric constant tensor:
#      x y z
#    x 3.959770 -0.001220 -0.141270 
#    y -0.001220 4.014400 0.105170 
#    z -0.141270 0.105170 4.911730 
# 
# 
# High freq. dielectric constant tensor:
#      x y z
#    x 1.881610 -0.005620 -0.002530 
#    y -0.005620 1.878940 0.008130 
#    z -0.002530 0.008130 1.916470 
# 
# From -- ./inp_files/188833.got.cif
#   From: 2010.06.25/outbox.cif.g09.slc.cpg/sg2_95_cif.got.tgz:188833.got - 2010.06.27 13:26:56.
