data_PCOD8028155
_publ_section_title
;
Structure prediction by ZEFSAII (Michael W. Deem and Ramdas Pophale) SiO2 
 PCOD8028155
Probable space group: P -1
;
_chemical_formula_sum "Si O2"
_cell_formula_units_Z 12
_cell_length_a 15.297665
_cell_length_b 8.174170
_cell_length_c 7.044593
_cell_angle_alpha 132.174310
_cell_angle_beta 68.904238
_cell_angle_gamma 127.163621
_cell_volume 518.698165
_symmetry_space_group_name_H-M "P -1"
_symmetry_group_IT_number 2
_symmetry_cell_setting 'triclinic'
loop_
_space_group_symop_operation_xyz
x,y,z
-x,-y,-z
loop_
_atom_site_type_symbol
_atom_site_label
_atom_site_fract_x
_atom_site_fract_y
_atom_site_fract_z
Si Si1 0.916875 0.711925 0.762340
Si Si2 0.682659 0.606924 0.955675
Si Si3 0.263687 0.107672 0.488658
Si Si4 0.414254 0.510931 0.435202
Si Si5 0.035763 0.636114 0.281289
Si Si6 0.564523 0.052828 0.797536
O O1 0.791507 0.636439 0.801349
O O2 0.922970 0.514904 0.744475
O O3 0.943890 0.663436 0.488743
O O4 0.000000 0.000000 0.000000
O O5 0.615752 0.641561 0.861856
O O6 0.602511 0.329715 0.898098
O O7 0.717052 0.834023 0.256381
O O8 0.303815 0.372937 0.543731
O O9 0.136386 0.927473 0.398518
O O10 0.328877 0.968964 0.267614
O O11 0.500000 0.500000 0.500000
O O12 0.468837 0.810764 0.560527
O O13 0.000000 0.500000 0.000000
O O14 0.500000 0.000000 0.000000
#
# Coordination Sequence:
#
# PCOD8028155 Si02
#       6
#     2   2   2   2   2   2
#     4  11  25  45  70 105 139 184 241 283 359 424
#     4  12  24  45  74  96 143 189 230 291 351 417
#     4  11  24  45  67 101 138 182 235 284 356 420
#     4  10  25  44  67 102 137 180 234 290 345 412
#     4  11  26  45  71 105 145 180 232 301 345 419
#     4  11  23  45  67 100 138 179 235 287 345 418
#
# _framework density 23.134844000000001
#
# number of rings (size 3 to 8) (size 9 to 14) (size 15 to 20)
#    0.000    1.000    5.000    0.500    2.333    6.000 
#    6.000    0.000    0.000    0.000    0.000    0.000 
#    0.000    0.000    0.000    0.000    0.000    0.000 
#
# Total GULP energy -148664.035973 kJ/mol
# GULP energy per Si atom -12388.669664 kJ/mol
# Density = 2.308219 g / cm^3
# Si number density = 23.134844 Si / 1000 Ang^3
#
#
#
# Elastic Constant Matrix: (Units=GPa)
#
#
# Indices 1 2 3 4 5 6 
#
# 1 78.4548 44.6543 55.2388 -16.7491 4.9908 11.6469
# 2 44.6543 142.7460 44.4166 -1.1105 12.9347 33.8003
# 3 55.2388 44.4166 185.9771 -21.5377 22.8168 19.6822
# 4 -16.7491 -1.1105 -21.5377 42.3028 6.7659 -2.6332
# 5 4.9908 12.9347 22.8168 6.7659 45.9995 0.0697
# 6 11.6469 33.8003 19.6822 -2.6332 0.0697 28.1330
#
#
#
# Elastic Compliance Matrix: (Units=1/GPa)
#
#
# Indices 1 2 3 4 5 6 
#
# 1 0.019538 -0.005204 -0.004168 0.005480 0.000602 0.001591
# 2 -0.005204 0.011682 0.000101 -0.002066 -0.002448 -0.012139
# 3 -0.004168 0.000101 0.007745 0.002683 -0.003807 -0.003554
# 4 0.005480 -0.002066 0.002683 0.028057 -0.005473 0.000976
# 5 0.000602 -0.002448 -0.003807 -0.005473 0.025049 0.004781
# 6 0.001591 -0.012139 -0.003554 0.000976 0.004781 0.052037
#
#
# Mechanical properties :
#
#
# Convention : Reuss Voigt Hill
#
# Bulk Modulus (GPa) = 48.96186 77.31080 63.13633
# Shear Modulus (GPa) = 29.50622 40.81159 35.15891
#
# Velocity S-wave (km/s) = 3.57515 4.20465 3.90261
# Velocity P-wave (km/s) = 6.18481 7.55394 6.90340
#
# Compressibility (1/GPa) = 0.02042406
#
# Stress axis : x y z
#
# Youngs Moduli (GPa) = 51.18228 85.60273 129.12026
#
# Poissons Ratio (x) = 0.44545 0.53818
# Poissons Ratio (y) = 0.26633 -0.01310
# Poissons Ratio (z) = 0.21333 -0.00868
#
# Static dielectric constant tensor:
#      x y z
#    x 5.045290 -0.690970 -0.367470 
#    y -0.690970 6.372250 0.843770 
#    z -0.367470 0.843770 4.949390 
# 
# 
# High freq. dielectric constant tensor:
#      x y z
#    x 1.889880 0.020660 0.005080 
#    y 0.020660 1.940650 -0.005060 
#    z 0.005080 -0.005060 1.925030 
# 
# From -- ./inp_files/105918.got.cif
#   From: 2010.06.25/outbox.cif.g09.slc.cpg/sg2_53_cif.got.tgz:105918.got - 2010.06.27 13:26:56.
