data_PCOD8028486
_publ_section_title
;
Structure prediction by ZEFSAII (Michael W. Deem and Ramdas Pophale) SiO2 
 PCOD8028486
Probable space group: P -1
;
_chemical_formula_sum "Si O2"
_cell_formula_units_Z 14
_cell_length_a 10.441174
_cell_length_b 8.566775
_cell_length_c 14.858012
_cell_angle_alpha 147.337264
_cell_angle_beta 131.406652
_cell_angle_gamma 54.822922
_cell_volume 537.354739
_symmetry_space_group_name_H-M "P -1"
_symmetry_group_IT_number 2
_symmetry_cell_setting 'triclinic'
loop_
_space_group_symop_operation_xyz
x,y,z
-x,-y,-z
loop_
_atom_site_type_symbol
_atom_site_label
_atom_site_fract_x
_atom_site_fract_y
_atom_site_fract_z
Si Si1 0.467393 0.775633 0.501020
Si Si2 0.089589 0.850327 0.755305
Si Si3 0.063113 0.088784 0.671419
Si Si4 0.642820 0.531208 0.007142
Si Si5 0.803447 0.924757 0.798758
Si Si6 0.372478 0.359919 0.673044
Si Si7 0.825692 0.628476 0.843145
O O1 0.611855 0.801506 0.657151
O O2 0.594292 0.757038 0.466758
O O3 0.360148 0.492031 0.322572
O O4 0.345740 0.072999 0.583722
O O5 0.056339 0.843279 0.627766
O O6 0.912229 0.819485 0.710993
O O7 0.791658 0.423677 0.292147
O O8 0.178353 0.150994 0.967370
O O9 0.952878 0.357813 0.791468
O O10 0.261478 0.169784 0.793471
O O11 0.000000 0.000000 0.500000
O O12 0.543916 0.518598 0.860152
O O13 0.787855 0.272741 0.957879
O O14 0.500000 0.500000 0.000000
O O15 0.892629 0.809658 0.876607
#
# Coordination Sequence:
#
# PCOD8028486 Si02
#       7
#     2   2   2   2   2   2   2
#     4  10  25  46  75 111 155 196 251 321 374 446
#     4  12  27  50  82 108 156 204 255 311 383 462
#     4  12  31  47  75 118 156 197 257 323 381 444
#     4  11  25  47  76 106 155 202 252 308 380 458
#     4  11  26  46  79 112 152 204 251 308 386 454
#     4  10  25  46  78 109 148 201 259 301 389 448
#     4  12  26  48  77 111 156 198 256 314 379 451
#
# _framework density 26.053553000000001
#
# number of rings (size 3 to 8) (size 9 to 14) (size 15 to 20)
#    0.000    0.857    1.429    3.000   14.000    4.000 
#    0.000    0.000    0.000    0.000    0.000    0.000 
#    0.000    0.000    0.000    0.000    0.000    0.000 
#
# Total GULP energy -173570.688188 kJ/mol
# GULP energy per Si atom -12397.906299 kJ/mol
# Density = 2.599425 g / cm^3
# Si number density = 26.053553 Si / 1000 Ang^3
#
#
#
# Elastic Constant Matrix: (Units=GPa)
#
#
# Indices 1 2 3 4 5 6 
#
# 1 98.9073 50.9755 13.2908 6.2168 -3.6191 -13.2450
# 2 50.9755 137.1324 26.5148 -15.1275 -8.5311 -19.4642
# 3 13.2908 26.5148 124.8505 5.4002 1.9721 2.6252
# 4 6.2168 -15.1275 5.4002 32.8671 4.0340 -11.4922
# 5 -3.6191 -8.5311 1.9721 4.0340 40.4591 3.9773
# 6 -13.2450 -19.4642 2.6252 -11.4922 3.9773 48.0254
#
#
#
# Elastic Compliance Matrix: (Units=1/GPa)
#
#
# Indices 1 2 3 4 5 6 
#
# 1 0.013265 -0.005399 -0.000064 -0.004963 0.000522 0.000243
# 2 -0.005399 0.011472 -0.002348 0.008438 0.000693 0.005251
# 3 -0.000064 -0.002348 0.008706 -0.003214 -0.000390 -0.002182
# 4 -0.004963 0.008438 -0.003214 0.040514 -0.003750 0.012232
# 5 0.000522 0.000693 -0.000390 -0.003750 0.025554 -0.002567
# 6 0.000243 0.005251 -0.002182 0.012232 -0.002567 0.026276
#
#
# Mechanical properties :
#
#
# Convention : Reuss Voigt Hill
#
# Bulk Modulus (GPa) = 56.11295 60.27251 58.19273
# Shear Modulus (GPa) = 33.93249 42.27759 38.10504
#
# Velocity S-wave (km/s) = 3.61281 4.03267 3.82850
# Velocity P-wave (km/s) = 6.24400 6.69832 6.47515
#
# Compressibility (1/GPa) = 0.01782120
#
# Stress axis : x y z
#
# Youngs Moduli (GPa) = 75.38462 87.16527 114.86147
#
# Poissons Ratio (x) = 0.47061 0.00738
# Poissons Ratio (y) = 0.40701 0.26970
# Poissons Ratio (z) = 0.00484 0.20467
#
# Static dielectric constant tensor:
#      x y z
#    x 4.488980 -0.213870 0.162530 
#    y -0.213870 4.866820 -0.379510 
#    z 0.162530 -0.379510 5.463710 
# 
# 
# High freq. dielectric constant tensor:
#      x y z
#    x 2.037420 -0.004820 0.011030 
#    y -0.004820 2.040200 -0.010580 
#    z 0.011030 -0.010580 2.062540 
# 
# From -- ./inp_files/464846.got.cif
#   From: 2010.06.25/outbox.cif.g09.slc.cpg/sg2_233_cif.got.tgz:464846.got - 2010.06.27 13:26:56.
