data_PCOD8028915
_publ_section_title
;
Structure prediction by ZEFSAII (Michael W. Deem and Ramdas Pophale) SiO2 
 PCOD8028915
Probable space group: P -1
;
_chemical_formula_sum "Si O2"
_cell_formula_units_Z 16
_cell_length_a 11.528677
_cell_length_b 9.136591
_cell_length_c 20.742450
_cell_angle_alpha 143.143031
_cell_angle_beta 128.638749
_cell_angle_gamma 42.707876
_cell_volume 885.300414
_symmetry_space_group_name_H-M "P -1"
_symmetry_group_IT_number 2
_symmetry_cell_setting 'triclinic'
loop_
_space_group_symop_operation_xyz
x,y,z
-x,-y,-z
loop_
_atom_site_type_symbol
_atom_site_label
_atom_site_fract_x
_atom_site_fract_y
_atom_site_fract_z
Si Si1 0.925055 0.470662 0.226507
Si Si2 0.377947 0.018620 0.908041
Si Si3 0.364394 0.827594 0.066830
Si Si4 0.163533 0.677278 0.376278
Si Si5 0.212356 0.926396 0.605191
Si Si6 0.159781 0.600796 0.971669
Si Si7 0.157852 0.983838 0.923117
Si Si8 0.523984 0.733793 0.733627
O O1 0.906548 0.447991 0.135733
O O2 0.893046 0.258026 0.182253
O O3 0.114656 0.433798 0.289790
O O4 0.783586 0.789277 0.312294
O O5 0.315613 0.305129 0.946778
O O6 0.219744 0.004754 0.880558
O O7 0.481575 0.755426 0.802663
O O8 0.500000 0.000000 0.000000
O O9 0.441188 0.014107 0.187168
O O10 0.500000 0.500000 0.000000
O O11 0.210296 0.845798 0.064319
O O12 0.302955 0.920087 0.004545
O O13 0.249435 0.728557 0.486634
O O14 0.305206 0.565140 0.328730
O O15 0.983116 0.964469 0.395987
O O16 0.360692 0.752628 0.647111
O O17 0.008849 0.717381 0.012796
#
# Coordination Sequence:
#
# PCOD8028915 Si02
#       8
#     2   2   2   2   2   2   2   2
#     4   9  17  35  57  79 104 134 178 232 267 302
#     4  12  23  34  46  76 117 149 174 208 258 328
#     4  11  19  33  52  79 110 138 179 222 256 315
#     4   9  19  34  56  84 100 130 181 235 266 311
#     4   9  19  34  56  85 100 130 178 235 273 304
#     4  11  20  35  52  77 107 148 181 216 262 313
#     4  11  21  33  52  76 110 148 179 209 261 329
#     4  12  19  34  54  78 112 143 172 216 276 308
#
# _framework density 18.072960999999999
#
# number of rings (size 3 to 8) (size 9 to 14) (size 15 to 20)
#    0.750    0.750    3.750    4.500    0.000    0.000 
#    2.250    0.000    0.000    1.500    0.000    0.000 
#    0.000    0.000    0.000    0.000    0.000    0.000 
#
# Total GULP energy -198248.592894 kJ/mol
# GULP energy per Si atom -12390.537056 kJ/mol
# Density = 1.803183 g / cm^3
# Si number density = 18.072961 Si / 1000 Ang^3
#
#
#
# Elastic Constant Matrix: (Units=GPa)
#
#
# Indices 1 2 3 4 5 6 
#
# 1 103.4820 22.2774 56.0670 -5.8182 -21.9625 -0.6846
# 2 22.2774 44.5532 24.3092 -0.7470 -9.4638 -7.6156
# 3 56.0670 24.3092 109.1798 -11.3062 -8.8337 -5.0560
# 4 -5.8182 -0.7470 -11.3062 17.9093 -5.9449 0.7220
# 5 -21.9625 -9.4638 -8.8337 -5.9449 30.8081 3.2884
# 6 -0.6846 -7.6156 -5.0560 0.7220 3.2884 32.5083
#
#
#
# Elastic Compliance Matrix: (Units=1/GPa)
#
#
# Indices 1 2 3 4 5 6 
#
# 1 0.016115 -0.002738 -0.006525 0.004378 0.009878 -0.002413
# 2 -0.002738 0.028068 -0.004336 -0.001137 0.004631 0.005400
# 3 -0.006525 -0.004336 0.014105 0.006288 -0.000831 0.000985
# 4 0.004378 -0.001137 0.006288 0.067193 0.017807 -0.002490
# 5 0.009878 0.004631 -0.000831 0.017807 0.044520 -0.003735
# 6 -0.002413 0.005400 0.000985 -0.002490 -0.003735 0.032562
#
#
# Mechanical properties :
#
#
# Convention : Reuss Voigt Hill
#
# Bulk Modulus (GPa) = 32.16577 51.39135 41.77856
# Shear Modulus (GPa) = 20.82251 26.54924 23.68587
#
# Velocity S-wave (km/s) = 3.39799 3.83692 3.62411
# Velocity P-wave (km/s) = 5.76468 6.93732 6.37801
#
# Compressibility (1/GPa) = 0.03108895
#
# Stress axis : x y z
#
# Youngs Moduli (GPa) = 62.05385 35.62795 70.89705
#
# Poissons Ratio (x) = 0.09757 0.46260
# Poissons Ratio (y) = 0.16993 0.30742
# Poissons Ratio (z) = 0.40490 0.15449
#
# Static dielectric constant tensor:
#      x y z
#    x 3.829210 -0.170170 0.066410 
#    y -0.170170 3.130470 0.046430 
#    z 0.066410 0.046430 3.322580 
# 
# 
# High freq. dielectric constant tensor:
#      x y z
#    x 1.698600 -0.034090 0.000420 
#    y -0.034090 1.672810 0.003220 
#    z 0.000420 0.003220 1.694290 
# 
# From -- ./inp_files/390206.got.cif
#   From: 2010.06.25/outbox.cif.g09.slc.cpg/sg2_196_cif.got.tgz:390206.got - 2010.06.27 13:26:56.
