data_PCOD8028553
_publ_section_title
;
Structure prediction by ZEFSAII (Michael W. Deem and Ramdas Pophale) SiO2 
 PCOD8028553
Probable space group: P -1
;
_chemical_formula_sum "Si O2"
_cell_formula_units_Z 14
_cell_length_a 12.273860
_cell_length_b 8.479620
_cell_length_c 8.820763
_cell_angle_alpha 45.279875
_cell_angle_beta 64.562571
_cell_angle_gamma 75.963166
_cell_volume 586.525500
_symmetry_space_group_name_H-M "P -1"
_symmetry_group_IT_number 2
_symmetry_cell_setting 'triclinic'
loop_
_space_group_symop_operation_xyz
x,y,z
-x,-y,-z
loop_
_atom_site_type_symbol
_atom_site_label
_atom_site_fract_x
_atom_site_fract_y
_atom_site_fract_z
Si Si1 0.687735 0.146805 0.535032
Si Si2 0.863148 0.651064 0.685742
Si Si3 0.094280 0.821766 0.100363
Si Si4 0.443371 0.253251 0.688050
Si Si5 0.714778 0.900592 0.384759
Si Si6 0.758149 0.639253 0.062786
Si Si7 0.907968 0.039896 0.670020
O O1 0.559900 0.109707 0.727198
O O2 0.742960 0.403811 0.314514
O O3 0.792460 0.030469 0.634000
O O4 0.660374 0.030072 0.468714
O O5 0.935133 0.431267 0.771814
O O6 0.806294 0.724908 0.511239
O O7 0.960507 0.860439 0.546483
O O8 0.755166 0.603763 0.905850
O O9 0.105567 0.795010 0.292471
O O10 0.220327 0.913956 0.889378
O O11 0.000000 0.000000 0.000000
O O12 0.500000 0.500000 0.500000
O O13 0.387997 0.229635 0.567546
O O14 0.345530 0.209365 0.912055
O O15 0.890266 0.782185 0.921049
#
# Coordination Sequence:
#
# PCOD8028553 Si02
#       7
#     2   2   2   2   2   2   2
#     4  11  26  46  72 104 144 189 238 292 347 419
#     4  12  27  44  72 108 143 186 234 287 364 422
#     4  12  27  45  70 105 146 188 230 292 356 425
#     4  10  25  47  74  99 142 190 238 296 351 407
#     4  12  24  48  71 103 146 183 240 294 348 421
#     4  11  24  46  68 106 144 187 232 292 348 415
#     4  12  26  43  73 105 145 187 235 285 359 423
#
# _framework density 23.869378000000001
#
# number of rings (size 3 to 8) (size 9 to 14) (size 15 to 20)
#    0.000    0.571    5.714    1.286    6.000    1.143 
#    0.000    2.857    0.000    0.000    0.000    0.000 
#    0.000    0.000    0.000    0.000    0.000    0.000 
#
# Total GULP energy -173453.358164 kJ/mol
# GULP energy per Si atom -12389.525583 kJ/mol
# Density = 2.381505 g / cm^3
# Si number density = 23.869378 Si / 1000 Ang^3
#
#
#
# Elastic Constant Matrix: (Units=GPa)
#
#
# Indices 1 2 3 4 5 6 
#
# 1 113.6896 58.7594 20.8257 1.8190 -6.4554 4.5109
# 2 58.7594 152.6769 48.2453 4.0115 -15.8212 -3.1923
# 3 20.8257 48.2453 102.3797 12.2632 -16.8627 -8.3032
# 4 1.8190 4.0115 12.2632 54.3778 -0.5701 -4.5632
# 5 -6.4554 -15.8212 -16.8627 -0.5701 29.2957 0.4460
# 6 4.5109 -3.1923 -8.3032 -4.5632 0.4460 44.4125
#
#
#
# Elastic Compliance Matrix: (Units=1/GPa)
#
#
# Indices 1 2 3 4 5 6 
#
# 1 0.011085 -0.004170 -0.000404 -0.000099 -0.000021 -0.001511
# 2 -0.004170 0.009408 -0.003189 0.000231 0.002323 0.000504
# 3 -0.000404 -0.003189 0.012684 -0.002397 0.005414 0.001883
# 4 -0.000099 0.000231 -0.002397 0.019036 -0.000930 0.001544
# 5 -0.000021 0.002323 0.005414 -0.000930 0.038472 0.000699
# 6 -0.001511 0.000504 0.001883 0.001544 0.000699 0.023209
#
#
# Mechanical properties :
#
#
# Convention : Reuss Voigt Hill
#
# Bulk Modulus (GPa) = 56.65429 69.37856 63.01642
# Shear Modulus (GPa) = 36.95346 41.67823 39.31584
#
# Velocity S-wave (km/s) = 3.93893 4.18316 4.06288
# Velocity P-wave (km/s) = 6.66885 7.24299 6.96184
#
# Compressibility (1/GPa) = 0.01765091
#
# Stress axis : x y z
#
# Youngs Moduli (GPa) = 90.20887 106.29798 78.83799
#
# Poissons Ratio (x) = 0.44324 0.03186
# Poissons Ratio (y) = 0.37615 0.25143
# Poissons Ratio (z) = 0.03645 0.33901
#
# Static dielectric constant tensor:
#      x y z
#    x 4.215600 -0.173640 -0.446550 
#    y -0.173640 5.000310 0.517190 
#    z -0.446550 0.517190 4.831960 
# 
# 
# High freq. dielectric constant tensor:
#      x y z
#    x 1.908180 0.005450 -0.013070 
#    y 0.005450 1.982790 0.011680 
#    z -0.013070 0.011680 1.962310 
# 
# From -- ./inp_files/181090.got.cif
#   From: 2010.06.25/outbox.cif.g09.slc.cpg/sg2_91_cif.got.tgz:181090.got - 2010.06.27 13:26:56.
