data_PCOD8028599
_publ_section_title
;
Structure prediction by ZEFSAII (Michael W. Deem and Ramdas Pophale) SiO2 
 PCOD8028599
Probable space group: P -1
;
_chemical_formula_sum "Si O2"
_cell_formula_units_Z 16
_cell_length_a 11.228528
_cell_length_b 5.294591
_cell_length_c 19.623933
_cell_angle_alpha 63.626294
_cell_angle_beta 42.193698
_cell_angle_gamma 51.943049
_cell_volume 616.809023
_symmetry_space_group_name_H-M "P -1"
_symmetry_group_IT_number 2
_symmetry_cell_setting 'triclinic'
loop_
_space_group_symop_operation_xyz
x,y,z
-x,-y,-z
loop_
_atom_site_type_symbol
_atom_site_label
_atom_site_fract_x
_atom_site_fract_y
_atom_site_fract_z
Si Si1 0.960789 0.939791 0.662555
Si Si2 0.668199 0.559798 0.497266
Si Si3 0.118318 0.518559 0.030821
Si Si4 0.234115 0.571134 0.832322
Si Si5 0.648086 0.223174 0.019138
Si Si6 0.606526 0.932922 0.759742
Si Si7 0.226243 0.411436 0.401383
Si Si8 0.235467 0.921735 0.661796
O O1 0.817989 0.772077 0.734009
O O2 0.160518 0.805588 0.544857
O O3 0.035977 0.946987 0.706251
O O4 0.790526 0.282268 0.667698
O O5 0.657782 0.666393 0.567214
O O6 0.436631 0.637618 0.572486
O O7 0.744360 0.756731 0.392465
O O8 0.125139 0.698485 0.936300
O O9 0.182405 0.675244 0.045701
O O10 0.258727 0.129112 0.012472
O O11 0.887727 0.595153 0.132508
O O12 0.221010 0.855727 0.755499
O O13 0.467282 0.318471 0.776721
O O14 0.521516 0.234922 0.138861
O O15 0.500000 0.500000 0.000000
O O16 0.655754 0.884249 0.664182
O O17 0.000000 0.500000 0.500000
#
# Coordination Sequence:
#
# PCOD8028599 Si02
#       8
#     2   2   2   2   2   2   2   2
#     4  12  24  43  65  99 139 183 242 297 363 426
#     4  11  25  44  64 101 136 191 235 301 358 431
#     4  10  25  51  75 112 148 195 243 301 384 438
#     4  10  25  48  74 102 143 194 240 305 359 453
#     4  11  26  48  81 113 152 186 242 313 372 444
#     4  11  27  43  71 105 134 193 240 292 370 441
#     4  12  24  43  68  94 143 183 239 296 357 430
#     4  11  25  42  68  99 140 185 240 297 359 436
#
# _framework density 25.939959999999999
#
# number of rings (size 3 to 8) (size 9 to 14) (size 15 to 20)
#    0.000    1.000    2.500    1.875    8.750    8.500 
#    2.250    0.000    0.000    0.000    0.000    0.000 
#    0.000    0.000    0.000    0.000    0.000    0.000 
#
# Total GULP energy -198305.983690 kJ/mol
# GULP energy per Si atom -12394.123981 kJ/mol
# Density = 2.588092 g / cm^3
# Si number density = 25.939960 Si / 1000 Ang^3
#
#
#
# Elastic Constant Matrix: (Units=GPa)
#
#
# Indices 1 2 3 4 5 6 
#
# 1 97.3078 28.6014 20.4767 -17.7974 -20.3584 -19.5702
# 2 28.6014 61.7482 15.6946 -5.9382 8.7338 -16.3307
# 3 20.4767 15.6946 88.0399 -1.1639 -3.1318 -17.5627
# 4 -17.7974 -5.9382 -1.1639 37.4173 -13.7974 4.2090
# 5 -20.3584 8.7338 -3.1318 -13.7974 47.5767 -0.3406
# 6 -19.5702 -16.3307 -17.5627 4.2090 -0.3406 39.2811
#
#
#
# Elastic Compliance Matrix: (Units=1/GPa)
#
#
# Indices 1 2 3 4 5 6 
#
# 1 0.018507 -0.007753 -0.001481 0.011730 0.012677 0.004188
# 2 -0.007753 0.022364 -0.001525 -0.003942 -0.008630 0.005101
# 3 -0.001481 -0.001525 0.012866 -0.000960 0.000247 0.004485
# 4 0.011730 -0.003942 -0.000960 0.037800 0.016641 -0.000130
# 5 0.012677 -0.008630 0.000247 0.016641 0.032879 0.001340
# 6 0.004188 0.005101 0.004485 -0.000130 0.001340 0.031696
#
#
# Mechanical properties :
#
#
# Convention : Reuss Voigt Hill
#
# Bulk Modulus (GPa) = 31.03825 41.84903 36.44364
# Shear Modulus (GPa) = 26.54354 37.00991 31.77673
#
# Velocity S-wave (km/s) = 3.20233 3.78134 3.50381
# Velocity P-wave (km/s) = 5.06602 5.93572 5.51803
#
# Compressibility (1/GPa) = 0.03221831
#
# Stress axis : x y z
#
# Youngs Moduli (GPa) = 54.03372 44.71414 77.72632
#
# Poissons Ratio (x) = 0.34668 0.11510
# Poissons Ratio (y) = 0.41894 0.11854
# Poissons Ratio (z) = 0.08001 0.06820
#
# Static dielectric constant tensor:
#      x y z
#    x 4.706200 -0.180710 -0.381680 
#    y -0.180710 4.388440 0.026510 
#    z -0.381680 0.026510 4.679090 
# 
# 
# High freq. dielectric constant tensor:
#      x y z
#    x 2.039310 -0.020950 -0.022440 
#    y -0.020950 2.029070 0.001060 
#    z -0.022440 0.001060 2.040230 
# 
# From -- ./inp_files/592688.got.cif
#   From: 2010.06.25/outbox.cif.g09.slc.cpg/sg2_297_cif.got.tgz:592688.got - 2010.06.27 13:26:56.
