data_PCOD8028985
_publ_section_title
;
Structure prediction by ZEFSAII (Michael W. Deem and Ramdas Pophale) SiO2 
 PCOD8028985
Probable space group: P -1
;
_chemical_formula_sum "Si O2"
_cell_formula_units_Z 16
_cell_length_a 9.435265
_cell_length_b 21.283291
_cell_length_c 11.281250
_cell_angle_alpha 50.799376
_cell_angle_beta 118.048243
_cell_angle_gamma 152.839538
_cell_volume 773.731875
_symmetry_space_group_name_H-M "P -1"
_symmetry_group_IT_number 2
_symmetry_cell_setting 'triclinic'
loop_
_space_group_symop_operation_xyz
x,y,z
-x,-y,-z
loop_
_atom_site_type_symbol
_atom_site_label
_atom_site_fract_x
_atom_site_fract_y
_atom_site_fract_z
Si Si1 0.908035 0.389843 0.766018
Si Si2 0.080576 0.629333 0.477553
Si Si3 0.553182 0.615201 0.857543
Si Si4 0.462394 0.061766 0.063850
Si Si5 0.227576 0.101939 0.580828
Si Si6 0.916054 0.120439 0.085933
Si Si7 0.955396 0.140645 0.452472
Si Si8 0.266429 0.862145 0.420103
O O1 0.967676 0.375564 0.676103
O O2 0.827860 0.451443 0.642121
O O3 0.220515 0.514086 0.822347
O O4 0.606580 0.215897 0.923953
O O5 0.406872 0.721147 0.523678
O O6 0.070352 0.711390 0.443288
O O7 0.713621 0.722505 0.913079
O O8 0.808294 0.732608 0.711769
O O9 0.500000 0.500000 0.000000
O O10 0.751777 0.130729 0.053414
O O11 0.353424 0.985421 0.242138
O O12 0.136547 0.909362 0.039782
O O13 0.089694 0.115095 0.591756
O O14 0.269057 0.036498 0.743973
O O15 0.000000 0.000000 0.500000
O O16 0.954216 0.210440 0.467865
O O17 0.598609 0.967420 0.468253
#
# Coordination Sequence:
#
# PCOD8028985 Si02
#       8
#     2   2   2   2   2   2   2   2
#     4  11  22  33  62  91 121 145 202 250 296 332
#     4  11  20  36  60  89 117 156 193 249 293 348
#     4  12  21  35  58  91 119 146 196 253 291 338
#     4  11  19  37  59  90 118 157 193 246 294 356
#     4  12  17  34  61  90 112 145 209 252 277 333
#     4  11  20  32  62  89 114 149 206 245 288 336
#     4  11  23  37  61  89 119 156 199 245 289 360
#     4  11  22  40  61  85 122 164 196 230 304 363
#
# _framework density 20.678998
#
# number of rings (size 3 to 8) (size 9 to 14) (size 15 to 20)
#    0.000    0.750    8.750    0.750    0.000    0.000 
#    0.000    1.250    2.750    2.250    0.000    0.000 
#    0.000    0.000    0.000    0.000    0.000    0.000 
#
# Total GULP energy -198248.213389 kJ/mol
# GULP energy per Si atom -12390.513337 kJ/mol
# Density = 2.063193 g / cm^3
# Si number density = 20.678998 Si / 1000 Ang^3
#
#
#
# Elastic Constant Matrix: (Units=GPa)
#
#
# Indices 1 2 3 4 5 6 
#
# 1 52.3906 21.8188 14.2968 -8.0973 2.4816 -11.3783
# 2 21.8188 107.3467 19.8186 15.6275 -2.4773 -9.5943
# 3 14.2968 19.8186 87.4427 -11.5006 22.1329 -7.6631
# 4 -8.0973 15.6275 -11.5006 37.8167 -7.5191 8.0365
# 5 2.4816 -2.4773 22.1329 -7.5191 22.2500 -4.8677
# 6 -11.3783 -9.5943 -7.6631 8.0365 -4.8677 24.5514
#
#
#
# Elastic Compliance Matrix: (Units=1/GPa)
#
#
# Indices 1 2 3 4 5 6 
#
# 1 0.023841 -0.004495 -0.002141 0.005208 0.002346 0.007385
# 2 -0.004495 0.012542 -0.003707 -0.007500 0.004130 0.004935
# 3 -0.002141 -0.003707 0.017076 0.003321 -0.016353 -0.001440
# 4 0.005208 -0.007500 0.003321 0.034735 0.004855 -0.009888
# 5 0.002346 0.004130 -0.016353 0.004855 0.064995 0.008894
# 6 0.007385 0.004935 -0.001440 -0.009888 0.008894 0.050632
#
#
# Mechanical properties :
#
#
# Convention : Reuss Voigt Hill
#
# Bulk Modulus (GPa) = 30.51220 39.89427 35.20324
# Shear Modulus (GPa) = 21.23765 29.67334 25.45549
#
# Velocity S-wave (km/s) = 3.20818 3.79218 3.51234
# Velocity P-wave (km/s) = 5.33952 6.20550 5.78873
#
# Compressibility (1/GPa) = 0.03277377
#
# Stress axis : x y z
#
# Youngs Moduli (GPa) = 41.94423 79.73312 58.56179
#
# Poissons Ratio (x) = 0.35837 0.12537
# Poissons Ratio (y) = 0.18852 0.21709
# Poissons Ratio (z) = 0.08980 0.29558
#
# Static dielectric constant tensor:
#      x y z
#    x 2.815360 1.188090 0.500860 
#    y 1.188090 -0.146250 -0.658700 
#    z 0.500860 -0.658700 3.869870 
# 
# 
# High freq. dielectric constant tensor:
#      x y z
#    x 1.753210 -0.013740 0.034280 
#    y -0.013740 1.822520 0.008310 
#    z 0.034280 0.008310 1.817720 
# 
# From -- ./inp_files/277785.got.cif
#   From: 2010.06.25/outbox.cif.g09.slc.cpg/sg2_139_cif.got.tgz:277785.got - 2010.06.27 13:26:56.
