data_PCOD8028558
_publ_section_title
;
Structure prediction by ZEFSAII (Michael W. Deem and Ramdas Pophale) SiO2 
 PCOD8028558
Probable space group: P -1
;
_chemical_formula_sum "Si O2"
_cell_formula_units_Z 16
_cell_length_a 15.359714
_cell_length_b 5.305154
_cell_length_c 8.110193
_cell_angle_alpha 102.974548
_cell_angle_beta 70.453257
_cell_angle_gamma 97.001686
_cell_volume 606.090426
_symmetry_space_group_name_H-M "P -1"
_symmetry_group_IT_number 2
_symmetry_cell_setting 'triclinic'
loop_
_space_group_symop_operation_xyz
x,y,z
-x,-y,-z
loop_
_atom_site_type_symbol
_atom_site_label
_atom_site_fract_x
_atom_site_fract_y
_atom_site_fract_z
Si Si1 0.151688 0.868914 0.036492
Si Si2 0.219604 0.719420 0.458320
Si Si3 0.591819 0.211829 0.795633
Si Si4 0.007422 0.430087 0.758987
Si Si5 0.695296 0.407779 0.266230
Si Si6 0.507615 0.326463 0.216139
Si Si7 0.166823 0.174328 0.753559
Si Si8 0.918634 0.764099 0.618804
O O1 0.071693 0.640179 0.067495
O O2 0.146893 0.015062 0.239366
O O3 0.253349 0.766089 0.928693
O O4 0.123463 0.042708 0.925053
O O5 0.296640 0.766368 0.274777
O O6 0.276606 0.672232 0.581538
O O7 0.148215 0.489923 0.416086
O O8 0.165874 0.982150 0.567346
O O9 0.552019 0.421948 0.726435
O O10 0.556856 0.921133 0.724054
O O11 0.561319 0.272270 0.007138
O O12 0.986794 0.696560 0.719146
O O13 0.108338 0.427788 0.781987
O O14 0.015503 0.196475 0.580027
O O15 0.585244 0.380978 0.314709
O O16 0.729400 0.708338 0.257844
#
# Coordination Sequence:
#
# PCOD8028558 Si02
#       8
#     2   2   2   2   2   2   2   2
#     4  11  26  42  71  98 134 194 235 298 348 424
#     4  11  27  45  70 105 139 187 231 294 361 421
#     4  10  25  47  77 108 141 186 236 300 360 442
#     4  11  25  44  67  98 142 188 237 295 353 414
#     4  11  26  47  68 104 144 184 230 292 357 431
#     4  10  25  47  75 109 145 182 238 296 365 437
#     4  11  26  46  65 102 144 185 239 289 355 429
#     4  11  26  43  69 102 137 186 243 294 349 420
#
# _framework density 26.398700000000002
#
# number of rings (size 3 to 8) (size 9 to 14) (size 15 to 20)
#    0.000    1.250    1.250    1.500   14.000    5.000 
#    0.000    0.000    0.000    0.000    0.000    0.000 
#    0.000    0.000    0.000    0.000    0.000    0.000 
#
# Total GULP energy -198341.715812 kJ/mol
# GULP energy per Si atom -12396.357238 kJ/mol
# Density = 2.633862 g / cm^3
# Si number density = 26.398700 Si / 1000 Ang^3
#
#
#
# Elastic Constant Matrix: (Units=GPa)
#
#
# Indices 1 2 3 4 5 6 
#
# 1 77.3774 -1.6926 -9.5390 1.4595 -4.9230 -6.7921
# 2 -1.6926 64.9818 -2.8375 6.0935 -6.7375 -11.2229
# 3 -9.5390 -2.8375 90.9680 9.0690 -26.6374 2.9285
# 4 1.4595 6.0935 9.0690 42.3744 2.8997 4.1436
# 5 -4.9230 -6.7375 -26.6374 2.8997 29.4336 2.2211
# 6 -6.7921 -11.2229 2.9285 4.1436 2.2211 33.3686
#
#
#
# Elastic Compliance Matrix: (Units=1/GPa)
#
#
# Indices 1 2 3 4 5 6 
#
# 1 0.014053 0.001843 0.003339 -0.002159 0.005775 0.003071
# 2 0.001843 0.017782 0.003071 -0.004367 0.007124 0.006155
# 3 0.003339 0.003071 0.017021 -0.005352 0.017212 -0.000262
# 4 -0.002159 -0.004367 -0.005352 0.026435 -0.008495 -0.004156
# 5 0.005775 0.007124 0.017212 -0.008495 0.053017 -0.000413
# 6 0.003071 0.006155 -0.000262 -0.004156 -0.000413 0.033230
#
#
# Mechanical properties :
#
#
# Convention : Reuss Voigt Hill
#
# Bulk Modulus (GPa) = 15.29917 22.79877 19.04897
# Shear Modulus (GPa) = 29.97266 37.52840 33.75053
#
# Velocity S-wave (km/s) = 3.37320 3.77450 3.57948
# Velocity P-wave (km/s) = 4.58032 5.25841 4.93104
#
# Compressibility (1/GPa) = 0.06536301
#
# Stress axis : x y z
#
# Youngs Moduli (GPa) = 71.15777 56.23610 58.75125
#
# Poissons Ratio (x) = -0.10367 -0.19614
# Poissons Ratio (y) = -0.13118 -0.18044
# Poissons Ratio (z) = -0.23756 -0.17272
#
# Static dielectric constant tensor:
#      x y z
#    x 4.549380 -0.073010 -0.102740 
#    y -0.073010 4.830370 0.066130 
#    z -0.102740 0.066130 5.118920 
# 
# 
# High freq. dielectric constant tensor:
#      x y z
#    x 2.047090 -0.001130 -0.003520 
#    y -0.001130 2.060440 0.002360 
#    z -0.003520 0.002360 2.083800 
# 
# From -- ./inp_files/107155.got.cif
#   From: 2010.06.25/outbox.cif.g09.slc.cpg/sg2_54_cif.got.tgz:107155.got - 2010.06.27 13:26:56.
