data_PCOD8028154
_publ_section_title
;
Structure prediction by ZEFSAII (Michael W. Deem and Ramdas Pophale) SiO2 
 PCOD8028154
Probable space group: P -1
;
_chemical_formula_sum "Si O2"
_cell_formula_units_Z 16
_cell_length_a 9.588535
_cell_length_b 12.039768
_cell_length_c 14.921278
_cell_angle_alpha 152.800075
_cell_angle_beta 63.670013
_cell_angle_gamma 109.395992
_cell_volume 697.459707
_symmetry_space_group_name_H-M "P -1"
_symmetry_group_IT_number 2
_symmetry_cell_setting 'triclinic'
loop_
_space_group_symop_operation_xyz
x,y,z
-x,-y,-z
loop_
_atom_site_type_symbol
_atom_site_label
_atom_site_fract_x
_atom_site_fract_y
_atom_site_fract_z
Si Si1 0.450540 0.748760 0.050945
Si Si2 0.413157 0.765017 0.365953
Si Si3 0.642798 0.878369 0.927979
Si Si4 0.118813 0.375143 0.447413
Si Si5 0.891009 0.162178 0.873598
Si Si6 0.603584 0.765199 0.472555
Si Si7 0.121738 0.070230 0.590383
Si Si8 0.795358 0.346523 0.213298
O O1 0.287710 0.758506 0.051510
O O2 0.434260 0.957095 0.280594
O O3 0.503240 0.478086 0.885963
O O4 0.593493 0.778950 0.965239
O O5 0.451497 0.700151 0.414360
O O6 0.500000 0.000000 0.500000
O O7 0.231395 0.832306 0.434532
O O8 0.721761 0.668920 0.687231
O O9 0.500000 0.000000 0.000000
O O10 0.751728 0.084425 0.064652
O O11 0.075865 0.128304 0.326392
O O12 0.113956 0.567997 0.667416
O O13 0.000000 0.500000 0.500000
O O14 0.017870 0.220958 0.806299
O O15 0.908488 0.309686 0.066676
O O16 0.762403 0.755831 0.359772
O O17 0.643613 0.558158 0.389006
O O18 0.000000 0.000000 0.500000
#
# Coordination Sequence:
#
# PCOD8028154 Si02
#       8
#     2   2   2   2   2   2   2   2
#     4  12  22  44  69  99 137 175 233 285 336 414
#     4  10  25  44  67 102 132 175 236 287 333 410
#     4  11  22  40  67 101 130 181 230 278 342 409
#     4  11  25  44  66  96 143 181 231 291 346 412
#     4  11  23  44  67 101 137 182 234 280 344 421
#     4  11  22  44  71 101 137 182 230 288 339 402
#     4  11  23  44  71  98 138 184 219 278 358 404
#     4  11  22  44  71  96 138 182 231 284 345 406
#
# _framework density 22.940393
#
# number of rings (size 3 to 8) (size 9 to 14) (size 15 to 20)
#    0.000    1.000    6.250    0.000    1.750    7.500 
#    2.250    0.000    0.000    0.000    0.000    0.000 
#    0.000    0.000    0.000    0.000    0.000    0.000 
#
# Total GULP energy -198258.772435 kJ/mol
# GULP energy per Si atom -12391.173277 kJ/mol
# Density = 2.288818 g / cm^3
# Si number density = 22.940393 Si / 1000 Ang^3
#
#
#
# Elastic Constant Matrix: (Units=GPa)
#
#
# Indices 1 2 3 4 5 6 
#
# 1 128.6685 33.9335 51.2762 -16.8951 -1.1233 -35.0773
# 2 33.9335 83.3074 48.1085 -18.0792 -7.4082 2.9291
# 3 51.2762 48.1085 152.2651 -24.3076 9.9583 1.7391
# 4 -16.8951 -18.0792 -24.3076 42.6842 -5.1288 -3.5081
# 5 -1.1233 -7.4082 9.9583 -5.1288 39.4203 -2.7986
# 6 -35.0773 2.9291 1.7391 -3.5081 -2.7986 35.4018
#
#
#
# Elastic Compliance Matrix: (Units=1/GPa)
#
#
# Indices 1 2 3 4 5 6 
#
# 1 0.015050 -0.003505 -0.003661 0.003981 0.002346 0.015962
# 2 -0.003505 0.016979 -0.003808 0.003822 0.004268 -0.003974
# 3 -0.003661 -0.003808 0.009526 0.001649 -0.003287 -0.003877
# 4 0.003981 0.003822 0.001649 0.028673 0.004625 0.006755
# 5 0.002346 0.004268 -0.003287 0.004625 0.028010 0.004806
# 6 0.015962 -0.003974 -0.003877 0.006755 0.004806 0.045631
#
#
# Mechanical properties :
#
#
# Convention : Reuss Voigt Hill
#
# Bulk Modulus (GPa) = 51.00009 70.09750 60.54880
# Shear Modulus (GPa) = 29.01047 38.89612 33.95329
#
# Velocity S-wave (km/s) = 3.55998 4.12215 3.85134
# Velocity P-wave (km/s) = 6.25922 7.29924 6.79914
#
# Compressibility (1/GPa) = 0.01960781
#
# Stress axis : x y z
#
# Youngs Moduli (GPa) = 66.44589 58.89625 104.97554
#
# Poissons Ratio (x) = 0.20641 0.38431
# Poissons Ratio (y) = 0.23287 0.39974
# Poissons Ratio (z) = 0.24326 0.22427
#
# Static dielectric constant tensor:
#      x y z
#    x 3.995640 -0.553410 -0.231090 
#    y -0.553410 4.014360 -0.073480 
#    z -0.231090 -0.073480 4.225830 
# 
# 
# High freq. dielectric constant tensor:
#      x y z
#    x 1.886830 -0.017020 -0.000250 
#    y -0.017020 1.905080 0.005990 
#    z -0.000250 0.005990 1.924280 
# 
# From -- ./inp_files/501103.got.cif
#   From: 2010.06.25/outbox.cif.g09.slc.cpg/sg2_251_cif.got.tgz:501103.got - 2010.06.27 13:26:56.
