data_PCOD8028447
_publ_section_title
;
Structure prediction by ZEFSAII (Michael W. Deem and Ramdas Pophale) SiO2 
 PCOD8028447
Probable space group: P -1
;
_chemical_formula_sum "Si O2"
_cell_formula_units_Z 16
_cell_length_a 20.316128
_cell_length_b 17.958067
_cell_length_c 8.778030
_cell_angle_alpha 136.599693
_cell_angle_beta 40.467834
_cell_angle_gamma 160.304393
_cell_volume 699.734349
_symmetry_space_group_name_H-M "P -1"
_symmetry_group_IT_number 2
_symmetry_cell_setting 'triclinic'
loop_
_space_group_symop_operation_xyz
x,y,z
-x,-y,-z
loop_
_atom_site_type_symbol
_atom_site_label
_atom_site_fract_x
_atom_site_fract_y
_atom_site_fract_z
Si Si1 0.690307 0.735670 0.597080
Si Si2 0.391827 0.096876 0.979057
Si Si3 0.320238 0.753630 0.121871
Si Si4 0.901898 0.369856 0.138998
Si Si5 0.357028 0.665053 0.385108
Si Si6 0.600727 0.937801 0.629878
Si Si7 0.003520 0.831132 0.732542
Si Si8 0.084705 0.071203 0.210271
O O1 0.500000 0.500000 0.500000
O O2 0.888389 0.871652 0.366916
O O3 0.666660 0.840770 0.759858
O O4 0.716306 0.739986 0.742458
O O5 0.623458 0.268788 0.867342
O O6 0.425744 0.133299 0.791861
O O7 0.226823 0.860161 0.988378
O O8 0.085690 0.509157 0.133939
O O9 0.345404 0.905195 0.331809
O O10 0.488890 0.870773 0.878051
O O11 0.758625 0.327500 0.401394
O O12 0.000000 0.500000 0.000000
O O13 0.439240 0.715458 0.486005
O O14 0.199970 0.426739 0.248532
O O15 0.810421 0.072136 0.507123
O O16 0.933150 0.838010 0.724001
O O17 0.089189 0.974919 0.942234
#
# Coordination Sequence:
#
# PCOD8028447 Si02
#       8
#     2   2   2   2   2   2   2   2
#     4  11  25  48  73  99 138 183 239 290 354 409
#     4  12  27  43  69 104 142 178 229 292 347 412
#     4  11  23  39  65  98 136 183 232 273 343 418
#     4  12  24  44  68 100 143 188 229 277 345 423
#     4  12  25  42  68 102 145 184 231 281 351 418
#     4  11  22  40  66  99 138 183 233 281 338 424
#     4  11  24  44  71 102 142 185 230 297 353 402
#     4  10  25  46  71 102 134 181 244 292 345 419
#
# _framework density 22.865819999999999
#
# number of rings (size 3 to 8) (size 9 to 14) (size 15 to 20)
#    0.000    0.750    3.750    3.375    1.750    6.500 
#    0.000    3.125    0.000    0.000    0.000    0.000 
#    0.000    0.000    0.000    0.000    0.000    0.000 
#
# Total GULP energy -198311.718565 kJ/mol
# GULP energy per Si atom -12394.482410 kJ/mol
# Density = 2.281378 g / cm^3
# Si number density = 22.865820 Si / 1000 Ang^3
#
#
#
# Elastic Constant Matrix: (Units=GPa)
#
#
# Indices 1 2 3 4 5 6 
#
# 1 110.1966 47.4716 33.6014 29.0798 -5.1937 12.7864
# 2 47.4716 115.2089 39.5517 10.8511 4.7423 11.7264
# 3 33.6014 39.5517 96.4164 12.7445 -1.4940 -4.9215
# 4 29.0798 10.8511 12.7445 32.0860 5.6359 5.4906
# 5 -5.1937 4.7423 -1.4940 5.6359 35.7494 4.4887
# 6 12.7864 11.7264 -4.9215 5.4906 4.4887 38.0930
#
#
#
# Elastic Compliance Matrix: (Units=1/GPa)
#
#
# Indices 1 2 3 4 5 6 
#
# 1 0.015316 -0.004398 -0.002023 -0.011966 0.004976 -0.002910
# 2 -0.004398 0.011980 -0.003874 0.002371 -0.002416 -0.002769
# 3 -0.002023 -0.003874 0.013264 -0.002926 0.000743 0.003920
# 4 -0.011966 0.002371 -0.002926 0.044345 -0.008860 -0.002439
# 5 0.004976 -0.002416 0.000743 -0.008860 0.030844 -0.003188
# 6 -0.002910 -0.002769 0.003920 -0.002439 -0.003188 0.029314
#
#
# Mechanical properties :
#
#
# Convention : Reuss Voigt Hill
#
# Bulk Modulus (GPa) = 50.07510 62.56349 56.31929
# Shear Modulus (GPa) = 29.01721 34.59882 31.80802
#
# Velocity S-wave (km/s) = 3.56620 3.89411 3.73375
# Velocity P-wave (km/s) = 6.23732 6.90212 6.57812
#
# Compressibility (1/GPa) = 0.01997001
#
# Stress axis : x y z
#
# Youngs Moduli (GPa) = 65.29025 83.47271 75.39004
#
# Poissons Ratio (x) = 0.36711 0.15254
# Poissons Ratio (y) = 0.28714 0.29206
# Poissons Ratio (z) = 0.13211 0.32337
#
# Static dielectric constant tensor:
#      x y z
#    x 4.493430 0.235810 -0.032230 
#    y 0.235810 4.032620 0.052660 
#    z -0.032230 0.052660 4.157180 
# 
# 
# High freq. dielectric constant tensor:
#      x y z
#    x 1.913540 0.016470 0.000670 
#    y 0.016470 1.893360 -0.001290 
#    z 0.000670 -0.001290 1.914010 
# 
# From -- ./inp_files/348932.got.cif
#   From: 2010.06.25/outbox.cif.g09.slc.cpg/sg2_175_cif.got.tgz:348932.got - 2010.06.27 13:26:56.
