data_PCOD8028391
_publ_section_title
;
Structure prediction by ZEFSAII (Michael W. Deem and Ramdas Pophale) SiO2 
 PCOD8028391
Probable space group: P -1
;
_chemical_formula_sum "Si O2"
_cell_formula_units_Z 16
_cell_length_a 14.969044
_cell_length_b 15.113524
_cell_length_c 14.917780
_cell_angle_alpha 141.113307
_cell_angle_beta 160.200366
_cell_angle_gamma 38.812293
_cell_volume 700.057787
_symmetry_space_group_name_H-M "P -1"
_symmetry_group_IT_number 2
_symmetry_cell_setting 'triclinic'
loop_
_space_group_symop_operation_xyz
x,y,z
-x,-y,-z
loop_
_atom_site_type_symbol
_atom_site_label
_atom_site_fract_x
_atom_site_fract_y
_atom_site_fract_z
Si Si1 0.404259 0.961519 0.607118
Si Si2 0.694664 0.342129 0.747185
Si Si3 0.117956 0.686919 0.294575
Si Si4 0.701247 0.052037 0.796973
Si Si5 0.559381 0.344018 0.974527
Si Si6 0.116320 0.511321 0.321843
Si Si7 0.528260 0.874126 0.855757
Si Si8 0.047097 0.267434 0.511394
O O1 0.289755 0.827480 0.354470
O O2 0.528172 0.932660 0.800346
O O3 0.645265 0.994322 0.797899
O O4 0.143239 0.094282 0.469410
O O5 0.736243 0.371711 0.705647
O O6 0.400456 0.430907 0.568110
O O7 0.915784 0.401664 0.060671
O O8 0.135461 0.547122 0.263313
O O9 0.277965 0.799139 0.578057
O O10 0.807653 0.761331 0.044489
O O11 0.638315 0.225970 0.876929
O O12 0.500000 0.000000 0.500000
O O13 0.000000 0.000000 0.000000
O O14 0.283485 0.335886 0.753361
O O15 0.500000 0.500000 0.000000
O O16 0.792948 0.316598 0.246608
O O17 0.020754 0.665863 0.401661
O O18 0.500000 0.000000 0.000000
#
# Coordination Sequence:
#
# PCOD8028391 Si02
#       8
#     2   2   2   2   2   2   2   2
#     4  10  25  46  68 100 139 173 226 281 333 402
#     4  11  24  41  65  97 134 180 222 279 333 388
#     4  11  23  40  61  93 137 181 224 276 332 390
#     4  11  25  44  70 100 131 176 220 274 339 398
#     4  11  25  47  69  96 131 167 213 272 338 405
#     4  12  24  42  66  99 133 176 231 273 327 403
#     4  11  23  40  67 100 135 184 227 275 335 397
#     4  11  25  44  69  97 130 173 212 274 339 391
#
# _framework density 22.855256000000001
#
# number of rings (size 3 to 8) (size 9 to 14) (size 15 to 20)
#    0.000    1.000    0.000    6.750    0.000   15.000 
#    0.000    0.000    0.000    0.000    0.000    0.000 
#    0.000    0.000    0.000    0.000    0.000    0.000 
#
# Total GULP energy -198449.627292 kJ/mol
# GULP energy per Si atom -12403.101706 kJ/mol
# Density = 2.280324 g / cm^3
# Si number density = 22.855256 Si / 1000 Ang^3
#
#
#
# Elastic Constant Matrix: (Units=GPa)
#
#
# Indices 1 2 3 4 5 6 
#
# 1 78.9914 47.4748 35.2981 6.8221 11.5648 -15.8903
# 2 47.4748 155.9741 52.8112 10.5517 13.6993 -3.9518
# 3 35.2981 52.8112 153.8227 -3.8527 10.1971 -1.1910
# 4 6.8221 10.5517 -3.8527 42.4909 -6.2934 -0.5785
# 5 11.5648 13.6993 10.1971 -6.2934 33.9034 1.5858
# 6 -15.8903 -3.9518 -1.1910 -0.5785 1.5858 38.9668
#
#
#
# Elastic Compliance Matrix: (Units=1/GPa)
#
#
# Indices 1 2 3 4 5 6 
#
# 1 0.018637 -0.003990 -0.002602 -0.002854 -0.004832 0.007270
# 2 -0.003990 0.008562 -0.001957 -0.001945 -0.001835 -0.000773
# 3 -0.002602 -0.001957 0.007824 0.001549 -0.000341 -0.000983
# 4 -0.002854 -0.001945 0.001549 0.025501 0.006083 -0.001183
# 5 -0.004832 -0.001835 -0.000341 0.006083 0.033278 -0.003431
# 6 0.007270 -0.000773 -0.000983 -0.001183 -0.003431 0.028641
#
#
# Mechanical properties :
#
#
# Convention : Reuss Voigt Hill
#
# Bulk Modulus (GPa) = 55.78836 73.32848 64.55842
# Shear Modulus (GPa) = 34.36114 39.95248 37.15681
#
# Velocity S-wave (km/s) = 3.88161 4.18552 4.03643
# Velocity P-wave (km/s) = 6.67470 7.45061 7.07330
#
# Compressibility (1/GPa) = 0.01792489
#
# Stress axis : x y z
#
# Youngs Moduli (GPa) = 53.65798 116.80183 127.81768
#
# Poissons Ratio (x) = 0.46604 0.33253
# Poissons Ratio (y) = 0.21409 0.25012
# Poissons Ratio (z) = 0.13960 0.22857
#
# Static dielectric constant tensor:
#      x y z
#    x 4.300020 -0.051710 0.091700 
#    y -0.051710 4.366500 0.088780 
#    z 0.091700 0.088780 4.418180 
# 
# 
# High freq. dielectric constant tensor:
#      x y z
#    x 1.899590 -0.011140 0.006570 
#    y -0.011140 1.912830 0.006390 
#    z 0.006570 0.006390 1.920690 
# 
# From -- ./inp_files/534485.got.cif
#   From: 2010.06.25/outbox.cif.g09.slc.cpg/sg2_268_cif.got.tgz:534485.got - 2010.06.27 13:26:56.
