data_PCOD8028793
_publ_section_title
;
Structure prediction by ZEFSAII (Michael W. Deem and Ramdas Pophale) SiO2 
 PCOD8028793
Probable space group: P -1
;
_chemical_formula_sum "Si O2"
_cell_formula_units_Z 16
_cell_length_a 13.921921
_cell_length_b 12.208777
_cell_length_c 11.503056
_cell_angle_alpha 90.710309
_cell_angle_beta 149.111046
_cell_angle_gamma 110.686671
_cell_volume 707.906804
_symmetry_space_group_name_H-M "P -1"
_symmetry_group_IT_number 2
_symmetry_cell_setting 'triclinic'
loop_
_space_group_symop_operation_xyz
x,y,z
-x,-y,-z
loop_
_atom_site_type_symbol
_atom_site_label
_atom_site_fract_x
_atom_site_fract_y
_atom_site_fract_z
Si Si1 0.637062 0.803403 0.407339
Si Si2 0.888060 0.093087 0.250959
Si Si3 0.382048 0.567956 0.337499
Si Si4 0.949179 0.746011 0.336212
Si Si5 0.782632 0.325326 0.642297
Si Si6 0.262629 0.568540 0.833826
Si Si7 0.548083 0.746374 0.911802
Si Si8 0.396908 0.965463 0.625800
O O1 0.595299 0.707866 0.473100
O O2 0.685128 0.948111 0.502856
O O3 0.885570 0.862417 0.594756
O O4 0.376844 0.696530 0.053138
O O5 0.007670 0.209795 0.482908
O O6 0.706942 0.097235 0.983698
O O7 0.698072 0.920211 0.103369
O O8 0.500000 0.500000 0.500000
O O9 0.341009 0.637490 0.399105
O O10 0.097046 0.437432 0.977980
O O11 0.786516 0.566598 0.156687
O O12 0.228152 0.857356 0.561872
O O13 0.766683 0.758656 0.079085
O O14 0.706403 0.338176 0.434933
O O15 0.651397 0.149853 0.523087
O O16 0.474868 0.651424 0.951577
O O17 0.000000 0.500000 0.500000
#
# Coordination Sequence:
#
# PCOD8028793 Si02
#       8
#     2   2   2   2   2   2   2   2
#     4  12  25  44  68 103 136 179 229 279 345 405
#     4  11  23  41  64 102 143 183 223 274 336 410
#     4  11  27  49  76  99 133 177 228 292 343 402
#     4  12  22  39  66  98 142 191 221 277 336 402
#     4  10  26  48  72 102 133 178 230 283 342 404
#     4  12  24  38  63 102 139 180 228 278 340 407
#     4  11  22  41  66  98 140 177 223 278 334 412
#     4  11  24  43  69  97 141 181 227 279 338 407
#
# _framework density 22.601845999999998
#
# number of rings (size 3 to 8) (size 9 to 14) (size 15 to 20)
#    0.000    0.750    2.500    5.625    3.500    2.500 
#    0.000    4.375    0.000    0.000    0.000    0.000 
#    0.000    0.000    0.000    0.000    0.000    0.000 
#
# Total GULP energy -198349.436971 kJ/mol
# GULP energy per Si atom -12396.839811 kJ/mol
# Density = 2.255040 g / cm^3
# Si number density = 22.601846 Si / 1000 Ang^3
#
#
#
# Elastic Constant Matrix: (Units=GPa)
#
#
# Indices 1 2 3 4 5 6 
#
# 1 86.6364 54.9002 34.2757 1.3938 5.5915 -19.0859
# 2 54.9002 134.3308 42.8899 3.5300 -0.1656 -8.3757
# 3 34.2757 42.8899 86.2979 1.8729 6.1010 -8.4196
# 4 1.3938 3.5300 1.8729 27.9762 -4.6124 2.8982
# 5 5.5915 -0.1656 6.1010 -4.6124 32.3804 0.3878
# 6 -19.0859 -8.3757 -8.4196 2.8982 0.3878 38.0966
#
#
#
# Elastic Compliance Matrix: (Units=1/GPa)
#
#
# Indices 1 2 3 4 5 6 
#
# 1 0.018506 -0.005983 -0.003438 -0.001161 -0.002832 0.007313
# 2 -0.005983 0.010861 -0.003257 -0.000446 0.001655 -0.001312
# 3 -0.003438 -0.003257 0.014850 -0.000898 -0.002360 0.000936
# 4 -0.001161 -0.000446 -0.000898 0.037252 0.005719 -0.003771
# 5 -0.002832 0.001655 -0.002360 0.005719 0.032668 -0.002344
# 6 0.007313 -0.001312 0.000936 -0.003771 -0.002344 0.030142
#
#
# Mechanical properties :
#
#
# Convention : Reuss Voigt Hill
#
# Bulk Modulus (GPa) = 53.01769 63.48849 58.25309
# Shear Modulus (GPa) = 28.42159 31.37060 29.89610
#
# Velocity S-wave (km/s) = 3.54996 3.72958 3.64088
# Velocity P-wave (km/s) = 6.34910 6.83354 6.59577
#
# Compressibility (1/GPa) = 0.01886163
#
# Stress axis : x y z
#
# Youngs Moduli (GPa) = 54.03535 92.06998 67.34134
#
# Poissons Ratio (x) = 0.55083 0.23152
# Poissons Ratio (y) = 0.32328 0.21934
# Poissons Ratio (z) = 0.18578 0.29989
#
# Static dielectric constant tensor:
#      x y z
#    x 4.148260 -0.134860 0.142380 
#    y -0.134860 4.601670 0.202180 
#    z 0.142380 0.202180 4.286150 
# 
# 
# High freq. dielectric constant tensor:
#      x y z
#    x 1.886020 -0.019640 0.013180 
#    y -0.019640 1.890870 0.004400 
#    z 0.013180 0.004400 1.902830 
# 
# From -- ./inp_files/452305.got.cif
#   From: 2010.06.25/outbox.cif.g09.slc.cpg/sg2_227_cif.got.tgz:452305.got - 2010.06.27 13:26:56.
