data_PCOD8028790
_publ_section_title
;
Structure prediction by ZEFSAII (Michael W. Deem and Ramdas Pophale) SiO2 
 PCOD8028790
Probable space group: P -1
;
_chemical_formula_sum "Si O2"
_cell_formula_units_Z 12
_cell_length_a 7.800126
_cell_length_b 14.729705
_cell_length_c 10.610494
_cell_angle_alpha 27.791312
_cell_angle_beta 118.531190
_cell_angle_gamma 109.080211
_cell_volume 485.565161
_symmetry_space_group_name_H-M "P -1"
_symmetry_group_IT_number 2
_symmetry_cell_setting 'triclinic'
loop_
_space_group_symop_operation_xyz
x,y,z
-x,-y,-z
loop_
_atom_site_type_symbol
_atom_site_label
_atom_site_fract_x
_atom_site_fract_y
_atom_site_fract_z
Si Si1 0.721898 0.388344 0.180446
Si Si2 0.265361 0.235959 0.406116
Si Si3 0.900666 0.705416 0.452573
Si Si4 0.731589 0.977907 0.579066
Si Si5 0.067682 0.655183 0.236527
Si Si6 0.351573 0.908330 0.149099
O O1 0.855713 0.334252 0.421680
O O2 0.759328 0.199320 0.334994
O O3 0.500000 0.500000 0.000000
O O4 0.819919 0.543519 0.948203
O O5 0.157336 0.212756 0.527141
O O6 0.223061 0.076991 0.484388
O O7 0.509406 0.202607 0.552179
O O8 0.830568 0.501410 0.646200
O O9 0.809324 0.894088 0.096881
O O10 0.500000 0.000000 0.500000
O O11 0.875852 0.818573 0.916895
O O12 0.239247 0.757856 0.223316
O O13 0.000000 0.500000 0.500000
O O14 0.500000 0.000000 0.000000
#
# Coordination Sequence:
#
# PCOD8028790 Si02
#       6
#     2   2   2   2   2   2
#     4  12  24  43  73 104 145 186 242 306 367 429
#     4  11  26  44  74 105 144 194 240 304 361 435
#     4  11  25  48  71 106 149 191 248 297 368 439
#     4  12  26  45  70 107 146 186 248 300 368 436
#     4  12  28  45  77 107 146 198 245 302 371 434
#     4  10  26  48  70 107 149 193 241 300 369 433
#
# _framework density 24.713470999999998
#
# number of rings (size 3 to 8) (size 9 to 14) (size 15 to 20)
#    0.000    0.667    5.000    0.500    7.000    6.667 
#    0.000    0.000    0.000    0.000    0.000    0.000 
#    0.000    0.000    0.000    0.000    0.000    0.000 
#
# Total GULP energy -148671.562349 kJ/mol
# GULP energy per Si atom -12389.296862 kJ/mol
# Density = 2.465722 g / cm^3
# Si number density = 24.713471 Si / 1000 Ang^3
#
#
#
# Elastic Constant Matrix: (Units=GPa)
#
#
# Indices 1 2 3 4 5 6 
#
# 1 60.5902 35.6899 20.2194 -0.7049 10.1509 5.5512
# 2 35.6899 201.4656 76.0081 -30.9263 12.5460 11.0196
# 3 20.2194 76.0081 136.1517 -16.0932 34.4166 2.5589
# 4 -0.7049 -30.9263 -16.0932 59.8135 7.3331 4.4929
# 5 10.1509 12.5460 34.4166 7.3331 31.8213 5.0514
# 6 5.5512 11.0196 2.5589 4.4929 5.0514 47.8058
#
#
#
# Elastic Compliance Matrix: (Units=1/GPa)
#
#
# Indices 1 2 3 4 5 6 
#
# 1 0.019223 -0.003193 -0.000002 -0.000798 -0.004538 -0.000942
# 2 -0.003193 0.007311 -0.003721 0.002637 0.001800 -0.001553
# 3 -0.000002 -0.003721 0.013285 0.003251 -0.013857 0.001306
# 4 -0.000798 0.002637 0.003251 0.020137 -0.008678 -0.001665
# 5 -0.004538 0.001800 -0.013857 -0.008678 0.049720 -0.003584
# 6 -0.000942 -0.001553 0.001306 -0.001665 -0.003584 0.021851
#
#
# Mechanical properties :
#
#
# Convention : Reuss Voigt Hill
#
# Bulk Modulus (GPa) = 38.48063 73.56025 56.02044
# Shear Modulus (GPa) = 32.46327 45.64079 39.05203
#
# Velocity S-wave (km/s) = 3.62827 4.30210 3.97948
# Velocity P-wave (km/s) = 5.75821 7.38291 6.62059
#
# Compressibility (1/GPa) = 0.02598710
#
# Stress axis : x y z
#
# Youngs Moduli (GPa) = 52.02102 136.78126 75.27276
#
# Poissons Ratio (x) = 0.43676 0.00012
# Poissons Ratio (y) = 0.16611 0.28011
# Poissons Ratio (z) = 0.00008 0.50899
#
# Static dielectric constant tensor:
#      x y z
#    x 4.199290 -0.470750 0.232910 
#    y -0.470750 3.355860 -0.607580 
#    z 0.232910 -0.607580 6.093890 
# 
# 
# High freq. dielectric constant tensor:
#      x y z
#    x 1.968920 0.008290 0.019880 
#    y 0.008290 1.996700 0.000450 
#    z 0.019880 0.000450 2.019010 
# 
# From -- ./inp_files/398307.got.cif
#   From: 2010.06.25/outbox.cif.g09.slc.cpg/sg2_200_cif.got.tgz:398307.got - 2010.06.27 13:26:56.
