data_PCOD8028160
_publ_section_title
;
Structure prediction by ZEFSAII (Michael W. Deem and Ramdas Pophale) SiO2 
 PCOD8028160
Probable space group: P -1
;
_chemical_formula_sum "Si O2"
_cell_formula_units_Z 16
_cell_length_a 5.501933
_cell_length_b 17.416149
_cell_length_c 7.527027
_cell_angle_alpha 89.585504
_cell_angle_beta 105.437744
_cell_angle_gamma 59.399423
_cell_volume 589.492503
_symmetry_space_group_name_H-M "P -1"
_symmetry_group_IT_number 2
_symmetry_cell_setting 'triclinic'
loop_
_space_group_symop_operation_xyz
x,y,z
-x,-y,-z
loop_
_atom_site_type_symbol
_atom_site_label
_atom_site_fract_x
_atom_site_fract_y
_atom_site_fract_z
Si Si1 0.486842 0.399512 0.675086
Si Si2 0.005578 0.992312 0.755670
Si Si3 0.931574 0.744461 0.036171
Si Si4 0.827128 0.760296 0.617024
Si Si5 0.515653 0.074199 0.892283
Si Si6 0.779197 0.595122 0.041948
Si Si7 0.604668 0.410223 0.312234
Si Si8 0.136464 0.851860 0.487152
O O1 0.469444 0.388346 0.461047
O O2 0.535977 0.482326 0.719912
O O3 0.738937 0.306236 0.817972
O O4 0.204023 0.420043 0.739443
O O5 0.645186 0.039812 0.717659
O O6 0.046116 0.079050 0.715225
O O7 0.128146 0.921325 0.623915
O O8 0.197097 0.930721 0.959597
O O9 0.753882 0.822662 0.145789
O O10 0.878764 0.785247 0.826305
O O11 0.832518 0.673195 0.004789
O O12 0.490741 0.785102 0.512903
O O13 0.034645 0.651994 0.614512
O O14 0.956264 0.805641 0.510378
O O15 0.500000 0.000000 0.000000
O O16 0.468836 0.623346 0.883808
O O17 0.000000 0.500000 0.000000
#
# Coordination Sequence:
#
# PCOD8028160 Si02
#       8
#     2   2   2   2   2   2   2   2
#     4  11  26  47  70 109 149 197 251 309 381 459
#     4  10  25  44  68 102 143 187 247 310 382 443
#     4  12  25  45  73 105 146 198 255 305 385 459
#     4  12  25  45  74 109 148 194 253 307 379 457
#     4  11  25  44  71 102 144 196 249 315 378 453
#     4  12  24  46  76 106 150 202 245 315 381 451
#     4  11  25  47  72 110 149 195 251 310 379 456
#     4  11  26  45  73 107 142 194 246 313 376 455
#
# _framework density 27.141988999999999
#
# number of rings (size 3 to 8) (size 9 to 14) (size 15 to 20)
#    0.000    0.750    3.750    2.625    3.500    4.500 
#    2.250    0.000    0.000    0.000    0.000    0.000 
#    0.000    0.000    0.000    0.000    0.000    0.000 
#
# Total GULP energy -198212.246921 kJ/mol
# GULP energy per Si atom -12388.265433 kJ/mol
# Density = 2.708021 g / cm^3
# Si number density = 27.141989 Si / 1000 Ang^3
#
#
#
# Elastic Constant Matrix: (Units=GPa)
#
#
# Indices 1 2 3 4 5 6 
#
# 1 90.6651 31.9838 9.1211 -10.7472 -27.4443 -8.3206
# 2 31.9838 148.2328 5.6017 -9.3127 -10.4763 -23.9836
# 3 9.1211 5.6017 97.2835 -9.7913 -20.5922 -17.2915
# 4 -10.7472 -9.3127 -9.7913 38.0260 -8.2476 -3.8947
# 5 -27.4443 -10.4763 -20.5922 -8.2476 44.9236 1.5251
# 6 -8.3206 -23.9836 -17.2915 -3.8947 1.5251 44.7291
#
#
#
# Elastic Compliance Matrix: (Units=1/GPa)
#
#
# Indices 1 2 3 4 5 6 
#
# 1 0.016230 -0.001728 0.002476 0.007733 0.011954 0.003315
# 2 -0.001728 0.008111 0.001141 0.002633 0.001685 0.004641
# 3 0.002476 0.001141 0.013865 0.007243 0.009235 0.006748
# 4 0.007733 0.002633 0.007243 0.035046 0.014814 0.008197
# 5 0.011954 0.001685 0.009235 0.014814 0.036680 0.006736
# 6 0.003315 0.004641 0.006748 0.008197 0.006736 0.028555
#
#
# Mechanical properties :
#
#
# Convention : Reuss Voigt Hill
#
# Bulk Modulus (GPa) = 23.81902 47.73273 35.77588
# Shear Modulus (GPa) = 33.62418 44.83405 39.22912
#
# Velocity S-wave (km/s) = 3.52351 4.06868 3.80587
# Velocity P-wave (km/s) = 5.03471 6.30054 5.70285
#
# Compressibility (1/GPa) = 0.04198326
#
# Stress axis : x y z
#
# Youngs Moduli (GPa) = 61.61578 123.28565 72.12614
#
# Poissons Ratio (x) = 0.21308 -0.17857
# Poissons Ratio (y) = 0.10649 -0.08233
# Poissons Ratio (z) = -0.15255 -0.14072
#
# Static dielectric constant tensor:
#      x y z
#    x 5.142850 -0.508700 0.151460 
#    y -0.508700 5.137820 -0.384340 
#    z 0.151460 -0.384340 6.292200 
# 
# 
# High freq. dielectric constant tensor:
#      x y z
#    x 2.080590 -0.020920 -0.010200 
#    y -0.020920 2.110090 -0.005340 
#    z -0.010200 -0.005340 2.106820 
# 
# From -- ./inp_files/138957.got.cif
#   From: 2010.06.25/outbox.cif.g09.slc.cpg/sg2_70_cif.got.tgz:138957.got - 2010.06.27 13:26:56.
