data_PCOD8028761
_publ_section_title
;
Structure prediction by ZEFSAII (Michael W. Deem and Ramdas Pophale) SiO2 
 PCOD8028761
Probable space group: P -1
;
_chemical_formula_sum "Si O2"
_cell_formula_units_Z 14
_cell_length_a 8.648103
_cell_length_b 13.939113
_cell_length_c 19.392841
_cell_angle_alpha 146.364876
_cell_angle_beta 144.177531
_cell_angle_gamma 57.905557
_cell_volume 679.261205
_symmetry_space_group_name_H-M "P -1"
_symmetry_group_IT_number 2
_symmetry_cell_setting 'triclinic'
loop_
_space_group_symop_operation_xyz
x,y,z
-x,-y,-z
loop_
_atom_site_type_symbol
_atom_site_label
_atom_site_fract_x
_atom_site_fract_y
_atom_site_fract_z
Si Si1 0.840939 0.636246 0.030300
Si Si2 0.259105 0.290361 0.808832
Si Si3 0.256049 0.401753 0.603088
Si Si4 0.298658 0.017542 0.377654
Si Si5 0.727800 0.805268 0.762306
Si Si6 0.641731 0.069202 0.392112
Si Si7 0.287546 0.513477 0.527704
O O1 0.868421 0.709631 0.162025
O O2 0.002951 0.817765 0.146722
O O3 0.501624 0.528711 0.822548
O O4 0.000000 0.500000 0.000000
O O5 0.986503 0.215848 0.612447
O O6 0.408448 0.145617 0.773618
O O7 0.500000 0.500000 0.000000
O O8 0.365481 0.484617 0.616323
O O9 0.955281 0.408354 0.517540
O O10 0.200001 0.182210 0.458380
O O11 0.500000 0.000000 0.500000
O O12 0.465496 0.062664 0.393150
O O13 0.476301 0.850702 0.665106
O O14 0.590991 0.670827 0.698955
O O15 0.835671 0.690970 0.679065
O O16 0.000000 0.000000 0.000000
#
# Coordination Sequence:
#
# PCOD8028761 Si02
#       7
#     2   2   2   2   2   2   2
#     4  12  25  41  70 101 130 178 219 268 339 401
#     4  11  26  41  67 100 135 174 218 271 345 402
#     4  11  25  44  69  97 136 171 225 277 326 396
#     4  12  23  43  67  97 137 171 216 271 333 397
#     4  11  26  45  70  95 132 178 230 273 336 387
#     4  11  25  44  65  98 136 173 220 280 330 398
#     4  10  26  47  67  97 130 180 225 278 328 388
#
# _framework density 20.610627999999998
#
# number of rings (size 3 to 8) (size 9 to 14) (size 15 to 20)
#    0.000    0.857    4.286    0.857    8.000    1.143 
#    0.000    2.857    0.000    0.000    0.000    0.000 
#    0.000    0.000    0.000    0.000    0.000    0.000 
#
# Total GULP energy -173701.237227 kJ/mol
# GULP energy per Si atom -12407.231230 kJ/mol
# Density = 2.056372 g / cm^3
# Si number density = 20.610628 Si / 1000 Ang^3
#
#
#
# Elastic Constant Matrix: (Units=GPa)
#
#
# Indices 1 2 3 4 5 6 
#
# 1 64.8182 23.3252 22.8915 5.4630 -6.9982 -11.5167
# 2 23.3252 137.5598 45.7205 11.9043 -8.6730 -17.0622
# 3 22.8915 45.7205 116.8100 23.6565 -1.3107 -4.1702
# 4 5.4630 11.9043 23.6565 36.7043 4.7999 -7.5464
# 5 -6.9982 -8.6730 -1.3107 4.7999 31.7646 7.1212
# 6 -11.5167 -17.0622 -4.1702 -7.5464 7.1212 34.3447
#
#
#
# Elastic Compliance Matrix: (Units=1/GPa)
#
#
# Indices 1 2 3 4 5 6 
#
# 1 0.017982 -0.001415 -0.002826 0.000221 0.002409 0.004533
# 2 -0.001415 0.009050 -0.003086 -0.000225 0.001321 0.003324
# 3 -0.002826 -0.003086 0.011586 -0.006676 0.000620 -0.002669
# 4 0.000221 -0.000225 -0.006676 0.034224 -0.007295 0.008184
# 5 0.002409 0.001321 0.000620 -0.007295 0.035149 -0.007351
# 6 0.004533 0.003324 -0.002669 0.008184 -0.007351 0.035286
#
#
# Mechanical properties :
#
#
# Convention : Reuss Voigt Hill
#
# Bulk Modulus (GPa) = 41.72808 55.89580 48.81194
# Shear Modulus (GPa) = 30.13510 35.71277 32.92394
#
# Velocity S-wave (km/s) = 3.82791 4.16713 4.00112
# Velocity P-wave (km/s) = 6.31087 7.09451 6.71413
#
# Compressibility (1/GPa) = 0.02396468
#
# Stress axis : x y z
#
# Youngs Moduli (GPa) = 55.61173 110.49543 86.30877
#
# Poissons Ratio (x) = 0.15633 0.24391
# Poissons Ratio (y) = 0.07868 0.26635
# Poissons Ratio (z) = 0.15716 0.34099
#
# Static dielectric constant tensor:
#      x y z
#    x 3.836400 0.010360 -0.095330 
#    y 0.010360 3.992460 0.097560 
#    z -0.095330 0.097560 4.247060 
# 
# 
# High freq. dielectric constant tensor:
#      x y z
#    x 1.817340 -0.003160 -0.002960 
#    y -0.003160 1.820490 0.009730 
#    z -0.002960 0.009730 1.808630 
# 
# From -- ./inp_files/258739.got.cif
#   From: 2010.06.25/outbox.cif.g09.slc.cpg/sg2_130_cif.got.tgz:258739.got - 2010.06.27 13:26:56.
