data_PCOD8028308
_publ_section_title
;
Structure prediction by ZEFSAII (Michael W. Deem and Ramdas Pophale) SiO2 
 PCOD8028308
Probable space group: P -1
;
_chemical_formula_sum "Si O2"
_cell_formula_units_Z 14
_cell_length_a 12.522679
_cell_length_b 23.371709
_cell_length_c 5.354799
_cell_angle_alpha 91.952129
_cell_angle_beta 107.041944
_cell_angle_gamma 150.917090
_cell_volume 568.899947
_symmetry_space_group_name_H-M "P -1"
_symmetry_group_IT_number 2
_symmetry_cell_setting 'triclinic'
loop_
_space_group_symop_operation_xyz
x,y,z
-x,-y,-z
loop_
_atom_site_type_symbol
_atom_site_label
_atom_site_fract_x
_atom_site_fract_y
_atom_site_fract_z
Si Si1 0.218381 0.849705 0.633273
Si Si2 0.630068 0.536394 0.348569
Si Si3 0.505742 0.314871 0.768382
Si Si4 0.939329 0.103361 0.498741
Si Si5 0.387029 0.810617 0.737710
Si Si6 0.786344 0.485947 0.475036
Si Si7 0.758450 0.917063 0.663229
O O1 0.101180 0.851049 0.407278
O O2 0.282439 0.820358 0.521513
O O3 0.969947 0.714201 0.639052
O O4 0.500000 0.000000 0.000000
O O5 0.500000 0.500000 0.500000
O O6 0.586594 0.447728 0.302515
O O7 0.500000 0.500000 0.000000
O O8 0.709818 0.420622 0.678575
O O9 0.354571 0.180406 0.639813
O O10 0.252206 0.243859 0.592829
O O11 0.703390 0.407347 0.167770
O O12 0.933735 0.055564 0.710295
O O13 0.672566 0.961959 0.113229
O O14 0.469748 0.801031 0.596309
O O15 0.132541 0.665244 0.722997
O O16 0.000000 0.000000 0.000000
#
# Coordination Sequence:
#
# PCOD8028308 Si02
#       7
#     2   2   2   2   2   2   2
#     4   9  21  45  68 106 136 182 230 293 357 421
#     4  11  22  43  70 101 142 187 231 286 351 425
#     4  12  26  45  74 104 141 191 241 287 350 424
#     4  11  23  45  73  99 140 186 238 290 352 424
#     4  10  25  45  70 102 143 180 234 295 361 419
#     4  11  26  45  68 107 145 181 236 296 356 418
#     4  12  26  45  72 103 138 188 245 295 345 421
#
# _framework density 24.608898
#
# number of rings (size 3 to 8) (size 9 to 14) (size 15 to 20)
#    0.000    1.143    1.429    3.857    4.000    1.714 
#   12.857    0.000    0.000    0.000    0.000    0.000 
#    0.000    0.000    0.000    0.000    0.000    0.000 
#
# Total GULP energy -173487.767276 kJ/mol
# GULP energy per Si atom -12391.983377 kJ/mol
# Density = 2.455289 g / cm^3
# Si number density = 24.608898 Si / 1000 Ang^3
#
#
#
# Elastic Constant Matrix: (Units=GPa)
#
#
# Indices 1 2 3 4 5 6 
#
# 1 145.2530 45.6578 26.9613 -6.5127 15.9358 2.9732
# 2 45.6578 122.4341 35.0999 -4.4548 -2.9821 4.2994
# 3 26.9613 35.0999 70.2823 -0.9107 -9.8153 14.1189
# 4 -6.5127 -4.4548 -0.9107 43.9019 -0.9443 3.2606
# 5 15.9358 -2.9821 -9.8153 -0.9443 36.5038 -2.4799
# 6 2.9732 4.2994 14.1189 3.2606 -2.4799 45.1198
#
#
#
# Elastic Compliance Matrix: (Units=1/GPa)
#
#
# Indices 1 2 3 4 5 6 
#
# 1 0.008760 -0.002563 -0.002774 0.000864 -0.004743 0.000212
# 2 -0.002563 0.010337 -0.004145 0.000566 0.000897 0.000489
# 3 -0.002774 -0.004145 0.019186 0.000068 0.005685 -0.005118
# 4 0.000864 0.000566 0.000068 0.023102 0.000163 -0.001793
# 5 -0.004743 0.000897 0.005685 0.000163 0.031081 0.000145
# 6 0.000212 0.000489 -0.005118 -0.001793 0.000145 0.023842
#
#
# Mechanical properties :
#
#
# Convention : Reuss Voigt Hill
#
# Bulk Modulus (GPa) = 51.76434 61.48971 56.62702
# Shear Modulus (GPa) = 35.28326 40.45510 37.86918
#
# Velocity S-wave (km/s) = 3.79061 4.05893 3.92706
# Velocity P-wave (km/s) = 6.34340 6.85621 6.60478
#
# Compressibility (1/GPa) = 0.01931832
#
# Stress axis : x y z
#
# Youngs Moduli (GPa) = 114.15794 96.74038 52.12221
#
# Poissons Ratio (x) = 0.24793 0.14460
# Poissons Ratio (y) = 0.29257 0.21605
# Poissons Ratio (z) = 0.31669 0.40099
#
# Static dielectric constant tensor:
#      x y z
#    x 5.347850 -0.278180 0.189740 
#    y -0.278180 4.655510 0.438190 
#    z 0.189740 0.438190 4.316140 
# 
# 
# High freq. dielectric constant tensor:
#      x y z
#    x 2.003300 -0.008190 0.013670 
#    y -0.008190 1.979600 0.028100 
#    z 0.013670 0.028100 1.962130 
# 
# From -- ./inp_files/84377.got.cif
#   From: 2010.06.25/outbox.cif.g09.slc.cpg/sg2_43_cif.got.tgz:84377.got - 2010.06.27 13:26:56.
