data_PCOD8028276
_publ_section_title
;
Structure prediction by ZEFSAII (Michael W. Deem and Ramdas Pophale) SiO2 
 PCOD8028276
Probable space group: P -1
;
_chemical_formula_sum "Si O2"
_cell_formula_units_Z 16
_cell_length_a 8.369883
_cell_length_b 12.356254
_cell_length_c 15.530566
_cell_angle_alpha 144.933353
_cell_angle_beta 126.767673
_cell_angle_gamma 69.048878
_cell_volume 707.998007
_symmetry_space_group_name_H-M "P -1"
_symmetry_group_IT_number 2
_symmetry_cell_setting 'triclinic'
loop_
_space_group_symop_operation_xyz
x,y,z
-x,-y,-z
loop_
_atom_site_type_symbol
_atom_site_label
_atom_site_fract_x
_atom_site_fract_y
_atom_site_fract_z
Si Si1 0.544001 0.998058 0.912570
Si Si2 0.787455 0.333092 0.094516
Si Si3 0.414828 0.684839 0.402023
Si Si4 0.907078 0.282327 0.798636
Si Si5 0.781695 0.720897 0.853776
Si Si6 0.878705 0.970776 0.224646
Si Si7 0.727814 0.727708 0.387683
Si Si8 0.438079 0.878116 0.276185
O O1 0.662041 0.833217 0.824311
O O2 0.317512 0.950490 0.762737
O O3 0.500000 0.000000 0.000000
O O4 0.682055 0.210618 0.064295
O O5 0.811345 0.561019 0.262865
O O6 0.010164 0.295260 0.133564
O O7 0.645312 0.274736 0.926111
O O8 0.186969 0.703639 0.315929
O O9 0.378601 0.499170 0.332497
O O10 0.527976 0.629582 0.318433
O O11 0.536341 0.904871 0.616996
O O12 0.730910 0.152023 0.721789
O O13 0.092302 0.178654 0.788112
O O14 0.000000 0.500000 0.000000
O O15 0.843659 0.846668 0.043451
O O16 0.087138 0.152254 0.411581
O O17 0.653948 0.855450 0.372266
#
# Coordination Sequence:
#
# PCOD8028276 Si02
#       8
#     2   2   2   2   2   2   2   2
#     4  10  25  45  68  90 121 169 224 269 311 379
#     4  12  24  43  63  94 132 166 210 272 327 371
#     4  11  20  39  68  93 131 171 216 250 309 388
#     4  11  18  34  67  96 128 169 211 253 311 382
#     4  11  23  44  66  93 125 172 217 266 320 366
#     4  11  20  42  65  95 126 166 221 253 310 378
#     4  11  22  38  63 100 135 167 208 257 316 389
#     4  11  22  39  62 100 135 171 205 260 318 384
#
# _framework density 22.598935000000001
#
# number of rings (size 3 to 8) (size 9 to 14) (size 15 to 20)
#    0.000    1.000    5.000    3.000    1.750    1.000 
#    2.250   10.625    0.000    0.000    0.000    0.000 
#    0.000    0.000    0.000    0.000    0.000    0.000 
#
# Total GULP energy -198270.694307 kJ/mol
# GULP energy per Si atom -12391.918394 kJ/mol
# Density = 2.254750 g / cm^3
# Si number density = 22.598935 Si / 1000 Ang^3
#
#
#
# Elastic Constant Matrix: (Units=GPa)
#
#
# Indices 1 2 3 4 5 6 
#
# 1 82.0452 43.8063 24.1641 3.8683 4.9997 -26.4187
# 2 43.8063 118.9506 41.8784 19.8712 6.2903 -42.1621
# 3 24.1641 41.8784 112.3635 19.6128 10.0934 -17.6896
# 4 3.8683 19.8712 19.6128 28.5231 -2.3730 6.2415
# 5 4.9997 6.2903 10.0934 -2.3730 31.8578 4.8650
# 6 -26.4187 -42.1621 -17.6896 6.2415 4.8650 44.3534
#
#
#
# Elastic Compliance Matrix: (Units=1/GPa)
#
#
# Indices 1 2 3 4 5 6 
#
# 1 0.016568 -0.002663 -0.000779 -0.001783 -0.003124 0.007619
# 2 -0.002663 0.020997 0.000634 -0.020357 -0.008876 0.022464
# 3 -0.000779 0.000634 0.012414 -0.010952 -0.005863 0.007274
# 4 -0.001783 -0.020357 -0.010952 0.066437 0.018235 -0.036131
# 5 -0.003124 -0.008876 -0.005863 0.018235 0.039837 -0.019572
# 6 0.007619 0.022464 0.007274 -0.036131 -0.019572 0.058572
#
#
# Mechanical properties :
#
#
# Convention : Reuss Voigt Hill
#
# Bulk Modulus (GPa) = 22.54133 59.22855 40.88494
# Shear Modulus (GPa) = 21.25588 34.51422 27.88505
#
# Velocity S-wave (km/s) = 3.07020 3.91224 3.51652
# Velocity P-wave (km/s) = 4.75019 6.83176 5.88376
#
# Compressibility (1/GPa) = 0.04436296
#
# Stress axis : x y z
#
# Youngs Moduli (GPa) = 60.35798 47.62571 80.55204
#
# Poissons Ratio (x) = 0.12685 0.06274
# Poissons Ratio (y) = 0.16076 -0.05109
# Poissons Ratio (z) = 0.04701 -0.03021
#
# Static dielectric constant tensor:
#      x y z
#    x 4.097430 -0.504330 0.239580 
#    y -0.504330 4.629680 0.114360 
#    z 0.239580 0.114360 4.053780 
# 
# 
# High freq. dielectric constant tensor:
#      x y z
#    x 1.874300 -0.026000 0.011600 
#    y -0.026000 1.892550 0.014120 
#    z 0.011600 0.014120 1.892080 
# 
# From -- ./inp_files/312276.got.cif
#   From: 2010.06.25/outbox.cif.g09.slc.cpg/sg2_157_cif.got.tgz:312276.got - 2010.06.27 13:26:56.
