data_PCOD8028866
_publ_section_title
;
Structure prediction by ZEFSAII (Michael W. Deem and Ramdas Pophale) SiO2 
 PCOD8028866
Probable space group: P -1
;
_chemical_formula_sum "Si O2"
_cell_formula_units_Z 14
_cell_length_a 13.898969
_cell_length_b 11.641235
_cell_length_c 11.463035
_cell_angle_alpha 116.467762
_cell_angle_beta 30.414846
_cell_angle_gamma 95.390610
_cell_volume 645.288795
_symmetry_space_group_name_H-M "P -1"
_symmetry_group_IT_number 2
_symmetry_cell_setting 'triclinic'
loop_
_space_group_symop_operation_xyz
x,y,z
-x,-y,-z
loop_
_atom_site_type_symbol
_atom_site_label
_atom_site_fract_x
_atom_site_fract_y
_atom_site_fract_z
Si Si1 0.246438 0.781515 0.230094
Si Si2 0.586724 0.557903 0.171159
Si Si3 0.506046 0.872236 0.858013
Si Si4 0.009865 0.503649 0.128630
Si Si5 0.910437 0.322777 0.312277
Si Si6 0.201499 0.134236 0.131874
Si Si7 0.327993 0.367584 0.125686
O O1 0.974929 0.861120 0.589054
O O2 0.375750 0.608872 0.951377
O O3 0.280449 0.881311 0.146984
O O4 0.385470 0.756645 0.194538
O O5 0.285609 0.697373 0.543241
O O6 0.706216 0.585532 0.952818
O O7 0.726680 0.545412 0.135195
O O8 0.770429 0.686197 0.507723
O O9 0.500000 0.000000 0.000000
O O10 0.453238 0.944506 0.812053
O O11 0.013091 0.358995 0.112670
O O12 0.000000 0.500000 0.000000
O O13 0.804682 0.464529 0.585569
O O14 0.127081 0.153488 0.081501
O O15 0.213884 0.276998 0.224951
#
# Coordination Sequence:
#
# PCOD8028866 Si02
#       7
#     2   2   2   2   2   2   2
#     4  11  20  35  60 101 133 163 203 268 331 371
#     4  11  20  37  68  91 127 166 221 264 310 377
#     4  12  24  41  62  99 135 167 208 266 331 373
#     4  12  27  45  64  90 131 178 218 259 312 385
#     4  11  20  37  62  94 120 168 218 259 310 378
#     4  12  21  33  62  93 134 163 201 267 329 376
#     4  11  18  33  62 101 128 157 213 266 320 374
#
# _framework density 21.695712
#
# number of rings (size 3 to 8) (size 9 to 14) (size 15 to 20)
#    0.000    0.571    8.571    3.429    0.000    0.571 
#    0.000    0.714    0.000    0.857    0.000    0.000 
#    0.000    0.000    0.000    0.000    0.000    0.000 
#
# Total GULP energy -173441.795498 kJ/mol
# GULP energy per Si atom -12388.699678 kJ/mol
# Density = 2.164633 g / cm^3
# Si number density = 21.695712 Si / 1000 Ang^3
#
#
#
# Elastic Constant Matrix: (Units=GPa)
#
#
# Indices 1 2 3 4 5 6 
#
# 1 144.7508 58.1546 24.5127 -10.7228 -27.6021 -19.2703
# 2 58.1546 139.3730 27.1408 -14.4732 -16.3251 -21.0710
# 3 24.5127 27.1408 26.3856 -10.3331 -13.4770 4.9646
# 4 -10.7228 -14.4732 -10.3331 25.3242 -2.5315 -12.4261
# 5 -27.6021 -16.3251 -13.4770 -2.5315 35.5115 -4.1457
# 6 -19.2703 -21.0710 4.9646 -12.4261 -4.1457 40.9406
#
#
#
# Elastic Compliance Matrix: (Units=1/GPa)
#
#
# Indices 1 2 3 4 5 6 
#
# 1 0.011201 -0.000870 -0.003803 0.007689 0.008400 0.008470
# 2 -0.000870 0.011777 -0.008328 0.007893 0.003235 0.009385
# 3 -0.003803 -0.008328 0.069988 0.021295 0.020593 -0.006014
# 4 0.007689 0.007893 0.021295 0.073319 0.026419 0.030028
# 5 0.008400 0.003235 0.020593 0.026419 0.047740 0.015975
# 6 0.008470 0.009385 -0.006014 0.030028 0.015975 0.044703
#
#
# Mechanical properties :
#
#
# Convention : Reuss Voigt Hill
#
# Bulk Modulus (GPa) = 14.93333 58.90287 36.91810
# Shear Modulus (GPa) = 16.28387 33.73535 25.00961
#
# Velocity S-wave (km/s) = 2.74260 3.94754 3.39889
# Velocity P-wave (km/s) = 4.11426 6.92719 5.69706
#
# Compressibility (1/GPa) = 0.06696430
#
# Stress axis : x y z
#
# Youngs Moduli (GPa) = 89.27813 84.90859 14.28816
#
# Poissons Ratio (x) = 0.07389 0.05433
# Poissons Ratio (y) = 0.07770 0.11900
# Poissons Ratio (z) = 0.33948 0.70714
#
# Static dielectric constant tensor:
#      x y z
#    x 4.219420 -0.331660 -0.846320 
#    y -0.331660 4.217720 0.032260 
#    z -0.846320 0.032260 3.762940 
# 
# 
# High freq. dielectric constant tensor:
#      x y z
#    x 1.848510 -0.020170 -0.058660 
#    y -0.020170 1.872340 -0.015880 
#    z -0.058660 -0.015880 1.804010 
# 
# From -- ./inp_files/431475.got.cif
#   From: 2010.06.25/outbox.cif.g09.slc.cpg/sg2_216_cif.got.tgz:431475.got - 2010.06.27 13:26:56.
