data_PCOD8028365
_publ_section_title
;
Structure prediction by ZEFSAII (Michael W. Deem and Ramdas Pophale) SiO2 
 PCOD8028365
Probable space group: P -1
;
_chemical_formula_sum "Si O2"
_cell_formula_units_Z 16
_cell_length_a 11.101457
_cell_length_b 11.296535
_cell_length_c 13.562296
_cell_angle_alpha 98.212677
_cell_angle_beta 22.478610
_cell_angle_gamma 97.685857
_cell_volume 643.613309
_symmetry_space_group_name_H-M "P -1"
_symmetry_group_IT_number 2
_symmetry_cell_setting 'triclinic'
loop_
_space_group_symop_operation_xyz
x,y,z
-x,-y,-z
loop_
_atom_site_type_symbol
_atom_site_label
_atom_site_fract_x
_atom_site_fract_y
_atom_site_fract_z
Si Si1 0.610255 0.504288 0.159556
Si Si2 0.903664 0.731706 0.036228
Si Si3 0.455094 0.940824 0.423198
Si Si4 0.557298 0.377486 0.889411
Si Si5 0.373433 0.009505 0.208113
Si Si6 0.060751 0.355342 0.656025
Si Si7 0.157889 0.174969 0.115581
Si Si8 0.532693 0.166246 0.270703
O O1 0.842571 0.414894 0.912330
O O2 0.817477 0.591024 0.083271
O O3 0.413644 0.592548 0.245445
O O4 0.360050 0.436809 0.408774
O O5 0.609929 0.811545 0.297881
O O6 0.002117 0.779012 0.859130
O O7 0.176008 0.746415 0.913891
O O8 0.096738 0.915041 0.655031
O O9 0.500000 0.000000 0.500000
O O10 0.603618 0.037115 0.248511
O O11 0.868787 0.323244 0.697265
O O12 0.500000 0.500000 0.000000
O O13 0.255558 0.289323 0.122271
O O14 0.492263 0.136985 0.180753
O O15 0.000000 0.000000 0.500000
O O16 0.500000 0.000000 0.000000
O O17 0.517911 0.899691 0.150352
O O18 0.214519 0.230059 0.560818
#
# Coordination Sequence:
#
# PCOD8028365 Si02
#       8
#     2   2   2   2   2   2   2   2
#     4  10  25  45  75 104 145 196 255 310 372 447
#     4  11  25  45  73 107 143 197 257 312 375 444
#     4  12  24  43  77 106 149 199 255 309 377 450
#     4   9  21  42  70 101 140 190 250 302 363 442
#     4  12  27  46  69 104 149 195 242 299 378 445
#     4  11  25  47  71 109 150 197 246 310 382 444
#     4  11  23  44  69 106 143 191 252 310 366 446
#     4  12  26  48  72 110 154 196 252 314 382 454
#
# _framework density 24.859646999999999
#
# number of rings (size 3 to 8) (size 9 to 14) (size 15 to 20)
#    0.000    1.000    2.500    3.000    5.250    6.000 
#    2.250    0.000    0.000    0.000    0.000    0.000 
#    0.000    0.000    0.000    0.000    0.000    0.000 
#
# Total GULP energy -198259.820827 kJ/mol
# GULP energy per Si atom -12391.238802 kJ/mol
# Density = 2.480307 g / cm^3
# Si number density = 24.859647 Si / 1000 Ang^3
#
#
#
# Elastic Constant Matrix: (Units=GPa)
#
#
# Indices 1 2 3 4 5 6 
#
# 1 108.7647 51.3264 47.1531 -4.5094 -19.6453 36.4496
# 2 51.3264 94.6311 28.6645 1.5157 -13.6336 40.5836
# 3 47.1531 28.6645 116.7583 1.1131 -14.5124 21.5680
# 4 -4.5094 1.5157 1.1131 48.2673 0.3054 -10.9057
# 5 -19.6453 -13.6336 -14.5124 0.3054 43.3220 -3.2844
# 6 36.4496 40.5836 21.5680 -10.9057 -3.2844 52.4864
#
#
#
# Elastic Compliance Matrix: (Units=1/GPa)
#
#
# Indices 1 2 3 4 5 6 
#
# 1 0.015398 -0.004304 -0.003647 0.000381 0.003984 -0.005538
# 2 -0.004304 0.018518 -0.000226 -0.003667 0.002930 -0.011815
# 3 -0.003647 -0.000226 0.010641 -0.000988 0.001713 -0.001763
# 4 0.000381 -0.003667 -0.000988 0.022619 -0.000894 0.007620
# 5 0.003984 0.002930 0.001713 -0.000894 0.026066 -0.004291
# 6 -0.005538 -0.011815 -0.001763 0.007620 -0.004291 0.034074
#
#
# Mechanical properties :
#
#
# Convention : Reuss Voigt Hill
#
# Bulk Modulus (GPa) = 35.45834 63.82688 49.64261
# Shear Modulus (GPa) = 32.66445 41.68247 37.17346
#
# Velocity S-wave (km/s) = 3.62878 4.09921 3.87115
# Velocity P-wave (km/s) = 5.64374 6.93796 6.32405
#
# Compressibility (1/GPa) = 0.02820211
#
# Stress axis : x y z
#
# Youngs Moduli (GPa) = 64.94525 54.00064 93.97418
#
# Poissons Ratio (x) = 0.23241 0.34275
# Poissons Ratio (y) = 0.27951 0.02128
# Poissons Ratio (z) = 0.23687 0.01223
#
# Static dielectric constant tensor:
#      x y z
#    x 5.711890 -0.030980 -0.131810 
#    y -0.030980 4.959640 -0.177590 
#    z -0.131810 -0.177590 4.633140 
# 
# 
# High freq. dielectric constant tensor:
#      x y z
#    x 1.997960 0.014930 -0.021610 
#    y 0.014930 2.005790 0.005050 
#    z -0.021610 0.005050 1.971560 
# 
# From -- ./inp_files/519743.got.cif
#   From: 2010.06.25/outbox.cif.g09.slc.cpg/sg2_260_cif.got.tgz:519743.got - 2010.06.27 13:26:56.
