data_PCOD8028104
_publ_section_title
;
Structure prediction by ZEFSAII (Michael W. Deem and Ramdas Pophale) SiO2 
 PCOD8028104
Probable space group: P -1
;
_chemical_formula_sum "Si O2"
_cell_formula_units_Z 16
_cell_length_a 8.426167
_cell_length_b 12.290579
_cell_length_c 11.663906
_cell_angle_alpha 60.737334
_cell_angle_beta 125.680607
_cell_angle_gamma 129.322408
_cell_volume 745.256647
_symmetry_space_group_name_H-M "P -1"
_symmetry_group_IT_number 2
_symmetry_cell_setting 'triclinic'
loop_
_space_group_symop_operation_xyz
x,y,z
-x,-y,-z
loop_
_atom_site_type_symbol
_atom_site_label
_atom_site_fract_x
_atom_site_fract_y
_atom_site_fract_z
Si Si1 0.415242 0.332177 0.563308
Si Si2 0.386438 0.787113 0.740322
Si Si3 0.057555 0.903391 0.489668
Si Si4 0.056028 0.763181 0.953853
Si Si5 0.441896 0.709576 0.121142
Si Si6 0.231333 0.043475 0.014405
Si Si7 0.306337 0.515337 0.969514
Si Si8 0.312833 0.188830 0.349235
O O1 0.500000 0.500000 0.500000
O O2 0.566728 0.310479 0.734532
O O3 0.417285 0.261943 0.478441
O O4 0.166733 0.243657 0.560490
O O5 0.219582 0.849896 0.635215
O O6 0.264010 0.633470 0.829086
O O7 0.475117 0.760238 0.670688
O O8 0.594485 0.905902 0.835938
O O9 0.186560 0.014334 0.384007
O O10 0.000000 0.000000 0.500000
O O11 0.243363 0.740947 0.978556
O O12 0.922287 0.634372 0.053456
O O13 0.874129 0.769003 0.789672
O O14 0.208633 0.904622 0.016388
O O15 0.683200 0.832660 0.111083
O O16 0.383565 0.560718 0.110972
O O17 0.000000 0.000000 0.000000
O O18 0.500000 0.500000 0.000000
#
# Coordination Sequence:
#
# PCOD8028104 Si02
#       8
#     2   2   2   2   2   2   2   2
#     4  11  26  44  66  99 143 183 229 284 339 415
#     4  11  24  44  70 101 138 186 229 282 359 410
#     4  10  25  43  70  93 138 184 232 279 344 415
#     4  12  23  41  73 104 137 179 236 287 344 410
#     4  11  26  42  70 103 137 182 232 286 346 408
#     4  11  23  43  71 105 136 171 236 296 342 401
#     4  11  23  44  70 103 140 181 224 289 357 416
#     4  11  23  45  69  98 140 187 228 283 348 415
#
# _framework density 21.469116
#
# number of rings (size 3 to 8) (size 9 to 14) (size 15 to 20)
#    0.000    1.000    2.500    3.375   12.250    0.000 
#    0.000    0.625    0.000    0.000    0.000    0.000 
#    0.000    0.000    0.000    0.000    0.000    0.000 
#
# Total GULP energy -198279.881225 kJ/mol
# GULP energy per Si atom -12392.492577 kJ/mol
# Density = 2.142025 g / cm^3
# Si number density = 21.469116 Si / 1000 Ang^3
#
#
#
# Elastic Constant Matrix: (Units=GPa)
#
#
# Indices 1 2 3 4 5 6 
#
# 1 78.5844 9.3474 46.3562 -4.1158 1.7192 -11.7805
# 2 9.3474 114.7523 31.6703 -10.4982 -6.6279 3.2772
# 3 46.3562 31.6703 122.3423 -12.6834 2.1832 -12.2170
# 4 -4.1158 -10.4982 -12.6834 34.7670 -7.8084 -8.4726
# 5 1.7192 -6.6279 2.1832 -7.8084 42.0805 -1.1393
# 6 -11.7805 3.2772 -12.2170 -8.4726 -1.1393 39.6274
#
#
#
# Elastic Compliance Matrix: (Units=1/GPa)
#
#
# Indices 1 2 3 4 5 6 
#
# 1 0.016773 0.000255 -0.006032 0.000622 -0.000129 0.003235
# 2 0.000255 0.009742 -0.002514 0.002282 0.002052 -0.000958
# 3 -0.006032 -0.002514 0.011750 0.003482 -0.000038 0.002781
# 4 0.000622 0.002282 0.003482 0.034419 0.006774 0.008623
# 5 -0.000129 0.002052 -0.000038 0.006774 0.025404 0.001959
# 6 0.003235 -0.000958 0.002781 0.008623 0.001959 0.029033
#
#
# Mechanical properties :
#
#
# Convention : Reuss Voigt Hill
#
# Bulk Modulus (GPa) = 46.11824 54.49185 50.30505
# Shear Modulus (GPa) = 33.12781 38.51533 35.82157
#
# Velocity S-wave (km/s) = 3.93242 4.24014 4.08918
# Velocity P-wave (km/s) = 6.49203 7.02911 6.76590
#
# Compressibility (1/GPa) = 0.02168339
#
# Stress axis : x y z
#
# Youngs Moduli (GPa) = 59.61879 102.64605 85.10989
#
# Poissons Ratio (x) = -0.02622 0.51337
# Poissons Ratio (y) = -0.01523 0.21400
# Poissons Ratio (z) = 0.35961 0.25809
#
# Static dielectric constant tensor:
#      x y z
#    x 4.105340 0.275570 -0.174800 
#    y 0.275570 3.974530 -0.448140 
#    z -0.174800 -0.448140 3.765640 
# 
# 
# High freq. dielectric constant tensor:
#      x y z
#    x 1.849280 0.007950 -0.007570 
#    y 0.007950 1.860280 -0.008610 
#    z -0.007570 -0.008610 1.831330 
# 
# From -- ./inp_files/298960.got.cif
#   From: 2010.06.25/outbox.cif.g09.slc.cpg/sg2_150_cif.got.tgz:298960.got - 2010.06.27 13:26:56.
