data_PCOD8028389
_publ_section_title
;
Structure prediction by ZEFSAII (Michael W. Deem and Ramdas Pophale) SiO2 
 PCOD8028389
Probable space group: P -1
;
_chemical_formula_sum "Si O2"
_cell_formula_units_Z 14
_cell_length_a 18.578423
_cell_length_b 8.678874
_cell_length_c 8.845072
_cell_angle_alpha 125.390487
_cell_angle_beta 62.406420
_cell_angle_gamma 148.141245
_cell_volume 612.313591
_symmetry_space_group_name_H-M "P -1"
_symmetry_group_IT_number 2
_symmetry_cell_setting 'triclinic'
loop_
_space_group_symop_operation_xyz
x,y,z
-x,-y,-z
loop_
_atom_site_type_symbol
_atom_site_label
_atom_site_fract_x
_atom_site_fract_y
_atom_site_fract_z
Si Si1 0.697940 0.093067 0.552898
Si Si2 0.907714 0.230195 0.559266
Si Si3 0.644169 0.668089 0.958521
Si Si4 0.643501 0.316410 0.962858
Si Si5 0.430665 0.683577 0.453212
Si Si6 0.141461 0.628394 0.750999
Si Si7 0.199455 0.368550 0.719309
O O1 0.756470 0.041781 0.582605
O O2 0.679291 0.252358 0.750639
O O3 0.795794 0.310467 0.437971
O O4 0.548167 0.758602 0.442228
O O5 0.000000 0.500000 0.500000
O O6 0.903867 0.999529 0.400630
O O7 0.985052 0.407709 0.746400
O O8 0.642779 0.529178 0.025338
O O9 0.662487 0.592500 0.739059
O O10 0.500000 0.500000 0.000000
O O11 0.769450 0.047119 0.067027
O O12 0.766565 0.524926 0.079610
O O13 0.500000 0.000000 0.000000
O O14 0.340016 0.579064 0.620825
O O15 0.500000 0.000000 0.500000
O O16 0.129495 0.421579 0.748076
#
# Coordination Sequence:
#
# PCOD8028389 Si02
#       7
#     2   2   2   2   2   2   2
#     4  11  22  44  66  95 140 171 218 269 335 396
#     4  10  25  46  67  94 133 183 225 273 328 397
#     4  12  23  39  69  97 135 177 218 278 336 396
#     4  12  23  38  63 104 137 169 219 278 338 394
#     4  12  21  42  68 103 135 173 216 275 344 396
#     4  11  23  47  67  95 134 179 228 267 330 403
#     4  12  24  42  69  99 135 174 224 282 332 394
#
# _framework density 22.864101000000002
#
# number of rings (size 3 to 8) (size 9 to 14) (size 15 to 20)
#    0.000    0.571    5.714    3.000    0.000    2.857 
#    0.000   10.714    0.000    0.000    0.000    0.000 
#    0.000    0.000    0.000    0.000    0.000    0.000 
#
# Total GULP energy -173593.493097 kJ/mol
# GULP energy per Si atom -12399.535221 kJ/mol
# Density = 2.281206 g / cm^3
# Si number density = 22.864101 Si / 1000 Ang^3
#
#
#
# Elastic Constant Matrix: (Units=GPa)
#
#
# Indices 1 2 3 4 5 6 
#
# 1 201.2970 49.3481 32.0409 23.4921 26.7041 -9.2752
# 2 49.3481 105.2881 29.9844 37.1633 6.4668 -12.6149
# 3 32.0409 29.9844 105.4982 21.3887 17.4437 -1.0197
# 4 23.4921 37.1633 21.3887 43.1124 6.1912 0.4473
# 5 26.7041 6.4668 17.4437 6.1912 37.1653 9.7402
# 6 -9.2752 -12.6149 -1.0197 0.4473 9.7402 39.7609
#
#
#
# Elastic Compliance Matrix: (Units=1/GPa)
#
#
# Indices 1 2 3 4 5 6 
#
# 1 0.006294 -0.002033 -0.000426 -0.000865 -0.004317 0.001880
# 2 -0.002033 0.015475 -0.001417 -0.011603 0.000191 0.004483
# 3 -0.000426 -0.001417 0.011491 -0.003615 -0.004469 0.000881
# 4 -0.000865 -0.011603 -0.003615 0.035574 -0.000472 -0.004260
# 5 -0.004317 0.000191 -0.004469 -0.000472 0.034653 -0.009545
# 6 0.001880 0.004483 0.000881 -0.004260 -0.009545 0.029420
#
#
# Mechanical properties :
#
#
# Convention : Reuss Voigt Hill
#
# Bulk Modulus (GPa) = 39.20250 70.53668 54.86959
# Shear Modulus (GPa) = 33.52051 44.05505 38.78778
#
# Velocity S-wave (km/s) = 3.83309 4.39432 4.12327
# Velocity P-wave (km/s) = 6.06409 7.52756 6.83511
#
# Compressibility (1/GPa) = 0.02550858
#
# Stress axis : x y z
#
# Youngs Moduli (GPa) = 158.87255 64.62132 87.02178
#
# Poissons Ratio (x) = 0.13136 0.03711
# Poissons Ratio (y) = 0.32296 0.12328
# Poissons Ratio (z) = 0.06775 0.09155
#
# Static dielectric constant tensor:
#      x y z
#    x 5.115340 0.120350 0.287230 
#    y 0.120350 4.024670 0.227170 
#    z 0.287230 0.227170 4.161080 
# 
# 
# High freq. dielectric constant tensor:
#      x y z
#    x 1.927130 -0.005070 0.019440 
#    y -0.005070 1.890990 0.013380 
#    z 0.019440 0.013380 1.896730 
# 
# From -- ./inp_files/352409.got.cif
#   From: 2010.06.25/outbox.cif.g09.slc.cpg/sg2_177_cif.got.tgz:352409.got - 2010.06.27 13:26:56.
