data_PCOD8028978
_publ_section_title
;
Structure prediction by ZEFSAII (Michael W. Deem and Ramdas Pophale) SiO2 
 PCOD8028978
Probable space group: P -1
;
_chemical_formula_sum "Si O2"
_cell_formula_units_Z 16
_cell_length_a 9.360098
_cell_length_b 11.993805
_cell_length_c 14.405665
_cell_angle_alpha 52.359182
_cell_angle_beta 108.931513
_cell_angle_gamma 140.659887
_cell_volume 775.778224
_symmetry_space_group_name_H-M "P -1"
_symmetry_group_IT_number 2
_symmetry_cell_setting 'triclinic'
loop_
_space_group_symop_operation_xyz
x,y,z
-x,-y,-z
loop_
_atom_site_type_symbol
_atom_site_label
_atom_site_fract_x
_atom_site_fract_y
_atom_site_fract_z
Si Si1 0.179908 0.600876 0.849138
Si Si2 0.872103 0.985086 0.229568
Si Si3 0.945384 0.717862 0.363482
Si Si4 0.571623 0.281838 0.609083
Si Si5 0.439852 0.969145 0.397313
Si Si6 0.594592 0.912993 0.038350
Si Si7 0.122596 0.724902 0.216478
Si Si8 0.170629 0.444308 0.110597
O O1 0.001885 0.412866 0.832658
O O2 0.066448 0.650991 0.854189
O O3 0.418658 0.810688 0.740123
O O4 0.238685 0.529008 0.976196
O O5 0.966062 0.899403 0.266079
O O6 0.656825 0.816341 0.341437
O O7 0.782614 0.999398 0.110782
O O8 0.094174 0.225219 0.202741
O O9 0.721466 0.518654 0.479993
O O10 0.166581 0.809370 0.415779
O O11 0.936815 0.641470 0.297934
O O12 0.495333 0.133891 0.580845
O O13 0.716549 0.289252 0.708141
O O14 0.500000 0.000000 0.500000
O O15 0.391376 0.646937 0.119826
O O16 0.500000 0.000000 0.000000
O O17 0.718356 0.025892 0.906474
#
# Coordination Sequence:
#
# PCOD8028978 Si02
#       8
#     2   2   2   2   2   2   2   2
#     4  11  19  36  66  94 124 158 217 270 304 367
#     4  12  24  44  64  95 137 167 206 268 323 382
#     4  11  26  42  61  94 131 170 211 261 330 377
#     4  11  21  42  67  87 122 173 222 258 312 384
#     4  11  22  40  65  94 123 164 220 265 309 375
#     4  12  21  40  70  99 124 167 217 263 315 380
#     4  11  21  40  69  95 123 168 218 264 318 377
#     4  11  21  37  63 100 124 161 215 260 314 375
#
# _framework density 20.624448999999998
#
# number of rings (size 3 to 8) (size 9 to 14) (size 15 to 20)
#    0.000    0.750    5.000    5.625    0.000    0.500 
#    4.500    1.875    0.000    0.000    0.000    0.000 
#    0.000    0.000    0.000    0.000    0.000    0.000 
#
# Total GULP energy -198366.603335 kJ/mol
# GULP energy per Si atom -12397.912708 kJ/mol
# Density = 2.057751 g / cm^3
# Si number density = 20.624449 Si / 1000 Ang^3
#
#
#
# Elastic Constant Matrix: (Units=GPa)
#
#
# Indices 1 2 3 4 5 6 
#
# 1 60.4731 12.2599 20.8935 6.0288 -0.6237 -17.1237
# 2 12.2599 95.9705 27.5284 1.0151 -6.4363 -19.0733
# 3 20.8935 27.5284 108.3121 -7.9485 -20.2570 -7.4558
# 4 6.0288 1.0151 -7.9485 42.0741 -2.0781 -6.1165
# 5 -0.6237 -6.4363 -20.2570 -2.0781 31.2512 -8.8707
# 6 -17.1237 -19.0733 -7.4558 -6.1165 -8.8707 18.7959
#
#
#
# Elastic Compliance Matrix: (Units=1/GPa)
#
#
# Indices 1 2 3 4 5 6 
#
# 1 0.025071 0.004015 -0.002086 0.000768 0.008663 0.030426
# 2 0.004015 0.015790 -0.000983 0.002981 0.009981 0.024972
# 3 -0.002086 -0.000983 0.012872 0.004580 0.010916 0.008850
# 4 0.000768 0.002981 0.004580 0.027884 0.011086 0.019847
# 5 0.008663 0.009981 0.010916 0.011086 0.057051 0.052884
# 6 0.030426 0.024972 0.008850 0.019847 0.052884 0.141190
#
#
# Mechanical properties :
#
#
# Convention : Reuss Voigt Hill
#
# Bulk Modulus (GPa) = 17.97742 42.90214 30.43978
# Shear Modulus (GPa) = 16.86301 32.02918 24.44609
#
# Velocity S-wave (km/s) = 2.86251 3.94505 3.44655
# Velocity P-wave (km/s) = 4.43405 6.44965 5.53438
#
# Compressibility (1/GPa) = 0.05562532
#
# Stress axis : x y z
#
# Youngs Moduli (GPa) = 39.88627 63.33251 77.68986
#
# Poissons Ratio (x) = -0.25430 0.16205
# Poissons Ratio (y) = -0.16016 0.07638
# Poissons Ratio (z) = 0.08320 0.06227
#
# Static dielectric constant tensor:
#      x y z
#    x 3.443210 -0.112140 -0.230290 
#    y -0.112140 3.854450 -0.161600 
#    z -0.230290 -0.161600 3.891330 
# 
# 
# High freq. dielectric constant tensor:
#      x y z
#    x 1.778150 -0.012800 -0.023550 
#    y -0.012800 1.813510 -0.008450 
#    z -0.023550 -0.008450 1.820340 
# 
# From -- ./inp_files/273931.got.cif
#   From: 2010.06.25/outbox.cif.g09.slc.cpg/sg2_137_cif.got.tgz:273931.got - 2010.06.27 13:26:56.
