data_PCOD8028846
_publ_section_title
;
Structure prediction by ZEFSAII (Michael W. Deem and Ramdas Pophale) SiO2 
 PCOD8028846
Probable space group: P -1
;
_chemical_formula_sum "Si O2"
_cell_formula_units_Z 16
_cell_length_a 14.524308
_cell_length_b 30.493615
_cell_length_c 14.485603
_cell_angle_alpha 17.096154
_cell_angle_beta 151.148678
_cell_angle_gamma 152.464549
_cell_volume 852.758866
_symmetry_space_group_name_H-M "P -1"
_symmetry_group_IT_number 2
_symmetry_cell_setting 'triclinic'
loop_
_space_group_symop_operation_xyz
x,y,z
-x,-y,-z
loop_
_atom_site_type_symbol
_atom_site_label
_atom_site_fract_x
_atom_site_fract_y
_atom_site_fract_z
Si Si1 0.227986 0.374783 0.443794
Si Si2 0.791515 0.188904 0.896316
Si Si3 0.063991 0.786235 0.648387
Si Si4 0.782521 0.847354 0.965983
Si Si5 0.982126 0.798467 0.754900
Si Si6 0.619952 0.810167 0.518592
Si Si7 0.399886 0.692567 0.043618
Si Si8 0.152557 0.176006 0.134041
O O1 0.235431 0.549891 0.128741
O O2 0.461737 0.380068 0.625164
O O3 0.109788 0.327587 0.339920
O O4 0.120096 0.245203 0.690161
O O5 0.620247 0.263606 0.567756
O O6 0.889340 0.259105 0.940091
O O7 0.968875 0.237072 0.877836
O O8 0.694089 0.999671 0.197697
O O9 0.001817 0.724400 0.822172
O O10 0.077404 0.967894 0.281838
O O11 0.283351 0.776669 0.836851
O O12 0.774269 0.768153 0.017370
O O13 0.549622 0.821071 0.845345
O O14 0.745910 0.746067 0.683904
O O15 0.075319 0.987093 0.451123
O O16 0.660877 0.756564 0.765209
#
# Coordination Sequence:
#
# PCOD8028846 Si02
#       8
#     2   2   2   2   2   2   2   2
#     4   9  20  35  49  67  99 133 163 195 235 290
#     4   8  13  24  40  60  91 124 148 182 236 288
#     4  11  18  31  52  74  97 128 161 199 245 277
#     4   9  18  33  48  74 103 122 157 211 237 269
#     4   8  16  24  39  66  95 117 149 194 233 277
#     4   8  13  24  40  60  91 124 148 182 236 288
#     4   9  20  35  49  67  99 133 163 195 235 290
#     4   8  14  26  39  64  95 119 149 190 237 275
#
# _framework density 18.762630999999999
#
# number of rings (size 3 to 8) (size 9 to 14) (size 15 to 20)
#    0.750    2.500    0.000    2.625    0.000    1.000 
#    2.250    2.500    0.000    0.000    0.000    7.000 
#    0.000    0.000    0.000    0.000    0.000    0.000 
#
# Total GULP energy -198256.838013 kJ/mol
# GULP energy per Si atom -12391.052376 kJ/mol
# Density = 1.871993 g / cm^3
# Si number density = 18.762631 Si / 1000 Ang^3
#
#
#
# Elastic Constant Matrix: (Units=GPa)
#
#
# Indices 1 2 3 4 5 6 
#
# 1 142.2140 49.9370 22.8054 28.3417 17.0253 -23.8054
# 2 49.9370 80.3254 25.1908 27.6667 9.8129 -11.5006
# 3 22.8054 25.1908 25.9436 13.8208 7.5324 -3.6640
# 4 28.3417 27.6667 13.8208 33.5854 4.6904 0.8975
# 5 17.0253 9.8129 7.5324 4.6904 11.2498 6.7470
# 6 -23.8054 -11.5006 -3.6640 0.8975 6.7470 23.6686
#
#
#
# Elastic Compliance Matrix: (Units=1/GPa)
#
#
# Indices 1 2 3 4 5 6 
#
# 1 0.023957 0.002951 0.013085 -0.019821 -0.067915 0.047666
# 2 0.002951 0.025531 -0.006255 -0.017482 -0.029309 0.023424
# 3 0.013085 -0.006255 0.079130 -0.027975 -0.084095 0.047404
# 4 -0.019821 -0.017482 -0.027975 0.064057 0.070411 -0.055261
# 5 -0.067915 -0.029309 -0.084095 0.070411 0.365612 -0.202458
# 6 0.047666 0.023424 0.047404 -0.055261 -0.202458 0.168720
#
#
# Mechanical properties :
#
#
# Convention : Reuss Voigt Hill
#
# Bulk Modulus (GPa) = 6.74851 49.37216 28.06033
# Shear Modulus (GPa) = 6.60644 23.73741 15.17193
#
# Velocity S-wave (km/s) = 1.87848 3.56074 2.84672
# Velocity P-wave (km/s) = 2.88263 6.57848 5.07868
#
# Compressibility (1/GPa) = 0.14818084
#
# Stress axis : x y z
#
# Youngs Moduli (GPa) = 41.74224 39.16750 12.63745
#
# Poissons Ratio (x) = -0.11560 -0.16536
# Poissons Ratio (y) = -0.12320 0.07904
# Poissons Ratio (z) = -0.54618 0.24497
#
# Static dielectric constant tensor:
#      x y z
#    x 3.596680 -0.111320 0.069990 
#    y -0.111320 3.308650 0.271960 
#    z 0.069990 0.271960 3.109620 
# 
# 
# High freq. dielectric constant tensor:
#      x y z
#    x 1.723960 -0.006790 0.007910 
#    y -0.006790 1.712370 0.016440 
#    z 0.007910 0.016440 1.694200 
# 
# From -- ./inp_files/535803.got.cif
#   From: 2010.06.25/outbox.cif.g09.slc.cpg/sg2_268_cif.got.tgz:535803.got - 2010.06.27 13:26:56.
