data_PCOD8028770
_publ_section_title
;
Structure prediction by ZEFSAII (Michael W. Deem and Ramdas Pophale) SiO2 
 PCOD8028770
Probable space group: P -1
;
_chemical_formula_sum "Si O2"
_cell_formula_units_Z 14
_cell_length_a 20.363613
_cell_length_b 19.619773
_cell_length_c 8.629251
_cell_angle_alpha 147.412812
_cell_angle_beta 29.911347
_cell_angle_gamma 159.472903
_cell_volume 593.404735
_symmetry_space_group_name_H-M "P -1"
_symmetry_group_IT_number 2
_symmetry_cell_setting 'triclinic'
loop_
_space_group_symop_operation_xyz
x,y,z
-x,-y,-z
loop_
_atom_site_type_symbol
_atom_site_label
_atom_site_fract_x
_atom_site_fract_y
_atom_site_fract_z
Si Si1 0.925777 0.324823 0.417834
Si Si2 0.479132 0.002526 0.865412
Si Si3 0.159171 0.009502 0.136079
Si Si4 0.648679 0.512102 0.630570
Si Si5 0.613205 0.802272 0.686336
Si Si6 0.958346 0.943330 0.802173
Si Si7 0.174991 0.566393 0.663702
O O1 0.000000 0.500000 0.500000
O O2 0.071252 0.416383 0.445701
O O3 0.692278 0.169085 0.655404
O O4 0.936465 0.203106 0.062610
O O5 0.330627 0.783163 0.685380
O O6 0.500000 0.000000 0.000000
O O7 0.362786 0.047203 0.159897
O O8 0.379983 0.177802 0.100266
O O9 0.194738 0.068002 0.991887
O O10 0.000000 0.000000 0.500000
O O11 0.567613 0.410994 0.431984
O O12 0.865264 0.735216 0.576640
O O13 0.685652 0.420691 0.490102
O O14 0.500000 0.500000 0.000000
O O15 0.823420 0.882603 0.389563
O O16 0.000000 0.000000 0.000000
O O17 0.000000 0.500000 0.000000
#
# Coordination Sequence:
#
# PCOD8028770 Si02
#       7
#     2   2   2   2   2   2   2
#     4  12  28  50  77 112 153 201 256 312 387 457
#     4  12  25  46  77 111 146 196 254 315 376 451
#     4  10  26  47  71 104 150 204 238 306 389 445
#     4  12  25  39  70 112 136 190 257 305 368 450
#     4  11  24  46  68 103 150 186 246 312 372 451
#     4  11  23  43  71  99 146 192 245 305 376 445
#     4  12  25  46  77 110 153 198 254 315 379 456
#
# _framework density 23.592665
#
# number of rings (size 3 to 8) (size 9 to 14) (size 15 to 20)
#    0.000    0.571    4.286    2.571    6.000    6.286 
#    0.000    0.000    0.000    0.000    0.000    0.000 
#    0.000    0.000    0.000    0.000    0.000    0.000 
#
# Total GULP energy -173451.615641 kJ/mol
# GULP energy per Si atom -12389.401117 kJ/mol
# Density = 2.353897 g / cm^3
# Si number density = 23.592665 Si / 1000 Ang^3
#
#
#
# Elastic Constant Matrix: (Units=GPa)
#
#
# Indices 1 2 3 4 5 6 
#
# 1 199.0714 50.0923 53.3472 24.4772 12.6326 27.1029
# 2 50.0923 146.5746 37.9733 26.5152 14.2749 8.2403
# 3 53.3472 37.9733 107.5081 23.7869 -0.9720 7.2196
# 4 24.4772 26.5152 23.7869 50.0797 4.9620 11.0554
# 5 12.6326 14.2749 -0.9720 4.9620 35.8103 13.6581
# 6 27.1029 8.2403 7.2196 11.0554 13.6581 49.7122
#
#
#
# Elastic Compliance Matrix: (Units=1/GPa)
#
#
# Indices 1 2 3 4 5 6 
#
# 1 0.006481 -0.001230 -0.002460 -0.000697 -0.000773 -0.002605
# 2 -0.001230 0.008483 -0.001828 -0.002949 -0.002971 0.001002
# 3 -0.002460 -0.001828 0.012025 -0.003799 0.002419 0.000078
# 4 -0.000697 -0.002949 -0.003799 0.024591 -0.000609 -0.003881
# 5 -0.000773 -0.002971 0.002419 -0.000609 0.032691 -0.008284
# 6 -0.002605 0.001002 0.000078 -0.003881 -0.008284 0.024498
#
#
# Mechanical properties :
#
#
# Convention : Reuss Voigt Hill
#
# Bulk Modulus (GPa) = 62.67826 81.77553 72.22689
# Shear Modulus (GPa) = 39.96105 47.90320 43.93213
#
# Velocity S-wave (km/s) = 4.12003 4.51092 4.31990
# Velocity P-wave (km/s) = 7.01836 7.86561 7.45403
#
# Compressibility (1/GPa) = 0.01595450
#
# Stress axis : x y z
#
# Youngs Moduli (GPa) = 154.28881 117.88649 83.16200
#
# Poissons Ratio (x) = 0.14501 0.20454
# Poissons Ratio (y) = 0.18979 0.15198
# Poissons Ratio (z) = 0.37948 0.21544
#
# Static dielectric constant tensor:
#      x y z
#    x 4.808860 0.328970 0.128110 
#    y 0.328970 4.457230 0.357090 
#    z 0.128110 0.357090 4.518160 
# 
# 
# High freq. dielectric constant tensor:
#      x y z
#    x 1.964220 0.017670 -0.000490 
#    y 0.017670 1.930400 0.019350 
#    z -0.000490 0.019350 1.928930 
# 
# From -- ./inp_files/349744.got.cif
#   From: 2010.06.25/outbox.cif.g09.slc.cpg/sg2_175_cif.got.tgz:349744.got - 2010.06.27 13:26:56.
