data_PCOD8028360
_publ_section_title
;
Structure prediction by ZEFSAII (Michael W. Deem and Ramdas Pophale) SiO2 
 PCOD8028360
Probable space group: P -1
;
_chemical_formula_sum "Si O2"
_cell_formula_units_Z 16
_cell_length_a 13.915699
_cell_length_b 10.825974
_cell_length_c 9.313328
_cell_angle_alpha 94.004491
_cell_angle_beta 78.434463
_cell_angle_gamma 32.750691
_cell_volume 664.111077
_symmetry_space_group_name_H-M "P -1"
_symmetry_group_IT_number 2
_symmetry_cell_setting 'triclinic'
loop_
_space_group_symop_operation_xyz
x,y,z
-x,-y,-z
loop_
_atom_site_type_symbol
_atom_site_label
_atom_site_fract_x
_atom_site_fract_y
_atom_site_fract_z
Si Si1 0.931446 0.803508 0.016700
Si Si2 0.446396 0.671451 0.133871
Si Si3 0.767700 0.450240 0.876748
Si Si4 0.047159 0.025307 0.201693
Si Si5 0.583936 0.526780 0.399545
Si Si6 0.010294 0.542747 0.705421
Si Si7 0.359832 0.984625 0.666106
Si Si8 0.753035 0.638650 0.638344
O O1 0.933786 0.940587 0.963480
O O2 0.963244 0.668434 0.872528
O O3 0.113087 0.585946 0.059054
O O4 0.721124 0.009554 0.177253
O O5 0.558112 0.533769 0.239467
O O6 0.201181 0.943002 0.243863
O O7 0.500000 0.500000 0.000000
O O8 0.538006 0.690887 0.026481
O O9 0.769065 0.496454 0.717262
O O10 0.886734 0.189262 0.826621
O O11 0.819190 0.288320 0.349255
O O12 0.500000 0.500000 0.500000
O O13 0.464263 0.780591 0.502345
O O14 0.092574 0.543139 0.556536
O O15 0.806784 0.699888 0.722537
O O16 0.181081 0.251577 0.660157
O O17 0.523025 0.903196 0.670836
#
# Coordination Sequence:
#
# PCOD8028360 Si02
#       8
#     2   2   2   2   2   2   2   2
#     4  12  24  48  79 106 145 199 243 303 369 434
#     4  10  25  45  74 108 151 190 242 289 363 439
#     4  11  23  45  79 108 150 188 244 306 367 436
#     4  11  25  47  75 106 153 191 239 298 364 438
#     4  12  28  44  73 113 150 194 238 296 371 438
#     4  11  27  52  73 103 147 192 253 308 362 426
#     4  12  27  47  77 105 151 191 247 301 369 433
#     4  11  26  47  75 106 145 188 249 306 364 430
#
# _framework density 24.092357
#
# number of rings (size 3 to 8) (size 9 to 14) (size 15 to 20)
#    0.000    0.750    2.500    3.375    8.750    4.000 
#    2.250    0.000    0.000    0.000    0.000    0.000 
#    0.000    0.000    0.000    0.000    0.000    0.000 
#
# Total GULP energy -198396.491273 kJ/mol
# GULP energy per Si atom -12399.780705 kJ/mol
# Density = 2.403752 g / cm^3
# Si number density = 24.092357 Si / 1000 Ang^3
#
#
#
# Elastic Constant Matrix: (Units=GPa)
#
#
# Indices 1 2 3 4 5 6 
#
# 1 133.1545 46.6358 65.0906 5.5411 -14.5057 -35.3435
# 2 46.6358 88.5385 41.8908 0.3882 -2.8410 -15.9403
# 3 65.0906 41.8908 136.0705 -0.2116 -10.7762 0.8840
# 4 5.5411 0.3882 -0.2116 36.0433 2.7544 -8.4844
# 5 -14.5057 -2.8410 -10.7762 2.7544 53.1261 -1.3094
# 6 -35.3435 -15.9403 0.8840 -8.4844 -1.3094 49.3296
#
#
#
# Elastic Compliance Matrix: (Units=1/GPa)
#
#
# Indices 1 2 3 4 5 6 
#
# 1 0.014099 -0.002985 -0.005666 -0.000197 0.002780 0.009278
# 2 -0.002985 0.014886 -0.003224 0.001009 -0.000654 0.002886
# 3 -0.005666 -0.003224 0.011120 -0.000319 0.000421 -0.005344
# 4 -0.000197 0.001009 -0.000319 0.029086 -0.001446 0.005155
# 5 0.002780 -0.000654 0.000421 -0.001446 0.019758 0.002048
# 6 0.009278 0.002886 -0.005344 0.005155 0.002048 0.028889
#
#
# Mechanical properties :
#
#
# Convention : Reuss Voigt Hill
#
# Bulk Modulus (GPa) = 61.14311 73.88863 67.51587
# Shear Modulus (GPa) = 34.00457 41.30955 37.65706
#
# Velocity S-wave (km/s) = 3.76097 4.14531 3.95781
# Velocity P-wave (km/s) = 6.65534 7.32440 6.99787
#
# Compressibility (1/GPa) = 0.01635507
#
# Stress axis : x y z
#
# Youngs Moduli (GPa) = 70.92674 67.17573 89.93184
#
# Poissons Ratio (x) = 0.20053 0.50954
# Poissons Ratio (y) = 0.21172 0.28993
# Poissons Ratio (z) = 0.40186 0.21657
#
# Static dielectric constant tensor:
#      x y z
#    x 4.798110 -0.541870 -0.396880 
#    y -0.541870 4.568990 -0.048150 
#    z -0.396880 -0.048150 4.462850 
# 
# 
# High freq. dielectric constant tensor:
#      x y z
#    x 1.974650 -0.021910 -0.016610 
#    y -0.021910 1.951530 -0.012740 
#    z -0.016610 -0.012740 1.958020 
# 
# From -- ./inp_files/307521.got.cif
#   From: 2010.06.25/outbox.cif.g09.slc.cpg/sg2_154_cif.got.tgz:307521.got - 2010.06.27 13:26:56.
