data_PCOD8028164
_publ_section_title
;
Structure prediction by ZEFSAII (Michael W. Deem and Ramdas Pophale) SiO2 
 PCOD8028164
Probable space group: P -1
;
_chemical_formula_sum "Si O2"
_cell_formula_units_Z 16
_cell_length_a 11.249775
_cell_length_b 8.279038
_cell_length_c 9.157392
_cell_angle_alpha 97.559274
_cell_angle_beta 127.299729
_cell_angle_gamma 94.964324
_cell_volume 657.443917
_symmetry_space_group_name_H-M "P -1"
_symmetry_group_IT_number 2
_symmetry_cell_setting 'triclinic'
loop_
_space_group_symop_operation_xyz
x,y,z
-x,-y,-z
loop_
_atom_site_type_symbol
_atom_site_label
_atom_site_fract_x
_atom_site_fract_y
_atom_site_fract_z
Si Si1 0.117637 0.110259 0.304569
Si Si2 0.808114 0.010383 0.939288
Si Si3 0.532836 0.826066 0.869739
Si Si4 0.396177 0.339235 0.833439
Si Si5 0.796112 0.163212 0.489218
Si Si6 0.936110 0.665344 0.474313
Si Si7 0.444905 0.514089 0.297859
Si Si8 0.148718 0.643245 0.150726
O O1 0.206014 0.128758 0.217416
O O2 0.097797 0.285935 0.377986
O O3 0.215401 0.022990 0.480285
O O4 0.949033 0.989649 0.145052
O O5 0.649129 0.984611 0.905354
O O6 0.856349 0.194595 0.929538
O O7 0.359005 0.830539 0.709440
O O8 0.577714 0.663889 0.816081
O O9 0.564045 0.820651 0.068372
O O10 0.221189 0.352456 0.733693
O O11 0.435049 0.344980 0.689081
O O12 0.500000 0.500000 0.000000
O O13 0.826838 0.303467 0.655092
O O14 0.934393 0.191135 0.481116
O O15 0.000000 0.500000 0.500000
O O16 0.500000 0.500000 0.500000
O O17 0.285974 0.568704 0.184311
O O18 0.000000 0.500000 0.000000
#
# Coordination Sequence:
#
# PCOD8028164 Si02
#       8
#     2   2   2   2   2   2   2   2
#     4  10  25  45  68 105 141 189 248 300 370 438
#     4  10  25  46  74 105 148 194 246 306 381 437
#     4  11  24  46  72 103 155 193 246 306 371 447
#     4  10  25  44  68 109 148 196 243 304 371 435
#     4  11  25  46  67 105 145 198 245 300 378 440
#     4  12  26  42  73 101 148 189 249 303 365 440
#     4  11  24  44  72 106 145 193 251 303 366 430
#     4  11  27  43  73 110 143 191 256 310 369 441
#
# _framework density 24.336677000000002
#
# number of rings (size 3 to 8) (size 9 to 14) (size 15 to 20)
#    0.000    1.250    1.250    2.625   12.250    4.000 
#    0.000    1.875    0.000    0.000    0.000    0.000 
#    0.000    0.000    0.000    0.000    0.000    0.000 
#
# Total GULP energy -198384.352434 kJ/mol
# GULP energy per Si atom -12399.022027 kJ/mol
# Density = 2.428129 g / cm^3
# Si number density = 24.336677 Si / 1000 Ang^3
#
#
#
# Elastic Constant Matrix: (Units=GPa)
#
#
# Indices 1 2 3 4 5 6 
#
# 1 162.7543 48.4794 71.5786 -13.0429 19.8256 11.9838
# 2 48.4794 88.2942 36.1407 -6.7651 -6.5429 -4.2535
# 3 71.5786 36.1407 146.6288 -31.2822 8.4727 3.8515
# 4 -13.0429 -6.7651 -31.2822 30.1128 -6.9916 -2.9732
# 5 19.8256 -6.5429 8.4727 -6.9916 53.5034 -1.0828
# 6 11.9838 -4.2535 3.8515 -2.9732 -1.0828 52.3027
#
#
#
# Elastic Compliance Matrix: (Units=1/GPa)
#
#
# Indices 1 2 3 4 5 6 
#
# 1 0.009533 -0.004249 -0.003707 -0.001787 -0.003748 -0.002436
# 2 -0.004249 0.014811 -0.001674 0.000873 0.003814 0.002430
# 3 -0.003707 -0.001674 0.011063 0.009719 0.000696 0.000465
# 4 -0.001787 0.000873 0.009719 0.044133 0.005045 0.002378
# 5 -0.003748 0.003814 0.000696 0.005045 0.021132 0.001842
# 6 -0.002436 0.002430 0.000465 0.002378 0.001842 0.020014
#
#
# Mechanical properties :
#
#
# Convention : Reuss Voigt Hill
#
# Bulk Modulus (GPa) = 61.93385 78.89720 70.41553
# Shear Modulus (GPa) = 34.40494 43.28235 38.84365
#
# Velocity S-wave (km/s) = 3.76401 4.22178 3.99945
# Velocity P-wave (km/s) = 6.66291 7.50027 7.09395
#
# Compressibility (1/GPa) = 0.01614626
#
# Stress axis : x y z
#
# Youngs Moduli (GPa) = 104.90067 67.51947 90.38945
#
# Poissons Ratio (x) = 0.28687 0.33508
# Poissons Ratio (y) = 0.44570 0.15134
# Poissons Ratio (z) = 0.38888 0.11305
#
# Static dielectric constant tensor:
#      x y z
#    x 4.222880 -0.191150 -0.200180 
#    y -0.191150 4.286900 -0.179760 
#    z -0.200180 -0.179760 4.745790 
# 
# 
# High freq. dielectric constant tensor:
#      x y z
#    x 1.978890 -0.003710 0.001800 
#    y -0.003710 1.960080 -0.004780 
#    z 0.001800 -0.004780 1.980270 
# 
# From -- ./inp_files/244225.got.cif
#   From: 2010.06.25/outbox.cif.g09.slc.cpg/sg2_123_cif.got.tgz:244225.got - 2010.06.27 13:26:56.
