data_PCOD8028025
_publ_section_title
;
Structure prediction by ZEFSAII (Michael W. Deem and Ramdas Pophale) SiO2 
 PCOD8028025
Probable space group: P -1
;
_chemical_formula_sum "Si O2"
_cell_formula_units_Z 16
_cell_length_a 9.875704
_cell_length_b 21.002876
_cell_length_c 17.917928
_cell_angle_alpha 161.520171
_cell_angle_beta 142.716066
_cell_angle_gamma 37.327978
_cell_volume 697.501708
_symmetry_space_group_name_H-M "P -1"
_symmetry_group_IT_number 2
_symmetry_cell_setting 'triclinic'
loop_
_space_group_symop_operation_xyz
x,y,z
-x,-y,-z
loop_
_atom_site_type_symbol
_atom_site_label
_atom_site_fract_x
_atom_site_fract_y
_atom_site_fract_z
Si Si1 0.670503 0.388459 0.388842
Si Si2 0.991998 0.012321 0.421575
Si Si3 0.393039 0.653795 0.189401
Si Si4 0.498369 0.974044 0.156728
Si Si5 0.781189 0.705427 0.242978
Si Si6 0.158016 0.224505 0.479390
Si Si7 0.392916 0.817567 0.091793
Si Si8 0.269284 0.438909 0.549174
O O1 0.500000 0.500000 0.500000
O O2 0.633859 0.524947 0.449931
O O3 0.930135 0.369936 0.510068
O O4 0.619217 0.163099 0.102592
O O5 0.205515 0.851389 0.299510
O O6 0.755894 0.971098 0.239610
O O7 0.000000 0.000000 0.500000
O O8 0.013085 0.240482 0.656412
O O9 0.613472 0.719869 0.397154
O O10 0.500000 0.500000 0.000000
O O11 0.245293 0.531651 0.042040
O O12 0.349617 0.204311 0.347861
O O13 0.518720 0.875998 0.138477
O O14 0.826366 0.758152 0.406030
O O15 0.544651 0.838769 0.254632
O O16 0.159323 0.988929 0.193649
O O17 0.351255 0.588405 0.811505
O O18 0.000000 0.500000 0.500000
#
# Coordination Sequence:
#
# PCOD8028025 Si02
#       8
#     2   2   2   2   2   2   2   2
#     4  11  28  49  69 104 143 187 238 294 351 422
#     4  12  25  45  68 105 147 183 234 295 357 427
#     4  10  25  42  67 101 137 186 232 285 354 427
#     4  11  26  48  70 104 145 182 236 293 351 424
#     4  11  25  41  70 105 141 184 229 285 366 415
#     4  11  23  47  71 102 147 180 236 298 348 425
#     4  11  23  43  73 106 141 175 238 293 352 424
#     4  11  26  47  76 101 135 196 244 287 354 418
#
# _framework density 22.939014
#
# number of rings (size 3 to 8) (size 9 to 14) (size 15 to 20)
#    0.000    1.000    2.500    1.875   12.250    4.000 
#    2.250    0.000    0.000    0.000    0.000    0.000 
#    0.000    0.000    0.000    0.000    0.000    0.000 
#
# Total GULP energy -198319.578640 kJ/mol
# GULP energy per Si atom -12394.973665 kJ/mol
# Density = 2.288680 g / cm^3
# Si number density = 22.939014 Si / 1000 Ang^3
#
#
#
# Elastic Constant Matrix: (Units=GPa)
#
#
# Indices 1 2 3 4 5 6 
#
# 1 67.0435 16.0625 39.0252 -7.6967 16.0002 5.2120
# 2 16.0625 109.2996 46.4651 -9.5254 6.7672 -15.2471
# 3 39.0252 46.4651 139.5995 1.9418 15.2941 2.5968
# 4 -7.6967 -9.5254 1.9418 38.0627 -0.9955 1.6100
# 5 16.0002 6.7672 15.2941 -0.9955 47.7067 -1.1877
# 6 5.2120 -15.2471 2.5968 1.6100 -1.1877 43.9713
#
#
#
# Elastic Compliance Matrix: (Units=1/GPa)
#
#
# Indices 1 2 3 4 5 6 
#
# 1 0.019680 -0.000549 -0.004784 0.004063 -0.004967 -0.002523
# 2 -0.000549 0.011713 -0.003855 0.002835 -0.000077 0.004248
# 3 -0.004784 -0.003855 0.009965 -0.002415 -0.001126 -0.001300
# 4 0.004063 0.002835 -0.002415 0.027932 -0.000418 -0.000390
# 5 -0.004967 -0.000077 -0.001126 -0.000418 0.023022 0.001266
# 6 -0.002523 0.004248 -0.001300 -0.000390 0.001266 0.024640
#
#
# Mechanical properties :
#
#
# Convention : Reuss Voigt Hill
#
# Bulk Modulus (GPa) = 43.51289 57.67203 50.59246
# Shear Modulus (GPa) = 34.96750 40.24079 37.60415
#
# Velocity S-wave (km/s) = 3.90855 4.19292 4.05323
# Velocity P-wave (km/s) = 6.27528 6.97401 6.63385
#
# Compressibility (1/GPa) = 0.02298169
#
# Stress axis : x y z
#
# Youngs Moduli (GPa) = 50.81290 85.37313 100.34888
#
# Poissons Ratio (x) = 0.04684 0.48011
# Poissons Ratio (y) = 0.02788 0.38689
# Poissons Ratio (z) = 0.24311 0.32915
#
# Static dielectric constant tensor:
#      x y z
#    x 4.293480 0.085770 0.534050 
#    y 0.085770 4.273280 0.065960 
#    z 0.534050 0.065960 4.862710 
# 
# 
# High freq. dielectric constant tensor:
#      x y z
#    x 1.900360 0.003840 0.013110 
#    y 0.003840 1.902030 -0.000440 
#    z 0.013110 -0.000440 1.923080 
# 
# From -- ./inp_files/562994.got.cif
#   From: 2010.06.25/outbox.cif.g09.slc.cpg/sg2_282_cif.got.tgz:562994.got - 2010.06.27 13:26:56.
