data_PCOD8028078
_publ_section_title
;
Structure prediction by ZEFSAII (Michael W. Deem and Ramdas Pophale) SiO2 
 PCOD8028078
Probable space group: P -1
;
_chemical_formula_sum "Si O2"
_cell_formula_units_Z 14
_cell_length_a 8.871177
_cell_length_b 5.042993
_cell_length_c 14.400060
_cell_angle_alpha 102.820549
_cell_angle_beta 109.088801
_cell_angle_gamma 86.697386
_cell_volume 593.540167
_symmetry_space_group_name_H-M "P -1"
_symmetry_group_IT_number 2
_symmetry_cell_setting 'triclinic'
loop_
_space_group_symop_operation_xyz
x,y,z
-x,-y,-z
loop_
_atom_site_type_symbol
_atom_site_label
_atom_site_fract_x
_atom_site_fract_y
_atom_site_fract_z
Si Si1 0.934958 0.652787 0.735498
Si Si2 0.036266 0.767018 0.128896
Si Si3 0.753261 0.344397 0.310153
Si Si4 0.566968 0.247549 0.092076
Si Si5 0.743809 0.481999 0.981019
Si Si6 0.377200 0.262878 0.425792
Si Si7 0.650289 0.921357 0.396695
O O1 0.944111 0.486048 0.818279
O O2 0.762119 0.604129 0.651412
O O3 0.069639 0.574919 0.681785
O O4 0.961049 0.966098 0.789465
O O5 0.178931 0.761572 0.081670
O O6 0.869933 0.733640 0.036222
O O7 0.651469 0.170700 0.199621
O O8 0.660323 0.624963 0.329319
O O9 0.763736 0.148488 0.387062
O O10 0.417122 0.437564 0.098256
O O11 0.703659 0.396541 0.071394
O O12 0.500000 0.000000 0.000000
O O13 0.500000 0.500000 0.500000
O O14 0.299484 0.110372 0.487741
O O15 0.469625 0.036869 0.365791
#
# Coordination Sequence:
#
# PCOD8028078 Si02
#       7
#     2   2   2   2   2   2   2
#     4  12  28  45  76 103 147 180 244 292 357 418
#     4  11  26  46  69 105 140 194 238 291 346 417
#     4  12  26  47  72 108 142 189 239 291 351 426
#     4  11  25  42  69 103 148 190 237 292 347 417
#     4  10  25  43  67  99 147 189 240 287 349 407
#     4  11  27  52  74 109 141 182 235 301 360 439
#     4  11  27  48  75 101 144 182 238 291 363 426
#
# _framework density 23.587281999999998
#
# number of rings (size 3 to 8) (size 9 to 14) (size 15 to 20)
#    0.000    0.857    2.857    1.714   14.000    2.286 
#    0.000    0.000    0.000    0.000    0.000    0.000 
#    0.000    0.000    0.000    0.000    0.000    0.000 
#
# Total GULP energy -173616.114209 kJ/mol
# GULP energy per Si atom -12401.151015 kJ/mol
# Density = 2.353360 g / cm^3
# Si number density = 23.587282 Si / 1000 Ang^3
#
#
#
# Elastic Constant Matrix: (Units=GPa)
#
#
# Indices 1 2 3 4 5 6 
#
# 1 134.9388 38.6346 49.9226 -0.2038 -15.2417 -13.5391
# 2 38.6346 92.7628 26.5648 9.5981 0.3290 -2.2895
# 3 49.9226 26.5648 71.7287 2.6789 2.7173 -10.1771
# 4 -0.2038 9.5981 2.6789 46.0693 -1.4230 -8.0990
# 5 -15.2417 0.3290 2.7173 -1.4230 30.1310 2.3990
# 6 -13.5391 -2.2895 -10.1771 -8.0990 2.3990 27.1416
#
#
#
# Elastic Compliance Matrix: (Units=1/GPa)
#
#
# Indices 1 2 3 4 5 6 
#
# 1 0.011959 -0.003097 -0.007065 0.001844 0.006567 0.003025
# 2 -0.003097 0.013156 -0.002875 -0.003034 -0.001412 -0.002294
# 3 -0.007065 -0.002875 0.020786 -0.000023 -0.005779 0.004531
# 4 0.001844 -0.003034 -0.000023 0.023731 0.001483 0.007605
# 5 0.006567 -0.001412 -0.005779 0.001483 0.037265 -0.001862
# 6 0.003025 -0.002294 0.004531 0.007605 -0.001862 0.042292
#
#
# Mechanical properties :
#
#
# Convention : Reuss Voigt Hill
#
# Bulk Modulus (GPa) = 50.43787 58.85271 54.64529
# Shear Modulus (GPa) = 27.49160 32.95557 30.22359
#
# Velocity S-wave (km/s) = 3.41768 3.74194 3.58348
# Velocity P-wave (km/s) = 6.08309 6.60868 6.35133
#
# Compressibility (1/GPa) = 0.01982637
#
# Stress axis : x y z
#
# Youngs Moduli (GPa) = 83.61656 76.01169 48.10870
#
# Poissons Ratio (x) = 0.23541 0.33989
# Poissons Ratio (y) = 0.25897 0.13833
# Poissons Ratio (z) = 0.59076 0.21857
#
# Static dielectric constant tensor:
#      x y z
#    x 4.568290 -0.156730 -0.258090 
#    y -0.156730 4.254590 -0.139910 
#    z -0.258090 -0.139910 4.078580 
# 
# 
# High freq. dielectric constant tensor:
#      x y z
#    x 1.947120 -0.008430 -0.017830 
#    y -0.008430 1.933780 -0.004400 
#    z -0.017830 -0.004400 1.925150 
# 
# From -- ./inp_files/487948.got.cif
#   From: 2010.06.25/outbox.cif.g09.slc.cpg/sg2_244_cif.got.tgz:487948.got - 2010.06.27 13:26:56.
