data_PCOD8028745
_publ_section_title
;
Structure prediction by ZEFSAII (Michael W. Deem and Ramdas Pophale) SiO2 
 PCOD8028745
Probable space group: P -1
;
_chemical_formula_sum "Si O2"
_cell_formula_units_Z 14
_cell_length_a 8.811247
_cell_length_b 9.453338
_cell_length_c 11.263738
_cell_angle_alpha 126.271039
_cell_angle_beta 76.702680
_cell_angle_gamma 68.240414
_cell_volume 561.982241
_symmetry_space_group_name_H-M "P -1"
_symmetry_group_IT_number 2
_symmetry_cell_setting 'triclinic'
loop_
_space_group_symop_operation_xyz
x,y,z
-x,-y,-z
loop_
_atom_site_type_symbol
_atom_site_label
_atom_site_fract_x
_atom_site_fract_y
_atom_site_fract_z
Si Si1 0.009481 0.621160 0.224688
Si Si2 0.469485 0.331257 0.977973
Si Si3 0.081498 0.950811 0.594314
Si Si4 0.513089 0.622694 0.450691
Si Si5 0.398984 0.064416 0.420612
Si Si6 0.059758 0.707539 0.901578
Si Si7 0.866546 0.990647 0.860937
O O1 0.848687 0.763216 0.433893
O O2 0.977908 0.444803 0.092611
O O3 0.963503 0.813636 0.236216
O O4 0.246193 0.470423 0.145144
O O5 0.623465 0.187034 0.988799
O O6 0.510298 0.162251 0.781898
O O7 0.500000 0.500000 0.000000
O O8 0.321703 0.741476 0.455316
O O9 0.000000 0.000000 0.500000
O O10 0.959704 0.892908 0.664098
O O11 0.500000 0.500000 0.500000
O O12 0.537462 0.800717 0.589443
O O13 0.703254 0.440959 0.243627
O O14 0.500000 0.000000 0.500000
O O15 0.004850 0.925431 0.087738
O O16 0.923081 0.798363 0.849628
#
# Coordination Sequence:
#
# PCOD8028745 Si02
#       7
#     2   2   2   2   2   2   2
#     4  11  26  44  72 104 145 188 244 306 372 430
#     4  12  28  44  73 109 146 195 241 310 377 432
#     4  12  25  43  71 106 142 186 245 307 361 442
#     4  11  24  46  74 105 144 199 241 303 376 445
#     4  11  26  45  72 109 145 188 257 301 362 456
#     4  10  26  46  71 107 140 200 239 307 373 443
#     4  11  25  46  70 104 150 183 256 295 369 456
#
# _framework density 24.911816999999999
#
# number of rings (size 3 to 8) (size 9 to 14) (size 15 to 20)
#    0.000    0.857    4.286    0.857    8.000    1.714 
#    2.571    2.143    0.000    0.000    0.000    0.000 
#    0.000    0.000    0.000    0.000    0.000    0.000 
#
# Total GULP energy -173477.955495 kJ/mol
# GULP energy per Si atom -12391.282535 kJ/mol
# Density = 2.485512 g / cm^3
# Si number density = 24.911817 Si / 1000 Ang^3
#
#
#
# Elastic Constant Matrix: (Units=GPa)
#
#
# Indices 1 2 3 4 5 6 
#
# 1 118.7048 51.9053 49.1627 9.3518 -27.7022 -7.2521
# 2 51.9053 111.4054 33.1967 14.4114 -9.4543 -9.9612
# 3 49.1627 33.1967 72.0179 18.1109 -15.1465 -8.2486
# 4 9.3518 14.4114 18.1109 34.0496 -1.5893 -6.1927
# 5 -27.7022 -9.4543 -15.1465 -1.5893 67.4201 15.1038
# 6 -7.2521 -9.9612 -8.2486 -6.1927 15.1038 60.7341
#
#
#
# Elastic Compliance Matrix: (Units=1/GPa)
#
#
# Indices 1 2 3 4 5 6 
#
# 1 0.014053 -0.004352 -0.007380 0.001942 0.003723 -0.000766
# 2 -0.004352 0.011949 -0.001915 -0.002680 -0.000857 0.001120
# 3 -0.007380 -0.001915 0.022407 -0.008908 0.001390 0.000594
# 4 0.001942 -0.002680 -0.008908 0.035099 -0.001309 0.002487
# 5 0.003723 -0.000857 0.001390 -0.001309 0.017413 -0.003971
# 6 -0.000766 0.001120 0.000594 0.002487 -0.003971 0.017879
#
#
# Mechanical properties :
#
#
# Convention : Reuss Voigt Hill
#
# Bulk Modulus (GPa) = 47.36237 63.40638 55.38437
# Shear Modulus (GPa) = 32.65174 43.63167 38.14171
#
# Velocity S-wave (km/s) = 3.62428 4.18957 3.91713
# Velocity P-wave (km/s) = 6.04708 6.99363 6.53751
#
# Compressibility (1/GPa) = 0.02111381
#
# Stress axis : x y z
#
# Youngs Moduli (GPa) = 71.15953 83.69210 44.62986
#
# Poissons Ratio (x) = 0.36423 0.32938
# Poissons Ratio (y) = 0.30969 0.08546
# Poissons Ratio (z) = 0.52517 0.16026
#
# Static dielectric constant tensor:
#      x y z
#    x 4.897870 0.291750 -0.106320 
#    y 0.291750 4.693400 0.400030 
#    z -0.106320 0.400030 4.543490 
# 
# 
# High freq. dielectric constant tensor:
#      x y z
#    x 2.000480 0.008240 -0.012950 
#    y 0.008240 1.989690 0.017620 
#    z -0.012950 0.017620 1.988700 
# 
# From -- ./inp_files/383170.got.cif
#   From: 2010.06.25/outbox.cif.g09.slc.cpg/sg2_192_cif.got.tgz:383170.got - 2010.06.27 13:26:56.
