data_PCOD8028269
_publ_section_title
;
Structure prediction by ZEFSAII (Michael W. Deem and Ramdas Pophale) SiO2 
 PCOD8028269
Probable space group: P -1
;
_chemical_formula_sum "Si O2"
_cell_formula_units_Z 16
_cell_length_a 8.902128
_cell_length_b 14.424256
_cell_length_c 16.817768
_cell_angle_alpha 31.418742
_cell_angle_beta 40.845066
_cell_angle_gamma 41.117558
_cell_volume 698.474611
_symmetry_space_group_name_H-M "P -1"
_symmetry_group_IT_number 2
_symmetry_cell_setting 'triclinic'
loop_
_space_group_symop_operation_xyz
x,y,z
-x,-y,-z
loop_
_atom_site_type_symbol
_atom_site_label
_atom_site_fract_x
_atom_site_fract_y
_atom_site_fract_z
Si Si1 0.729501 0.063908 0.877770
Si Si2 0.958133 0.826519 0.829359
Si Si3 0.294993 0.236185 0.611263
Si Si4 0.276992 0.326276 0.268392
Si Si5 0.075549 0.639228 0.472863
Si Si6 0.218710 0.963925 0.499118
Si Si7 0.436189 0.883307 0.924702
Si Si8 0.652402 0.493350 0.045621
O O1 0.724063 0.251707 0.692368
O O2 0.944003 0.892261 0.879419
O O3 0.745120 0.097456 0.941478
O O4 0.500000 0.000000 0.000000
O O5 0.701740 0.881500 0.847233
O O6 0.122605 0.936025 0.643687
O O7 0.104837 0.603725 0.928668
O O8 0.205745 0.421349 0.564415
O O9 0.563115 0.215664 0.486425
O O10 0.118125 0.253990 0.594433
O O11 0.308301 0.055265 0.792092
O O12 0.506039 0.340957 0.216266
O O13 0.044435 0.351620 0.399050
O O14 0.329452 0.134784 0.337206
O O15 0.240829 0.485930 0.099097
O O16 0.000000 0.000000 0.500000
O O17 0.471924 0.684030 0.014713
#
# Coordination Sequence:
#
# PCOD8028269 Si02
#       8
#     2   2   2   2   2   2   2   2
#     4  10  25  45  68 101 141 184 229 289 354 416
#     4  11  23  43  71 101 137 188 233 289 354 415
#     4  11  26  44  73 104 138 190 237 290 356 413
#     4  11  25  46  68 106 140 183 237 292 351 414
#     4  11  26  47  71 103 141 187 238 290 350 422
#     4  12  23  46  73 102 140 185 235 293 353 419
#     4  11  24  47  66 100 145 183 237 289 350 421
#     4  11  25  43  71 106 140 184 234 290 354 414
#
# _framework density 22.907060999999999
#
# number of rings (size 3 to 8) (size 9 to 14) (size 15 to 20)
#    0.000    1.000    3.750    1.125    8.750    1.500 
#    2.250    3.125    0.000    0.000    0.000    0.000 
#    0.000    0.000    0.000    0.000    0.000    0.000 
#
# Total GULP energy -198272.771453 kJ/mol
# GULP energy per Si atom -12392.048216 kJ/mol
# Density = 2.285492 g / cm^3
# Si number density = 22.907061 Si / 1000 Ang^3
#
#
#
# Elastic Constant Matrix: (Units=GPa)
#
#
# Indices 1 2 3 4 5 6 
#
# 1 78.4027 57.5912 42.4108 -10.8226 0.0206 6.8992
# 2 57.5912 142.6637 60.0720 -1.3120 12.5609 5.0543
# 3 42.4108 60.0720 137.8162 12.8561 -2.3337 5.2193
# 4 -10.8226 -1.3120 12.8561 50.3976 7.1455 8.9133
# 5 0.0206 12.5609 -2.3337 7.1455 27.7650 -3.2455
# 6 6.8992 5.0543 5.2193 8.9133 -3.2455 35.3467
#
#
#
# Elastic Compliance Matrix: (Units=1/GPa)
#
#
# Indices 1 2 3 4 5 6 
#
# 1 0.020948 -0.006663 -0.003933 0.005939 0.000674 -0.003991
# 2 -0.006663 0.011531 -0.003104 0.000565 -0.005683 -0.000554
# 3 -0.003933 -0.003104 0.010231 -0.004221 0.003480 0.001085
# 4 0.005939 0.000565 -0.004221 0.024657 -0.007843 -0.007555
# 5 0.000674 -0.005683 0.003480 -0.007843 0.041595 0.005964
# 6 -0.003991 -0.000554 0.001085 -0.007555 0.005964 0.031442
#
#
# Mechanical properties :
#
#
# Convention : Reuss Voigt Hill
#
# Bulk Modulus (GPa) = 65.32024 75.44784 70.38404
# Shear Modulus (GPa) = 28.91710 35.95577 32.43643
#
# Velocity S-wave (km/s) = 3.55683 3.96616 3.76706
# Velocity P-wave (km/s) = 6.74131 7.34724 7.05079
#
# Compressibility (1/GPa) = 0.01530919
#
# Stress axis : x y z
#
# Youngs Moduli (GPa) = 47.73796 86.71904 97.74308
#
# Poissons Ratio (x) = 0.57784 0.38445
# Poissons Ratio (y) = 0.31810 0.30337
# Poissons Ratio (z) = 0.18777 0.26916
#
# Static dielectric constant tensor:
#      x y z
#    x 4.024330 0.236960 0.128220 
#    y 0.236960 4.450010 0.275170 
#    z 0.128220 0.275170 4.391430 
# 
# 
# High freq. dielectric constant tensor:
#      x y z
#    x 1.889460 0.015290 0.001950 
#    y 0.015290 1.914590 0.011850 
#    z 0.001950 0.011850 1.918590 
# 
# From -- ./inp_files/561323.got.cif
#   From: 2010.06.25/outbox.cif.g09.slc.cpg/sg2_281_cif.got.tgz:561323.got - 2010.06.27 13:26:56.
