data_PCOD8028961
_publ_section_title
;
Structure prediction by ZEFSAII (Michael W. Deem and Ramdas Pophale) SiO2 
 PCOD8028961
Probable space group: P -1
;
_chemical_formula_sum "Si O2"
_cell_formula_units_Z 16
_cell_length_a 9.479046
_cell_length_b 14.550091
_cell_length_c 13.204585
_cell_angle_alpha 30.516088
_cell_angle_beta 110.469011
_cell_angle_gamma 100.387255
_cell_volume 837.900426
_symmetry_space_group_name_H-M "P -1"
_symmetry_group_IT_number 2
_symmetry_cell_setting 'triclinic'
loop_
_space_group_symop_operation_xyz
x,y,z
-x,-y,-z
loop_
_atom_site_type_symbol
_atom_site_label
_atom_site_fract_x
_atom_site_fract_y
_atom_site_fract_z
Si Si1 0.134229 0.334019 0.892535
Si Si2 0.589232 0.014841 0.354551
Si Si3 0.843647 0.069635 0.752558
Si Si4 0.948400 0.650701 0.432902
Si Si5 0.415007 0.216211 0.777017
Si Si6 0.262505 0.061287 0.335530
Si Si7 0.538048 0.645387 0.129133
Si Si8 0.494499 0.734593 0.463212
O O1 0.285448 0.378384 0.837918
O O2 0.995173 0.522359 0.668115
O O3 0.166461 0.273193 0.077024
O O4 0.097291 0.154219 0.994494
O O5 0.434860 0.034407 0.361420
O O6 0.734735 0.971070 0.512083
O O7 0.606884 0.848097 0.436290
O O8 0.583730 0.204898 0.111859
O O9 0.683009 0.142554 0.703739
O O10 0.965205 0.183133 0.708864
O O11 0.811324 0.086230 0.605703
O O12 0.769087 0.752913 0.288265
O O13 0.000000 0.500000 0.500000
O O14 0.482369 0.301358 0.808808
O O15 0.450231 0.317261 0.588148
O O16 0.500000 0.000000 0.000000
O O17 0.493658 0.449584 0.291754
#
# Coordination Sequence:
#
# PCOD8028961 Si02
#       8
#     2   2   2   2   2   2   2   2
#     4   9  18  37  55  82 117 146 190 242 276 341
#     4   9  16  34  54  85 119 147 190 243 297 329
#     4   9  19  38  60  84 116 151 194 238 293 336
#     4  12  23  38  61  87 116 157 199 233 290 348
#     4  12  24  41  56  86 125 156 186 246 291 344
#     4   7  16  33  56  84 117 146 187 250 286 334
#     4  11  19  36  55  84 118 153 193 237 284 347
#     4  11  20  35  59  84 120 155 194 236 293 342
#
# _framework density 19.095348999999999
#
# number of rings (size 3 to 8) (size 9 to 14) (size 15 to 20)
#    0.750    1.250    5.000    0.375    0.000    0.500 
#    6.750    2.500    0.000    1.500    0.000    0.000 
#    0.000    0.000    0.000    0.000    0.000    0.000 
#
# Total GULP energy -198210.321301 kJ/mol
# GULP energy per Si atom -12388.145081 kJ/mol
# Density = 1.905189 g / cm^3
# Si number density = 19.095349 Si / 1000 Ang^3
#
#
#
# Elastic Constant Matrix: (Units=GPa)
#
#
# Indices 1 2 3 4 5 6 
#
# 1 54.7762 22.7469 29.5664 -3.6653 0.8978 1.6605
# 2 22.7469 59.5318 17.9688 16.6357 0.8250 -5.2340
# 3 29.5664 17.9688 99.4143 -0.6328 -6.9660 -0.5412
# 4 -3.6653 16.6357 -0.6328 33.2100 3.8176 -4.8733
# 5 0.8978 0.8250 -6.9660 3.8176 29.5130 -2.8992
# 6 1.6605 -5.2340 -0.5412 -4.8733 -2.8992 16.4429
#
#
#
# Elastic Compliance Matrix: (Units=1/GPa)
#
#
# Indices 1 2 3 4 5 6 
#
# 1 0.026947 -0.011039 -0.006237 0.008103 -0.003489 -0.004654
# 2 -0.011039 0.025629 -0.001293 -0.013454 0.001597 0.005524
# 3 -0.006237 -0.001293 0.012383 -0.000004 0.003267 0.001201
# 4 0.008103 -0.013454 -0.000004 0.039085 -0.004366 0.005713
# 5 -0.003489 0.001597 0.003267 -0.004366 0.035870 0.005999
# 6 -0.004654 0.005524 0.001201 0.005713 0.005999 0.065836
#
#
# Mechanical properties :
#
#
# Convention : Reuss Voigt Hill
#
# Bulk Modulus (GPa) = 35.94390 39.36518 37.65454
# Shear Modulus (GPa) = 19.82841 25.39584 22.61213
#
# Velocity S-wave (km/s) = 3.22590 3.65080 3.44491
# Velocity P-wave (km/s) = 5.72184 6.19927 5.96534
#
# Compressibility (1/GPa) = 0.02782113
#
# Stress axis : x y z
#
# Youngs Moduli (GPa) = 37.10927 39.01788 80.75548
#
# Poissons Ratio (x) = 0.43072 0.50369
# Poissons Ratio (y) = 0.40965 0.10441
# Poissons Ratio (z) = 0.23146 0.05045
#
# Static dielectric constant tensor:
#      x y z
#    x 3.101210 0.118460 0.049960 
#    y 0.118460 3.715730 0.232150 
#    z 0.049960 0.232150 3.845150 
# 
# 
# High freq. dielectric constant tensor:
#      x y z
#    x 1.695870 0.010290 -0.007720 
#    y 0.010290 1.731100 0.006970 
#    z -0.007720 0.006970 1.754910 
# 
# From -- ./inp_files/502539.got.cif
#   From: 2010.06.25/outbox.cif.g09.slc.cpg/sg2_252_cif.got.tgz:502539.got - 2010.06.27 13:26:56.
