data_PCOD8028880
_publ_section_title
;
Structure prediction by ZEFSAII (Michael W. Deem and Ramdas Pophale) SiO2 
 PCOD8028880
Probable space group: P -1
;
_chemical_formula_sum "Si O2"
_cell_formula_units_Z 16
_cell_length_a 12.257027
_cell_length_b 23.257168
_cell_length_c 29.184465
_cell_angle_alpha 10.430173
_cell_angle_beta 150.016918
_cell_angle_gamma 150.306043
_cell_volume 739.550680
_symmetry_space_group_name_H-M "P -1"
_symmetry_group_IT_number 2
_symmetry_cell_setting 'triclinic'
loop_
_space_group_symop_operation_xyz
x,y,z
-x,-y,-z
loop_
_atom_site_type_symbol
_atom_site_label
_atom_site_fract_x
_atom_site_fract_y
_atom_site_fract_z
Si Si1 0.095823 0.664344 0.168662
Si Si2 0.974604 0.367288 0.450502
Si Si3 0.483197 0.233109 0.353140
Si Si4 0.143015 0.401961 0.586443
Si Si5 0.353197 0.382528 0.408597
Si Si6 0.939140 0.345924 0.970171
Si Si7 0.713923 0.369017 0.198096
Si Si8 0.135436 0.654618 0.885862
O O1 0.107259 0.611720 0.269092
O O2 0.275503 0.477260 0.356714
O O3 0.840729 0.544297 0.152066
O O4 0.168411 0.035954 0.890222
O O5 0.036903 0.455086 0.456823
O O6 0.719068 0.394811 0.332441
O O7 0.013228 0.013249 0.728278
O O8 0.500000 0.000000 0.500000
O O9 0.348643 0.013747 0.515949
O O10 0.359851 0.513009 0.071873
O O11 0.386917 0.623622 0.497288
O O12 0.000000 0.500000 0.500000
O O13 0.299967 0.649058 0.143645
O O14 0.207070 0.036820 0.614207
O O15 0.114531 0.580529 0.819559
O O16 0.955506 0.527133 0.881763
O O17 0.500000 0.500000 0.000000
O O18 0.000000 0.500000 0.000000
#
# Coordination Sequence:
#
# PCOD8028880 Si02
#       8
#     2   2   2   2   2   2   2   2
#     4  11  24  46  72  99 141 186 245 288 349 428
#     4  12  24  44  76 106 140 188 242 295 355 424
#     4  12  22  39  68 105 141 180 233 288 356 424
#     4  12  29  50  71 103 143 189 247 301 352 418
#     4  11  26  48  72 100 144 192 235 294 352 425
#     4  11  22  42  71 103 137 186 234 283 358 424
#     4  11  18  35  67 101 138 182 225 283 349 413
#     4  12  25  43  67 108 148 177 234 290 354 433
#
# _framework density 21.634758000000001
#
# number of rings (size 3 to 8) (size 9 to 14) (size 15 to 20)
#    0.000    0.500    6.250    3.000    1.750    3.000 
#    2.250    0.000    0.000    0.000    0.000    0.000 
#    0.000    0.000    0.000    0.000    0.000    0.000 
#
# Total GULP energy -198334.151105 kJ/mol
# GULP energy per Si atom -12395.884444 kJ/mol
# Density = 2.158552 g / cm^3
# Si number density = 21.634758 Si / 1000 Ang^3
#
#
#
# Elastic Constant Matrix: (Units=GPa)
#
#
# Indices 1 2 3 4 5 6 
#
# 1 128.9285 54.3608 18.1658 13.6445 -9.0575 -25.9536
# 2 54.3608 104.6481 4.5821 10.8911 0.3229 -0.7942
# 3 18.1658 4.5821 64.9823 7.7614 -1.3383 -3.8917
# 4 13.6445 10.8911 7.7614 27.3773 -1.8417 0.5251
# 5 -9.0575 0.3229 -1.3383 -1.8417 41.3558 4.7027
# 6 -25.9536 -0.7942 -3.8917 0.5251 4.7027 36.9598
#
#
#
# Elastic Compliance Matrix: (Units=1/GPa)
#
#
# Indices 1 2 3 4 5 6 
#
# 1 0.012855 -0.006170 -0.002212 -0.003375 0.001676 0.008496
# 2 -0.006170 0.012939 0.000839 -0.002311 -0.001097 -0.003794
# 3 -0.002212 0.000839 0.016427 -0.003904 -0.000164 0.000271
# 4 -0.003375 -0.002311 -0.003904 0.040395 0.001358 -0.003578
# 5 0.001676 -0.001097 -0.000164 0.001358 0.024844 -0.002045
# 6 0.008496 -0.003794 0.000271 -0.003578 -0.002045 0.033280
#
#
# Mechanical properties :
#
#
# Convention : Reuss Voigt Hill
#
# Bulk Modulus (GPa) = 36.85354 50.30845 43.58100
# Shear Modulus (GPa) = 30.32664 35.90192 33.11428
#
# Velocity S-wave (km/s) = 3.74806 4.07806 3.91654
# Velocity P-wave (km/s) = 5.98348 6.74375 6.37496
#
# Compressibility (1/GPa) = 0.02713444
#
# Stress axis : x y z
#
# Youngs Moduli (GPa) = 77.79348 77.28368 60.87456
#
# Poissons Ratio (x) = 0.47684 0.13465
# Poissons Ratio (y) = 0.47999 -0.05105
# Poissons Ratio (z) = 0.17208 -0.06482
#
# Static dielectric constant tensor:
#      x y z
#    x 4.021370 0.086580 -0.134770 
#    y 0.086580 4.119680 -0.326250 
#    z -0.134770 -0.326250 3.104810 
# 
# 
# High freq. dielectric constant tensor:
#      x y z
#    x 1.856960 0.001180 -0.012950 
#    y 0.001180 1.847430 0.011600 
#    z -0.012950 0.011600 1.852820 
# 
# From -- ./inp_files/614516.got.cif
#   From: 2010.06.25/outbox.cif.g09.slc.cpg/sg2_308_cif.got.tgz:614516.got - 2010.06.27 13:26:56.
