data_PCOD8028650
_publ_section_title
;
Structure prediction by ZEFSAII (Michael W. Deem and Ramdas Pophale) SiO2 
 PCOD8028650
Probable space group: P -1
;
_chemical_formula_sum "Si O2"
_cell_formula_units_Z 16
_cell_length_a 8.460039
_cell_length_b 14.368101
_cell_length_c 9.382795
_cell_angle_alpha 107.816506
_cell_angle_beta 49.666041
_cell_angle_gamma 77.244225
_cell_volume 675.954772
_symmetry_space_group_name_H-M "P -1"
_symmetry_group_IT_number 2
_symmetry_cell_setting 'triclinic'
loop_
_space_group_symop_operation_xyz
x,y,z
-x,-y,-z
loop_
_atom_site_type_symbol
_atom_site_label
_atom_site_fract_x
_atom_site_fract_y
_atom_site_fract_z
Si Si1 0.920331 0.641613 0.726352
Si Si2 0.929729 0.199874 0.173101
Si Si3 0.555023 0.012488 0.135175
Si Si4 0.598285 0.179295 0.551494
Si Si5 0.194162 0.231474 0.610008
Si Si6 0.988576 0.908375 0.216790
Si Si7 0.789468 0.461032 0.779692
Si Si8 0.404406 0.852960 0.153833
O O1 0.848814 0.560402 0.812088
O O2 0.009264 0.700682 0.814474
O O3 0.132638 0.579069 0.449461
O O4 0.651014 0.752332 0.872183
O O5 0.689415 0.246320 0.435946
O O6 0.871176 0.182623 0.039064
O O7 0.145263 0.068230 0.048819
O O8 0.440649 0.948717 0.255115
O O9 0.428043 0.148629 0.323836
O O10 0.500000 0.000000 0.000000
O O11 0.307728 0.240332 0.697939
O O12 0.627724 0.205095 0.712238
O O13 0.754085 0.037197 0.359929
O O14 0.074288 0.158743 0.666947
O O15 0.979922 0.359048 0.731040
O O16 0.181010 0.923274 0.202182
O O17 0.500000 0.500000 0.000000
#
# Coordination Sequence:
#
# PCOD8028650 Si02
#       8
#     2   2   2   2   2   2   2   2
#     4  10  25  50  76 103 147 184 246 304 362 421
#     4  11  25  42  69 106 151 189 234 293 358 433
#     4  11  22  38  64 103 143 184 229 293 364 438
#     4  12  25  41  67 109 153 195 234 287 362 441
#     4  12  24  42  69 100 145 188 243 295 370 423
#     4  12  24  41  66 109 154 193 232 289 358 442
#     4  11  26  49  80 108 136 192 248 309 359 425
#     4  11  24  42  73 103 146 187 238 289 362 436
#
# _framework density 23.670224000000001
#
# number of rings (size 3 to 8) (size 9 to 14) (size 15 to 20)
#    0.000    0.750    2.500    5.625    8.750    0.000 
#    0.000    3.125    0.000    0.000    0.000    0.000 
#    0.000    0.000    0.000    0.000    0.000    0.000 
#
# Total GULP energy -198236.080553 kJ/mol
# GULP energy per Si atom -12389.755035 kJ/mol
# Density = 2.361635 g / cm^3
# Si number density = 23.670224 Si / 1000 Ang^3
#
#
#
# Elastic Constant Matrix: (Units=GPa)
#
#
# Indices 1 2 3 4 5 6 
#
# 1 103.1604 34.6540 39.1140 7.5456 -0.8849 -13.7304
# 2 34.6540 113.2086 35.5202 8.0609 -11.4557 1.8233
# 3 39.1140 35.5202 108.0429 -4.4082 0.5875 2.1094
# 4 7.5456 8.0609 -4.4082 32.4987 -3.5681 -5.4839
# 5 -0.8849 -11.4557 0.5875 -3.5681 40.7435 -3.0631
# 6 -13.7304 1.8233 2.1094 -5.4839 -3.0631 32.8312
#
#
#
# Elastic Compliance Matrix: (Units=1/GPa)
#
#
# Indices 1 2 3 4 5 6 
#
# 1 0.012989 -0.002683 -0.004007 -0.001987 -0.000176 0.005490
# 2 -0.002683 0.010988 -0.002723 -0.002462 0.002726 -0.001714
# 3 -0.004007 -0.002723 0.011757 0.002778 -0.000922 -0.001902
# 4 -0.001987 -0.002462 0.002778 0.033327 0.002514 0.004929
# 5 -0.000176 0.002726 -0.000922 0.002514 0.025740 0.002656
# 6 0.005490 -0.001714 -0.001902 0.004929 0.002656 0.034043
#
#
# Mechanical properties :
#
#
# Convention : Reuss Voigt Hill
#
# Bulk Modulus (GPa) = 59.14815 60.33202 59.74008
# Shear Modulus (GPa) = 32.61452 35.55626 34.08539
#
# Velocity S-wave (km/s) = 3.71600 3.87996 3.79886
# Velocity P-wave (km/s) = 6.59198 6.75397 6.67346
#
# Compressibility (1/GPa) = 0.01690670
#
# Stress axis : x y z
#
# Youngs Moduli (GPa) = 76.98768 91.01135 85.05604
#
# Poissons Ratio (x) = 0.24422 0.34086
# Poissons Ratio (y) = 0.20659 0.23157
# Poissons Ratio (z) = 0.30852 0.24779
#
# Static dielectric constant tensor:
#      x y z
#    x 4.135980 0.390510 -0.199680 
#    y 0.390510 4.565770 -0.243810 
#    z -0.199680 -0.243810 4.431930 
# 
# 
# High freq. dielectric constant tensor:
#      x y z
#    x 1.934760 0.009900 -0.001570 
#    y 0.009900 1.929010 -0.022530 
#    z -0.001570 -0.022530 1.940760 
# 
# From -- ./inp_files/207532.got.cif
#   From: 2010.06.25/outbox.cif.g09.slc.cpg/sg2_104_cif.got.tgz:207532.got - 2010.06.27 13:26:56.
