data_PCOD8028611
_publ_section_title
;
Structure prediction by ZEFSAII (Michael W. Deem and Ramdas Pophale) SiO2 
 PCOD8028611
Probable space group: P -1
;
_chemical_formula_sum "Si O2"
_cell_formula_units_Z 12
_cell_length_a 13.877426
_cell_length_b 10.025666
_cell_length_c 7.091351
_cell_angle_alpha 74.063279
_cell_angle_beta 112.870663
_cell_angle_gamma 50.889187
_cell_volume 484.335689
_symmetry_space_group_name_H-M "P -1"
_symmetry_group_IT_number 2
_symmetry_cell_setting 'triclinic'
loop_
_space_group_symop_operation_xyz
x,y,z
-x,-y,-z
loop_
_atom_site_type_symbol
_atom_site_label
_atom_site_fract_x
_atom_site_fract_y
_atom_site_fract_z
Si Si1 0.808334 0.757901 0.653277
Si Si2 0.749906 0.530130 0.583340
Si Si3 0.718318 0.400900 0.230116
Si Si4 0.122439 0.995357 0.031522
Si Si5 0.537995 0.257165 0.423949
Si Si6 0.893353 0.938590 0.439695
O O1 0.705408 0.743150 0.473994
O O2 0.840744 0.840374 0.489039
O O3 0.658247 0.982367 0.604147
O O4 0.000000 0.500000 0.000000
O O5 0.682756 0.527500 0.343361
O O6 0.645708 0.563886 0.658271
O O7 0.979379 0.275975 0.876525
O O8 0.472896 0.385187 0.120026
O O9 0.881751 0.296716 0.274216
O O10 0.788895 0.163894 0.413095
O O11 0.165823 0.954526 0.858448
O O12 0.325412 0.777338 0.369062
O O13 0.000000 0.000000 0.000000
#
# Coordination Sequence:
#
# PCOD8028611 Si02
#       6
#     2   2   2   2   2   2
#     4  12  26  49  78 110 156 206 253 313 381 452
#     4  11  26  49  74 112 153 203 253 306 384 453
#     4  10  25  48  78 111 153 197 257 318 378 448
#     4  11  26  49  79 113 154 201 251 321 382 448
#     4  12  27  48  81 110 152 200 261 314 378 454
#     4  10  25  49  77 112 157 201 253 316 386 444
#
# _framework density 24.776205000000001
#
# number of rings (size 3 to 8) (size 9 to 14) (size 15 to 20)
#    0.000    1.000    1.667    2.500    9.333    6.667 
#    3.000    0.000    0.000    0.000    0.000    0.000 
#    0.000    0.000    0.000    0.000    0.000    0.000 
#
# Total GULP energy -148755.885560 kJ/mol
# GULP energy per Si atom -12396.323797 kJ/mol
# Density = 2.471981 g / cm^3
# Si number density = 24.776205 Si / 1000 Ang^3
#
#
#
# Elastic Constant Matrix: (Units=GPa)
#
#
# Indices 1 2 3 4 5 6 
#
# 1 121.3252 27.2130 21.5877 21.2047 -15.9728 15.3025
# 2 27.2130 114.6660 24.4070 10.9423 -8.5661 4.0031
# 3 21.5877 24.4070 130.5940 18.8690 7.6501 0.7775
# 4 21.2047 10.9423 18.8690 28.5390 -1.7039 2.1061
# 5 -15.9728 -8.5661 7.6501 -1.7039 36.3072 -4.1494
# 6 15.3025 4.0031 0.7775 2.1061 -4.1494 46.2777
#
#
#
# Elastic Compliance Matrix: (Units=1/GPa)
#
#
# Indices 1 2 3 4 5 6 
#
# 1 0.010681 -0.001361 -0.000793 -0.006452 0.003927 -0.002755
# 2 -0.001361 0.009653 -0.001458 -0.001604 0.001897 -0.000117
# 3 -0.000793 -0.001458 0.008937 -0.004943 -0.002783 0.000213
# 4 -0.006452 -0.001604 -0.004943 0.043685 -0.000084 0.000360
# 5 0.003927 0.001897 -0.002783 -0.000084 0.030451 0.001318
# 6 -0.002755 -0.000117 0.000213 0.000360 0.001318 0.022628
#
#
# Mechanical properties :
#
#
# Convention : Reuss Voigt Hill
#
# Bulk Modulus (GPa) = 45.35519 57.00007 51.17763
# Shear Modulus (GPa) = 35.56004 41.78326 38.67165
#
# Velocity S-wave (km/s) = 3.79258 4.11107 3.95503
# Velocity P-wave (km/s) = 6.12568 6.75207 6.44648
#
# Compressibility (1/GPa) = 0.02204819
#
# Stress axis : x y z
#
# Youngs Moduli (GPa) = 93.62607 103.59304 111.89786
#
# Poissons Ratio (x) = 0.14097 0.08869
# Poissons Ratio (y) = 0.12741 0.16312
# Poissons Ratio (z) = 0.07421 0.15102
#
# Static dielectric constant tensor:
#      x y z
#    x 4.388860 0.009380 0.197340 
#    y 0.009380 5.025030 -0.366300 
#    z 0.197340 -0.366300 4.616650 
# 
# 
# High freq. dielectric constant tensor:
#      x y z
#    x 1.991940 -0.004610 0.014280 
#    y -0.004610 2.002240 -0.000950 
#    z 0.014280 -0.000950 1.983730 
# 
# From -- ./inp_files/199372.got.cif
#   From: 2010.06.25/outbox.cif.g09.slc.cpg/sg2_100_cif.got.tgz:199372.got - 2010.06.27 13:26:56.
