data_PCOD8028736
_publ_section_title
;
Structure prediction by ZEFSAII (Michael W. Deem and Ramdas Pophale) SiO2 
 PCOD8028736
Probable space group: P -1
;
_chemical_formula_sum "Si O2"
_cell_formula_units_Z 16
_cell_length_a 22.975440
_cell_length_b 18.842181
_cell_length_c 8.931075
_cell_angle_alpha 34.959075
_cell_angle_beta 133.356197
_cell_angle_gamma 159.709356
_cell_volume 699.482031
_symmetry_space_group_name_H-M "P -1"
_symmetry_group_IT_number 2
_symmetry_cell_setting 'triclinic'
loop_
_space_group_symop_operation_xyz
x,y,z
-x,-y,-z
loop_
_atom_site_type_symbol
_atom_site_label
_atom_site_fract_x
_atom_site_fract_y
_atom_site_fract_z
Si Si1 0.473636 0.611678 0.254259
Si Si2 0.916662 0.910051 0.664862
Si Si3 0.946518 0.216278 0.278007
Si Si4 0.013581 0.802671 0.164486
Si Si5 0.338617 0.183205 0.300873
Si Si6 0.251807 0.640709 0.296603
Si Si7 0.477383 0.767106 0.298838
Si Si8 0.880164 0.226855 0.837234
O O1 0.500000 0.500000 0.500000
O O2 0.306009 0.405891 0.200231
O O3 0.430040 0.608492 0.349983
O O4 0.656991 0.927819 0.954337
O O5 0.009094 0.169219 0.417897
O O6 0.000000 0.000000 0.500000
O O7 0.993098 0.922026 0.905903
O O8 0.085806 0.470454 0.202963
O O9 0.746984 0.908836 0.528526
O O10 0.930491 0.294203 0.984161
O O11 0.045746 0.796161 0.066076
O O12 0.822773 0.492314 0.439086
O O13 0.185691 0.990614 0.237336
O O14 0.417718 0.154725 0.512372
O O15 0.500000 0.500000 0.000000
O O16 0.306711 0.592897 0.384780
O O17 0.409012 0.960859 0.041237
O O18 0.000000 0.500000 0.500000
#
# Coordination Sequence:
#
# PCOD8028736 Si02
#       8
#     2   2   2   2   2   2   2   2
#     4  12  24  46  76 107 141 190 243 302 363 428
#     4  12  24  43  70 102 145 181 236 301 361 425
#     4  11  24  45  68 100 142 192 232 294 368 422
#     4  11  27  43  67 105 137 186 239 291 357 428
#     4  11  27  41  70 100 137 180 238 299 356 421
#     4  10  26  46  70 101 143 193 231 291 365 438
#     4  11  24  47  72  99 143 186 240 289 364 431
#     4  12  26  45  71 106 146 189 247 295 362 437
#
# _framework density 22.87407
#
# number of rings (size 3 to 8) (size 9 to 14) (size 15 to 20)
#    0.000    0.750    3.750    1.500   10.500    2.000 
#    2.250    1.250    0.000    0.000    0.000    0.000 
#    0.000    0.000    0.000    0.000    0.000    0.000 
#
# Total GULP energy -198233.810060 kJ/mol
# GULP energy per Si atom -12389.613129 kJ/mol
# Density = 2.282201 g / cm^3
# Si number density = 22.874070 Si / 1000 Ang^3
#
#
#
# Elastic Constant Matrix: (Units=GPa)
#
#
# Indices 1 2 3 4 5 6 
#
# 1 84.2784 9.0488 7.0976 -3.1296 -9.3400 5.2178
# 2 9.0488 87.1535 23.1770 9.0365 -1.9129 6.6835
# 3 7.0976 23.1770 100.1166 8.6544 -13.3688 7.9521
# 4 -3.1296 9.0365 8.6544 41.4125 7.4366 -5.1103
# 5 -9.3400 -1.9129 -13.3688 7.4366 42.3111 -3.9548
# 6 5.2178 6.6835 7.9521 -5.1103 -3.9548 30.2079
#
#
#
# Elastic Compliance Matrix: (Units=1/GPa)
#
#
# Indices 1 2 3 4 5 6 
#
# 1 0.012379 -0.001126 -0.000245 0.000635 0.002361 -0.001408
# 2 -0.001126 0.012700 -0.002472 -0.002599 -0.000226 -0.002434
# 3 -0.000245 -0.002472 0.011519 -0.002860 0.003749 -0.002436
# 4 0.000635 -0.002599 -0.002860 0.026911 -0.005135 0.005099
# 5 0.002361 -0.000226 0.003749 -0.005135 0.026348 0.001236
# 6 -0.001408 -0.002434 -0.002436 0.005099 0.001236 0.035551
#
#
# Mechanical properties :
#
#
# Convention : Reuss Voigt Hill
#
# Bulk Modulus (GPa) = 34.58762 38.91059 36.74911
# Shear Modulus (GPa) = 35.03050 38.26797 36.64923
#
# Velocity S-wave (km/s) = 3.91762 4.09465 4.00711
# Velocity P-wave (km/s) = 5.96803 6.27715 6.12454
#
# Compressibility (1/GPa) = 0.02891208
#
# Stress axis : x y z
#
# Youngs Moduli (GPa) = 80.77936 78.74270 86.81014
#
# Poissons Ratio (x) = 0.08868 0.02123
# Poissons Ratio (y) = 0.09098 0.21462
# Poissons Ratio (z) = 0.01976 0.19468
#
# Static dielectric constant tensor:
#      x y z
#    x 4.816460 0.683080 0.302760 
#    y 0.683080 6.966380 0.359880 
#    z 0.302760 0.359880 4.420430 
# 
# 
# High freq. dielectric constant tensor:
#      x y z
#    x 1.911220 0.015460 -0.007790 
#    y 0.015460 1.905920 -0.003840 
#    z -0.007790 -0.003840 1.904820 
# 
# From -- ./inp_files/307665.got.cif
#   From: 2010.06.25/outbox.cif.g09.slc.cpg/sg2_154_cif.got.tgz:307665.got - 2010.06.27 13:26:56.
