data_PCOD8028712
_publ_section_title
;
Structure prediction by ZEFSAII (Michael W. Deem and Ramdas Pophale) SiO2 
 PCOD8028712
Probable space group: P -1
;
_chemical_formula_sum "Si O2"
_cell_formula_units_Z 14
_cell_length_a 8.933559
_cell_length_b 6.762594
_cell_length_c 17.754464
_cell_angle_alpha 108.261708
_cell_angle_beta 62.399173
_cell_angle_gamma 62.263255
_cell_volume 621.200729
_symmetry_space_group_name_H-M "P -1"
_symmetry_group_IT_number 2
_symmetry_cell_setting 'triclinic'
loop_
_space_group_symop_operation_xyz
x,y,z
-x,-y,-z
loop_
_atom_site_type_symbol
_atom_site_label
_atom_site_fract_x
_atom_site_fract_y
_atom_site_fract_z
Si Si1 0.454224 0.495938 0.380471
Si Si2 0.414444 0.850689 0.912460
Si Si3 0.509526 0.334470 0.769006
Si Si4 0.254432 0.140606 0.819017
Si Si5 0.886818 0.596829 0.851853
Si Si6 0.987424 0.319488 0.425914
Si Si7 0.285056 0.347859 0.611952
O O1 0.432467 0.623429 0.320540
O O2 0.187061 0.705914 0.504156
O O3 0.614239 0.506049 0.395742
O O4 0.575354 0.160029 0.307187
O O5 0.413549 0.601443 0.878736
O O6 0.695118 0.663826 0.845919
O O7 0.299723 0.046854 0.885018
O O8 0.239628 0.079565 0.048475
O O9 0.307445 0.336301 0.816014
O O10 0.760282 0.007951 0.698389
O O11 0.974657 0.372914 0.876849
O O12 0.143338 0.420864 0.730320
O O13 0.905995 0.503439 0.391596
O O14 0.000000 0.500000 0.500000
O O15 0.500000 0.000000 0.500000
#
# Coordination Sequence:
#
# PCOD8028712 Si02
#       7
#     2   2   2   2   2   2   2
#     4  11  24  43  65 101 137 178 225 279 348 401
#     4  10  26  45  71 102 138 184 228 285 340 403
#     4  11  23  43  69 100 136 179 230 281 340 410
#     4  11  22  46  70 101 138 178 229 280 346 407
#     4  11  24  48  68 102 142 177 234 285 338 409
#     4  12  24  41  68 100 136 181 225 285 342 405
#     4  12  26  43  70 100 136 180 230 281 340 418
#
# _framework density 22.536998000000001
#
# number of rings (size 3 to 8) (size 9 to 14) (size 15 to 20)
#    0.000    0.857    2.857    3.857    6.000    0.571 
#    2.571    2.143    0.000    0.000    0.000    0.000 
#    0.000    0.000    0.000    0.000    0.000    0.000 
#
# Total GULP energy -173511.227062 kJ/mol
# GULP energy per Si atom -12393.659076 kJ/mol
# Density = 2.248570 g / cm^3
# Si number density = 22.536998 Si / 1000 Ang^3
#
#
#
# Elastic Constant Matrix: (Units=GPa)
#
#
# Indices 1 2 3 4 5 6 
#
# 1 119.4632 56.0251 32.2767 2.4313 17.6753 -10.8333
# 2 56.0251 115.4822 30.1405 16.1371 11.8881 -12.5291
# 3 32.2767 30.1405 105.8049 16.4254 7.6732 6.3122
# 4 2.4313 16.1371 16.4254 30.2316 4.1742 1.5749
# 5 17.6753 11.8881 7.6732 4.1742 35.7582 5.0305
# 6 -10.8333 -12.5291 6.3122 1.5749 5.0305 52.7504
#
#
#
# Elastic Compliance Matrix: (Units=1/GPa)
#
#
# Indices 1 2 3 4 5 6 
#
# 1 0.012238 -0.005089 -0.002646 0.003689 -0.004493 0.001940
# 2 -0.005089 0.012603 -0.001227 -0.005625 -0.001088 0.002367
# 3 -0.002646 -0.001227 0.011546 -0.005319 0.000151 -0.002072
# 4 0.003689 -0.005625 -0.005319 0.039167 -0.003272 -0.000799
# 5 -0.004493 -0.001088 0.000151 -0.003272 0.031475 -0.004103
# 6 0.001940 0.002367 -0.002072 -0.000799 -0.004103 0.020581
#
#
# Mechanical properties :
#
#
# Convention : Reuss Voigt Hill
#
# Bulk Modulus (GPa) = 54.16170 64.18167 59.17168
# Shear Modulus (GPa) = 32.96226 38.56858 35.76542
#
# Velocity S-wave (km/s) = 3.82852 4.14133 3.98799
# Velocity P-wave (km/s) = 6.60515 7.16991 6.89332
#
# Compressibility (1/GPa) = 0.01846323
#
# Stress axis : x y z
#
# Youngs Moduli (GPa) = 81.71324 79.34497 86.60661
#
# Poissons Ratio (x) = 0.40379 0.22918
# Poissons Ratio (y) = 0.41584 0.10626
# Poissons Ratio (z) = 0.21623 0.09735
#
# Static dielectric constant tensor:
#      x y z
#    x 4.382590 -0.239830 0.172660 
#    y -0.239830 4.278280 0.280410 
#    z 0.172660 0.280410 3.936980 
# 
# 
# High freq. dielectric constant tensor:
#      x y z
#    x 1.900710 -0.016810 0.012120 
#    y -0.016810 1.890650 0.013240 
#    z 0.012120 0.013240 1.890320 
# 
# From -- ./inp_files/46018.got.cif
#   From: 2010.06.25/outbox.cif.g09.slc.cpg/sg2_24_cif.got.tgz:46018.got - 2010.06.27 13:26:56.
