data_PCOD8028854
_publ_section_title
;
Structure prediction by ZEFSAII (Michael W. Deem and Ramdas Pophale) SiO2 
 PCOD8028854
Probable space group: P -1
;
_chemical_formula_sum "Si O2"
_cell_formula_units_Z 14
_cell_length_a 15.526070
_cell_length_b 11.146931
_cell_length_c 17.996991
_cell_angle_alpha 132.446702
_cell_angle_beta 157.958943
_cell_angle_gamma 37.103204
_cell_volume 676.023221
_symmetry_space_group_name_H-M "P -1"
_symmetry_group_IT_number 2
_symmetry_cell_setting 'triclinic'
loop_
_space_group_symop_operation_xyz
x,y,z
-x,-y,-z
loop_
_atom_site_type_symbol
_atom_site_label
_atom_site_fract_x
_atom_site_fract_y
_atom_site_fract_z
Si Si1 0.021119 0.132441 0.013527
Si Si2 0.873636 0.140311 0.344093
Si Si3 0.800489 0.716495 0.970628
Si Si4 0.854365 0.295129 0.553882
Si Si5 0.427553 0.945040 0.631186
Si Si6 0.294052 0.715373 0.325326
Si Si7 0.763226 0.587783 0.043732
O O1 0.825888 0.168634 0.801550
O O2 0.904181 0.349747 0.046669
O O3 0.364175 0.003123 0.211061
O O4 0.000000 0.000000 0.000000
O O5 0.854103 0.252852 0.450009
O O6 0.547504 0.281922 0.107144
O O7 0.986896 0.907980 0.353242
O O8 0.083207 0.136589 0.448346
O O9 0.520650 0.865799 0.757397
O O10 0.683521 0.707564 0.951611
O O11 0.000000 0.500000 0.000000
O O12 0.012821 0.780239 0.175608
O O13 0.522982 0.466951 0.390908
O O14 0.016450 0.397103 0.728559
O O15 0.461908 0.780921 0.532512
#
# Coordination Sequence:
#
# PCOD8028854 Si02
#       7
#     2   2   2   2   2   2   2
#     4  11  25  44  64  87 117 160 219 263 292 348
#     4  11  23  36  58  96 133 157 190 240 313 376
#     4  11  18  32  56  92 126 151 190 243 299 362
#     4  11  21  36  61  93 131 166 189 235 311 379
#     4  11  23  39  62  93 123 156 204 253 305 362
#     4  11  21  39  65  91 122 162 204 250 301 364
#     4  12  22  39  59  92 129 166 196 246 301 365
#
# _framework density 20.709347999999999
#
# number of rings (size 3 to 8) (size 9 to 14) (size 15 to 20)
#    0.000    0.857    5.714    3.857    0.000    4.571 
#    0.000    0.714    0.000    1.714    0.000    0.000 
#    0.000    0.000    0.000    0.000    0.000    0.000 
#
# Total GULP energy -173570.720127 kJ/mol
# GULP energy per Si atom -12397.908581 kJ/mol
# Density = 2.066221 g / cm^3
# Si number density = 20.709348 Si / 1000 Ang^3
#
#
#
# Elastic Constant Matrix: (Units=GPa)
#
#
# Indices 1 2 3 4 5 6 
#
# 1 72.7667 49.5782 34.5786 -5.6144 22.8621 3.9237
# 2 49.5782 65.8244 42.4618 6.4561 5.1818 1.2861
# 3 34.5786 42.4618 113.5939 -1.3129 21.5883 0.2754
# 4 -5.6144 6.4561 -1.3129 31.0105 -15.3640 5.1397
# 5 22.8621 5.1818 21.5883 -15.3640 35.8198 -2.2533
# 6 3.9237 1.2861 0.2754 5.1397 -2.2533 33.5091
#
#
#
# Elastic Compliance Matrix: (Units=1/GPa)
#
#
# Indices 1 2 3 4 5 6 
#
# 1 0.041953 -0.032546 0.003823 0.004125 -0.022973 -0.005872
# 2 -0.032546 0.045916 -0.010667 -0.008036 0.017398 0.004539
# 3 0.003823 -0.010667 0.013422 -0.001128 -0.009509 -0.000615
# 4 0.004125 -0.008036 -0.001128 0.044452 0.017913 -0.005779
# 5 -0.022973 0.017398 -0.009509 0.017913 0.053664 0.002961
# 6 -0.005872 0.004539 -0.000615 -0.005779 0.002961 0.031447
#
#
# Mechanical properties :
#
#
# Convention : Reuss Voigt Hill
#
# Bulk Modulus (GPa) = 44.42075 56.15800 50.28937
# Shear Modulus (GPa) = 15.76604 28.43898 22.10251
#
# Velocity S-wave (km/s) = 2.76216 3.70975 3.27046
# Velocity P-wave (km/s) = 5.62751 6.74728 6.21267
#
# Compressibility (1/GPa) = 0.02251200
#
# Stress axis : x y z
#
# Youngs Moduli (GPa) = 23.83613 21.77895 74.50203
#
# Poissons Ratio (x) = 0.70882 -0.28482
# Poissons Ratio (y) = 0.77577 0.79469
# Poissons Ratio (z) = -0.09112 0.23231
#
# Static dielectric constant tensor:
#      x y z
#    x 3.543110 -0.301120 0.304330 
#    y -0.301120 3.445690 0.117860 
#    z 0.304330 0.117860 4.318780 
# 
# 
# High freq. dielectric constant tensor:
#      x y z
#    x 1.783160 -0.039020 0.016700 
#    y -0.039020 1.774930 0.012750 
#    z 0.016700 0.012750 1.843960 
# 
# From -- ./inp_files/225790.got.cif
#   From: 2010.06.25/outbox.cif.g09.slc.cpg/sg2_113_cif.got.tgz:225790.got - 2010.06.27 13:26:56.
