data_PCOD8028687
_publ_section_title
;
Structure prediction by ZEFSAII (Michael W. Deem and Ramdas Pophale) SiO2 
 PCOD8028687
Probable space group: P -1
;
_chemical_formula_sum "Si O2"
_cell_formula_units_Z 14
_cell_length_a 12.058842
_cell_length_b 11.319504
_cell_length_c 8.766063
_cell_angle_alpha 39.247668
_cell_angle_beta 55.181495
_cell_angle_gamma 50.946755
_cell_volume 579.423228
_symmetry_space_group_name_H-M "P -1"
_symmetry_group_IT_number 2
_symmetry_cell_setting 'triclinic'
loop_
_space_group_symop_operation_xyz
x,y,z
-x,-y,-z
loop_
_atom_site_type_symbol
_atom_site_label
_atom_site_fract_x
_atom_site_fract_y
_atom_site_fract_z
Si Si1 0.884433 0.303506 0.348187
Si Si2 0.683896 0.078150 0.259960
Si Si3 0.920026 0.673879 0.585394
Si Si4 0.079979 0.093906 0.146819
Si Si5 0.316106 0.262051 0.899839
Si Si6 0.500002 0.045684 0.704316
Si Si7 0.884439 0.312048 0.839643
O O1 0.741564 0.502063 0.253638
O O2 0.026258 0.342723 0.264490
O O3 0.929682 0.197726 0.255114
O O4 0.848483 0.143227 0.644403
O O5 0.561408 0.146539 0.420094
O O6 0.810263 0.891487 0.417561
O O7 0.623769 0.024201 0.202667
O O8 0.741570 0.256362 0.999340
O O9 0.848498 0.508271 0.779358
O O10 0.070319 0.627413 0.419743
O O11 0.189733 0.201768 0.989184
O O12 0.026265 0.131001 0.976207
O O13 0.438597 0.207944 0.725423
O O14 0.376228 0.147973 0.125162
#
# Coordination Sequence:
#
# PCOD8028687 Si02
#       7
#     2   2   2   2   2   2   2
#     4  11  24  39  70 102 136 158 219 277 355 384
#     4  11  23  47  65  96 138 177 222 277 313 405
#     4  11  23  41  69 109 123 170 209 291 348 396
#     4  11  23  41  69 109 123 170 209 291 348 396
#     4  11  23  47  65  96 138 177 222 277 313 405
#     4  10  26  44  68  90 138 194 228 252 320 386
#     4  11  24  39  70 102 136 158 219 277 355 384
#
# _framework density 24.161959
#
# number of rings (size 3 to 8) (size 9 to 14) (size 15 to 20)
#    0.000    1.143    2.857    2.571    8.000    0.000 
#    0.000    8.571    0.000    0.000    0.000    0.000 
#    0.000    0.000    0.000    0.000    0.000    0.000 
#
# Total GULP energy -173645.194103 kJ/mol
# GULP energy per Si atom -12403.228150 kJ/mol
# Density = 2.410697 g / cm^3
# Si number density = 24.161959 Si / 1000 Ang^3
#
#
#
# Elastic Constant Matrix: (Units=GPa)
#
#
# Indices 1 2 3 4 5 6 
#
# 1 88.3106 7.4551 31.5320 3.5469 -3.9377 4.8151
# 2 7.4551 80.7615 41.8241 -19.3145 -0.1851 -2.2055
# 3 31.5320 41.8241 73.9936 -10.9879 -11.7890 7.4864
# 4 3.5469 -19.3145 -10.9879 37.0003 5.1372 6.9934
# 5 -3.9377 -0.1851 -11.7890 5.1372 50.3200 -1.6206
# 6 4.8151 -2.2055 7.4864 6.9934 -1.6206 20.8085
#
#
#
# Elastic Compliance Matrix: (Units=1/GPa)
#
#
# Indices 1 2 3 4 5 6 
#
# 1 0.013915 0.002045 -0.007588 -0.002570 -0.000401 0.000559
# 2 0.002045 0.020124 -0.012157 0.006453 -0.003156 0.003619
# 3 -0.007588 -0.012157 0.025817 0.003184 0.004778 -0.009519
# 4 -0.002570 0.006453 0.003184 0.034244 -0.003302 -0.011633
# 5 -0.000401 -0.003156 0.004778 -0.003302 0.021312 0.000809
# 6 0.000559 0.003619 -0.009519 -0.011633 0.000809 0.055709
#
#
# Mechanical properties :
#
#
# Convention : Reuss Voigt Hill
#
# Bulk Modulus (GPa) = 40.88960 44.96534 42.92747
# Shear Modulus (GPa) = 23.29114 32.44271 27.86692
#
# Velocity S-wave (km/s) = 3.10814 3.66829 3.39977
# Velocity P-wave (km/s) = 5.46265 6.04914 5.76336
#
# Compressibility (1/GPa) = 0.02445610
#
# Stress axis : x y z
#
# Youngs Moduli (GPa) = 71.86406 49.69185 38.73426
#
# Poissons Ratio (x) = -0.10160 0.29390
# Poissons Ratio (y) = -0.14694 0.47089
# Poissons Ratio (z) = 0.54528 0.60411
#
# Static dielectric constant tensor:
#      x y z
#    x 4.245690 0.190590 0.095280 
#    y 0.190590 4.507170 0.221060 
#    z 0.095280 0.221060 4.534730 
# 
# 
# High freq. dielectric constant tensor:
#      x y z
#    x 1.948840 0.017310 0.010160 
#    y 0.017310 1.955320 0.009900 
#    z 0.010160 0.009900 1.965490 
# 
# From -- ./inp_files/261294.got.cif
#   From: 2010.06.25/outbox.cif.g09.slc.cpg/sg2_131_cif.got.tgz:261294.got - 2010.06.27 13:26:56.
