data_PCOD8028901
_publ_section_title
;
Structure prediction by ZEFSAII (Michael W. Deem and Ramdas Pophale) SiO2 
 PCOD8028901
Probable space group: P -1
;
_chemical_formula_sum "Si O2"
_cell_formula_units_Z 16
_cell_length_a 11.455009
_cell_length_b 14.658031
_cell_length_c 9.748449
_cell_angle_alpha 101.830407
_cell_angle_beta 67.932719
_cell_angle_gamma 150.210199
_cell_volume 727.136111
_symmetry_space_group_name_H-M "P -1"
_symmetry_group_IT_number 2
_symmetry_cell_setting 'triclinic'
loop_
_space_group_symop_operation_xyz
x,y,z
-x,-y,-z
loop_
_atom_site_type_symbol
_atom_site_label
_atom_site_fract_x
_atom_site_fract_y
_atom_site_fract_z
Si Si1 0.556665 0.268083 0.840668
Si Si2 0.310467 0.388401 0.917568
Si Si3 0.418755 0.189126 0.387803
Si Si4 0.325414 0.229075 0.172421
Si Si5 0.786680 0.116514 0.168420
Si Si6 0.456318 0.608088 0.360413
Si Si7 0.093126 0.603352 0.849443
Si Si8 0.977546 0.174605 0.377715
O O1 0.569279 0.315670 0.696029
O O2 0.846344 0.460957 0.822265
O O3 0.473589 0.106503 0.821935
O O4 0.356705 0.196773 0.002785
O O5 0.405112 0.543352 0.847704
O O6 0.323692 0.311020 0.783933
O O7 0.500000 0.500000 0.000000
O O8 0.017572 0.206996 0.029617
O O9 0.291415 0.134764 0.282434
O O10 0.442619 0.296051 0.505881
O O11 0.706308 0.336081 0.291202
O O12 0.231286 0.989016 0.467989
O O13 0.093523 0.155194 0.249886
O O14 0.766267 0.205799 0.139289
O O15 0.835218 0.147327 0.320018
O O16 0.196721 0.379189 0.414806
O O17 0.000000 0.500000 0.000000
#
# Coordination Sequence:
#
# PCOD8028901 Si02
#       8
#     2   2   2   2   2   2   2   2
#     4  12  23  43  73 100 130 184 234 274 336 403
#     4  11  18  39  72  97 140 177 223 281 328 406
#     4  12  27  44  67  99 143 180 221 284 345 401
#     4  11  22  45  68 100 143 176 220 289 341 393
#     4  12  23  41  73 106 128 184 234 275 335 408
#     4  11  23  42  69 104 135 177 226 276 346 395
#     4  12  26  51  69  92 142 181 233 285 330 406
#     4  11  23  43  68 102 141 172 224 279 344 413
#
# _framework density 22.004131999999998
#
# number of rings (size 3 to 8) (size 9 to 14) (size 15 to 20)
#    0.000    0.500    8.750    0.375    1.750    5.500 
#    4.500    0.000    0.000    0.000    0.000    0.000 
#    0.000    0.000    0.000    0.000    0.000    0.000 
#
# Total GULP energy -198395.839675 kJ/mol
# GULP energy per Si atom -12399.739980 kJ/mol
# Density = 2.195405 g / cm^3
# Si number density = 22.004132 Si / 1000 Ang^3
#
#
#
# Elastic Constant Matrix: (Units=GPa)
#
#
# Indices 1 2 3 4 5 6 
#
# 1 68.8882 7.8502 21.4143 -4.8802 6.9316 -20.1768
# 2 7.8502 80.2416 21.7419 -8.1496 -0.6223 -30.0229
# 3 21.4143 21.7419 94.5889 -16.0957 4.2159 -4.5050
# 4 -4.8802 -8.1496 -16.0957 33.6241 -9.9624 4.3788
# 5 6.9316 -0.6223 4.2159 -9.9624 32.9929 -7.2465
# 6 -20.1768 -30.0229 -4.5050 4.3788 -7.2465 31.8280
#
#
#
# Elastic Compliance Matrix: (Units=1/GPa)
#
#
# Indices 1 2 3 4 5 6 
#
# 1 0.020831 0.006327 -0.005356 -0.000301 0.000411 0.018550
# 2 0.006327 0.023567 -0.005451 0.002452 0.006392 0.026587
# 3 -0.005356 -0.005451 0.013592 0.005146 -0.000809 -0.007505
# 4 -0.000301 0.002452 0.005146 0.035775 0.010315 0.000278
# 5 0.000411 0.006392 -0.000809 0.010315 0.036428 0.013050
# 6 0.018550 0.026587 -0.007505 0.000278 0.013050 0.070128
#
#
# Mechanical properties :
#
#
# Convention : Reuss Voigt Hill
#
# Bulk Modulus (GPa) = 20.39625 38.41457 29.40541
# Shear Modulus (GPa) = 22.16084 32.53650 27.34867
#
# Velocity S-wave (km/s) = 3.17696 3.84950 3.52929
# Velocity P-wave (km/s) = 4.76937 6.10360 5.47726
#
# Compressibility (1/GPa) = 0.04902862
#
# Stress axis : x y z
#
# Youngs Moduli (GPa) = 48.00585 42.43285 73.57422
#
# Poissons Ratio (x) = -0.26845 0.39408
# Poissons Ratio (y) = -0.30371 0.40102
# Poissons Ratio (z) = 0.25713 0.23128
#
# Static dielectric constant tensor:
#      x y z
#    x 4.134470 -0.022290 0.131130 
#    y -0.022290 4.246070 -0.231560 
#    z 0.131130 -0.231560 4.056480 
# 
# 
# High freq. dielectric constant tensor:
#      x y z
#    x 1.854900 -0.017140 0.006060 
#    y -0.017140 1.867570 -0.019770 
#    z 0.006060 -0.019770 1.863790 
# 
# From -- ./inp_files/273356.got.cif
#   From: 2010.06.25/outbox.cif.g09.slc.cpg/sg2_137_cif.got.tgz:273356.got - 2010.06.27 13:26:56.
