data_PCOD8028744
_publ_section_title
;
Structure prediction by ZEFSAII (Michael W. Deem and Ramdas Pophale) SiO2 
 PCOD8028744
Probable space group: P -1
;
_chemical_formula_sum "Si O2"
_cell_formula_units_Z 16
_cell_length_a 17.565796
_cell_length_b 8.021969
_cell_length_c 11.703839
_cell_angle_alpha 77.179002
_cell_angle_beta 140.031756
_cell_angle_gamma 129.850709
_cell_volume 681.453785
_symmetry_space_group_name_H-M "P -1"
_symmetry_group_IT_number 2
_symmetry_cell_setting 'triclinic'
loop_
_space_group_symop_operation_xyz
x,y,z
-x,-y,-z
loop_
_atom_site_type_symbol
_atom_site_label
_atom_site_fract_x
_atom_site_fract_y
_atom_site_fract_z
Si Si1 0.516494 0.834933 0.915484
Si Si2 0.859313 0.203280 0.108748
Si Si3 0.862279 0.602789 0.015837
Si Si4 0.376009 0.061893 0.725722
Si Si5 0.868403 0.193238 0.873500
Si Si6 0.475817 0.293333 0.569137
Si Si7 0.992297 0.186708 0.615031
Si Si8 0.847181 0.673933 0.450447
O O1 0.362657 0.552629 0.725536
O O2 0.452460 0.958794 0.795947
O O3 0.528614 0.792744 0.067633
O O4 0.704008 0.987736 0.051139
O O5 0.886268 0.433249 0.102931
O O6 0.048472 0.331567 0.341329
O O7 0.812929 0.067567 0.953689
O O8 0.014541 0.815647 0.064061
O O9 0.897057 0.742612 0.153152
O O10 0.670541 0.418867 0.765015
O O11 0.428000 0.253776 0.655802
O O12 0.158871 0.833608 0.527786
O O13 0.675154 0.996940 0.616232
O O14 0.000000 0.500000 0.000000
O O15 0.500000 0.500000 0.500000
O O16 0.128868 0.386822 0.640060
O O17 0.899812 0.925502 0.488993
#
# Coordination Sequence:
#
# PCOD8028744 Si02
#       8
#     2   2   2   2   2   2   2   2
#     4  11  24  44  76 107 139 184 238 306 348 426
#     4  11  24  44  71 108 136 184 239 297 355 424
#     4  11  24  47  75  97 143 187 243 296 349 430
#     4  11  23  46  74 108 138 186 247 287 361 429
#     4  10  26  46  71 103 140 191 242 298 347 426
#     4  12  27  45  71 108 143 191 238 297 359 426
#     4  11  24  45  69 104 148 186 229 291 370 437
#     4  11  26  42  68 107 146 185 225 297 369 428
#
# _framework density 23.479215
#
# number of rings (size 3 to 8) (size 9 to 14) (size 15 to 20)
#    0.000    1.000    3.750    1.500    5.250    7.000 
#    0.000    0.000    0.000    0.000    0.000    0.000 
#    0.000    0.000    0.000    0.000    0.000    0.000 
#
# Total GULP energy -198215.702919 kJ/mol
# GULP energy per Si atom -12388.481432 kJ/mol
# Density = 2.342577 g / cm^3
# Si number density = 23.479215 Si / 1000 Ang^3
#
#
#
# Elastic Constant Matrix: (Units=GPa)
#
#
# Indices 1 2 3 4 5 6 
#
# 1 97.0817 17.9589 39.3386 -1.7481 -28.4793 26.9598
# 2 17.9589 68.6001 29.1941 -10.3778 -11.0280 13.5661
# 3 39.3386 29.1941 163.9710 11.5400 -10.9402 1.6322
# 4 -1.7481 -10.3778 11.5400 36.7276 6.1687 0.8473
# 5 -28.4793 -11.0280 -10.9402 6.1687 32.4490 -10.0359
# 6 26.9598 13.5661 1.6322 0.8473 -10.0359 25.5871
#
#
#
# Elastic Compliance Matrix: (Units=1/GPa)
#
#
# Indices 1 2 3 4 5 6 
#
# 1 0.019704 0.002075 -0.004298 0.001443 0.010907 -0.017357
# 2 0.002075 0.019498 -0.004192 0.006836 0.002133 -0.011646
# 3 -0.004298 -0.004192 0.008126 -0.004150 0.000344 0.006505
# 4 0.001443 0.006836 -0.004150 0.031816 -0.006479 -0.008475
# 5 0.010907 0.002133 0.000344 -0.006479 0.043950 0.004808
# 6 -0.017357 -0.011646 0.006505 -0.008475 0.004808 0.065296
#
#
# Mechanical properties :
#
#
# Convention : Reuss Voigt Hill
#
# Bulk Modulus (GPa) = 28.98695 55.84845 42.41770
# Shear Modulus (GPa) = 23.50512 35.16347 29.33430
#
# Velocity S-wave (km/s) = 3.16745 3.87414 3.53848
# Velocity P-wave (km/s) = 5.07441 6.62193 5.89913
#
# Compressibility (1/GPa) = 0.03449828
#
# Stress axis : x y z
#
# Youngs Moduli (GPa) = 50.75159 51.28661 123.05607
#
# Poissons Ratio (x) = -0.10640 0.52885
# Poissons Ratio (y) = -0.10529 0.51587
# Poissons Ratio (z) = 0.21811 0.21500
#
# Static dielectric constant tensor:
#      x y z
#    x 5.171170 0.475810 0.088660 
#    y 0.475810 4.134180 -0.031700 
#    z 0.088660 -0.031700 4.490450 
# 
# 
# High freq. dielectric constant tensor:
#      x y z
#    x 1.931630 0.023070 -0.002320 
#    y 0.023070 1.907400 0.001930 
#    z -0.002320 0.001930 1.950080 
# 
# From -- ./inp_files/462162.got.cif
#   From: 2010.06.25/outbox.cif.g09.slc.cpg/sg2_232_cif.got.tgz:462162.got - 2010.06.27 13:26:56.
