data_PCOD8028047
_publ_section_title
;
Structure prediction by ZEFSAII (Michael W. Deem and Ramdas Pophale) SiO2 
 PCOD8028047
Probable space group: P -1
;
_chemical_formula_sum "Si O2"
_cell_formula_units_Z 16
_cell_length_a 8.761334
_cell_length_b 13.948196
_cell_length_c 8.373538
_cell_angle_alpha 106.439055
_cell_angle_beta 70.028048
_cell_angle_gamma 137.421620
_cell_volume 649.917444
_symmetry_space_group_name_H-M "P -1"
_symmetry_group_IT_number 2
_symmetry_cell_setting 'triclinic'
loop_
_space_group_symop_operation_xyz
x,y,z
-x,-y,-z
loop_
_atom_site_type_symbol
_atom_site_label
_atom_site_fract_x
_atom_site_fract_y
_atom_site_fract_z
Si Si1 0.878412 0.096690 0.689355
Si Si2 0.036071 0.814833 0.628406
Si Si3 0.252533 0.601440 0.029606
Si Si4 0.440397 0.439697 0.170901
Si Si5 0.623072 0.187434 0.374399
Si Si6 0.436431 0.652519 0.312893
Si Si7 0.692503 0.168909 0.999446
Si Si8 0.115920 0.056959 0.815873
O O1 0.047824 0.199768 0.530704
O O2 0.945606 0.025359 0.724534
O O3 0.625945 0.970298 0.641640
O O4 0.899417 0.200319 0.852438
O O5 0.216048 0.801790 0.553951
O O6 0.821242 0.710009 0.775385
O O7 0.185855 0.975385 0.706964
O O8 0.234638 0.567861 0.210248
O O9 0.388557 0.577950 0.863436
O O10 0.382063 0.765885 0.044472
O O11 0.000000 0.500000 0.000000
O O12 0.470079 0.554002 0.321681
O O13 0.500000 0.500000 0.000000
O O14 0.602071 0.291290 0.496940
O O15 0.762995 0.242117 0.182645
O O16 0.658688 0.776507 0.184023
O O17 0.500000 0.000000 0.000000
O O18 0.000000 0.000000 0.000000
#
# Coordination Sequence:
#
# PCOD8028047 Si02
#       8
#     2   2   2   2   2   2   2   2
#     4  11  25  46  75 114 153 192 261 312 387 454
#     4  12  25  45  77 105 155 204 248 321 382 444
#     4  11  26  48  75 104 149 198 254 313 374 453
#     4  10  26  49  71 106 152 200 255 306 381 455
#     4  11  25  45  76 112 154 192 256 311 381 451
#     4  11  26  48  73 106 158 194 256 317 375 454
#     4  10  25  42  75 105 146 189 250 312 379 452
#     4  12  26  43  76 108 150 200 255 322 389 445
#
# _framework density 24.618509
#
# number of rings (size 3 to 8) (size 9 to 14) (size 15 to 20)
#    0.000    1.000    1.250    3.750   15.750    0.500 
#    2.250    1.250    0.000    0.000    0.000    0.000 
#    0.000    0.000    0.000    0.000    0.000    0.000 
#
# Total GULP energy -198274.716028 kJ/mol
# GULP energy per Si atom -12392.169752 kJ/mol
# Density = 2.456248 g / cm^3
# Si number density = 24.618509 Si / 1000 Ang^3
#
#
#
# Elastic Constant Matrix: (Units=GPa)
#
#
# Indices 1 2 3 4 5 6 
#
# 1 133.5223 49.0572 35.0694 11.1695 -24.0536 -11.6952
# 2 49.0572 92.4838 19.9323 5.9722 -7.8498 -11.5652
# 3 35.0694 19.9323 138.8838 12.6549 -7.4858 -6.6341
# 4 11.1695 5.9722 12.6549 38.1494 -17.3579 -10.7449
# 5 -24.0536 -7.8498 -7.4858 -17.3579 42.3898 10.0537
# 6 -11.6952 -11.5652 -6.6341 -10.7449 10.0537 48.7873
#
#
#
# Elastic Compliance Matrix: (Units=1/GPa)
#
#
# Indices 1 2 3 4 5 6 
#
# 1 0.010595 -0.004824 -0.001754 0.000575 0.004983 0.000257
# 2 -0.004824 0.013723 -0.000670 -0.000353 -0.000963 0.002126
# 3 -0.001754 -0.000670 0.007917 -0.002282 -0.000688 0.000136
# 4 0.000575 -0.000353 -0.002282 0.033910 0.012651 0.004605
# 5 0.004983 -0.000963 -0.000688 0.012651 0.031995 -0.002934
# 6 0.000257 0.002126 0.000136 0.004605 -0.002934 0.022700
#
#
# Mechanical properties :
#
#
# Convention : Reuss Voigt Hill
#
# Bulk Modulus (GPa) = 56.37431 63.66751 60.02091
# Shear Modulus (GPa) = 35.39888 43.25402 39.32645
#
# Velocity S-wave (km/s) = 3.79608 4.19617 4.00113
# Velocity P-wave (km/s) = 6.49326 7.02815 6.76600
#
# Compressibility (1/GPa) = 0.01773858
#
# Stress axis : x y z
#
# Youngs Moduli (GPa) = 94.38787 72.87224 126.31430
#
# Poissons Ratio (x) = 0.35151 0.22161
# Poissons Ratio (y) = 0.45530 0.08458
# Poissons Ratio (z) = 0.16560 0.04879
#
# Static dielectric constant tensor:
#      x y z
#    x 4.773430 -0.481520 -0.542980 
#    y -0.481520 4.420580 0.048480 
#    z -0.542980 0.048480 5.608910 
# 
# 
# High freq. dielectric constant tensor:
#      x y z
#    x 1.980640 -0.022120 -0.015120 
#    y -0.022120 1.968290 -0.000450 
#    z -0.015120 -0.000450 1.988130 
# 
# From -- ./inp_files/208227.got.cif
#   From: 2010.06.25/outbox.cif.g09.slc.cpg/sg2_105_cif.got.tgz:208227.got - 2010.06.27 13:26:56.
