data_PCOD8028349
_publ_section_title
;
Structure prediction by ZEFSAII (Michael W. Deem and Ramdas Pophale) SiO2 
 PCOD8028349
Probable space group: P -1
;
_chemical_formula_sum "Si O2"
_cell_formula_units_Z 14
_cell_length_a 11.277725
_cell_length_b 11.032676
_cell_length_c 12.970829
_cell_angle_alpha 112.121283
_cell_angle_beta 23.234679
_cell_angle_gamma 113.450219
_cell_volume 583.821370
_symmetry_space_group_name_H-M "P -1"
_symmetry_group_IT_number 2
_symmetry_cell_setting 'triclinic'
loop_
_space_group_symop_operation_xyz
x,y,z
-x,-y,-z
loop_
_atom_site_type_symbol
_atom_site_label
_atom_site_fract_x
_atom_site_fract_y
_atom_site_fract_z
Si Si1 0.234944 0.977704 0.392123
Si Si2 0.595057 0.235923 0.260208
Si Si3 0.998638 0.154503 0.077458
Si Si4 0.308673 0.444588 0.233014
Si Si5 0.797442 0.839433 0.855854
Si Si6 0.150482 0.400650 0.752413
Si Si7 0.695543 0.580082 0.147774
O O1 0.031262 0.950165 0.647992
O O2 0.477555 0.106203 0.249817
O O3 0.452470 0.867683 0.157885
O O4 0.000000 0.000000 0.500000
O O5 0.319875 0.322169 0.509480
O O6 0.692541 0.194514 0.284371
O O7 0.875623 0.304373 0.992442
O O8 0.024647 0.179939 0.186551
O O9 0.277270 0.261661 0.844484
O O10 0.000000 0.000000 0.000000
O O11 0.240044 0.287290 0.229221
O O12 0.462803 0.490150 0.232541
O O13 0.000000 0.500000 0.500000
O O14 0.500000 0.500000 0.000000
O O15 0.385048 0.449348 0.675487
O O16 0.024903 0.529285 0.847096
#
# Coordination Sequence:
#
# PCOD8028349 Si02
#       7
#     2   2   2   2   2   2   2
#     4  12  28  47  71 105 145 189 241 290 362 429
#     4  11  25  45  74 104 143 184 239 295 357 416
#     4  11  24  46  75 107 145 183 238 296 359 424
#     4  12  27  45  70 103 142 186 232 285 354 425
#     4  12  27  48  72 106 142 193 235 295 362 424
#     4  10  25  45  73 103 136 190 237 297 350 415
#     4  10  25  46  72 104 144 184 242 291 355 419
#
# _framework density 23.979937
#
# number of rings (size 3 to 8) (size 9 to 14) (size 15 to 20)
#    0.000    0.857    2.857    2.143    8.000    8.000 
#    0.000    0.000    0.000    0.000    0.000    0.000 
#    0.000    0.000    0.000    0.000    0.000    0.000 
#
# Total GULP energy -173500.926274 kJ/mol
# GULP energy per Si atom -12392.923305 kJ/mol
# Density = 2.392536 g / cm^3
# Si number density = 23.979937 Si / 1000 Ang^3
#
#
#
# Elastic Constant Matrix: (Units=GPa)
#
#
# Indices 1 2 3 4 5 6 
#
# 1 114.4679 31.7863 20.3883 -7.7506 -28.3730 15.7664
# 2 31.7863 142.7259 19.5238 5.1575 -16.3804 16.7747
# 3 20.3883 19.5238 124.1835 8.6837 -10.0693 -1.7552
# 4 -7.7506 5.1575 8.6837 35.6267 0.9542 -1.1127
# 5 -28.3730 -16.3804 -10.0693 0.9542 30.9399 -4.4072
# 6 15.7664 16.7747 -1.7552 -1.1127 -4.4072 46.6861
#
#
#
# Elastic Compliance Matrix: (Units=1/GPa)
#
#
# Indices 1 2 3 4 5 6 
#
# 1 0.012284 -0.001222 -0.001272 0.002812 0.009723 -0.002772
# 2 -0.001222 0.007999 -0.000784 -0.001373 0.002577 -0.002281
# 3 -0.001272 -0.000784 0.008680 -0.002283 0.001473 0.001122
# 4 0.002812 -0.001373 -0.002283 0.029435 0.000227 0.000181
# 5 0.009723 0.002577 0.001473 0.000227 0.043061 -0.000083
# 6 -0.002772 -0.002281 0.001122 0.000181 -0.000083 0.023214
#
#
# Mechanical properties :
#
#
# Convention : Reuss Voigt Hill
#
# Bulk Modulus (GPa) = 44.62973 58.30823 51.46898
# Shear Modulus (GPa) = 36.04920 43.29582 39.67251
#
# Velocity S-wave (km/s) = 3.88146 4.25373 4.07185
# Velocity P-wave (km/s) = 6.22409 6.96375 6.60428
#
# Compressibility (1/GPa) = 0.02240659
#
# Stress axis : x y z
#
# Youngs Moduli (GPa) = 81.40587 125.01258 115.21059
#
# Poissons Ratio (x) = 0.15273 0.14657
# Poissons Ratio (y) = 0.09945 0.09036
# Poissons Ratio (z) = 0.10357 0.09805
#
# Static dielectric constant tensor:
#      x y z
#    x 4.492800 -0.037150 -0.047230 
#    y -0.037150 4.826750 -0.053260 
#    z -0.047230 -0.053260 4.630320 
# 
# 
# High freq. dielectric constant tensor:
#      x y z
#    x 1.953950 0.000730 -0.008700 
#    y 0.000730 1.977730 -0.004250 
#    z -0.008700 -0.004250 1.950370 
# 
# From -- ./inp_files/362728.got.cif
#   From: 2010.06.25/outbox.cif.g09.slc.cpg/sg2_182_cif.got.tgz:362728.got - 2010.06.27 13:26:56.
