data_PCOD8028651
_publ_section_title
;
Structure prediction by ZEFSAII (Michael W. Deem and Ramdas Pophale) SiO2 
 PCOD8028651
Probable space group: P -1
;
_chemical_formula_sum "Si O2"
_cell_formula_units_Z 14
_cell_length_a 11.496412
_cell_length_b 8.427077
_cell_length_c 20.294059
_cell_angle_alpha 139.855498
_cell_angle_beta 34.506016
_cell_angle_gamma 114.877490
_cell_volume 588.534388
_symmetry_space_group_name_H-M "P -1"
_symmetry_group_IT_number 2
_symmetry_cell_setting 'triclinic'
loop_
_space_group_symop_operation_xyz
x,y,z
-x,-y,-z
loop_
_atom_site_type_symbol
_atom_site_label
_atom_site_fract_x
_atom_site_fract_y
_atom_site_fract_z
Si Si1 0.766045 0.427205 0.026477
Si Si2 0.711899 0.226520 0.725170
Si Si3 0.644113 0.840051 0.728270
Si Si4 0.825411 0.662202 0.841003
Si Si5 0.048587 0.210715 0.308751
Si Si6 0.753669 0.363691 0.298560
Si Si7 0.908046 0.342849 0.079015
O O1 0.479463 0.597268 0.190122
O O2 0.749411 0.482370 0.130348
O O3 0.909458 0.549328 0.961737
O O4 0.935455 0.071956 0.817950
O O5 0.707972 0.473664 0.852225
O O6 0.624663 0.034969 0.737720
O O7 0.000000 0.000000 0.500000
O O8 0.805576 0.870935 0.717280
O O9 0.760034 0.495424 0.545767
O O10 0.360040 0.996500 0.935907
O O11 0.834644 0.676671 0.762120
O O12 0.098549 0.509670 0.696713
O O13 0.500000 0.500000 0.500000
O O14 0.720748 0.446814 0.262491
O O15 0.912015 0.011847 0.123040
#
# Coordination Sequence:
#
# PCOD8028651 Si02
#       7
#     2   2   2   2   2   2   2
#     4  11  24  49  76 108 158 188 251 306 367 451
#     4  12  26  44  72 114 147 192 242 304 377 438
#     4  11  25  44  71 107 149 191 237 297 376 441
#     4  12  24  45  73 104 147 189 237 312 365 431
#     4  11  24  43  70 110 144 187 242 297 367 441
#     4  11  26  48  76 107 143 196 257 302 362 447
#     4  10  25  50  76 105 146 205 241 308 365 430
#
# _framework density 23.787904000000001
#
# number of rings (size 3 to 8) (size 9 to 14) (size 15 to 20)
#    0.000    0.857    4.286    1.714    4.000    2.286 
#    2.571    4.286    0.000    0.000    0.000    0.000 
#    0.000    0.000    0.000    0.000    0.000    0.000 
#
# Total GULP energy -173587.155989 kJ/mol
# GULP energy per Si atom -12399.082571 kJ/mol
# Density = 2.373376 g / cm^3
# Si number density = 23.787904 Si / 1000 Ang^3
#
#
#
# Elastic Constant Matrix: (Units=GPa)
#
#
# Indices 1 2 3 4 5 6 
#
# 1 131.6871 46.8185 62.8209 -4.8557 -8.8346 -0.4782
# 2 46.8185 75.5031 26.4145 -1.8598 -4.2944 2.0505
# 3 62.8209 26.4145 159.4368 -15.3077 -7.9106 -5.9370
# 4 -4.8557 -1.8598 -15.3077 33.7992 -2.4100 6.2365
# 5 -8.8346 -4.2944 -7.9106 -2.4100 31.3717 -7.7070
# 6 -0.4782 2.0505 -5.9370 6.2365 -7.7070 39.0237
#
#
#
# Elastic Compliance Matrix: (Units=1/GPa)
#
#
# Indices 1 2 3 4 5 6 
#
# 1 0.011402 -0.005779 -0.003464 -0.000183 0.001596 0.000261
# 2 -0.005779 0.017074 -0.000567 0.000060 0.000326 -0.000999
# 3 -0.003464 -0.000567 0.008138 0.003073 0.001488 0.001028
# 4 -0.000183 0.000060 0.003073 0.031885 0.002147 -0.004210
# 5 0.001596 0.000326 0.001488 0.002147 0.034559 0.006711
# 6 0.000261 -0.000999 0.001028 -0.004210 0.006711 0.027836
#
#
# Mechanical properties :
#
#
# Convention : Reuss Voigt Hill
#
# Bulk Modulus (GPa) = 58.84465 70.97055 64.90760
# Shear Modulus (GPa) = 32.01476 36.21044 34.11260
#
# Velocity S-wave (km/s) = 3.67255 3.90580 3.79097
# Velocity P-wave (km/s) = 6.54022 7.08801 6.81961
#
# Compressibility (1/GPa) = 0.01699390
#
# Stress axis : x y z
#
# Youngs Moduli (GPa) = 87.70250 58.56986 122.88114
#
# Poissons Ratio (x) = 0.33850 0.42564
# Poissons Ratio (y) = 0.50686 0.06964
# Poissons Ratio (z) = 0.30379 0.03320
#
# Static dielectric constant tensor:
#      x y z
#    x 4.325900 -0.042500 0.124410 
#    y -0.042500 4.507460 0.061520 
#    z 0.124410 0.061520 4.460670 
# 
# 
# High freq. dielectric constant tensor:
#      x y z
#    x 1.947830 -0.002020 0.004890 
#    y -0.002020 1.946730 0.002650 
#    z 0.004890 0.002650 1.941700 
# 
# From -- ./inp_files/346301.got.cif
#   From: 2010.06.25/outbox.cif.g09.slc.cpg/sg2_174_cif.got.tgz:346301.got - 2010.06.27 13:26:56.
