data_PCOD8028562
_publ_section_title
;
Structure prediction by ZEFSAII (Michael W. Deem and Ramdas Pophale) SiO2 
 PCOD8028562
Probable space group: P -1
;
_chemical_formula_sum "Si O2"
_cell_formula_units_Z 10
_cell_length_a 9.701183
_cell_length_b 8.752067
_cell_length_c 9.607952
_cell_angle_alpha 92.051300
_cell_angle_beta 28.720337
_cell_angle_gamma 94.852271
_cell_volume 389.342299
_symmetry_space_group_name_H-M "P -1"
_symmetry_group_IT_number 2
_symmetry_cell_setting 'triclinic'
loop_
_space_group_symop_operation_xyz
x,y,z
-x,-y,-z
loop_
_atom_site_type_symbol
_atom_site_label
_atom_site_fract_x
_atom_site_fract_y
_atom_site_fract_z
Si Si1 0.605427 0.353691 0.479251
Si Si2 0.620593 0.595349 0.033416
Si Si3 0.967780 0.825019 0.061494
Si Si4 0.722266 0.283042 0.962862
Si Si5 0.891896 0.820551 0.595738
O O1 0.500000 0.500000 0.500000
O O2 0.908372 0.297032 0.159558
O O3 0.373181 0.215609 0.631790
O O4 0.613243 0.367675 0.641975
O O5 0.811544 0.752411 0.819614
O O6 0.500000 0.500000 0.000000
O O7 0.793500 0.463930 0.949337
O O8 0.111161 0.817331 0.084689
O O9 0.616183 0.780513 0.737502
O O10 0.000000 0.000000 0.000000
O O11 0.840994 0.263663 0.700327
O O12 0.000000 0.000000 0.500000
#
# Coordination Sequence:
#
# PCOD8028562 Si02
#       5
#     2   2   2   2   2
#     4  12  26  49  79 106 147 201 252 303 370 443
#     4  10  25  47  76 108 146 191 250 304 368 439
#     4  12  28  49  74 109 153 196 247 312 371 438
#     4  11  24  47  73 102 150 194 243 308 366 436
#     4  11  25  45  73 107 147 191 247 306 371 436
#
# _framework density 25.684339000000001
#
# number of rings (size 3 to 8) (size 9 to 14) (size 15 to 20)
#    0.000    0.800    2.000    3.600    5.600    3.200 
#    0.000    0.000    0.000    0.000    0.000    0.000 
#    0.000    0.000    0.000    0.000    0.000    0.000 
#
# Total GULP energy -123927.053773 kJ/mol
# GULP energy per Si atom -12392.705377 kJ/mol
# Density = 2.562588 g / cm^3
# Si number density = 25.684339 Si / 1000 Ang^3
#
#
#
# Elastic Constant Matrix: (Units=GPa)
#
#
# Indices 1 2 3 4 5 6 
#
# 1 60.1784 7.7754 0.5448 -17.0945 16.4686 -1.0499
# 2 7.7754 142.4320 41.2377 -28.7095 6.8418 0.9579
# 3 0.5448 41.2377 115.7865 -5.7717 15.3929 7.5893
# 4 -17.0945 -28.7095 -5.7717 62.7490 0.7569 0.4219
# 5 16.4686 6.8418 15.3929 0.7569 48.7799 -4.0574
# 6 -1.0499 0.9579 7.5893 0.4219 -4.0574 35.3553
#
#
#
# Elastic Compliance Matrix: (Units=1/GPa)
#
#
# Indices 1 2 3 4 5 6 
#
# 1 0.020230 0.000068 0.001181 0.005744 -0.007348 -0.000566
# 2 0.000068 0.008603 -0.002851 0.003695 -0.000363 0.000295
# 3 0.001181 -0.002851 0.010269 0.000020 -0.003446 -0.002488
# 4 0.005744 0.003695 0.000020 0.019231 -0.002802 -0.000485
# 5 -0.007348 -0.000363 -0.003446 -0.002802 0.024443 0.003370
# 6 -0.000566 0.000295 -0.002488 -0.000485 0.003370 0.029186
#
#
# Mechanical properties :
#
#
# Convention : Reuss Voigt Hill
#
# Bulk Modulus (GPa) = 27.85691 46.39033 37.12362
# Shear Modulus (GPa) = 39.32919 47.29944 43.31431
#
# Velocity S-wave (km/s) = 3.91737 4.29600 4.11105
# Velocity P-wave (km/s) = 5.59736 6.53517 6.08436
#
# Compressibility (1/GPa) = 0.03589774
#
# Stress axis : x y z
#
# Youngs Moduli (GPa) = 49.43057 116.24060 97.38317
#
# Poissons Ratio (x) = -0.00793 -0.11500
# Poissons Ratio (y) = -0.00337 0.27766
# Poissons Ratio (z) = -0.05837 0.33143
#
# Static dielectric constant tensor:
#      x y z
#    x 4.514600 -0.275450 0.221190 
#    y -0.275450 4.808880 -0.192340 
#    z 0.221190 -0.192340 5.052110 
# 
# 
# High freq. dielectric constant tensor:
#      x y z
#    x 2.027550 -0.009710 0.005490 
#    y -0.009710 2.034980 -0.006250 
#    z 0.005490 -0.006250 2.041290 
# 
# From -- ./inp_files/108411.got.cif
#   From: 2010.06.25/outbox.cif.g09.slc.cpg/sg2_55_cif.got.tgz:108411.got - 2010.06.27 13:26:56.
