data_PCOD8028896
_publ_section_title
;
Structure prediction by ZEFSAII (Michael W. Deem and Ramdas Pophale) SiO2 
 PCOD8028896
Probable space group: P -1
;
_chemical_formula_sum "Si O2"
_cell_formula_units_Z 16
_cell_length_a 11.956793
_cell_length_b 13.088423
_cell_length_c 7.942155
_cell_angle_alpha 131.563114
_cell_angle_beta 120.105074
_cell_angle_gamma 55.651925
_cell_volume 751.344894
_symmetry_space_group_name_H-M "P -1"
_symmetry_group_IT_number 2
_symmetry_cell_setting 'triclinic'
loop_
_space_group_symop_operation_xyz
x,y,z
-x,-y,-z
loop_
_atom_site_type_symbol
_atom_site_label
_atom_site_fract_x
_atom_site_fract_y
_atom_site_fract_z
Si Si1 0.340146 0.045717 0.267036
Si Si2 0.071369 0.060061 0.262943
Si Si3 0.229137 0.887580 0.472404
Si Si4 0.357059 0.393899 0.317225
Si Si5 0.554140 0.286790 0.052435
Si Si6 0.515601 0.720686 0.360346
Si Si7 0.809571 0.286208 0.424901
Si Si8 0.662653 0.904651 0.038516
O O1 0.219776 0.067981 0.336223
O O2 0.430788 0.145491 0.484611
O O3 0.445520 0.878041 0.144497
O O4 0.264157 0.093419 0.082821
O O5 0.967955 0.222621 0.412486
O O6 0.094858 0.948683 0.317737
O O7 0.000000 0.000000 0.000000
O O8 0.354482 0.776685 0.342155
O O9 0.203229 0.811333 0.535577
O O10 0.268302 0.029028 0.697364
O O11 0.595532 0.618408 0.463903
O O12 0.230391 0.545861 0.364244
O O13 0.481309 0.380024 0.264892
O O14 0.307870 0.263552 0.078993
O O15 0.478010 0.365466 0.907594
O O16 0.712859 0.274740 0.183082
O O17 0.500000 0.000000 0.000000
#
# Coordination Sequence:
#
# PCOD8028896 Si02
#       8
#     2   2   2   2   2   2   2   2
#     4  11  20  37  65  96 128 157 222 281 311 373
#     4  12  25  43  63  94 133 176 224 263 310 403
#     4  12  21  40  72  93 126 171 227 269 319 384
#     4  11  24  41  63  98 143 158 214 276 336 384
#     4  12  20  37  67  93 133 161 215 273 328 377
#     4  11  22  37  65 106 120 166 218 279 333 367
#     4  12  25  44  60  96 136 181 206 265 331 395
#     4  11  18  38  67  97 126 166 214 275 326 377
#
# _framework density 21.295147
#
# number of rings (size 3 to 8) (size 9 to 14) (size 15 to 20)
#    0.000    0.500    8.750    1.125    1.750    0.500 
#    2.250    3.125    0.000    0.000    0.000    0.000 
#    0.000    0.000    0.000    0.000    0.000    0.000 
#
# Total GULP energy -198310.165793 kJ/mol
# GULP energy per Si atom -12394.385362 kJ/mol
# Density = 2.124668 g / cm^3
# Si number density = 21.295147 Si / 1000 Ang^3
#
#
#
# Elastic Constant Matrix: (Units=GPa)
#
#
# Indices 1 2 3 4 5 6 
#
# 1 76.7006 31.6905 22.1493 9.3302 -20.5600 -9.7280
# 2 31.6905 99.5144 47.2623 6.0503 -8.4398 -15.4863
# 3 22.1493 47.2623 83.5830 -17.9648 -16.7634 1.1295
# 4 9.3302 6.0503 -17.9648 30.8841 -0.2815 -13.8430
# 5 -20.5600 -8.4398 -16.7634 -0.2815 23.6861 2.2797
# 6 -9.7280 -15.4863 1.1295 -13.8430 2.2797 26.9149
#
#
#
# Elastic Compliance Matrix: (Units=1/GPa)
#
#
# Indices 1 2 3 4 5 6 
#
# 1 0.019745 -0.004030 -0.001152 -0.005315 0.014740 0.000884
# 2 -0.004030 0.017700 -0.011551 -0.006062 -0.006075 0.006609
# 3 -0.001152 -0.011551 0.025070 0.017136 0.012869 -0.000391
# 4 -0.005315 -0.006062 0.017136 0.054948 0.003909 0.021802
# 5 0.014740 -0.006075 0.012869 0.003909 0.062192 -0.001965
# 6 0.000884 0.006609 -0.000391 0.021802 -0.001965 0.052672
#
#
# Mechanical properties :
#
#
# Convention : Reuss Voigt Hill
#
# Bulk Modulus (GPa) = 34.42390 51.33358 42.87874
# Shear Modulus (GPa) = 18.15034 26.87673 22.51353
#
# Velocity S-wave (km/s) = 2.92262 3.55647 3.25501
# Velocity P-wave (km/s) = 5.25254 6.40490 5.85713
#
# Compressibility (1/GPa) = 0.02904959
#
# Stress axis : x y z
#
# Youngs Moduli (GPa) = 50.64536 56.49683 39.88768
#
# Poissons Ratio (x) = 0.22769 0.04594
# Poissons Ratio (y) = 0.20411 0.46075
# Poissons Ratio (z) = 0.05832 0.65261
#
# Static dielectric constant tensor:
#      x y z
#    x 4.027550 0.216110 -0.347210 
#    y 0.216110 4.005480 -0.239260 
#    z -0.347210 -0.239260 4.015950 
# 
# 
# High freq. dielectric constant tensor:
#      x y z
#    x 1.820440 0.018300 -0.020280 
#    y 0.018300 1.828650 -0.009970 
#    z -0.020280 -0.009970 1.837020 
# 
# From -- ./inp_files/260736.got.cif
#   From: 2010.06.25/outbox.cif.g09.slc.cpg/sg2_131_cif.got.tgz:260736.got - 2010.06.27 13:26:56.
