data_PCOD8028926
_publ_section_title
;
Structure prediction by ZEFSAII (Michael W. Deem and Ramdas Pophale) SiO2 
 PCOD8028926
Probable space group: P -1
;
_chemical_formula_sum "Si O2"
_cell_formula_units_Z 14
_cell_length_a 15.092176
_cell_length_b 8.340587
_cell_length_c 11.579976
_cell_angle_alpha 83.556469
_cell_angle_beta 29.066871
_cell_angle_gamma 86.474301
_cell_volume 701.676786
_symmetry_space_group_name_H-M "P -1"
_symmetry_group_IT_number 2
_symmetry_cell_setting 'triclinic'
loop_
_space_group_symop_operation_xyz
x,y,z
-x,-y,-z
loop_
_atom_site_type_symbol
_atom_site_label
_atom_site_fract_x
_atom_site_fract_y
_atom_site_fract_z
Si Si1 0.825718 0.824330 0.143026
Si Si2 0.720760 0.883299 0.024460
Si Si3 0.459743 0.809744 0.701647
Si Si4 0.899226 0.198526 0.994180
Si Si5 0.990577 0.166026 0.641853
Si Si6 0.353724 0.282154 0.107585
Si Si7 0.333251 0.654082 0.084479
O O1 0.658356 0.814763 0.422739
O O2 0.984490 0.727616 0.033722
O O3 0.769048 0.759643 0.084332
O O4 0.901248 0.006567 0.018673
O O5 0.620015 0.776693 0.048381
O O6 0.905277 0.979898 0.757404
O O7 0.584357 0.012022 0.218200
O O8 0.309802 0.750981 0.777944
O O9 0.444282 0.686187 0.836058
O O10 0.996308 0.245257 0.757376
O O11 0.193696 0.169378 0.360439
O O12 0.860222 0.267395 0.701264
O O13 0.295179 0.464047 0.162731
O O14 0.544310 0.265918 0.957402
#
# Coordination Sequence:
#
# PCOD8028926 Si02
#       7
#     2   2   2   2   2   2   2
#     4   9  15  29  48  68  96 124 148 192 238 275
#     4   9  19  30  49  77  96 119 160 197 236 278
#     4   9  17  32  48  69  94 123 157 193 231 276
#     4   8  15  26  47  72  88 114 160 188 228 285
#     4   9  18  33  51  71  93 124 158 197 237 276
#     4  11  19  34  49  68 101 126 156 200 232 276
#     4   9  21  33  50  70  91 133 165 182 235 292
#
# _framework density 19.952207000000001
#
# number of rings (size 3 to 8) (size 9 to 14) (size 15 to 20)
#    0.000    3.429    0.000    3.429    0.000    2.286 
#    0.000    7.857    0.000    3.429    0.000    0.000 
#    0.000    0.000    0.000    0.000    0.000    0.000 
#
# Total GULP energy -173447.886440 kJ/mol
# GULP energy per Si atom -12389.134746 kJ/mol
# Density = 1.990679 g / cm^3
# Si number density = 19.952207 Si / 1000 Ang^3
#
#
#
# Elastic Constant Matrix: (Units=GPa)
#
#
# Indices 1 2 3 4 5 6 
#
# 1 156.9004 24.9847 33.3915 -9.3197 -10.8098 -10.7180
# 2 24.9847 16.0220 8.5030 -5.6499 -3.4617 2.6499
# 3 33.3915 8.5030 61.3386 -3.7113 -6.4885 8.9646
# 4 -9.3197 -5.6499 -3.7113 7.8491 -4.8459 -3.0054
# 5 -10.8098 -3.4617 -6.4885 -4.8459 19.6855 0.5225
# 6 -10.7180 2.6499 8.9646 -3.0054 0.5225 18.1517
#
#
#
# Elastic Compliance Matrix: (Units=1/GPa)
#
#
# Indices 1 2 3 4 5 6 
#
# 1 0.011131 -0.012653 -0.005137 0.008900 0.004058 0.012314
# 2 -0.012653 0.125884 0.001131 0.096066 0.039518 -0.011639
# 3 -0.005137 0.001131 0.021729 0.003335 0.005720 -0.013542
# 4 0.008900 0.096066 0.003335 0.276951 0.090183 0.032843
# 5 0.004058 0.039518 0.005720 0.090183 0.083894 0.006319
# 6 0.012314 -0.011639 -0.013542 0.032843 0.006319 0.076005
#
#
# Mechanical properties :
#
#
# Convention : Reuss Voigt Hill
#
# Bulk Modulus (GPa) = 7.97282 40.89106 24.43194
# Shear Modulus (GPa) = 7.45467 20.29604 13.87536
#
# Velocity S-wave (km/s) = 1.93504 3.19287 2.63996
# Velocity P-wave (km/s) = 2.99952 5.84222 4.64374
#
# Compressibility (1/GPa) = 0.12542606
#
# Stress axis : x y z
#
# Youngs Moduli (GPa) = 89.83920 7.94383 46.02165
#
# Poissons Ratio (x) = 0.10051 0.23643
# Poissons Ratio (y) = 1.13670 -0.05205
# Poissons Ratio (z) = 0.46154 -0.00899
#
# Static dielectric constant tensor:
#      x y z
#    x 4.569730 -0.298170 -0.043550 
#    y -0.298170 3.126450 -0.229570 
#    z -0.043550 -0.229570 3.341960 
# 
# 
# High freq. dielectric constant tensor:
#      x y z
#    x 1.804280 -0.023390 -0.003900 
#    y -0.023390 1.721590 -0.022150 
#    z -0.003900 -0.022150 1.762530 
# 
# From -- ./inp_files/234795.got.cif
#   From: 2010.06.25/outbox.cif.g09.slc.cpg/sg2_118_cif.got.tgz:234795.got - 2010.06.27 13:26:56.
