data_PCOD8028719
_publ_section_title
;
Structure prediction by ZEFSAII (Michael W. Deem and Ramdas Pophale) SiO2 
 PCOD8028719
Probable space group: P -1
;
_chemical_formula_sum "Si O2"
_cell_formula_units_Z 14
_cell_length_a 7.604695
_cell_length_b 11.506075
_cell_length_c 14.456369
_cell_angle_alpha 28.455094
_cell_angle_beta 103.291041
_cell_angle_gamma 95.697235
_cell_volume 571.949444
_symmetry_space_group_name_H-M "P -1"
_symmetry_group_IT_number 2
_symmetry_cell_setting 'triclinic'
loop_
_space_group_symop_operation_xyz
x,y,z
-x,-y,-z
loop_
_atom_site_type_symbol
_atom_site_label
_atom_site_fract_x
_atom_site_fract_y
_atom_site_fract_z
Si Si1 0.743069 0.616774 0.419462
Si Si2 0.221671 0.994341 0.708763
Si Si3 0.873492 0.805511 0.134782
Si Si4 0.252902 0.488439 0.165338
Si Si5 0.361843 0.698115 0.223900
Si Si6 0.926877 0.370672 0.308641
Si Si7 0.572236 0.270075 0.236587
O O1 0.690557 0.876864 0.287619
O O2 0.905583 0.630452 0.354091
O O3 0.567740 0.575270 0.368061
O O4 0.787869 0.393207 0.658548
O O5 0.020530 0.163331 0.540103
O O6 0.361235 0.972940 0.651503
O O7 0.196155 0.722501 0.925340
O O8 0.868532 0.643829 0.156307
O O9 0.673296 0.999556 0.991037
O O10 0.000000 0.000000 0.000000
O O11 0.333309 0.580739 0.204121
O O12 0.071474 0.381712 0.235988
O O13 0.405427 0.262802 0.293496
O O14 0.747795 0.301327 0.294577
O O15 0.500000 0.500000 0.000000
#
# Coordination Sequence:
#
# PCOD8028719 Si02
#       7
#     2   2   2   2   2   2   2
#     4  11  23  40  69  97 142 172 227 279 329 410
#     4  11  23  44  68  99 134 176 227 282 330 398
#     4  12  23  40  67 100 135 181 218 272 345 401
#     4  11  23  47  68  99 136 176 228 275 336 403
#     4  11  23  41  64 102 136 179 220 274 342 400
#     4  12  25  45  69  99 137 177 224 277 341 398
#     4  10  26  45  72  99 129 181 230 277 341 394
#
# _framework density 24.477688000000001
#
# number of rings (size 3 to 8) (size 9 to 14) (size 15 to 20)
#    0.000    0.857    4.286    1.714    4.000    6.286 
#    0.000    2.857    0.000    0.000    0.000    0.000 
#    0.000    0.000    0.000    0.000    0.000    0.000 
#
# Total GULP energy -173575.471842 kJ/mol
# GULP energy per Si atom -12398.247989 kJ/mol
# Density = 2.442198 g / cm^3
# Si number density = 24.477688 Si / 1000 Ang^3
#
#
#
# Elastic Constant Matrix: (Units=GPa)
#
#
# Indices 1 2 3 4 5 6 
#
# 1 101.1357 42.1146 15.1205 13.2980 -13.3584 -19.5572
# 2 42.1146 112.5488 0.5032 1.4014 2.1462 -23.6560
# 3 15.1205 0.5032 70.6052 14.9357 0.8728 -7.5135
# 4 13.2980 1.4014 14.9357 36.7690 -7.0762 -0.5479
# 5 -13.3584 2.1462 0.8728 -7.0762 33.0586 7.2536
# 6 -19.5572 -23.6560 -7.5135 -0.5479 7.2536 39.7205
#
#
#
# Elastic Compliance Matrix: (Units=1/GPa)
#
#
# Indices 1 2 3 4 5 6 
#
# 1 0.013622 -0.004566 -0.002016 -0.003005 0.004613 0.002722
# 2 -0.004566 0.011896 0.001593 -0.000126 -0.003973 0.005861
# 3 -0.002016 0.001593 0.016416 -0.006632 -0.003566 0.003621
# 4 -0.003005 -0.000126 -0.006632 0.032208 0.006649 -0.003579
# 5 0.004613 -0.003973 -0.003566 0.006649 0.035458 -0.007152
# 6 0.002722 0.005861 0.003621 -0.003579 -0.007152 0.031949
#
#
# Mechanical properties :
#
#
# Convention : Reuss Voigt Hill
#
# Bulk Modulus (GPa) = 31.29577 44.41846 37.85712
# Shear Modulus (GPa) = 30.82996 37.01305 33.92151
#
# Velocity S-wave (km/s) = 3.55281 3.89281 3.72669
# Velocity P-wave (km/s) = 5.44455 6.19606 5.83242
#
# Compressibility (1/GPa) = 0.03195320
#
# Stress axis : x y z
#
# Youngs Moduli (GPa) = 73.41318 84.06231 60.91615
#
# Poissons Ratio (x) = 0.38387 0.12283
# Poissons Ratio (y) = 0.33524 -0.09702
# Poissons Ratio (z) = 0.14802 -0.13388
#
# Static dielectric constant tensor:
#      x y z
#    x 4.125350 -0.236420 -0.447230 
#    y -0.236420 4.403830 0.359950 
#    z -0.447230 0.359950 4.320670 
# 
# 
# High freq. dielectric constant tensor:
#      x y z
#    x 1.974610 -0.021440 0.005630 
#    y -0.021440 1.973690 0.009180 
#    z 0.005630 0.009180 1.996920 
# 
# From -- ./inp_files/499733.got.cif
#   From: 2010.06.25/outbox.cif.g09.slc.cpg/sg2_250_cif.got.tgz:499733.got - 2010.06.27 13:26:56.
