data_PCOD8028905
_publ_section_title
;
Structure prediction by ZEFSAII (Michael W. Deem and Ramdas Pophale) SiO2 
 PCOD8028905
Probable space group: P -1
;
_chemical_formula_sum "Si O2"
_cell_formula_units_Z 16
_cell_length_a 9.214006
_cell_length_b 9.732814
_cell_length_c 11.298215
_cell_angle_alpha 97.426813
_cell_angle_beta 93.927873
_cell_angle_gamma 46.211276
_cell_volume 724.981398
_symmetry_space_group_name_H-M "P -1"
_symmetry_group_IT_number 2
_symmetry_cell_setting 'triclinic'
loop_
_space_group_symop_operation_xyz
x,y,z
-x,-y,-z
loop_
_atom_site_type_symbol
_atom_site_label
_atom_site_fract_x
_atom_site_fract_y
_atom_site_fract_z
Si Si1 0.414201 0.295715 0.878229
Si Si2 0.883522 0.203423 0.366798
Si Si3 0.678717 0.205169 0.668112
Si Si4 0.442320 0.807291 0.581372
Si Si5 0.139619 0.723073 0.889136
Si Si6 0.190982 0.596250 0.380719
Si Si7 0.248482 0.964476 0.966020
Si Si8 0.213528 0.161231 0.752059
O O1 0.588863 0.232759 0.793463
O O2 0.274679 0.515585 0.934379
O O3 0.527235 0.157679 0.983650
O O4 0.274497 0.272178 0.810013
O O5 0.708376 0.210197 0.381392
O O6 0.845508 0.310799 0.255031
O O7 0.899223 0.302608 0.485223
O O8 0.086630 0.983344 0.343404
O O9 0.556144 0.199246 0.561998
O O10 0.665105 0.377837 0.660229
O O11 0.667346 0.631550 0.622147
O O12 0.367919 0.006853 0.642419
O O13 0.220512 0.818428 0.943128
O O14 0.911666 0.856766 0.936380
O O15 0.012317 0.677584 0.290660
O O16 0.224843 0.041907 0.843699
#
# Coordination Sequence:
#
# PCOD8028905 Si02
#       8
#     2   2   2   2   2   2   2   2
#     4  12  27  43  67  97 134 170 214 269 330 376
#     4  11  18  42  69  98 130 164 217 277 309 379
#     4  11  20  40  69  97 131 171 217 266 316 381
#     4  11  21  39  67  98 131 170 214 261 324 387
#     4  11  23  43  71  98 122 167 228 268 313 380
#     4  11  22  39  69  97 131 173 215 259 321 391
#     4  11  25  45  68  92 127 173 222 271 316 376
#     4  12  26  44  63  99 136 172 209 267 329 386
#
# _framework density 22.069531999999999
#
# number of rings (size 3 to 8) (size 9 to 14) (size 15 to 20)
#    0.000    0.750    5.000    4.500    1.750    3.000 
#    0.000    1.250    0.000    0.000    0.000    0.000 
#    0.000    0.000    0.000    0.000    0.000    0.000 
#
# Total GULP energy -198488.591606 kJ/mol
# GULP energy per Si atom -12405.536975 kJ/mol
# Density = 2.201930 g / cm^3
# Si number density = 22.069532 Si / 1000 Ang^3
#
#
#
# Elastic Constant Matrix: (Units=GPa)
#
#
# Indices 1 2 3 4 5 6 
#
# 1 51.9470 32.0284 24.7631 7.0022 17.7733 -9.5382
# 2 32.0284 132.5457 26.5104 -2.1427 12.0034 -27.9618
# 3 24.7631 26.5104 91.6329 -12.8813 17.7460 -16.1430
# 4 7.0022 -2.1427 -12.8813 32.6275 -5.5581 9.6031
# 5 17.7733 12.0034 17.7460 -5.5581 23.9985 -6.7395
# 6 -9.5382 -27.9618 -16.1430 9.6031 -6.7395 21.0732
#
#
#
# Elastic Compliance Matrix: (Units=1/GPa)
#
#
# Indices 1 2 3 4 5 6 
#
# 1 0.035051 -0.004444 -0.005033 -0.015321 -0.021847 0.006107
# 2 -0.004444 0.011627 -0.000125 -0.002500 0.001154 0.014828
# 3 -0.005033 -0.000125 0.014777 0.004555 -0.004584 0.005334
# 4 -0.015321 -0.002500 0.004555 0.044535 0.013123 -0.022860
# 5 -0.021847 0.001154 -0.004584 0.013123 0.064480 0.002772
# 6 0.006107 0.014828 0.005334 -0.022860 0.002772 0.085283
#
#
# Mechanical properties :
#
#
# Convention : Reuss Voigt Hill
#
# Bulk Modulus (GPa) = 23.66867 49.19215 36.43041
# Shear Modulus (GPa) = 17.29853 28.39473 22.84663
#
# Velocity S-wave (km/s) = 2.80271 3.59082 3.22096
# Velocity P-wave (km/s) = 4.60668 6.28729 5.51142
#
# Compressibility (1/GPa) = 0.04224995
#
# Stress axis : x y z
#
# Youngs Moduli (GPa) = 28.52975 86.00879 67.67101
#
# Poissons Ratio (x) = 0.38221 0.34061
# Poissons Ratio (y) = 0.12678 0.00849
# Poissons Ratio (z) = 0.14360 0.01079
#
# Static dielectric constant tensor:
#      x y z
#    x 3.606110 -0.166260 -0.028340 
#    y -0.166260 4.087610 -0.036200 
#    z -0.028340 -0.036200 4.195230 
# 
# 
# High freq. dielectric constant tensor:
#      x y z
#    x 1.838760 -0.018330 0.003100 
#    y -0.018330 1.879900 -0.005010 
#    z 0.003100 -0.005010 1.877050 
# 
# From -- ./inp_files/206221.got.cif
#   From: 2010.06.25/outbox.cif.g09.slc.cpg/sg2_104_cif.got.tgz:206221.got - 2010.06.27 13:26:56.
