data_PCOD8028966
_publ_section_title
;
Structure prediction by ZEFSAII (Michael W. Deem and Ramdas Pophale) SiO2 
 PCOD8028966
Probable space group: P -1
;
_chemical_formula_sum "Si O2"
_cell_formula_units_Z 14
_cell_length_a 9.000079
_cell_length_b 15.028774
_cell_length_c 9.476823
_cell_angle_alpha 130.892918
_cell_angle_beta 46.638412
_cell_angle_gamma 116.973770
_cell_volume 704.466034
_symmetry_space_group_name_H-M "P -1"
_symmetry_group_IT_number 2
_symmetry_cell_setting 'triclinic'
loop_
_space_group_symop_operation_xyz
x,y,z
-x,-y,-z
loop_
_atom_site_type_symbol
_atom_site_label
_atom_site_fract_x
_atom_site_fract_y
_atom_site_fract_z
Si Si1 0.063272 0.365631 0.289765
Si Si2 0.420394 0.275507 0.559656
Si Si3 0.498321 0.365785 0.903167
Si Si4 0.212552 0.707725 0.853200
Si Si5 0.197463 0.470500 0.752749
Si Si6 0.063787 0.708080 0.419531
Si Si7 0.018477 0.138026 0.617869
O O1 0.000000 0.500000 0.500000
O O2 0.984548 0.328688 0.148342
O O3 0.959615 0.277954 0.381669
O O4 0.306957 0.345719 0.111422
O O5 0.483272 0.282964 0.689328
O O6 0.612863 0.234593 0.298042
O O7 0.355410 0.405165 0.684122
O O8 0.244540 0.178325 0.555988
O O9 0.709231 0.336519 0.815335
O O10 0.500000 0.500000 0.000000
O O11 0.299337 0.589130 0.747465
O O12 0.147361 0.800863 0.110142
O O13 0.117250 0.384746 0.592931
O O14 0.000000 0.500000 0.000000
O O15 0.025734 0.827136 0.479996
O O16 0.000000 0.000000 0.500000
#
# Coordination Sequence:
#
# PCOD8028966 Si02
#       7
#     2   2   2   2   2   2   2
#     4  12  21  35  60 100 136 162 191 249 322 400
#     4  11  23  38  65  94 127 168 207 255 330 378
#     4  12  21  35  61  97 138 163 190 248 324 397
#     4  12  21  39  66  92 130 166 206 259 323 382
#     4  11  19  36  58  97 135 165 195 253 321 399
#     4  11  23  38  62  97 129 161 210 251 322 378
#     4  11  27  49  66  85 123 173 232 274 295 354
#
# _framework density 19.873207000000001
#
# number of rings (size 3 to 8) (size 9 to 14) (size 15 to 20)
#    0.000    0.571    8.571    1.286    0.000    2.857 
#    0.000    1.429    0.000    0.000    0.000    0.000 
#    0.000    0.000    0.000    0.000    0.000    0.000 
#
# Total GULP energy -173612.128181 kJ/mol
# GULP energy per Si atom -12400.866299 kJ/mol
# Density = 1.982797 g / cm^3
# Si number density = 19.873207 Si / 1000 Ang^3
#
#
#
# Elastic Constant Matrix: (Units=GPa)
#
#
# Indices 1 2 3 4 5 6 
#
# 1 58.6096 25.9720 12.0241 4.3184 -2.1176 -6.5713
# 2 25.9720 121.9461 53.8513 7.5328 -2.3908 -9.1531
# 3 12.0241 53.8513 84.8183 -16.0442 -2.4916 -2.1132
# 4 4.3184 7.5328 -16.0442 36.9198 6.1945 -5.1887
# 5 -2.1176 -2.3908 -2.4916 6.1945 30.9656 -11.7663
# 6 -6.5713 -9.1531 -2.1132 -5.1887 -11.7663 27.8443
#
#
#
# Elastic Compliance Matrix: (Units=1/GPa)
#
#
# Indices 1 2 3 4 5 6 
#
# 1 0.019419 -0.003263 -0.000835 -0.001863 0.003049 0.004388
# 2 -0.003263 0.013656 -0.009285 -0.006451 0.002458 0.002851
# 3 -0.000835 -0.009285 0.019792 0.010790 -0.001477 -0.000360
# 4 -0.001863 -0.006451 0.010790 0.034602 -0.005826 0.002244
# 5 0.003049 0.002458 -0.001477 -0.005826 0.040342 0.017377
# 6 0.004388 0.002851 -0.000360 0.002244 0.017377 0.045621
#
#
# Mechanical properties :
#
#
# Convention : Reuss Voigt Hill
#
# Bulk Modulus (GPa) = 38.31173 49.89652 44.10412
# Shear Modulus (GPa) = 23.93524 30.71439 27.32482
#
# Velocity S-wave (km/s) = 3.47421 3.93557 3.71206
# Velocity P-wave (km/s) = 5.95092 6.76857 6.37287
#
# Compressibility (1/GPa) = 0.02610167
#
# Stress axis : x y z
#
# Youngs Moduli (GPa) = 51.49688 73.22719 50.52573
#
# Poissons Ratio (x) = 0.23893 0.04218
# Poissons Ratio (y) = 0.16803 0.46912
# Poissons Ratio (z) = 0.04299 0.67990
#
# Static dielectric constant tensor:
#      x y z
#    x 5.891420 1.693880 0.597220 
#    y 1.693880 4.839460 0.101140 
#    z 0.597220 0.101140 4.052000 
# 
# 
# High freq. dielectric constant tensor:
#      x y z
#    x 1.786330 0.005260 0.002950 
#    y 0.005260 1.739620 -0.036690 
#    z 0.002950 -0.036690 1.770820 
# 
# From -- ./inp_files/177205.got.cif
#   From: 2010.06.25/outbox.cif.g09.slc.cpg/sg2_89_cif.got.tgz:177205.got - 2010.06.27 13:26:56.
