data_PCOD8028440
_publ_section_title
;
Structure prediction by ZEFSAII (Michael W. Deem and Ramdas Pophale) SiO2 
 PCOD8028440
Probable space group: P -1
;
_chemical_formula_sum "Si O2"
_cell_formula_units_Z 16
_cell_length_a 9.040060
_cell_length_b 11.866805
_cell_length_c 9.609018
_cell_angle_alpha 72.385948
_cell_angle_beta 131.998168
_cell_angle_gamma 92.746635
_cell_volume 712.563248
_symmetry_space_group_name_H-M "P -1"
_symmetry_group_IT_number 2
_symmetry_cell_setting 'triclinic'
loop_
_space_group_symop_operation_xyz
x,y,z
-x,-y,-z
loop_
_atom_site_type_symbol
_atom_site_label
_atom_site_fract_x
_atom_site_fract_y
_atom_site_fract_z
Si Si1 0.026887 0.124364 0.637450
Si Si2 0.697223 0.995165 0.905689
Si Si3 0.815063 0.805215 0.826072
Si Si4 0.271141 0.394084 0.968995
Si Si5 0.489342 0.428507 0.831473
Si Si6 0.143354 0.628280 0.408867
Si Si7 0.251180 0.050717 0.533328
Si Si8 0.734012 0.265600 0.822704
O O1 0.102480 0.127637 0.525348
O O2 0.951844 0.260401 0.592380
O O3 0.846578 0.052268 0.559921
O O4 0.216053 0.051895 0.872877
O O5 0.463995 0.982140 0.757928
O O6 0.702176 0.132438 0.829550
O O7 0.828966 0.913750 0.900135
O O8 0.708629 0.856427 0.596085
O O9 0.690352 0.715507 0.854314
O O10 0.047596 0.736622 0.967726
O O11 0.429387 0.356657 0.954331
O O12 0.038936 0.423483 0.756659
O O13 0.321756 0.510443 0.034384
O O14 0.285279 0.526129 0.627449
O O15 0.554171 0.335839 0.781587
O O16 0.280996 0.668737 0.360233
#
# Coordination Sequence:
#
# PCOD8028440 Si02
#       8
#     2   2   2   2   2   2   2   2
#     4  11  24  45  67 108 148 175 228 288 348 406
#     4  12  23  44  72 101 143 181 226 280 355 409
#     4  11  23  46  71 102 143 182 225 289 350 408
#     4  10  25  46  70  97 135 185 227 290 341 397
#     4  11  26  46  68 102 134 183 237 283 337 410
#     4  11  24  45  73  96 139 185 226 288 340 415
#     4  11  26  39  69 112 137 185 226 279 350 425
#     4  11  24  43  71 102 140 179 228 289 338 411
#
# _framework density 22.454145
#
# number of rings (size 3 to 8) (size 9 to 14) (size 15 to 20)
#    0.000    1.000    3.750    2.625    5.250    5.000 
#    2.250    0.000    0.000    0.000    0.000    0.000 
#    0.000    0.000    0.000    0.000    0.000    0.000 
#
# Total GULP energy -198481.237027 kJ/mol
# GULP energy per Si atom -12405.077314 kJ/mol
# Density = 2.240304 g / cm^3
# Si number density = 22.454145 Si / 1000 Ang^3
#
#
#
# Elastic Constant Matrix: (Units=GPa)
#
#
# Indices 1 2 3 4 5 6 
#
# 1 100.8737 52.5951 45.5815 -5.6951 -10.7798 7.6989
# 2 52.5951 71.4242 34.3200 -4.9399 0.7896 15.7534
# 3 45.5815 34.3200 97.8278 2.3330 9.4811 21.0131
# 4 -5.6951 -4.9399 2.3330 23.2693 -1.6679 -5.2635
# 5 -10.7798 0.7896 9.4811 -1.6679 39.5945 -5.5890
# 6 7.6989 15.7534 21.0131 -5.2635 -5.5890 24.9311
#
#
#
# Elastic Compliance Matrix: (Units=1/GPa)
#
#
# Indices 1 2 3 4 5 6 
#
# 1 0.022447 -0.014699 -0.009686 0.007437 0.011095 0.014577
# 2 -0.014699 0.027672 0.001359 -0.002030 -0.007243 -0.016144
# 3 -0.009686 0.001359 0.019430 -0.008939 -0.010296 -0.018440
# 4 0.007437 -0.002030 -0.008939 0.050240 0.009025 0.019151
# 5 0.011095 -0.007243 -0.010296 0.009025 0.033999 0.019356
# 6 0.014577 -0.016144 -0.018440 0.019151 0.019356 0.069734
#
#
# Mechanical properties :
#
#
# Convention : Reuss Voigt Hill
#
# Bulk Modulus (GPa) = 42.55756 59.45763 51.00759
# Shear Modulus (GPa) = 18.02413 26.73426 22.37919
#
# Velocity S-wave (km/s) = 2.83628 3.45427 3.16042
# Velocity P-wave (km/s) = 5.45163 6.51509 6.00694
#
# Compressibility (1/GPa) = 0.02349759
#
# Stress axis : x y z
#
# Youngs Moduli (GPa) = 44.54963 36.13754 51.46616
#
# Poissons Ratio (x) = 0.53117 0.49850
# Poissons Ratio (y) = 0.65482 -0.06993
# Poissons Ratio (z) = 0.43151 -0.04910
#
# Static dielectric constant tensor:
#      x y z
#    x 4.104060 0.122550 -0.037880 
#    y 0.122550 3.885580 0.050640 
#    z -0.037880 0.050640 4.097020 
# 
# 
# High freq. dielectric constant tensor:
#      x y z
#    x 1.894140 0.007160 -0.005080 
#    y 0.007160 1.876130 0.004950 
#    z -0.005080 0.004950 1.891120 
# 
# From -- ./inp_files/187028.got.cif
#   From: 2010.06.25/outbox.cif.g09.slc.cpg/sg2_94_cif.got.tgz:187028.got - 2010.06.27 13:26:56.
