data_PCOD8028134
_publ_section_title
;
Structure prediction by ZEFSAII (Michael W. Deem and Ramdas Pophale) SiO2 
 PCOD8028134
Probable space group: P -1
;
_chemical_formula_sum "Si O2"
_cell_formula_units_Z 16
_cell_length_a 8.301352
_cell_length_b 13.206364
_cell_length_c 14.408311
_cell_angle_alpha 115.171691
_cell_angle_beta 125.964109
_cell_angle_gamma 108.008290
_cell_volume 747.889526
_symmetry_space_group_name_H-M "P -1"
_symmetry_group_IT_number 2
_symmetry_cell_setting 'triclinic'
loop_
_space_group_symop_operation_xyz
x,y,z
-x,-y,-z
loop_
_atom_site_type_symbol
_atom_site_label
_atom_site_fract_x
_atom_site_fract_y
_atom_site_fract_z
Si Si1 0.947219 0.142929 0.157357
Si Si2 0.283118 0.415162 0.215300
Si Si3 0.925760 0.342015 0.896207
Si Si4 0.296250 0.771206 0.760288
Si Si5 0.787097 0.967028 0.489590
Si Si6 0.409918 0.228096 0.475651
Si Si7 0.058946 0.712901 0.322822
Si Si8 0.835560 0.529753 0.358237
O O1 0.855826 0.187140 0.226237
O O2 0.077418 0.268761 0.165709
O O3 0.207216 0.171315 0.295649
O O4 0.663065 0.946316 0.948723
O O5 0.372668 0.576531 0.343573
O O6 0.583423 0.470310 0.319941
O O7 0.088259 0.333910 0.023387
O O8 0.561935 0.169333 0.715138
O O9 0.061211 0.374136 0.852784
O O10 0.000000 0.500000 0.000000
O O11 0.213819 0.623847 0.732442
O O12 0.164631 0.699451 0.583542
O O13 0.811444 0.902216 0.565153
O O14 0.911146 0.142654 0.618015
O O15 0.000000 0.000000 0.500000
O O16 0.621613 0.212800 0.515809
O O17 0.816417 0.577978 0.269100
#
# Coordination Sequence:
#
# PCOD8028134 Si02
#       8
#     2   2   2   2   2   2   2   2
#     4  11  25  43  72  98 133 180 229 279 331 404
#     4  12  24  42  71 101 136 178 225 281 339 401
#     4  11  24  45  68 101 133 176 230 274 337 403
#     4  10  25  44  64 102 136 176 226 275 336 408
#     4  11  25  45  71  98 135 179 224 281 336 402
#     4  11  22  44  67 100 136 179 223 276 347 394
#     4  11  25  44  72  95 136 183 221 282 336 405
#     4  11  25  44  66  98 141 177 221 278 347 398
#
# _framework density 21.393533000000001
#
# number of rings (size 3 to 8) (size 9 to 14) (size 15 to 20)
#    0.000    1.000    3.750    3.375    5.250    4.000 
#    0.000    0.000    0.000    0.000    0.000    0.000 
#    0.000    0.000    0.000    0.000    0.000    0.000 
#
# Total GULP energy -198456.379904 kJ/mol
# GULP energy per Si atom -12403.523744 kJ/mol
# Density = 2.134484 g / cm^3
# Si number density = 21.393533 Si / 1000 Ang^3
#
#
#
# Elastic Constant Matrix: (Units=GPa)
#
#
# Indices 1 2 3 4 5 6 
#
# 1 74.9887 26.7222 30.8112 6.7734 -15.9842 3.4700
# 2 26.7222 150.7423 61.3734 -1.8823 -17.2876 10.8449
# 3 30.8112 61.3734 98.7347 -1.0446 -17.1842 -1.9410
# 4 6.7734 -1.8823 -1.0446 40.8438 -8.0143 0.4737
# 5 -15.9842 -17.2876 -17.1842 -8.0143 26.0496 2.8705
# 6 3.4700 10.8449 -1.9410 0.4737 2.8705 39.4896
#
#
#
# Elastic Compliance Matrix: (Units=1/GPa)
#
#
# Indices 1 2 3 4 5 6 
#
# 1 0.016828 -0.000500 -0.003723 -0.001450 0.007317 -0.002039
# 2 -0.000500 0.009439 -0.005207 0.001044 0.003180 -0.003048
# 3 -0.003723 -0.005207 0.015404 0.001668 0.004698 0.002153
# 4 -0.001450 0.001044 0.001668 0.026635 0.009216 -0.001067
# 5 0.007317 0.003180 0.004698 0.009216 0.051489 -0.005139
# 6 -0.002039 -0.003048 0.002153 -0.001067 -0.005139 0.026831
#
#
# Mechanical properties :
#
#
# Convention : Reuss Voigt Hill
#
# Bulk Modulus (GPa) = 43.83522 62.47549 53.15535
# Shear Modulus (GPa) = 28.88664 34.98053 31.93359
#
# Velocity S-wave (km/s) = 3.67856 4.04802 3.86771
# Velocity P-wave (km/s) = 6.21103 7.14948 6.69671
#
# Compressibility (1/GPa) = 0.02281271
#
# Stress axis : x y z
#
# Youngs Moduli (GPa) = 59.42509 105.93870 64.91771
#
# Poissons Ratio (x) = 0.05294 0.24166
# Poissons Ratio (y) = 0.02970 0.33803
# Poissons Ratio (z) = 0.22122 0.55162
#
# Static dielectric constant tensor:
#      x y z
#    x 3.817590 -0.031200 -0.024840 
#    y -0.031200 4.081290 -0.074600 
#    z -0.024840 -0.074600 3.823300 
# 
# 
# High freq. dielectric constant tensor:
#      x y z
#    x 1.844650 -0.003720 -0.004690 
#    y -0.003720 1.854900 0.000590 
#    z -0.004690 0.000590 1.836980 
# 
# From -- ./inp_files/186968.got.cif
#   From: 2010.06.25/outbox.cif.g09.slc.cpg/sg2_94_cif.got.tgz:186968.got - 2010.06.27 13:26:56.
