data_PCOD8028796
_publ_section_title
;
Structure prediction by ZEFSAII (Michael W. Deem and Ramdas Pophale) SiO2 
 PCOD8028796
Probable space group: P -1
;
_chemical_formula_sum "Si O2"
_cell_formula_units_Z 14
_cell_length_a 12.082476
_cell_length_b 11.493321
_cell_length_c 12.871499
_cell_angle_alpha 106.050243
_cell_angle_beta 147.653709
_cell_angle_gamma 97.627735
_cell_volume 644.949221
_symmetry_space_group_name_H-M "P -1"
_symmetry_group_IT_number 2
_symmetry_cell_setting 'triclinic'
loop_
_space_group_symop_operation_xyz
x,y,z
-x,-y,-z
loop_
_atom_site_type_symbol
_atom_site_label
_atom_site_fract_x
_atom_site_fract_y
_atom_site_fract_z
Si Si1 0.258599 0.001574 0.824520
Si Si2 0.314665 0.902549 0.226414
Si Si3 0.272486 0.616173 0.166562
Si Si4 0.327304 0.262741 0.813518
Si Si5 0.503167 0.163277 0.270128
Si Si6 0.651125 0.693326 0.661885
Si Si7 0.172968 0.427116 0.844125
O O1 0.326797 0.127855 0.821758
O O2 0.272739 0.059280 0.966879
O O3 0.924800 0.817103 0.493582
O O4 0.500000 0.000000 0.000000
O O5 0.284570 0.746292 0.143451
O O6 0.500000 0.000000 0.500000
O O7 0.472322 0.032648 0.286909
O O8 0.999839 0.831848 0.976843
O O9 0.568226 0.722678 0.494548
O O10 0.237108 0.489793 0.029150
O O11 0.000000 0.500000 0.000000
O O12 0.275466 0.331581 0.886223
O O13 0.645986 0.413924 0.052548
O O14 0.457302 0.269620 0.319977
O O15 0.829368 0.299155 0.514091
O O16 0.500000 0.500000 0.500000
#
# Coordination Sequence:
#
# PCOD8028796 Si02
#       7
#     2   2   2   2   2   2   2
#     4  11  25  48  70 101 137 173 242 290 350 408
#     4  12  26  45  70 102 147 182 230 288 346 426
#     4  12  24  45  70 102 145 182 228 292 347 425
#     4  10  26  48  72  98 137 189 228 300 342 407
#     4  12  26  44  73 103 137 190 228 292 350 418
#     4  12  26  46  68 106 141 186 235 280 357 425
#     4  11  24  47  69 101 140 184 234 279 356 410
#
# _framework density 21.707134
#
# number of rings (size 3 to 8) (size 9 to 14) (size 15 to 20)
#    0.000    0.571    5.714    0.429    6.000    0.571 
#    0.000    0.000    0.000    0.000    0.000    0.000 
#    0.000    0.000    0.000    0.000    0.000    0.000 
#
# Total GULP energy -173679.704009 kJ/mol
# GULP energy per Si atom -12405.693143 kJ/mol
# Density = 2.165773 g / cm^3
# Si number density = 21.707134 Si / 1000 Ang^3
#
#
#
# Elastic Constant Matrix: (Units=GPa)
#
#
# Indices 1 2 3 4 5 6 
#
# 1 135.6498 44.5606 59.8958 6.5856 -10.0175 -7.6049
# 2 44.5606 122.1792 51.5521 2.3071 9.2683 -4.3076
# 3 59.8958 51.5521 145.1168 -1.4223 2.5324 11.0075
# 4 6.5856 2.3071 -1.4223 35.8582 2.1527 0.7661
# 5 -10.0175 9.2683 2.5324 2.1527 47.7347 6.4422
# 6 -7.6049 -4.3076 11.0075 0.7661 6.4422 31.2496
#
#
#
# Elastic Compliance Matrix: (Units=1/GPa)
#
#
# Indices 1 2 3 4 5 6 
#
# 1 0.010184 -0.002183 -0.003721 -0.002089 0.002443 0.003036
# 2 -0.002183 0.010541 -0.002992 -0.000290 -0.002675 0.002534
# 3 -0.003721 -0.002992 0.009870 0.001378 -0.000138 -0.004800
# 4 -0.002089 -0.000290 0.001378 0.028468 -0.001549 -0.001413
# 5 0.002443 -0.002675 -0.000138 -0.001549 0.022646 -0.004356
# 6 0.003036 0.002534 -0.004800 -0.001413 -0.004356 0.035712
#
#
# Mechanical properties :
#
#
# Convention : Reuss Voigt Hill
#
# Bulk Modulus (GPa) = 78.11037 79.44030 78.77534
# Shear Modulus (GPa) = 35.84708 39.43099 37.63903
#
# Velocity S-wave (km/s) = 4.06815 4.26666 4.16859
# Velocity P-wave (km/s) = 7.62419 7.80695 7.71611
#
# Compressibility (1/GPa) = 0.01280240
#
# Stress axis : x y z
#
# Youngs Moduli (GPa) = 98.19119 94.86708 101.31838
#
# Poissons Ratio (x) = 0.20709 0.37704
# Poissons Ratio (y) = 0.21435 0.30315
# Poissons Ratio (z) = 0.36540 0.28385
#
# Static dielectric constant tensor:
#      x y z
#    x 3.967930 -0.151460 -0.089110 
#    y -0.151460 4.308480 0.042840 
#    z -0.089110 0.042840 4.276360 
# 
# 
# High freq. dielectric constant tensor:
#      x y z
#    x 1.855640 -0.011140 -0.001920 
#    y -0.011140 1.856520 0.009610 
#    z -0.001920 0.009610 1.867610 
# 
# From -- ./inp_files/61055.got.cif
#   From: 2010.06.25/outbox.cif.g09.slc.cpg/sg2_31_cif.got.tgz:61055.got - 2010.06.27 13:26:56.
