data_PCOD8028931
_publ_section_title
;
Structure prediction by ZEFSAII (Michael W. Deem and Ramdas Pophale) SiO2 
 PCOD8028931
Probable space group: P -1
;
_chemical_formula_sum "Si O2"
_cell_formula_units_Z 14
_cell_length_a 25.060240
_cell_length_b 8.154749
_cell_length_c 8.727309
_cell_angle_alpha 121.542949
_cell_angle_beta 44.979213
_cell_angle_gamma 147.894209
_cell_volume 656.158227
_symmetry_space_group_name_H-M "P -1"
_symmetry_group_IT_number 2
_symmetry_cell_setting 'triclinic'
loop_
_space_group_symop_operation_xyz
x,y,z
-x,-y,-z
loop_
_atom_site_type_symbol
_atom_site_label
_atom_site_fract_x
_atom_site_fract_y
_atom_site_fract_z
Si Si1 0.184554 0.622714 0.615209
Si Si2 0.180447 0.653164 0.969620
Si Si3 0.222553 0.403826 0.948560
Si Si4 0.108089 0.842473 0.722926
Si Si5 0.355127 0.686805 0.133100
Si Si6 0.015005 0.946854 0.607774
Si Si7 0.215968 0.080896 0.298227
O O1 0.103439 0.612851 0.679140
O O2 0.294241 0.762909 0.353831
O O3 0.101610 0.277408 0.679714
O O4 0.227834 0.805060 0.776687
O O5 0.027899 0.351217 0.140192
O O6 0.241544 0.927615 0.096485
O O7 0.252746 0.595534 0.832006
O O8 0.167941 0.087489 0.859307
O O9 0.321100 0.577739 0.970028
O O10 0.117323 0.340995 0.189871
O O11 0.208991 0.059074 0.486342
O O12 0.315229 0.433090 0.202683
O O13 0.500000 0.000000 0.000000
O O14 0.077755 0.866134 0.424654
O O15 0.000000 0.000000 0.500000
#
# Coordination Sequence:
#
# PCOD8028931 Si02
#       7
#     2   2   2   2   2   2   2
#     4  11  23  38  61  94 131 163 208 250 311 378
#     4  12  23  36  63 103 137 162 194 250 327 390
#     4  12  22  38  62  93 130 166 209 250 311 376
#     4  12  23  36  63 103 137 162 194 250 327 390
#     4  11  26  48  66  84 121 171 221 268 304 353
#     4  11  19  34  57  89 128 164 198 254 313 373
#     4  11  23  38  61  94 131 163 208 250 311 378
#
# _framework density 21.336317000000001
#
# number of rings (size 3 to 8) (size 9 to 14) (size 15 to 20)
#    0.000    0.571    5.714    5.571    0.000    0.000 
#    0.000    8.571    0.000    0.000    0.000    0.000 
#    0.000    0.000    0.000    0.000    0.000    0.000 
#
# Total GULP energy -173450.115960 kJ/mol
# GULP energy per Si atom -12389.293997 kJ/mol
# Density = 2.128775 g / cm^3
# Si number density = 21.336317 Si / 1000 Ang^3
#
#
#
# Elastic Constant Matrix: (Units=GPa)
#
#
# Indices 1 2 3 4 5 6 
#
# 1 85.3458 26.1108 15.4859 -2.3638 12.8185 -3.2916
# 2 26.1108 75.8905 30.6239 -0.1398 -1.9925 10.7469
# 3 15.4859 30.6239 68.2820 10.2252 11.4932 12.2184
# 4 -2.3638 -0.1398 10.2252 27.4996 -2.3956 -2.0215
# 5 12.8185 -1.9925 11.4932 -2.3956 36.4504 5.1650
# 6 -3.2916 10.7469 12.2184 -2.0215 5.1650 34.2192
#
#
#
# Elastic Compliance Matrix: (Units=1/GPa)
#
#
# Indices 1 2 3 4 5 6 
#
# 1 0.014600 -0.005418 -0.000919 0.001397 -0.005669 0.004372
# 2 -0.005418 0.019073 -0.008016 0.002834 0.006289 -0.004431
# 3 -0.000919 -0.008016 0.021866 -0.009212 -0.006924 -0.004878
# 4 0.001397 0.002834 -0.009212 0.040639 0.004639 0.004234
# 5 -0.005669 0.006289 -0.006924 0.004639 0.032932 -0.004745
# 6 0.004372 -0.004431 -0.004878 0.004234 -0.004745 0.033744
#
#
# Mechanical properties :
#
#
# Convention : Reuss Voigt Hill
#
# Bulk Modulus (GPa) = 37.26449 41.55105 39.40777
# Shear Modulus (GPa) = 24.93717 30.12035 27.52876
#
# Velocity S-wave (km/s) = 3.42243 3.76133 3.59587
# Velocity P-wave (km/s) = 5.75505 6.19516 5.97916
#
# Compressibility (1/GPa) = 0.02683520
#
# Stress axis : x y z
#
# Youngs Moduli (GPa) = 68.49313 52.42924 45.73284
#
# Poissons Ratio (x) = 0.28406 0.04201
# Poissons Ratio (y) = 0.37109 0.36657
# Poissons Ratio (z) = 0.06292 0.42025
#
# Static dielectric constant tensor:
#      x y z
#    x 3.799940 0.198050 0.377260 
#    y 0.198050 2.328870 -0.196570 
#    z 0.377260 -0.196570 3.737860 
# 
# 
# High freq. dielectric constant tensor:
#      x y z
#    x 1.848490 -0.025090 0.025100 
#    y -0.025090 1.797910 0.036120 
#    z 0.025100 0.036120 1.833860 
# 
# From -- ./inp_files/171114.got.cif
#   From: 2010.06.25/outbox.cif.g09.slc.cpg/sg2_86_cif.got.tgz:171114.got - 2010.06.27 13:26:56.
