data_PCOD8028752
_publ_section_title
;
Structure prediction by ZEFSAII (Michael W. Deem and Ramdas Pophale) SiO2 
 PCOD8028752
Probable space group: P -1
;
_chemical_formula_sum "Si O2"
_cell_formula_units_Z 16
_cell_length_a 20.681722
_cell_length_b 17.853396
_cell_length_c 8.889297
_cell_angle_alpha 38.149462
_cell_angle_beta 139.894678
_cell_angle_gamma 159.063518
_cell_volume 717.600933
_symmetry_space_group_name_H-M "P -1"
_symmetry_group_IT_number 2
_symmetry_cell_setting 'triclinic'
loop_
_space_group_symop_operation_xyz
x,y,z
-x,-y,-z
loop_
_atom_site_type_symbol
_atom_site_label
_atom_site_fract_x
_atom_site_fract_y
_atom_site_fract_z
Si Si1 0.704152 0.932481 0.894694
Si Si2 0.864447 0.136567 0.169743
Si Si3 0.724718 0.451647 0.713843
Si Si4 0.433303 0.007634 0.015857
Si Si5 0.981022 0.787414 0.205680
Si Si6 0.559799 0.534338 0.223132
Si Si7 0.350588 0.701438 0.507675
Si Si8 0.837739 0.894138 0.697128
O O1 0.512707 0.789158 0.725497
O O2 0.672114 0.758211 0.138676
O O3 0.853651 0.107131 0.755754
O O4 0.766632 0.059046 0.958764
O O5 0.074369 0.387329 0.133721
O O6 0.865806 0.994371 0.434109
O O7 0.759014 0.110824 0.150616
O O8 0.703626 0.571585 0.444697
O O9 0.672300 0.332008 0.657551
O O10 0.590968 0.270559 0.896934
O O11 0.407653 0.902200 0.291810
O O12 0.500000 0.000000 0.000000
O O13 0.835063 0.531564 0.374586
O O14 0.898827 0.815864 0.916716
O O15 0.047286 0.912992 0.280694
O O16 0.377131 0.318313 0.325165
O O17 0.500000 0.500000 0.000000
#
# Coordination Sequence:
#
# PCOD8028752 Si02
#       8
#     2   2   2   2   2   2   2   2
#     4  12  27  41  68 104 143 175 218 280 348 400
#     4  12  27  45  65 106 141 171 222 288 343 396
#     4  11  22  43  73 100 135 176 227 279 333 397
#     4  10  26  46  72  99 129 178 236 285 328 395
#     4  11  22  40  69 103 133 178 224 272 334 403
#     4  12  20  40  71 102 136 178 222 267 332 410
#     4  11  23  44  70  95 129 184 234 275 323 404
#     4  11  21  40  70  98 138 176 222 274 330 408
#
# _framework density 22.296514999999999
#
# number of rings (size 3 to 8) (size 9 to 14) (size 15 to 20)
#    0.000    0.750    6.250    0.750    1.750    7.000 
#    0.000    1.250    0.000    0.000    0.000    0.000 
#    0.000    0.000    0.000    0.000    0.000    0.000 
#
# Total GULP energy -198240.531229 kJ/mol
# GULP energy per Si atom -12390.033202 kJ/mol
# Density = 2.224577 g / cm^3
# Si number density = 22.296515 Si / 1000 Ang^3
#
#
#
# Elastic Constant Matrix: (Units=GPa)
#
#
# Indices 1 2 3 4 5 6 
#
# 1 51.4874 43.6126 8.1957 -4.2311 5.8474 10.4837
# 2 43.6126 154.1815 60.9049 -1.5452 -3.7822 34.1975
# 3 8.1957 60.9049 106.0172 -21.7292 4.1682 -1.0660
# 4 -4.2311 -1.5452 -21.7292 46.3152 1.9468 -12.6045
# 5 5.8474 -3.7822 4.1682 1.9468 26.6030 4.6999
# 6 10.4837 34.1975 -1.0660 -12.6045 4.6999 37.6823
#
#
#
# Elastic Compliance Matrix: (Units=1/GPa)
#
#
# Indices 1 2 3 4 5 6 
#
# 1 0.030265 -0.013994 0.008134 0.009095 -0.012184 0.009072
# 2 -0.013994 0.021563 -0.014997 -0.014307 0.013526 -0.022573
# 3 0.008134 -0.014997 0.021311 0.015824 -0.011722 0.018705
# 4 0.009095 -0.014307 0.015824 0.036710 -0.013594 0.024876
# 5 -0.012184 0.013526 -0.011722 -0.013594 0.048523 -0.019816
# 6 0.009072 -0.022573 0.018705 0.024876 -0.019816 0.055821
#
#
# Mechanical properties :
#
#
# Convention : Reuss Voigt Hill
#
# Bulk Modulus (GPa) = 31.82075 59.67915 45.74995
# Shear Modulus (GPa) = 18.76994 35.38496 27.07745
#
# Velocity S-wave (km/s) = 2.90458 3.98806 3.48864
# Velocity P-wave (km/s) = 5.05484 6.93040 6.06555
#
# Compressibility (1/GPa) = 0.03142604
#
# Stress axis : x y z
#
# Youngs Moduli (GPa) = 33.04146 46.37474 46.92303
#
# Poissons Ratio (x) = 0.64896 -0.38167
# Poissons Ratio (y) = 0.46238 0.70371
# Poissons Ratio (z) = -0.26876 0.69548
#
# Static dielectric constant tensor:
#      x y z
#    x 3.770480 0.144560 0.251690 
#    y 0.144560 4.056470 -0.181060 
#    z 0.251690 -0.181060 4.188180 
# 
# 
# High freq. dielectric constant tensor:
#      x y z
#    x 1.846480 0.026680 0.011380 
#    y 0.026680 1.890040 -0.016370 
#    z 0.011380 -0.016370 1.887730 
# 
# From -- ./inp_files/207172.got.cif
#   From: 2010.06.25/outbox.cif.g09.slc.cpg/sg2_104_cif.got.tgz:207172.got - 2010.06.27 13:26:56.
