data_PCOD8028428
_publ_section_title
;
Structure prediction by ZEFSAII (Michael W. Deem and Ramdas Pophale) SiO2 
 PCOD8028428
Probable space group: P -1
;
_chemical_formula_sum "Si O2"
_cell_formula_units_Z 14
_cell_length_a 8.605267
_cell_length_b 17.137104
_cell_length_c 11.899875
_cell_angle_alpha 41.959463
_cell_angle_beta 128.552447
_cell_angle_gamma 147.048608
_cell_volume 638.195167
_symmetry_space_group_name_H-M "P -1"
_symmetry_group_IT_number 2
_symmetry_cell_setting 'triclinic'
loop_
_space_group_symop_operation_xyz
x,y,z
-x,-y,-z
loop_
_atom_site_type_symbol
_atom_site_label
_atom_site_fract_x
_atom_site_fract_y
_atom_site_fract_z
Si Si1 0.762330 0.697744 0.887873
Si Si2 0.730723 0.513181 0.645386
Si Si3 0.460422 0.195795 0.989666
Si Si4 0.100645 0.651735 0.453026
Si Si5 0.995242 0.161777 0.920629
Si Si6 0.919222 0.239675 0.261617
Si Si7 0.286847 0.089835 0.468828
O O1 0.654703 0.786948 0.731360
O O2 0.929832 0.730470 0.818077
O O3 0.500000 0.500000 0.000000
O O4 0.980206 0.785366 0.996540
O O5 0.500000 0.500000 0.500000
O O6 0.590667 0.330212 0.806499
O O7 0.994577 0.599462 0.589360
O O8 0.840670 0.616507 0.698971
O O9 0.243073 0.174714 0.991981
O O10 0.696980 0.248675 0.126175
O O11 0.311136 0.025881 0.039105
O O12 0.963867 0.709753 0.277499
O O13 0.443706 0.799027 0.444827
O O14 0.000000 0.500000 0.500000
O O15 0.757273 0.060151 0.437892
O O16 0.000000 0.000000 0.500000
#
# Coordination Sequence:
#
# PCOD8028428 Si02
#       7
#     2   2   2   2   2   2   2
#     4  11  25  43  72 102 140 183 233 293 345 419
#     4  12  28  45  72 104 143 186 235 298 356 419
#     4  11  25  47  69 105 144 184 233 293 350 427
#     4  12  27  47  73 105 142 187 240 293 356 424
#     4  11  25  46  72 104 142 186 237 285 356 416
#     4  11  26  47  71  99 144 187 235 284 360 421
#     4  10  25  46  70 102 141 188 233 293 352 424
#
# _framework density 21.936862999999999
#
# number of rings (size 3 to 8) (size 9 to 14) (size 15 to 20)
#    0.000    0.857    2.857    2.143   12.000    2.286 
#    0.000    0.000    0.000    0.000    0.000    0.000 
#    0.000    0.000    0.000    0.000    0.000    0.000 
#
# Total GULP energy -173652.690454 kJ/mol
# GULP energy per Si atom -12403.763604 kJ/mol
# Density = 2.188693 g / cm^3
# Si number density = 21.936863 Si / 1000 Ang^3
#
#
#
# Elastic Constant Matrix: (Units=GPa)
#
#
# Indices 1 2 3 4 5 6 
#
# 1 88.6376 45.7448 33.6187 5.1015 -9.4133 -3.1745
# 2 45.7448 150.7790 52.0419 4.7384 -2.3580 -9.9090
# 3 33.6187 52.0419 154.2905 -12.3739 12.2915 -4.8269
# 4 5.1015 4.7384 -12.3739 49.0220 -4.1181 5.4641
# 5 -9.4133 -2.3580 12.2915 -4.1181 38.5016 10.3009
# 6 -3.1745 -9.9090 -4.8269 5.4641 10.3009 38.6041
#
#
#
# Elastic Compliance Matrix: (Units=1/GPa)
#
#
# Indices 1 2 3 4 5 6 
#
# 1 0.014516 -0.003513 -0.002451 -0.001328 0.004230 -0.000955
# 2 -0.003513 0.008601 -0.002153 -0.001245 -0.000287 0.001902
# 3 -0.002451 -0.002153 0.008209 0.002158 -0.003351 0.000861
# 4 -0.001328 -0.001245 0.002158 0.021823 0.002276 -0.003855
# 5 0.004230 -0.000287 -0.003351 0.002276 0.030613 -0.008636
# 6 -0.000955 0.001902 0.000861 -0.003855 -0.008636 0.029271
#
#
# Mechanical properties :
#
#
# Convention : Reuss Voigt Hill
#
# Bulk Modulus (GPa) = 66.26573 72.94644 69.60608
# Shear Modulus (GPa) = 37.23053 42.71231 39.97142
#
# Velocity S-wave (km/s) = 4.12414 4.41733 4.27325
# Velocity P-wave (km/s) = 7.27675 7.70339 7.49311
#
# Compressibility (1/GPa) = 0.01509076
#
# Stress axis : x y z
#
# Youngs Moduli (GPa) = 68.88929 116.26819 121.82273
#
# Poissons Ratio (x) = 0.40842 0.29864
# Poissons Ratio (y) = 0.24199 0.26230
# Poissons Ratio (z) = 0.16888 0.25034
#
# Static dielectric constant tensor:
#      x y z
#    x 3.825340 0.001230 0.255380 
#    y 0.001230 4.136520 -0.235930 
#    z 0.255380 -0.235930 4.573650 
# 
# 
# High freq. dielectric constant tensor:
#      x y z
#    x 1.854470 0.002920 0.014130 
#    y 0.002920 1.877080 -0.006960 
#    z 0.014130 -0.006960 1.882590 
# 
# From -- ./inp_files/157471.got.cif
#   From: 2010.06.25/outbox.cif.g09.slc.cpg/sg2_79_cif.got.tgz:157471.got - 2010.06.27 13:26:56.
