data_PCOD8028251
_publ_section_title
;
Structure prediction by ZEFSAII (Michael W. Deem and Ramdas Pophale) SiO2 
 PCOD8028251
Probable space group: P -1
;
_chemical_formula_sum "Si O2"
_cell_formula_units_Z 16
_cell_length_a 8.165028
_cell_length_b 15.102086
_cell_length_c 8.896833
_cell_angle_alpha 79.901495
_cell_angle_beta 133.846895
_cell_angle_gamma 113.324009
_cell_volume 718.383479
_symmetry_space_group_name_H-M "P -1"
_symmetry_group_IT_number 2
_symmetry_cell_setting 'triclinic'
loop_
_space_group_symop_operation_xyz
x,y,z
-x,-y,-z
loop_
_atom_site_type_symbol
_atom_site_label
_atom_site_fract_x
_atom_site_fract_y
_atom_site_fract_z
Si Si1 0.976140 0.876119 0.384261
Si Si2 0.087031 0.089042 0.321966
Si Si3 0.485843 0.665633 0.743976
Si Si4 0.977674 0.223261 0.004588
Si Si5 0.363226 0.824434 0.482864
Si Si6 0.070821 0.598966 0.926280
Si Si7 0.183783 0.467372 0.531193
Si Si8 0.407641 0.329730 0.862286
O O1 0.249797 0.879811 0.512985
O O2 0.913076 0.869275 0.523059
O O3 0.766997 0.783732 0.201986
O O4 0.953295 0.972385 0.272426
O O5 0.354368 0.117070 0.405346
O O6 0.917344 0.132487 0.107374
O O7 0.311720 0.719806 0.558493
O O8 0.428801 0.567800 0.635384
O O9 0.446486 0.629354 0.901758
O O10 0.751282 0.751689 0.891167
O O11 0.781441 0.192849 0.759040
O O12 0.019847 0.325360 0.076629
O O13 0.940994 0.579008 0.688622
O O14 0.366274 0.652041 0.110643
O O15 0.000000 0.500000 0.000000
O O16 0.245256 0.388352 0.688400
O O17 0.000000 0.500000 0.500000
#
# Coordination Sequence:
#
# PCOD8028251 Si02
#       8
#     2   2   2   2   2   2   2   2
#     4  11  23  46  71  96 139 176 224 282 338 394
#     4  10  25  45  66 105 135 173 227 282 332 404
#     4  11  24  41  68  97 130 174 224 273 323 402
#     4  11  24  44  67  97 138 172 224 277 335 396
#     4  11  23  45  70  99 135 182 220 275 341 399
#     4  12  27  42  67 100 135 175 218 280 337 391
#     4  12  25  41  67  94 131 174 221 269 329 400
#     4  12  25  43  68  99 129 175 229 270 327 407
#
# _framework density 22.272227999999998
#
# number of rings (size 3 to 8) (size 9 to 14) (size 15 to 20)
#    0.000    0.750    2.500    4.500    3.500    4.500 
#    2.250    1.875    0.000    0.000    0.000    0.000 
#    0.000    0.000    0.000    0.000    0.000    0.000 
#
# Total GULP energy -198279.495566 kJ/mol
# GULP energy per Si atom -12392.468473 kJ/mol
# Density = 2.222154 g / cm^3
# Si number density = 22.272228 Si / 1000 Ang^3
#
#
#
# Elastic Constant Matrix: (Units=GPa)
#
#
# Indices 1 2 3 4 5 6 
#
# 1 96.4022 25.1096 26.0495 -6.4751 -5.7554 0.5588
# 2 25.1096 156.5915 61.7475 -22.7444 -2.1586 -2.1793
# 3 26.0495 61.7475 116.4844 -27.5075 1.6738 4.4630
# 4 -6.4751 -22.7444 -27.5075 39.1107 6.1579 -1.0322
# 5 -5.7554 -2.1586 1.6738 6.1579 20.4009 5.8534
# 6 0.5588 -2.1793 4.4630 -1.0322 5.8534 32.8993
#
#
#
# Elastic Compliance Matrix: (Units=1/GPa)
#
#
# Indices 1 2 3 4 5 6 
#
# 1 0.011417 -0.001033 -0.002247 -0.000899 0.003755 -0.000654
# 2 -0.001033 0.008346 -0.003743 0.002091 -0.000064 0.001155
# 3 -0.002247 -0.003743 0.012837 0.007070 -0.003921 -0.001032
# 4 -0.000899 0.002091 0.007070 0.033456 -0.011361 0.002266
# 5 0.003755 -0.000064 -0.003921 -0.011361 0.056684 -0.009978
# 6 -0.000654 0.001155 -0.001032 0.002266 -0.009978 0.032470
#
#
# Mechanical properties :
#
#
# Convention : Reuss Voigt Hill
#
# Bulk Modulus (GPa) = 53.89431 66.14348 60.01889
# Shear Modulus (GPa) = 28.49960 35.58694 32.04327
#
# Velocity S-wave (km/s) = 3.58103 4.00161 3.79715
# Velocity P-wave (km/s) = 6.43031 7.14931 6.79932
#
# Compressibility (1/GPa) = 0.01855484
#
# Stress axis : x y z
#
# Youngs Moduli (GPa) = 87.58926 119.81091 77.90005
#
# Poissons Ratio (x) = 0.12372 0.17505
# Poissons Ratio (y) = 0.09044 0.29159
# Poissons Ratio (z) = 0.19682 0.44847
#
# Static dielectric constant tensor:
#      x y z
#    x 4.257850 0.020510 0.004530 
#    y 0.020510 4.277350 -0.096170 
#    z 0.004530 -0.096170 4.096780 
# 
# 
# High freq. dielectric constant tensor:
#      x y z
#    x 1.883020 0.004460 0.002110 
#    y 0.004460 1.891290 -0.008310 
#    z 0.002110 -0.008310 1.880950 
# 
# From -- ./inp_files/48904.got.cif
#   From: 2010.06.25/outbox.cif.g09.slc.cpg/sg2_25_cif.got.tgz:48904.got - 2010.06.27 13:26:56.
