data_PCOD8028618
_publ_section_title
;
Structure prediction by ZEFSAII (Michael W. Deem and Ramdas Pophale) SiO2 
 PCOD8028618
Probable space group: P -1
;
_chemical_formula_sum "Si O2"
_cell_formula_units_Z 14
_cell_length_a 10.868348
_cell_length_b 6.887104
_cell_length_c 8.229794
_cell_angle_alpha 73.499241
_cell_angle_beta 90.593012
_cell_angle_gamma 85.079331
_cell_volume 588.076603
_symmetry_space_group_name_H-M "P -1"
_symmetry_group_IT_number 2
_symmetry_cell_setting 'triclinic'
loop_
_space_group_symop_operation_xyz
x,y,z
-x,-y,-z
loop_
_atom_site_type_symbol
_atom_site_label
_atom_site_fract_x
_atom_site_fract_y
_atom_site_fract_z
Si Si1 0.208388 0.041667 0.266432
Si Si2 0.423264 0.466115 0.666115
Si Si3 0.673958 0.331012 0.819177
Si Si4 0.098088 0.356077 0.938797
Si Si5 0.760872 0.290150 0.197029
Si Si6 0.757961 0.688222 0.522800
Si Si7 0.051779 0.111282 0.694859
O O1 0.304328 0.883216 0.218147
O O2 0.081664 0.949997 0.346160
O O3 0.279385 0.120258 0.405356
O O4 0.181698 0.229807 0.100607
O O5 0.500000 0.500000 0.500000
O O6 0.525174 0.379006 0.819043
O O7 0.356173 0.678465 0.688315
O O8 0.327124 0.306166 0.642605
O O9 0.748126 0.483293 0.674476
O O10 0.725253 0.315808 0.003340
O O11 0.174033 0.508169 0.800088
O O12 0.037418 0.196487 0.858488
O O13 0.000000 0.500000 0.000000
O O14 0.845269 0.081859 0.271692
O O15 0.899864 0.713377 0.461844
#
# Coordination Sequence:
#
# PCOD8028618 Si02
#       7
#     2   2   2   2   2   2   2
#     4  12  25  43  71 109 140 185 230 285 353 423
#     4  10  25  49  70 100 140 189 235 295 344 400
#     4  11  25  47  72 100 143 180 240 290 343 414
#     4  12  23  44  71 104 146 182 228 286 347 421
#     4  12  23  47  74 101 141 182 239 289 344 416
#     4  11  26  45  66 103 144 186 228 286 348 410
#     4  12  26  43  71 109 139 185 232 283 360 417
#
# _framework density 23.806424
#
# number of rings (size 3 to 8) (size 9 to 14) (size 15 to 20)
#    0.000    0.571    5.714    2.143    4.000    1.143 
#    2.571    1.429    0.000    0.000    0.000    0.000 
#    0.000    0.000    0.000    0.000    0.000    0.000 
#
# Total GULP energy -173491.124457 kJ/mol
# GULP energy per Si atom -12392.223175 kJ/mol
# Density = 2.375224 g / cm^3
# Si number density = 23.806424 Si / 1000 Ang^3
#
#
#
# Elastic Constant Matrix: (Units=GPa)
#
#
# Indices 1 2 3 4 5 6 
#
# 1 61.8719 47.7331 11.8422 14.3450 1.1002 -15.8652
# 2 47.7331 153.9616 32.3221 29.5431 -0.3108 -19.3138
# 3 11.8422 32.3221 69.1416 12.8635 -5.2128 1.1904
# 4 14.3450 29.5431 12.8635 24.2503 1.4734 -11.9593
# 5 1.1002 -0.3108 -5.2128 1.4734 38.7225 7.4867
# 6 -15.8652 -19.3138 1.1904 -11.9593 7.4867 44.6141
#
#
#
# Elastic Compliance Matrix: (Units=1/GPa)
#
#
# Indices 1 2 3 4 5 6 
#
# 1 0.022773 -0.005553 -0.000824 -0.003707 -0.001627 0.004996
# 2 -0.005553 0.010260 -0.002405 -0.007731 0.000126 0.000438
# 3 -0.000824 -0.002405 0.017659 -0.008479 0.003610 -0.004684
# 4 -0.003707 -0.007731 -0.008479 0.064592 -0.006248 0.013924
# 5 -0.001627 0.000126 0.003610 -0.006248 0.027946 -0.006985
# 6 0.004996 0.000438 -0.004684 0.013924 -0.006985 0.029410
#
#
# Mechanical properties :
#
#
# Convention : Reuss Voigt Hill
#
# Bulk Modulus (GPa) = 30.18499 52.08554 41.13526
# Shear Modulus (GPa) = 24.84512 34.38923 29.61717
#
# Velocity S-wave (km/s) = 3.23403 3.80483 3.53098
# Velocity P-wave (km/s) = 5.16257 6.42095 5.82584
#
# Compressibility (1/GPa) = 0.03312905
#
# Stress axis : x y z
#
# Youngs Moduli (GPa) = 43.91071 97.46386 56.62925
#
# Poissons Ratio (x) = 0.54120 0.04665
# Poissons Ratio (y) = 0.24383 0.13620
# Poissons Ratio (z) = 0.03617 0.23441
#
# Static dielectric constant tensor:
#      x y z
#    x 4.749050 -0.048870 0.355920 
#    y -0.048870 4.372430 0.313720 
#    z 0.355920 0.313720 4.404670 
# 
# 
# High freq. dielectric constant tensor:
#      x y z
#    x 1.934260 0.003700 -0.005520 
#    y 0.003700 1.954720 0.025220 
#    z -0.005520 0.025220 1.950590 
# 
# From -- ./inp_files/27263.got.cif
#   From: 2010.06.25/outbox.cif.g09.slc.cpg/sg2_14_cif.got.tgz:27263.got - 2010.06.27 13:26:56.
