data_PCOD8028565
_publ_section_title
;
Structure prediction by ZEFSAII (Michael W. Deem and Ramdas Pophale) SiO2 
 PCOD8028565
Probable space group: P -1
;
_chemical_formula_sum "Si O2"
_cell_formula_units_Z 14
_cell_length_a 20.736532
_cell_length_b 5.576320
_cell_length_c 8.489619
_cell_angle_alpha 63.828080
_cell_angle_beta 139.778150
_cell_angle_gamma 121.849815
_cell_volume 537.171270
_symmetry_space_group_name_H-M "P -1"
_symmetry_group_IT_number 2
_symmetry_cell_setting 'triclinic'
loop_
_space_group_symop_operation_xyz
x,y,z
-x,-y,-z
loop_
_atom_site_type_symbol
_atom_site_label
_atom_site_fract_x
_atom_site_fract_y
_atom_site_fract_z
Si Si1 0.787470 0.964076 0.547561
Si Si2 0.987198 0.087350 0.703813
Si Si3 0.522489 0.920881 0.391467
Si Si4 0.093247 0.713007 0.816331
Si Si5 0.386357 0.524086 0.771415
Si Si6 0.265772 0.114732 0.182179
Si Si7 0.303123 0.613422 0.908374
O O1 0.683819 0.694323 0.419547
O O2 0.795303 0.010281 0.735310
O O3 0.894477 0.918089 0.700970
O O4 0.772448 0.219887 0.342821
O O5 0.932615 0.183553 0.428331
O O6 0.059133 0.370588 0.851458
O O7 0.043088 0.861952 0.817636
O O8 0.604207 0.743490 0.611579
O O9 0.500000 0.000000 0.500000
O O10 0.602842 0.170870 0.365307
O O11 0.414962 0.808450 0.128430
O O12 0.220216 0.850898 0.049681
O O13 0.330755 0.454207 0.856679
O O14 0.500000 0.500000 0.000000
O O15 0.235161 0.381362 0.975473
#
# Coordination Sequence:
#
# PCOD8028565 Si02
#       7
#     2   2   2   2   2   2   2
#     4  12  27  46  75 108 145 197 246 305 379 446
#     4  10  25  47  79 108 149 199 249 312 387 448
#     4  12  25  44  71 108 151 193 246 307 369 449
#     4  10  25  48  78 111 148 196 254 313 379 453
#     4  12  23  44  72 100 146 198 243 298 369 444
#     4  12  27  46  73 110 146 194 250 311 372 446
#     4  12  26  47  70 103 152 193 243 302 372 451
#
# _framework density 26.062450999999999
#
# number of rings (size 3 to 8) (size 9 to 14) (size 15 to 20)
#    0.000    0.571    2.857    4.286   10.000    2.286 
#    0.000    0.000    0.000    0.000    0.000    0.000 
#    0.000    0.000    0.000    0.000    0.000    0.000 
#
# Total GULP energy -173507.092082 kJ/mol
# GULP energy per Si atom -12393.363720 kJ/mol
# Density = 2.600313 g / cm^3
# Si number density = 26.062451 Si / 1000 Ang^3
#
#
#
# Elastic Constant Matrix: (Units=GPa)
#
#
# Indices 1 2 3 4 5 6 
#
# 1 123.5662 31.8660 29.3200 -4.1071 2.0860 -0.6739
# 2 31.8660 107.5316 27.4910 8.1571 -16.1711 1.2211
# 3 29.3200 27.4910 95.4707 12.2022 -19.5864 9.7998
# 4 -4.1071 8.1571 12.2022 48.6377 2.5311 -3.4517
# 5 2.0860 -16.1711 -19.5864 2.5311 36.3076 -0.7398
# 6 -0.6739 1.2211 9.7998 -3.4517 -0.7398 38.3463
#
#
#
# Elastic Compliance Matrix: (Units=1/GPa)
#
#
# Indices 1 2 3 4 5 6 
#
# 1 0.009777 -0.002793 -0.003420 0.002441 -0.003795 0.001281
# 2 -0.002793 0.011289 -0.001133 -0.002106 0.004720 -0.000218
# 3 -0.003420 -0.001133 0.014394 -0.004390 0.007682 -0.003949
# 4 0.002441 -0.002106 -0.004390 0.022705 -0.004964 0.003180
# 5 -0.003795 0.004720 0.007682 -0.004964 0.034313 -0.001965
# 6 0.001281 -0.000218 -0.003949 0.003180 -0.001965 0.027365
#
#
# Mechanical properties :
#
#
# Convention : Reuss Voigt Hill
#
# Bulk Modulus (GPa) = 48.15508 55.99140 52.07324
# Shear Modulus (GPa) = 35.34628 40.51776 37.93202
#
# Velocity S-wave (km/s) = 3.68668 3.94717 3.81915
# Velocity P-wave (km/s) = 6.05302 6.50413 6.28263
#
# Compressibility (1/GPa) = 0.02076624
#
# Stress axis : x y z
#
# Youngs Moduli (GPa) = 102.28179 88.58166 69.47534
#
# Poissons Ratio (x) = 0.24743 0.23762
# Poissons Ratio (y) = 0.28570 0.07872
# Poissons Ratio (z) = 0.34983 0.10037
#
# Static dielectric constant tensor:
#      x y z
#    x 4.669410 -0.000560 -0.209040 
#    y -0.000560 4.560160 0.083230 
#    z -0.209040 0.083230 5.170400 
# 
# 
# High freq. dielectric constant tensor:
#      x y z
#    x 2.050070 0.005480 -0.004880 
#    y 0.005480 2.032650 0.003910 
#    z -0.004880 0.003910 2.070140 
# 
# From -- ./inp_files/135179.got.cif
#   From: 2010.06.25/outbox.cif.g09.slc.cpg/sg2_68_cif.got.tgz:135179.got - 2010.06.27 13:26:56.
