data_PCOD8028573
_publ_section_title
;
Structure prediction by ZEFSAII (Michael W. Deem and Ramdas Pophale) SiO2 
 PCOD8028573
Probable space group: P -1
;
_chemical_formula_sum "Si O2"
_cell_formula_units_Z 14
_cell_length_a 12.108330
_cell_length_b 7.795243
_cell_length_c 19.720452
_cell_angle_alpha 127.371100
_cell_angle_beta 28.581212
_cell_angle_gamma 109.143211
_cell_volume 595.906147
_symmetry_space_group_name_H-M "P -1"
_symmetry_group_IT_number 2
_symmetry_cell_setting 'triclinic'
loop_
_space_group_symop_operation_xyz
x,y,z
-x,-y,-z
loop_
_atom_site_type_symbol
_atom_site_label
_atom_site_fract_x
_atom_site_fract_y
_atom_site_fract_z
Si Si1 0.595732 0.632742 0.201250
Si Si2 0.725165 0.251019 0.731607
Si Si3 0.624212 0.910773 0.797597
Si Si4 0.896919 0.628911 0.782983
Si Si5 0.806148 0.399621 0.508112
Si Si6 0.787646 0.355809 0.270876
Si Si7 0.994391 0.223204 0.983538
O O1 0.474732 0.601281 0.188678
O O2 0.356835 0.732195 0.411557
O O3 0.861476 0.364690 0.018167
O O4 0.702481 0.823335 0.180667
O O5 0.799122 0.439771 0.770911
O O6 0.590784 0.152817 0.832428
O O7 0.000000 0.000000 0.500000
O O8 0.622086 0.697495 0.701981
O O9 0.891105 0.760226 0.662961
O O10 0.343388 0.072404 0.030015
O O11 0.154805 0.587767 0.589787
O O12 0.015239 0.565595 0.780739
O O13 0.500000 0.500000 0.500000
O O14 0.785177 0.394759 0.199860
O O15 0.956387 0.051802 0.116407
#
# Coordination Sequence:
#
# PCOD8028573 Si02
#       7
#     2   2   2   2   2   2   2
#     4  11  23  44  73  95 139 186 219 279 344 397
#     4  12  23  43  70 100 136 180 221 284 349 401
#     4  11  23  41  63  98 139 179 218 274 340 409
#     4  12  25  41  68 104 134 175 229 281 344 406
#     4  11  22  40  65  96 139 177 220 275 339 401
#     4  11  25  46  74  99 132 181 232 280 334 405
#     4  10  25  48  69 100 137 181 230 280 331 399
#
# _framework density 23.493631000000001
#
# number of rings (size 3 to 8) (size 9 to 14) (size 15 to 20)
#    0.000    0.857    2.857    4.286    2.000    3.429 
#    0.000    9.286    0.000    0.000    0.000    0.000 
#    0.000    0.000    0.000    0.000    0.000    0.000 
#
# Total GULP energy -173498.778217 kJ/mol
# GULP energy per Si atom -12392.769873 kJ/mol
# Density = 2.344016 g / cm^3
# Si number density = 23.493631 Si / 1000 Ang^3
#
#
#
# Elastic Constant Matrix: (Units=GPa)
#
#
# Indices 1 2 3 4 5 6 
#
# 1 127.0157 38.8236 23.5718 22.2198 3.9727 12.8323
# 2 38.8236 90.4396 28.7863 -9.6558 11.4691 3.2093
# 3 23.5718 28.7863 131.8121 8.4683 9.1088 12.1911
# 4 22.2198 -9.6558 8.4683 34.4334 -3.2802 -1.4769
# 5 3.9727 11.4691 9.1088 -3.2802 22.2539 -6.5259
# 6 12.8323 3.2093 12.1911 -1.4769 -6.5259 35.3387
#
#
#
# Elastic Compliance Matrix: (Units=1/GPa)
#
#
# Indices 1 2 3 4 5 6 
#
# 1 0.011821 -0.005798 0.000354 -0.009739 -0.002074 -0.004678
# 2 -0.005798 0.015854 -0.002775 0.008500 -0.004406 0.001164
# 3 0.000354 -0.002775 0.009008 -0.003771 -0.004015 -0.003883
# 4 -0.009739 0.008500 -0.003771 0.039582 0.006780 0.006972
# 5 -0.002074 -0.004406 -0.004015 0.006780 0.053970 0.012788
# 6 -0.004678 0.001164 -0.003883 0.006972 0.012788 0.033883
#
#
# Mechanical properties :
#
#
# Convention : Reuss Voigt Hill
#
# Bulk Modulus (GPa) = 49.39338 59.07008 54.23173
# Shear Modulus (GPa) = 26.69466 35.61090 31.15278
#
# Velocity S-wave (km/s) = 3.37449 3.89751 3.64539
# Velocity P-wave (km/s) = 6.02102 6.74179 6.39157
#
# Compressibility (1/GPa) = 0.02024563
#
# Stress axis : x y z
#
# Youngs Moduli (GPa) = 84.59716 63.07547 111.01121
#
# Poissons Ratio (x) = 0.36570 -0.03930
# Poissons Ratio (y) = 0.49047 0.30804
# Poissons Ratio (z) = -0.02995 0.17502
#
# Static dielectric constant tensor:
#      x y z
#    x 4.415670 -0.158780 0.253200 
#    y -0.158780 4.993450 -0.726880 
#    z 0.253200 -0.726880 4.760800 
# 
# 
# High freq. dielectric constant tensor:
#      x y z
#    x 1.937360 0.001080 -0.009520 
#    y 0.001080 1.924980 -0.019060 
#    z -0.009520 -0.019060 1.934700 
# 
# From -- ./inp_files/594228.got.cif
#   From: 2010.06.25/outbox.cif.g09.slc.cpg/sg2_298_cif.got.tgz:594228.got - 2010.06.27 13:26:56.
