data_PCOD8028126
_publ_section_title
;
Structure prediction by ZEFSAII (Michael W. Deem and Ramdas Pophale) SiO2 
 PCOD8028126
Probable space group: P -1
;
_chemical_formula_sum "Si O2"
_cell_formula_units_Z 16
_cell_length_a 22.792020
_cell_length_b 5.126419
_cell_length_c 17.413616
_cell_angle_alpha 57.797161
_cell_angle_beta 23.059506
_cell_angle_gamma 59.551406
_cell_volume 673.514235
_symmetry_space_group_name_H-M "P -1"
_symmetry_group_IT_number 2
_symmetry_cell_setting 'triclinic'
loop_
_space_group_symop_operation_xyz
x,y,z
-x,-y,-z
loop_
_atom_site_type_symbol
_atom_site_label
_atom_site_fract_x
_atom_site_fract_y
_atom_site_fract_z
Si Si1 0.627697 0.325820 0.922789
Si Si2 0.713569 0.549376 0.456285
Si Si3 0.827488 0.824215 0.676774
Si Si4 0.980232 0.615040 0.224550
Si Si5 0.884369 0.784942 0.081038
Si Si6 0.476747 0.981096 0.291179
Si Si7 0.024209 0.677107 0.326449
Si Si8 0.766098 0.833933 0.048290
O O1 0.706267 0.577551 0.839473
O O2 0.748792 0.144996 0.750071
O O3 0.500000 0.500000 0.000000
O O4 0.557239 0.073126 0.101570
O O5 0.857167 0.436970 0.352618
O O6 0.762184 0.792991 0.295058
O O7 0.653142 0.247453 0.536531
O O8 0.591373 0.714843 0.632648
O O9 0.936816 0.669756 0.634869
O O10 0.929233 0.885690 0.469909
O O11 0.923252 0.675660 0.370809
O O12 0.135035 0.417317 0.078616
O O13 0.013433 0.921961 0.088748
O O14 0.788377 0.765169 0.122000
O O15 0.000000 0.500000 0.000000
O O16 0.594019 0.808009 0.235098
O O17 0.179892 0.831090 0.093963
#
# Coordination Sequence:
#
# PCOD8028126 Si02
#       8
#     2   2   2   2   2   2   2   2
#     4  12  27  48  72 102 153 199 235 298 372 442
#     4  12  28  47  75 107 151 191 245 299 360 447
#     4  11  25  47  75 107 144 184 255 305 360 431
#     4  11  25  45  79 104 145 192 248 304 366 429
#     4  11  24  48  74 110 143 189 246 309 364 427
#     4  12  29  49  71 109 154 193 239 297 373 437
#     4  10  25  43  76 111 138 190 248 316 358 430
#     4  11  25  45  78 104 151 192 242 303 371 432
#
# _framework density 23.755994999999999
#
# number of rings (size 3 to 8) (size 9 to 14) (size 15 to 20)
#    0.000    0.750    2.500    3.000   10.500    2.000 
#    0.000    0.000    0.000    0.000    0.000    0.000 
#    0.000    0.000    0.000    0.000    0.000    0.000 
#
# Total GULP energy -198477.843599 kJ/mol
# GULP energy per Si atom -12404.865225 kJ/mol
# Density = 2.370193 g / cm^3
# Si number density = 23.755995 Si / 1000 Ang^3
#
#
#
# Elastic Constant Matrix: (Units=GPa)
#
#
# Indices 1 2 3 4 5 6 
#
# 1 123.7952 16.7273 44.7691 -17.1572 -4.8166 -7.1521
# 2 16.7273 71.9490 4.5946 14.0649 -8.0351 -2.8575
# 3 44.7691 4.5946 79.2109 2.8845 -0.0852 -1.5830
# 4 -17.1572 14.0649 2.8845 40.2708 4.6193 -0.0141
# 5 -4.8166 -8.0351 -0.0852 4.6193 48.3818 1.1735
# 6 -7.1521 -2.8575 -1.5830 -0.0141 1.1735 33.1826
#
#
#
# Elastic Compliance Matrix: (Units=1/GPa)
#
#
# Indices 1 2 3 4 5 6 
#
# 1 0.012127 -0.003678 -0.006855 0.006958 -0.000128 0.001978
# 2 -0.003678 0.016562 0.001417 -0.007810 0.003118 0.000588
# 3 -0.006855 0.001417 0.016573 -0.004607 0.000036 -0.000568
# 4 0.006958 -0.007810 -0.004607 0.031269 -0.003616 0.000748
# 5 -0.000128 0.003118 0.000036 -0.003616 0.021532 -0.000520
# 6 0.001978 0.000588 -0.000568 0.000748 -0.000520 0.030605
#
#
# Mechanical properties :
#
#
# Convention : Reuss Voigt Hill
#
# Bulk Modulus (GPa) = 36.99347 45.23748 41.11547
# Shear Modulus (GPa) = 32.07015 38.29132 35.18073
#
# Velocity S-wave (km/s) = 3.67820 4.01915 3.85245
# Velocity P-wave (km/s) = 5.80042 6.37354 6.09372
#
# Compressibility (1/GPa) = 0.02703180
#
# Stress axis : x y z
#
# Youngs Moduli (GPa) = 82.45854 60.38086 60.33891
#
# Poissons Ratio (x) = 0.22205 0.41362
# Poissons Ratio (y) = 0.30324 -0.08552
# Poissons Ratio (z) = 0.56524 -0.08558
#
# Static dielectric constant tensor:
#      x y z
#    x 4.602220 -0.020570 0.119230 
#    y -0.020570 4.093640 -0.078090 
#    z 0.119230 -0.078090 4.437330 
# 
# 
# High freq. dielectric constant tensor:
#      x y z
#    x 1.962590 0.000610 0.006190 
#    y 0.000610 1.938280 -0.002700 
#    z 0.006190 -0.002700 1.939930 
# 
# From -- ./inp_files/578673.got.cif
#   From: 2010.06.25/outbox.cif.g09.slc.cpg/sg2_290_cif.got.tgz:578673.got - 2010.06.27 13:26:56.
