data_PCOD8028579
_publ_section_title
;
Structure prediction by ZEFSAII (Michael W. Deem and Ramdas Pophale) SiO2 
 PCOD8028579
Probable space group: P -1
;
_chemical_formula_sum "Si O2"
_cell_formula_units_Z 16
_cell_length_a 8.612521
_cell_length_b 15.688104
_cell_length_c 12.575501
_cell_angle_alpha 41.777632
_cell_angle_beta 104.230792
_cell_angle_gamma 72.329914
_cell_volume 720.922824
_symmetry_space_group_name_H-M "P -1"
_symmetry_group_IT_number 2
_symmetry_cell_setting 'triclinic'
loop_
_space_group_symop_operation_xyz
x,y,z
-x,-y,-z
loop_
_atom_site_type_symbol
_atom_site_label
_atom_site_fract_x
_atom_site_fract_y
_atom_site_fract_z
Si Si1 0.709407 0.036228 0.945137
Si Si2 0.231555 0.584658 0.119571
Si Si3 0.147182 0.320999 0.611746
Si Si4 0.975587 0.082574 0.083466
Si Si5 0.026149 0.511825 0.795209
Si Si6 0.488232 0.868055 0.674044
Si Si7 0.010181 0.764585 0.693392
Si Si8 0.316563 0.751521 0.610079
O O1 0.836219 0.830500 0.197563
O O2 0.793355 0.101724 0.971863
O O3 0.798924 0.005082 0.868805
O O4 0.418133 0.209565 0.738148
O O5 0.513165 0.426623 0.278798
O O6 0.181841 0.469626 0.253063
O O7 0.185133 0.701580 0.104682
O O8 0.056040 0.731565 0.857372
O O9 0.000000 0.500000 0.500000
O O10 0.992187 0.406635 0.397172
O O11 0.080919 0.947401 0.329443
O O12 0.978552 0.640331 0.761519
O O13 0.289299 0.287277 0.063334
O O14 0.482624 0.761202 0.682987
O O15 0.500000 0.000000 0.500000
O O16 0.243724 0.006156 0.576194
O O17 0.229738 0.704060 0.728631
#
# Coordination Sequence:
#
# PCOD8028579 Si02
#       8
#     2   2   2   2   2   2   2   2
#     4  10  25  48  70 102 133 175 232 290 336 401
#     4  12  24  42  67  96 139 183 223 271 340 406
#     4  11  25  47  74 101 135 175 231 285 343 398
#     4  11  24  45  72  96 137 180 225 279 346 397
#     4  12  25  43  69 101 136 180 229 277 336 410
#     4  12  24  42  67  95 139 183 221 269 338 408
#     4  12  25  42  65 100 142 182 223 275 335 402
#     4  12  25  41  65 102 139 177 224 280 331 410
#
# _framework density 22.193776
#
# number of rings (size 3 to 8) (size 9 to 14) (size 15 to 20)
#    0.000    0.500    3.750    4.125    0.000    6.000 
#    0.000    3.125    0.000    0.000    0.000    0.000 
#    0.000    0.000    0.000    0.000    0.000    0.000 
#
# Total GULP energy -198515.052126 kJ/mol
# GULP energy per Si atom -12407.190758 kJ/mol
# Density = 2.214326 g / cm^3
# Si number density = 22.193776 Si / 1000 Ang^3
#
#
#
# Elastic Constant Matrix: (Units=GPa)
#
#
# Indices 1 2 3 4 5 6 
#
# 1 93.9534 51.9183 13.9583 -8.4513 -4.3500 7.4560
# 2 51.9183 139.2214 28.1060 -20.9220 0.3581 11.9275
# 3 13.9583 28.1060 105.2559 -4.4312 -2.0966 0.1807
# 4 -8.4513 -20.9220 -4.4312 41.0128 -8.1272 0.8439
# 5 -4.3500 0.3581 -2.0966 -8.1272 30.1540 -4.0923
# 6 7.4560 11.9275 0.1807 0.8439 -4.0923 28.5516
#
#
#
# Elastic Compliance Matrix: (Units=1/GPa)
#
#
# Indices 1 2 3 4 5 6 
#
# 1 0.013607 -0.004763 -0.000459 0.000750 0.002014 -0.001294
# 2 -0.004763 0.010228 -0.001930 0.004036 -0.000286 -0.003177
# 3 -0.000459 -0.001930 0.010098 0.000157 0.000834 0.000977
# 4 0.000750 0.004036 0.000157 0.028119 0.007426 -0.001650
# 5 0.002014 -0.000286 0.000834 0.007426 0.036134 0.004548
# 6 -0.001294 -0.003177 0.000977 -0.001650 0.004548 0.037384
#
#
# Mechanical properties :
#
#
# Convention : Reuss Voigt Hill
#
# Bulk Modulus (GPa) = 50.94182 58.48840 54.71511
# Shear Modulus (GPa) = 31.96570 36.24022 34.10296
#
# Velocity S-wave (km/s) = 3.79925 4.04530 3.92420
# Velocity P-wave (km/s) = 6.49990 6.94478 6.72602
#
# Compressibility (1/GPa) = 0.01963024
#
# Stress axis : x y z
#
# Youngs Moduli (GPa) = 73.48939 97.76813 99.02613
#
# Poissons Ratio (x) = 0.46571 0.04542
# Poissons Ratio (y) = 0.35006 0.19110
# Poissons Ratio (z) = 0.03370 0.18868
#
# Static dielectric constant tensor:
#      x y z
#    x 4.032710 -0.038650 -0.019310 
#    y -0.038650 4.028030 -0.100270 
#    z -0.019310 -0.100270 4.031660 
# 
# 
# High freq. dielectric constant tensor:
#      x y z
#    x 1.880610 -0.001660 -0.002200 
#    y -0.001660 1.879620 -0.010350 
#    z -0.002200 -0.010350 1.880210 
# 
# From -- ./inp_files/398623.got.cif
#   From: 2010.06.25/outbox.cif.g09.slc.cpg/sg2_200_cif.got.tgz:398623.got - 2010.06.27 13:26:56.
