data_PCOD8028972
_publ_section_title
;
Structure prediction by ZEFSAII (Michael W. Deem and Ramdas Pophale) SiO2 
 PCOD8028972
Probable space group: P -1
;
_chemical_formula_sum "Si O2"
_cell_formula_units_Z 16
_cell_length_a 13.002271
_cell_length_b 30.932622
_cell_length_c 10.572852
_cell_angle_alpha 155.302785
_cell_angle_beta 144.405182
_cell_angle_gamma 28.215261
_cell_volume 838.305398
_symmetry_space_group_name_H-M "P -1"
_symmetry_group_IT_number 2
_symmetry_cell_setting 'triclinic'
loop_
_space_group_symop_operation_xyz
x,y,z
-x,-y,-z
loop_
_atom_site_type_symbol
_atom_site_label
_atom_site_fract_x
_atom_site_fract_y
_atom_site_fract_z
Si Si1 0.902484 0.397025 0.731158
Si Si2 0.171975 0.128831 0.852830
Si Si3 0.051099 0.154851 0.084108
Si Si4 0.562945 0.437051 0.696335
Si Si5 0.429640 0.871163 0.748772
Si Si6 0.696547 0.602971 0.867857
Si Si7 0.699974 0.300029 0.733017
Si Si8 0.639189 0.154857 0.672211
O O1 0.770792 0.405432 0.743305
O O2 0.733122 0.499993 0.733093
O O3 0.035092 0.256243 0.431408
O O4 0.073157 0.426837 0.023375
O O5 0.958170 0.217566 0.791577
O O6 0.254355 0.983814 0.530932
O O7 0.128765 0.167658 0.059704
O O8 0.354065 0.145936 0.030319
O O9 0.818578 0.181421 0.904456
O O10 0.221977 0.016178 0.945379
O O11 0.418332 0.405424 0.390835
O O12 0.652172 0.347837 0.669948
O O13 0.414806 0.585186 0.976996
O O14 0.393314 0.782424 0.559884
O O15 0.464088 0.832334 0.533132
O O16 0.547594 0.743747 0.151259
#
# Coordination Sequence:
#
# PCOD8028972 Si02
#       8
#     2   2   2   2   2   2   2   2
#     4  11  23  39  62  91 119 151 190 238 297 348
#     4  11  21  37  61  90 121 152 192 241 289 341
#     4  11  19  36  63  91 121 150 190 243 294 342
#     4  11  25  41  61  82 120 154 196 243 282 345
#     4  11  21  37  61  90 121 152 192 241 289 341
#     4  11  23  39  62  91 119 151 190 238 297 348
#     4  11  24  42  59  85 112 160 202 233 287 344
#     4  11  19  36  63  91 121 150 190 243 294 342
#
# _framework density 19.086124000000002
#
# number of rings (size 3 to 8) (size 9 to 14) (size 15 to 20)
#    0.000    1.000    3.750    5.625    0.000    4.000 
#    0.000    5.000    0.000    3.000    0.000    0.000 
#    0.000    0.000    0.000    0.000    0.000    0.000 
#
# Total GULP energy -198501.764545 kJ/mol
# GULP energy per Si atom -12406.360284 kJ/mol
# Density = 1.904268 g / cm^3
# Si number density = 19.086124 Si / 1000 Ang^3
#
#
#
# Elastic Constant Matrix: (Units=GPa)
#
#
# Indices 1 2 3 4 5 6 
#
# 1 73.6174 52.9330 53.8993 -3.1135 2.9881 -5.0202
# 2 52.9330 101.3500 47.7079 11.0724 4.6707 0.4403
# 3 53.8993 47.7079 94.9701 8.7786 -2.1750 1.0687
# 4 -3.1135 11.0724 8.7786 26.0325 -9.5209 8.8045
# 5 2.9881 4.6707 -2.1750 -9.5209 35.0493 -3.9313
# 6 -5.0202 0.4403 1.0687 8.8045 -3.9313 25.0249
#
#
#
# Elastic Compliance Matrix: (Units=1/GPa)
#
#
# Indices 1 2 3 4 5 6 
#
# 1 0.033579 -0.012556 -0.014013 0.013803 0.002029 0.003018
# 2 -0.012556 0.018345 -0.001216 -0.010546 -0.004287 0.000247
# 3 -0.014013 -0.001216 0.019793 -0.007323 0.000486 -0.000982
# 4 0.013803 -0.010546 -0.007323 0.056942 0.013601 -0.014630
# 5 0.002029 -0.004287 0.000486 0.013601 0.032746 0.000821
# 6 0.003018 0.000247 -0.000982 -0.014630 0.000821 0.045879
#
#
# Mechanical properties :
#
#
# Convention : Reuss Voigt Hill
#
# Bulk Modulus (GPa) = 61.93199 64.33533 63.13366
# Shear Modulus (GPa) = 18.64026 24.91450 21.77738
#
# Velocity S-wave (km/s) = 3.12851 3.61691 3.38154
# Velocity P-wave (km/s) = 6.75050 7.15708 6.95676
#
# Compressibility (1/GPa) = 0.01614674
#
# Stress axis : x y z
#
# Youngs Moduli (GPa) = 29.78073 54.50967 50.52349
#
# Poissons Ratio (x) = 0.68440 0.70800
# Poissons Ratio (y) = 0.37392 0.06144
# Poissons Ratio (z) = 0.41733 0.06629
#
# Static dielectric constant tensor:
#      x y z
#    x 3.402020 -0.212180 0.150870 
#    y -0.212180 3.563390 0.126620 
#    z 0.150870 0.126620 3.635140 
# 
# 
# High freq. dielectric constant tensor:
#      x y z
#    x 1.733130 -0.020960 0.016020 
#    y -0.020960 1.746550 0.009390 
#    z 0.016020 0.009390 1.753020 
# 
# From -- ./inp_files/285888.got.cif
#   From: 2010.06.25/outbox.cif.g09.slc.cpg/sg2_143_cif.got.tgz:285888.got - 2010.06.27 13:26:56.
