data_PCOD8028130
_publ_section_title
;
Structure prediction by ZEFSAII (Michael W. Deem and Ramdas Pophale) SiO2 
 PCOD8028130
Probable space group: P -1
;
_chemical_formula_sum "Si O2"
_cell_formula_units_Z 14
_cell_length_a 12.488714
_cell_length_b 5.122230
_cell_length_c 13.001577
_cell_angle_alpha 90.691374
_cell_angle_beta 128.012722
_cell_angle_gamma 71.885794
_cell_volume 604.668911
_symmetry_space_group_name_H-M "P -1"
_symmetry_group_IT_number 2
_symmetry_cell_setting 'triclinic'
loop_
_space_group_symop_operation_xyz
x,y,z
-x,-y,-z
loop_
_atom_site_type_symbol
_atom_site_label
_atom_site_fract_x
_atom_site_fract_y
_atom_site_fract_z
Si Si1 0.167355 0.366803 0.133954
Si Si2 0.305214 0.784042 0.309966
Si Si3 0.407625 0.907949 0.786607
Si Si4 0.837386 0.519787 0.390111
Si Si5 0.619113 0.422759 0.419079
Si Si6 0.708654 0.830469 0.009235
Si Si7 0.255537 0.710416 0.844014
O O1 0.219480 0.607824 0.206461
O O2 0.206835 0.117900 0.241163
O O3 0.251120 0.206960 0.084315
O O4 0.000000 0.500000 0.000000
O O5 0.469695 0.696189 0.357694
O O6 0.314854 0.737967 0.437668
O O7 0.429072 0.781937 0.683674
O O8 0.404164 0.673345 0.867285
O O9 0.255928 0.176399 0.713026
O O10 0.533718 0.013544 0.898987
O O11 0.748090 0.495407 0.439787
O O12 0.857022 0.276185 0.315556
O O13 0.000000 0.500000 0.500000
O O14 0.735232 0.530901 0.072860
O O15 0.794569 0.998705 0.118768
#
# Coordination Sequence:
#
# PCOD8028130 Si02
#       7
#     2   2   2   2   2   2   2
#     4  12  27  48  70 107 147 187 236 299 361 425
#     4  11  25  49  75 107 140 188 251 293 356 425
#     4  11  23  44  72 103 140 181 235 294 349 417
#     4  11  26  47  68 108 149 187 234 294 363 431
#     4  10  25  43  79 105 140 193 241 306 351 422
#     4  12  24  44  72 101 139 182 237 286 347 420
#     4  11  25  42  71 103 135 183 232 284 349 418
#
# _framework density 23.153168999999998
#
# number of rings (size 3 to 8) (size 9 to 14) (size 15 to 20)
#    0.000    0.857    2.857    3.000    6.000    4.571 
#    5.143    0.000    0.000    0.000    0.000    0.000 
#    0.000    0.000    0.000    0.000    0.000    0.000 
#
# Total GULP energy -173462.523082 kJ/mol
# GULP energy per Si atom -12390.180220 kJ/mol
# Density = 2.310047 g / cm^3
# Si number density = 23.153169 Si / 1000 Ang^3
#
#
#
# Elastic Constant Matrix: (Units=GPa)
#
#
# Indices 1 2 3 4 5 6 
#
# 1 13.1741 -16.6936 -39.7976 -1.9602 -12.3236 103.3634
# 2 -16.6936 72.7822 -29.2338 0.6443 -9.0020 77.2124
# 3 -39.7976 -29.2338 -18.9413 5.8209 -28.2636 125.5048
# 4 -1.9602 0.6443 5.8209 52.4341 -4.3685 -4.7885
# 5 -12.3236 -9.0020 -28.2636 -4.3685 41.6598 31.9096
# 6 103.3634 77.2124 125.5048 -4.7885 31.9096 -79.8074
#
#
#
# Elastic Compliance Matrix: (Units=1/GPa)
#
#
# Indices 1 2 3 4 5 6 
#
# 1 0.018054 -0.003117 -0.010300 0.001746 -0.004020 0.002458
# 2 -0.003117 0.010780 -0.003259 0.000066 -0.001351 0.000724
# 3 -0.010300 -0.003259 0.014250 -0.001270 0.000914 0.006358
# 4 0.001746 0.000066 -0.001270 0.019416 0.001796 -0.000119
# 5 -0.004020 -0.001351 0.000914 0.001796 0.020901 0.003172
# 6 0.002458 0.000724 0.006358 -0.000119 0.003172 0.002627
#
#
# Mechanical properties :
#
#
# Convention : Reuss Voigt Hill
#
# Bulk Modulus (GPa) = 102.74110 -11.60386 45.56862
# Shear Modulus (GPa) = 40.77463 13.03997 26.90730
#
# Velocity S-wave (km/s) = 4.20108 2.37577 3.41272
# Velocity P-wave (km/s) = 8.24639 1.58210 5.93742
#
# Compressibility (1/GPa) = 0.00973320
#
# Stress axis : x y z
#
# Youngs Moduli (GPa) = 55.38838 92.76134 70.17503
#
# Poissons Ratio (x) = 0.28910 0.72279
# Poissons Ratio (y) = 0.17263 0.22872
# Poissons Ratio (z) = 0.57049 0.30234
#
# Static dielectric constant tensor:
#      x y z
#    x 4.116120 0.144360 -0.212170 
#    y 0.144360 4.166500 0.191710 
#    z -0.212170 0.191710 4.342310 
# 
# 
# High freq. dielectric constant tensor:
#      x y z
#    x 1.911830 0.014930 -0.018380 
#    y 0.014930 1.914400 0.012900 
#    z -0.018380 0.012900 1.931720 
# 
# From -- ./inp_files/410642.got.cif
#   From: 2010.06.25/outbox.cif.g09.slc.cpg/sg2_206_cif.got.tgz:410642.got - 2010.06.27 13:26:56.
