data_PCOD8028676
_publ_section_title
;
Structure prediction by ZEFSAII (Michael W. Deem and Ramdas Pophale) SiO2 
 PCOD8028676
Probable space group: P -1
;
_chemical_formula_sum "Si O2"
_cell_formula_units_Z 16
_cell_length_a 6.263732
_cell_length_b 11.997449
_cell_length_c 13.197045
_cell_angle_alpha 72.594875
_cell_angle_beta 50.715786
_cell_angle_gamma 78.989430
_cell_volume 732.474586
_symmetry_space_group_name_H-M "P -1"
_symmetry_group_IT_number 2
_symmetry_cell_setting 'triclinic'
loop_
_space_group_symop_operation_xyz
x,y,z
-x,-y,-z
loop_
_atom_site_type_symbol
_atom_site_label
_atom_site_fract_x
_atom_site_fract_y
_atom_site_fract_z
Si Si1 0.971308 0.677570 0.414255
Si Si2 0.754967 0.322870 0.884050
Si Si3 0.221937 0.075091 0.537760
Si Si4 0.837784 0.745753 0.894978
Si Si5 0.413932 0.530462 0.404310
Si Si6 0.952802 0.490254 0.134781
Si Si7 0.135390 0.888785 0.941265
Si Si8 0.267671 0.082865 0.289378
O O1 0.057521 0.664246 0.275160
O O2 0.244686 0.654012 0.408868
O O3 0.804683 0.799482 0.435743
O O4 0.768531 0.578931 0.544770
O O5 0.799540 0.440390 0.903654
O O6 0.431422 0.312265 0.955163
O O7 0.842186 0.209522 0.953039
O O8 0.188520 0.104673 0.422352
O O9 0.500000 0.000000 0.500000
O O10 0.947005 0.006687 0.673280
O O11 0.744188 0.800726 0.803317
O O12 0.044471 0.649016 0.813606
O O13 0.976814 0.835555 0.906662
O O14 0.500000 0.500000 0.500000
O O15 0.668048 0.542024 0.247937
O O16 0.000000 0.500000 0.000000
O O17 0.413477 0.951848 0.801538
O O18 0.000000 0.000000 0.000000
#
# Coordination Sequence:
#
# PCOD8028676 Si02
#       8
#     2   2   2   2   2   2   2   2
#     4  11  27  44  71 101 141 184 240 286 361 432
#     4  11  25  44  67 107 135 191 234 288 352 432
#     4  11  26  45  72  99 141 189 238 299 353 426
#     4  11  25  43  72 100 144 181 233 299 354 425
#     4  11  26  46  68 104 142 185 229 295 361 421
#     4  12  24  45  74 102 143 183 238 291 361 423
#     4  11  26  44  70 101 143 185 233 294 364 424
#     4  10  26  44  65 106 133 182 241 286 364 419
#
# _framework density 21.843762000000002
#
# number of rings (size 3 to 8) (size 9 to 14) (size 15 to 20)
#    0.000    1.000    2.500    1.875   10.500    2.000 
#    0.000    0.000    0.000    0.000    0.000    0.000 
#    0.000    0.000    0.000    0.000    0.000    0.000 
#
# Total GULP energy -198229.739202 kJ/mol
# GULP energy per Si atom -12389.358700 kJ/mol
# Density = 2.179404 g / cm^3
# Si number density = 21.843762 Si / 1000 Ang^3
#
#
#
# Elastic Constant Matrix: (Units=GPa)
#
#
# Indices 1 2 3 4 5 6 
#
# 1 129.5694 55.3563 44.7939 11.6800 -13.2198 5.1830
# 2 55.3563 138.2768 26.8141 21.8491 -7.0199 -0.5342
# 3 44.7939 26.8141 106.9188 -3.7994 -7.7554 -2.0393
# 4 11.6800 21.8491 -3.7994 27.7759 0.5715 -5.9398
# 5 -13.2198 -7.0199 -7.7554 0.5715 46.8912 -7.7693
# 6 5.1830 -0.5342 -2.0393 -5.9398 -7.7693 35.3524
#
#
#
# Elastic Compliance Matrix: (Units=1/GPa)
#
#
# Indices 1 2 3 4 5 6 
#
# 1 0.010875 -0.003032 -0.003825 -0.003179 0.001683 -0.002025
# 2 -0.003032 0.009803 -0.001412 -0.006753 0.000372 -0.000542
# 3 -0.003825 -0.001412 0.011589 0.004758 0.000936 0.002213
# 4 -0.003179 -0.006753 0.004758 0.045049 -0.000321 0.008137
# 5 0.001683 0.000372 0.000936 -0.000321 0.022805 0.004771
# 6 -0.002025 -0.000542 0.002213 0.008137 0.004771 0.031119
#
#
# Mechanical properties :
#
#
# Convention : Reuss Voigt Hill
#
# Bulk Modulus (GPa) = 63.57592 69.85483 66.71538
# Shear Modulus (GPa) = 32.67551 38.52395 35.59973
#
# Velocity S-wave (km/s) = 3.87185 4.20410 4.04139
# Velocity P-wave (km/s) = 7.01116 7.45752 7.23778
#
# Compressibility (1/GPa) = 0.01572923
#
# Stress axis : x y z
#
# Youngs Moduli (GPa) = 91.95520 102.00756 86.29116
#
# Poissons Ratio (x) = 0.30927 0.33008
# Poissons Ratio (y) = 0.27879 0.12181
# Poissons Ratio (z) = 0.35175 0.14400
#
# Static dielectric constant tensor:
#      x y z
#    x 4.356470 -0.162560 -0.315310 
#    y -0.162560 4.166600 -0.149360 
#    z -0.315310 -0.149360 4.247710 
# 
# 
# High freq. dielectric constant tensor:
#      x y z
#    x 1.869240 -0.006870 -0.004140 
#    y -0.006870 1.854690 -0.012590 
#    z -0.004140 -0.012590 1.874600 
# 
# From -- ./inp_files/364219.got.cif
#   From: 2010.06.25/outbox.cif.g09.slc.cpg/sg2_183_cif.got.tgz:364219.got - 2010.06.27 13:26:56.
