data_PCOD8028612
_publ_section_title
;
Structure prediction by ZEFSAII (Michael W. Deem and Ramdas Pophale) SiO2 
 PCOD8028612
Probable space group: P -1
;
_chemical_formula_sum "Si O2"
_cell_formula_units_Z 14
_cell_length_a 7.145808
_cell_length_b 15.745034
_cell_length_c 7.949696
_cell_angle_alpha 74.564843
_cell_angle_beta 142.293700
_cell_angle_gamma 110.057324
_cell_volume 513.845585
_symmetry_space_group_name_H-M "P -1"
_symmetry_group_IT_number 2
_symmetry_cell_setting 'triclinic'
loop_
_space_group_symop_operation_xyz
x,y,z
-x,-y,-z
loop_
_atom_site_type_symbol
_atom_site_label
_atom_site_fract_x
_atom_site_fract_y
_atom_site_fract_z
Si Si1 0.811754 0.066553 0.253077
Si Si2 0.919937 0.544302 0.131166
Si Si3 0.384199 0.180320 0.927473
Si Si4 0.419586 0.185872 0.556509
Si Si5 0.186957 0.934867 0.254871
Si Si6 0.623752 0.623010 0.182705
Si Si7 0.383739 0.382402 0.432291
O O1 0.073691 0.127068 0.281101
O O2 0.712936 0.144931 0.734801
O O3 0.000000 0.000000 0.500000
O O4 0.500000 0.000000 0.000000
O O5 0.136750 0.409879 0.756303
O O6 0.288679 0.540202 0.387764
O O7 0.718897 0.442524 0.039590
O O8 0.859555 0.596061 0.889948
O O9 0.665149 0.136644 0.228871
O O10 0.444002 0.185397 0.772052
O O11 0.410052 0.280286 0.965276
O O12 0.041206 0.115386 0.736326
O O13 0.464895 0.289031 0.473894
O O14 0.500000 0.000000 0.500000
O O15 0.000000 0.000000 0.000000
O O16 0.747108 0.628543 0.461958
#
# Coordination Sequence:
#
# PCOD8028612 Si02
#       7
#     2   2   2   2   2   2   2
#     4  12  24  43  71 100 139 191 243 305 373 439
#     4  11  25  49  74 115 154 196 250 313 370 465
#     4  11  26  49  73 107 146 194 252 308 374 456
#     4  11  27  47  74 103 147 196 247 311 375 446
#     4  12  29  45  69 103 138 186 245 307 372 437
#     4  10  25  48  78 112 151 204 247 310 386 443
#     4  11  26  46  77 109 155 196 254 303 383 447
#
# _framework density 27.245540999999999
#
# number of rings (size 3 to 8) (size 9 to 14) (size 15 to 20)
#    0.000    0.857    1.429    3.429    8.000    4.571 
#    5.143    0.000    0.000    0.000    0.000    0.000 
#    0.000    0.000    0.000    0.000    0.000    0.000 
#
# Total GULP energy -173440.475466 kJ/mol
# GULP energy per Si atom -12388.605390 kJ/mol
# Density = 2.718353 g / cm^3
# Si number density = 27.245541 Si / 1000 Ang^3
#
#
#
# Elastic Constant Matrix: (Units=GPa)
#
#
# Indices 1 2 3 4 5 6 
#
# 1 136.6318 11.3646 44.3971 -6.7647 12.2907 -0.8822
# 2 11.3646 119.8880 38.4201 -15.5223 5.5577 -4.9803
# 3 44.3971 38.4201 145.1394 -3.2045 24.0763 -2.3228
# 4 -6.7647 -15.5223 -3.2045 27.9414 -0.8796 12.9240
# 5 12.2907 5.5577 24.0763 -0.8796 40.7288 4.1470
# 6 -0.8822 -4.9803 -2.3228 12.9240 4.1470 43.0579
#
#
#
# Elastic Compliance Matrix: (Units=1/GPa)
#
#
# Indices 1 2 3 4 5 6 
#
# 1 0.008265 0.000279 -0.002393 0.002055 -0.001028 -0.000445
# 2 0.000279 0.009834 -0.002630 0.005562 0.000320 -0.000699
# 3 -0.002393 -0.002630 0.009028 -0.001627 -0.004398 0.001046
# 4 0.002055 0.005562 -0.001627 0.045355 0.001906 -0.013199
# 5 -0.001028 0.000320 -0.004398 0.001906 0.027813 -0.003472
# 6 -0.000445 -0.000699 0.001046 -0.013199 -0.003472 0.027487
#
#
# Mechanical properties :
#
#
# Convention : Reuss Voigt Hill
#
# Bulk Modulus (GPa) = 56.69478 65.55808 61.12643
# Shear Modulus (GPa) = 34.92820 42.84413 38.88616
#
# Velocity S-wave (km/s) = 3.58436 3.96980 3.78199
# Velocity P-wave (km/s) = 6.16313 6.71763 6.44635
#
# Compressibility (1/GPa) = 0.01763831
#
# Stress axis : x y z
#
# Youngs Moduli (GPa) = 120.99648 101.69049 110.76127
#
# Poissons Ratio (x) = -0.02834 0.26507
# Poissons Ratio (y) = -0.03372 0.29128
# Poissons Ratio (z) = 0.28957 0.26743
#
# Static dielectric constant tensor:
#      x y z
#    x 6.043790 -0.272130 0.872990 
#    y -0.272130 5.878340 -0.368760 
#    z 0.872990 -0.368760 5.282390 
# 
# 
# High freq. dielectric constant tensor:
#      x y z
#    x 2.104830 -0.014020 0.025260 
#    y -0.014020 2.124090 -0.007960 
#    z 0.025260 -0.007960 2.095950 
# 
# From -- ./inp_files/432786.got.cif
#   From: 2010.06.25/outbox.cif.g09.slc.cpg/sg2_217_cif.got.tgz:432786.got - 2010.06.27 13:26:56.
