data_PCOD8028808
_publ_section_title
;
Structure prediction by ZEFSAII (Michael W. Deem and Ramdas Pophale) SiO2 
 PCOD8028808
Probable space group: P -1
;
_chemical_formula_sum "Si O2"
_cell_formula_units_Z 16
_cell_length_a 11.210002
_cell_length_b 17.800863
_cell_length_c 9.916850
_cell_angle_alpha 45.894935
_cell_angle_beta 92.387959
_cell_angle_gamma 130.237168
_cell_volume 724.630698
_symmetry_space_group_name_H-M "P -1"
_symmetry_group_IT_number 2
_symmetry_cell_setting 'triclinic'
loop_
_space_group_symop_operation_xyz
x,y,z
-x,-y,-z
loop_
_atom_site_type_symbol
_atom_site_label
_atom_site_fract_x
_atom_site_fract_y
_atom_site_fract_z
Si Si1 0.452775 0.453594 0.211090
Si Si2 0.281852 0.715320 0.734509
Si Si3 0.957138 0.127501 0.630201
Si Si4 0.466062 0.222386 0.546969
Si Si5 0.016797 0.800565 0.163856
Si Si6 0.722892 0.751308 0.088025
Si Si7 0.644602 0.360856 0.672389
Si Si8 0.458585 0.072160 0.240473
O O1 0.228897 0.360217 0.342338
O O2 0.409428 0.301881 0.439465
O O3 0.658450 0.654594 0.061130
O O4 0.500000 0.500000 0.000000
O O5 0.373001 0.687098 0.685450
O O6 0.386898 0.785338 0.800668
O O7 0.391818 0.900437 0.436598
O O8 0.000000 0.500000 0.000000
O O9 0.865221 0.090626 0.820810
O O10 0.794210 0.061153 0.594921
O O11 0.943955 0.993095 0.772286
O O12 0.609487 0.304558 0.585975
O O13 0.219937 0.972809 0.847502
O O14 0.799652 0.717713 0.235957
O O15 0.912070 0.604507 0.394895
O O16 0.523875 0.672471 0.244753
O O17 0.606283 0.227616 0.926396
#
# Coordination Sequence:
#
# PCOD8028808 Si02
#       8
#     2   2   2   2   2   2   2   2
#     4  12  27  39  64 107 150 188 225 275 341 423
#     4  11  29  52  75  92 140 186 228 299 352 410
#     4  11  23  40  73  99 140 181 225 283 341 411
#     4  12  26  44  68 110 137 178 242 284 342 413
#     4  12  21  39  68 101 144 181 221 286 340 400
#     4  11  21  39  63 101 149 187 218 260 345 417
#     4  11  23  40  73 106 138 182 230 284 338 417
#     4  10  26  49  73 103 127 185 240 272 360 418
#
# _framework density 22.080213000000001
#
# number of rings (size 3 to 8) (size 9 to 14) (size 15 to 20)
#    0.000    0.750    6.250    1.500    7.000    4.000 
#    0.000    1.250    0.000    0.000    0.000    0.000 
#    0.000    0.000    0.000    0.000    0.000    0.000 
#
# Total GULP energy -198376.469490 kJ/mol
# GULP energy per Si atom -12398.529343 kJ/mol
# Density = 2.202996 g / cm^3
# Si number density = 22.080213 Si / 1000 Ang^3
#
#
#
# Elastic Constant Matrix: (Units=GPa)
#
#
# Indices 1 2 3 4 5 6 
#
# 1 37.4292 24.2548 9.6210 -4.0990 -1.3139 6.3098
# 2 24.2548 131.8180 38.2226 -11.7952 4.7533 10.5380
# 3 9.6210 38.2226 92.1825 -8.9602 8.8062 4.5922
# 4 -4.0990 -11.7952 -8.9602 33.2419 0.3502 2.8527
# 5 -1.3139 4.7533 8.8062 0.3502 39.5157 5.0472
# 6 6.3098 10.5380 4.5922 2.8527 5.0472 32.9819
#
#
#
# Elastic Compliance Matrix: (Units=1/GPa)
#
#
# Indices 1 2 3 4 5 6 
#
# 1 0.031345 -0.004986 -0.000982 0.002220 0.002459 -0.004835
# 2 -0.004986 0.009787 -0.003196 0.002160 -0.000413 -0.001852
# 3 -0.000982 -0.003196 0.012747 0.002240 -0.002460 -0.000383
# 4 0.002220 0.002160 0.002240 0.032086 -0.000441 -0.004134
# 5 0.002459 -0.000413 -0.002460 -0.000441 0.026503 -0.004013
# 6 -0.004835 -0.001852 -0.000383 -0.004134 -0.004013 0.032861
#
#
# Mechanical properties :
#
#
# Convention : Reuss Voigt Hill
#
# Bulk Modulus (GPa) = 28.12884 45.06960 36.59922
# Shear Modulus (GPa) = 28.48876 33.76999 31.12937
#
# Velocity S-wave (km/s) = 3.59589 3.91503 3.75885
# Velocity P-wave (km/s) = 5.47792 6.39474 5.95400
#
# Compressibility (1/GPa) = 0.03555071
#
# Stress axis : x y z
#
# Youngs Moduli (GPa) = 31.90271 102.18106 78.44686
#
# Poissons Ratio (x) = 0.50950 0.07705
# Poissons Ratio (y) = 0.15908 0.25070
# Poissons Ratio (z) = 0.03133 0.32655
#
# Static dielectric constant tensor:
#      x y z
#    x 3.782640 0.137000 0.223120 
#    y 0.137000 4.057640 -0.233370 
#    z 0.223120 -0.233370 4.184340 
# 
# 
# High freq. dielectric constant tensor:
#      x y z
#    x 1.842210 0.009510 0.012510 
#    y 0.009510 1.880460 -0.015850 
#    z 0.012510 -0.015850 1.877250 
# 
# From -- ./inp_files/279051.got.cif
#   From: 2010.06.25/outbox.cif.g09.slc.cpg/sg2_140_cif.got.tgz:279051.got - 2010.06.27 13:26:56.
