data_PCOD8028333
_publ_section_title
;
Structure prediction by ZEFSAII (Michael W. Deem and Ramdas Pophale) SiO2 
 PCOD8028333
Probable space group: P -1
;
_chemical_formula_sum "Si O2"
_cell_formula_units_Z 16
_cell_length_a 11.394044
_cell_length_b 14.027479
_cell_length_c 10.266359
_cell_angle_alpha 114.679453
_cell_angle_beta 94.780355
_cell_angle_gamma 32.920488
_cell_volume 681.497996
_symmetry_space_group_name_H-M "P -1"
_symmetry_group_IT_number 2
_symmetry_cell_setting 'triclinic'
loop_
_space_group_symop_operation_xyz
x,y,z
-x,-y,-z
loop_
_atom_site_type_symbol
_atom_site_label
_atom_site_fract_x
_atom_site_fract_y
_atom_site_fract_z
Si Si1 0.050598 0.462928 0.330873
Si Si2 0.590789 0.002148 0.199983
Si Si3 0.100413 0.001003 0.177254
Si Si4 0.891802 0.407304 0.102797
Si Si5 0.677051 0.364874 0.134760
Si Si6 0.768873 0.885092 0.433969
Si Si7 0.515264 0.837805 0.174879
Si Si8 0.879683 0.199137 0.547005
O O1 0.000000 0.500000 0.500000
O O2 0.953257 0.429123 0.246892
O O3 0.927954 0.653557 0.345187
O O4 0.358832 0.234761 0.228010
O O5 0.590681 0.023034 0.367334
O O6 0.578459 0.885324 0.114059
O O7 0.845410 0.849698 0.073810
O O8 0.289708 0.949647 0.153633
O O9 0.275262 0.755240 0.049477
O O10 0.917935 0.152437 0.125241
O O11 0.912162 0.160988 0.373932
O O12 0.686975 0.477993 0.155158
O O13 0.774724 0.566277 0.062816
O O14 0.413628 0.553980 0.295197
O O15 0.967799 0.821645 0.398442
O O16 0.567370 0.061235 0.630558
O O17 0.000000 0.000000 0.500000
#
# Coordination Sequence:
#
# PCOD8028333 Si02
#       8
#     2   2   2   2   2   2   2   2
#     4  12  25  45  73 102 142 185 226 287 356 419
#     4  12  25  44  70 103 146 176 233 288 349 427
#     4  10  25  45  72 101 134 188 234 298 352 415
#     4  12  27  42  69 104 138 187 228 288 356 421
#     4  11  25  47  69 100 145 181 239 296 351 416
#     4  11  25  46  71 107 134 188 235 286 355 416
#     4  11  22  45  69  97 143 176 232 290 346 424
#     4  11  26  46  72 102 139 185 242 290 352 424
#
# _framework density 23.477692999999999
#
# number of rings (size 3 to 8) (size 9 to 14) (size 15 to 20)
#    0.000    0.750    2.500    4.500    5.250    3.000 
#    0.000    0.000    0.000    0.000    0.000    0.000 
#    0.000    0.000    0.000    0.000    0.000    0.000 
#
# Total GULP energy -198398.898768 kJ/mol
# GULP energy per Si atom -12399.931173 kJ/mol
# Density = 2.342426 g / cm^3
# Si number density = 23.477693 Si / 1000 Ang^3
#
#
#
# Elastic Constant Matrix: (Units=GPa)
#
#
# Indices 1 2 3 4 5 6 
#
# 1 107.7309 9.9519 34.3378 -11.6670 2.6274 -5.4665
# 2 9.9519 66.3457 -0.7004 9.7487 9.6829 -9.8681
# 3 34.3378 -0.7004 79.5230 15.5154 0.9833 -17.8664
# 4 -11.6670 9.7487 15.5154 28.3277 -5.6290 2.0005
# 5 2.6274 9.6829 0.9833 -5.6290 41.0390 6.7617
# 6 -5.4665 -9.8681 -17.8664 2.0005 6.7617 28.5663
#
#
#
# Elastic Compliance Matrix: (Units=1/GPa)
#
#
# Indices 1 2 3 4 5 6 
#
# 1 0.014916 -0.006869 -0.011874 0.016606 0.004749 -0.009232
# 2 -0.006869 0.023593 0.011415 -0.020706 -0.011219 0.018080
# 3 -0.011874 0.011415 0.028938 -0.028473 -0.010528 0.024255
# 4 0.016606 -0.020706 -0.028473 0.070929 0.019397 -0.031342
# 5 0.004749 -0.011219 -0.010528 0.019397 0.032696 -0.018649
# 6 -0.009232 0.018080 0.024255 -0.031342 -0.018649 0.061265
#
#
# Mechanical properties :
#
#
# Convention : Reuss Voigt Hill
#
# Bulk Modulus (GPa) = 18.94328 37.86422 28.40375
# Shear Modulus (GPa) = 18.89725 33.58728 26.24227
#
# Velocity S-wave (km/s) = 2.84016 3.78644 3.34691
# Velocity P-wave (km/s) = 4.34068 5.93960 5.20194
#
# Compressibility (1/GPa) = 0.05278918
#
# Stress axis : x y z
#
# Youngs Moduli (GPa) = 67.04335 42.38605 34.55721
#
# Poissons Ratio (x) = 0.29115 0.41033
# Poissons Ratio (y) = 0.46053 -0.39446
# Poissons Ratio (z) = 0.79607 -0.48382
#
# Static dielectric constant tensor:
#      x y z
#    x 4.479120 -0.198640 0.153900 
#    y -0.198640 4.255090 0.273380 
#    z 0.153900 0.273380 4.364230 
# 
# 
# High freq. dielectric constant tensor:
#      x y z
#    x 1.934480 -0.013580 0.001540 
#    y -0.013580 1.939560 0.004520 
#    z 0.001540 0.004520 1.936770 
# 
# From -- ./inp_files/434253.got.cif
#   From: 2010.06.25/outbox.cif.g09.slc.cpg/sg2_218_cif.got.tgz:434253.got - 2010.06.27 13:26:56.
