data_PCOD8028704
_publ_section_title
;
Structure prediction by ZEFSAII (Michael W. Deem and Ramdas Pophale) SiO2 
 PCOD8028704
Probable space group: P -1
;
_chemical_formula_sum "Si O2"
_cell_formula_units_Z 14
_cell_length_a 19.098571
_cell_length_b 10.878946
_cell_length_c 8.741188
_cell_angle_alpha 117.353511
_cell_angle_beta 40.433235
_cell_angle_gamma 144.266269
_cell_volume 624.886956
_symmetry_space_group_name_H-M "P -1"
_symmetry_group_IT_number 2
_symmetry_cell_setting 'triclinic'
loop_
_space_group_symop_operation_xyz
x,y,z
-x,-y,-z
loop_
_atom_site_type_symbol
_atom_site_label
_atom_site_fract_x
_atom_site_fract_y
_atom_site_fract_z
Si Si1 0.487443 0.793087 0.323747
Si Si2 0.638643 0.593238 0.536619
Si Si3 0.998084 0.583345 0.397410
Si Si4 0.316638 0.445652 0.889256
Si Si5 0.389590 0.778591 0.154653
Si Si6 0.802977 0.305871 0.143282
Si Si7 0.977568 0.061088 0.415573
O O1 0.479022 0.622331 0.275603
O O2 0.505299 0.834261 0.134209
O O3 0.297281 0.654941 0.628478
O O4 0.658261 0.034611 0.268544
O O5 0.509729 0.580507 0.684439
O O6 0.710858 0.580273 0.262955
O O7 0.799940 0.827632 0.493373
O O8 0.794218 0.349666 0.534927
O O9 0.000000 0.500000 0.500000
O O10 0.040037 0.791272 0.449785
O O11 0.153543 0.665903 0.091477
O O12 0.318861 0.600328 0.043090
O O13 0.148282 0.193708 0.102714
O O14 0.500000 0.000000 0.000000
O O15 0.000000 0.500000 0.000000
O O16 0.000000 0.000000 0.500000
#
# Coordination Sequence:
#
# PCOD8028704 Si02
#       7
#     2   2   2   2   2   2   2
#     4  11  26  43  71 102 134 183 232 284 345 416
#     4  11  25  46  71  99 137 183 228 289 347 408
#     4  11  25  44  69 105 135 184 228 284 350 408
#     4  10  26  45  67 102 135 181 231 283 346 409
#     4  11  24  44  69 101 141 177 231 288 341 416
#     4  11  25  45  66 102 137 177 226 282 346 411
#     4  11  26  46  70 102 141 183 233 282 344 425
#
# _framework density 22.404052
#
# number of rings (size 3 to 8) (size 9 to 14) (size 15 to 20)
#    0.000    1.143    1.429    3.000   14.000    1.143 
#    2.571    0.000    0.000    0.000    0.000    0.000 
#    0.000    0.000    0.000    0.000    0.000    0.000 
#
# Total GULP energy -173511.927423 kJ/mol
# GULP energy per Si atom -12393.709102 kJ/mol
# Density = 2.235306 g / cm^3
# Si number density = 22.404052 Si / 1000 Ang^3
#
#
#
# Elastic Constant Matrix: (Units=GPa)
#
#
# Indices 1 2 3 4 5 6 
#
# 1 127.0154 52.7268 24.7398 -13.0172 24.2830 -0.1317
# 2 52.7268 109.9689 21.1931 -28.7654 5.4879 6.5375
# 3 24.7398 21.1931 97.5844 -10.8514 10.3372 3.2159
# 4 -13.0172 -28.7654 -10.8514 40.5808 4.2051 -3.6991
# 5 24.2830 5.4879 10.3372 4.2051 37.7309 -11.6360
# 6 -0.1317 6.5375 3.2159 -3.6991 -11.6360 39.0263
#
#
#
# Elastic Compliance Matrix: (Units=1/GPa)
#
#
# Indices 1 2 3 4 5 6 
#
# 1 0.011377 -0.004684 -0.001045 0.000654 -0.006748 -0.001041
# 2 -0.004684 0.013639 -0.000849 0.007808 -0.000073 -0.001512
# 3 -0.001045 -0.000849 0.011317 0.002267 -0.003013 -0.001477
# 4 0.000654 0.007808 0.002267 0.031570 -0.005764 -0.000219
# 5 -0.006748 -0.000073 -0.003013 -0.005764 0.035494 0.010274
# 6 -0.001041 -0.001512 -0.001477 -0.000219 0.010274 0.029038
#
#
# Mechanical properties :
#
#
# Convention : Reuss Voigt Hill
#
# Bulk Modulus (GPa) = 43.14572 59.09867 51.12220
# Shear Modulus (GPa) = 32.61253 39.19489 35.90371
#
# Velocity S-wave (km/s) = 3.81944 4.18719 4.00753
# Velocity P-wave (km/s) = 6.22500 7.05780 6.65444
#
# Compressibility (1/GPa) = 0.02317727
#
# Stress axis : x y z
#
# Youngs Moduli (GPa) = 87.89562 73.32048 88.36493
#
# Poissons Ratio (x) = 0.34341 0.09236
# Poissons Ratio (y) = 0.41168 0.07500
# Poissons Ratio (z) = 0.09187 0.06223
#
# Static dielectric constant tensor:
#      x y z
#    x 3.848200 -0.112220 0.224440 
#    y -0.112220 3.579640 0.323260 
#    z 0.224440 0.323260 4.532970 
# 
# 
# High freq. dielectric constant tensor:
#      x y z
#    x 1.879080 0.011070 0.004280 
#    y 0.011070 1.885990 -0.010700 
#    z 0.004280 -0.010700 1.903630 
# 
# From -- ./inp_files/346270.got.cif
#   From: 2010.06.25/outbox.cif.g09.slc.cpg/sg2_174_cif.got.tgz:346270.got - 2010.06.27 13:26:56.
