data_PCOD8028059
_publ_section_title
;
Structure prediction by ZEFSAII (Michael W. Deem and Ramdas Pophale) SiO2 
 PCOD8028059
Probable space group: P -1
;
_chemical_formula_sum "Si O2"
_cell_formula_units_Z 16
_cell_length_a 19.067362
_cell_length_b 11.686153
_cell_length_c 16.415915
_cell_angle_alpha 135.014348
_cell_angle_beta 21.124333
_cell_angle_gamma 144.982455
_cell_volume 727.514644
_symmetry_space_group_name_H-M "P -1"
_symmetry_group_IT_number 2
_symmetry_cell_setting 'triclinic'
loop_
_space_group_symop_operation_xyz
x,y,z
-x,-y,-z
loop_
_atom_site_type_symbol
_atom_site_label
_atom_site_fract_x
_atom_site_fract_y
_atom_site_fract_z
Si Si1 0.576182 0.334441 0.416789
Si Si2 0.144239 0.278512 0.597200
Si Si3 0.715075 0.799654 0.986726
Si Si4 0.480189 0.547335 0.861683
Si Si5 0.726727 0.933657 0.537553
Si Si6 0.860581 0.762700 0.051923
Si Si7 0.414554 0.086285 0.977956
Si Si8 0.696857 0.092251 0.262318
O O1 0.817305 0.573155 0.294109
O O2 0.470438 0.269722 0.407321
O O3 0.380674 0.320826 0.678549
O O4 0.636615 0.183210 0.300953
O O5 0.287202 0.394363 0.416302
O O6 0.236305 0.149494 0.462071
O O7 0.851752 0.129510 0.820352
O O8 0.541132 0.558616 0.081938
O O9 0.597192 0.819794 0.045533
O O10 0.005456 0.902296 0.712959
O O11 0.698735 0.912806 0.136684
O O12 0.219813 0.378264 0.012160
O O13 0.508161 0.751838 0.952174
O O14 0.621443 0.054741 0.733921
O O15 0.033678 0.731869 0.901413
O O16 0.000000 0.000000 0.000000
O O17 0.500000 0.000000 0.500000
#
# Coordination Sequence:
#
# PCOD8028059 Si02
#       8
#     2   2   2   2   2   2   2   2
#     4  11  21  38  64  95 128 172 215 265 332 384
#     4  10  25  43  65  96 133 175 222 276 317 384
#     4  11  23  43  67  99 133 166 216 278 325 391
#     4  11  23  44  70  95 133 178 215 272 330 379
#     4  11  23  43  66  95 135 175 216 269 333 386
#     4  11  20  38  61  95 135 161 205 272 326 381
#     4  11  25  45  67  94 133 180 225 260 320 400
#     4  12  21  35  66 100 132 167 207 267 338 390
#
# _framework density 21.992685000000002
#
# number of rings (size 3 to 8) (size 9 to 14) (size 15 to 20)
#    0.000    1.000    5.000    1.875    0.000    3.500 
#    0.000    8.750    0.000    0.000    0.000    0.000 
#    0.000    0.000    0.000    0.000    0.000    0.000 
#
# Total GULP energy -198389.514305 kJ/mol
# GULP energy per Si atom -12399.344644 kJ/mol
# Density = 2.194263 g / cm^3
# Si number density = 21.992685 Si / 1000 Ang^3
#
#
#
# Elastic Constant Matrix: (Units=GPa)
#
#
# Indices 1 2 3 4 5 6 
#
# 1 52.0453 6.8342 25.3493 -4.2605 -2.1751 -2.4342
# 2 6.8342 101.6167 47.3752 -1.4054 2.4157 12.2218
# 3 25.3493 47.3752 108.5261 6.8811 -5.8446 -4.1720
# 4 -4.2605 -1.4054 6.8811 34.7873 -5.3897 4.8575
# 5 -2.1751 2.4157 -5.8446 -5.3897 34.0186 2.4206
# 6 -2.4342 12.2218 -4.1720 4.8575 2.4206 34.9588
#
#
#
# Elastic Compliance Matrix: (Units=1/GPa)
#
#
# Indices 1 2 3 4 5 6 
#
# 1 0.022348 0.001389 -0.006050 0.004183 0.000975 -0.000300
# 2 0.001389 0.013648 -0.006738 0.002673 -0.001204 -0.005767
# 3 -0.006050 -0.006738 0.014072 -0.004124 0.001566 0.004078
# 4 0.004183 0.002673 -0.004124 0.031750 0.004818 -0.005881
# 5 0.000975 -0.001204 0.001566 0.004818 0.030727 -0.002121
# 6 -0.000300 -0.005767 0.004078 -0.005881 -0.002121 0.032051
#
#
# Mechanical properties :
#
#
# Convention : Reuss Voigt Hill
#
# Bulk Modulus (GPa) = 36.67378 46.81171 41.74274
# Shear Modulus (GPa) = 28.33115 32.92823 30.62969
#
# Velocity S-wave (km/s) = 3.59306 3.87361 3.73597
# Velocity P-wave (km/s) = 5.82452 6.42945 6.13445
#
# Compressibility (1/GPa) = 0.02726744
#
# Stress axis : x y z
#
# Youngs Moduli (GPa) = 44.74735 73.26974 71.06504
#
# Poissons Ratio (x) = -0.10174 0.42996
# Poissons Ratio (y) = -0.06213 0.47885
# Poissons Ratio (z) = 0.27073 0.49371
#
# Static dielectric constant tensor:
#      x y z
#    x 4.444560 0.765880 -0.383210 
#    y 0.765880 5.244860 -0.509680 
#    z -0.383210 -0.509680 4.111600 
# 
# 
# High freq. dielectric constant tensor:
#      x y z
#    x 1.866200 0.005390 0.000560 
#    y 0.005390 1.865860 -0.002750 
#    z 0.000560 -0.002750 1.861970 
# 
# From -- ./inp_files/315835.got.cif
#   From: 2010.06.25/outbox.cif.g09.slc.cpg/sg2_158_cif.got.tgz:315835.got - 2010.06.27 13:26:56.
