data_PCOD8028906
_publ_section_title
;
Structure prediction by ZEFSAII (Michael W. Deem and Ramdas Pophale) SiO2 
 PCOD8028906
Probable space group: P -1
;
_chemical_formula_sum "Si O2"
_cell_formula_units_Z 16
_cell_length_a 10.292532
_cell_length_b 10.385483
_cell_length_c 16.601815
_cell_angle_alpha 40.945819
_cell_angle_beta 48.830448
_cell_angle_gamma 76.053609
_cell_volume 748.124312
_symmetry_space_group_name_H-M "P -1"
_symmetry_group_IT_number 2
_symmetry_cell_setting 'triclinic'
loop_
_space_group_symop_operation_xyz
x,y,z
-x,-y,-z
loop_
_atom_site_type_symbol
_atom_site_label
_atom_site_fract_x
_atom_site_fract_y
_atom_site_fract_z
Si Si1 0.902933 0.651342 0.482040
Si Si2 0.966868 0.261206 0.223497
Si Si3 0.525175 0.304160 0.039015
Si Si4 0.516979 0.571910 0.176156
Si Si5 0.103507 0.997609 0.376858
Si Si6 0.798551 0.234622 0.066806
Si Si7 0.457681 0.085205 0.395573
Si Si8 0.031715 0.087589 0.124556
O O1 0.660142 0.492997 0.656045
O O2 0.000000 0.500000 0.500000
O O3 0.967075 0.767647 0.489642
O O4 0.972384 0.831554 0.294637
O O5 0.922424 0.174121 0.190835
O O6 0.779588 0.095414 0.437869
O O7 0.143372 0.219095 0.201962
O O8 0.035412 0.524374 0.074271
O O9 0.727925 0.297742 0.982319
O O10 0.333448 0.058865 0.264692
O O11 0.500000 0.500000 0.000000
O O12 0.525379 0.316891 0.936462
O O13 0.517058 0.347212 0.254663
O O14 0.726165 0.748629 0.052174
O O15 0.000000 0.000000 0.500000
O O16 0.591472 0.076991 0.273894
O O17 0.924179 0.099833 0.078344
O O18 0.500000 0.000000 0.500000
#
# Coordination Sequence:
#
# PCOD8028906 Si02
#       8
#     2   2   2   2   2   2   2   2
#     4  11  25  44  68  92 120 165 220 268 309 370
#     4  11  19  30  52  83 123 163 199 243 311 365
#     4  12  20  34  56  93 129 169 200 246 318 381
#     4  12  21  38  61  85 124 160 213 259 311 375
#     4  11  20  37  60  92 129 159 203 258 315 373
#     4  12  22  33  54  87 136 160 203 254 315 375
#     4  12  19  29  52  83 121 170 197 245 314 369
#     4  11  21  39  57  88 120 165 209 259 307 375
#
# _framework density 21.38682
#
# number of rings (size 3 to 8) (size 9 to 14) (size 15 to 20)
#    0.000    0.500   10.000    2.625    0.000    0.500 
#    0.000    0.000    0.000    1.500    0.000    0.000 
#    0.000    0.000    0.000    0.000    0.000    0.000 
#
# Total GULP energy -198229.905103 kJ/mol
# GULP energy per Si atom -12389.369069 kJ/mol
# Density = 2.133814 g / cm^3
# Si number density = 21.386820 Si / 1000 Ang^3
#
#
#
# Elastic Constant Matrix: (Units=GPa)
#
#
# Indices 1 2 3 4 5 6 
#
# 1 133.1546 30.9621 36.1465 -6.3497 1.8360 -34.7842
# 2 30.9621 59.0178 25.6622 -7.2176 1.9058 -18.7514
# 3 36.1465 25.6622 126.8875 3.3177 -15.7947 -19.7316
# 4 -6.3497 -7.2176 3.3177 18.7454 -14.0264 4.4820
# 5 1.8360 1.9058 -15.7947 -14.0264 34.3495 2.5238
# 6 -34.7842 -18.7514 -19.7316 4.4820 2.5238 25.4677
#
#
#
# Elastic Compliance Matrix: (Units=1/GPa)
#
#
# Indices 1 2 3 4 5 6 
#
# 1 0.012053 -0.001073 -0.001143 -0.002176 -0.003136 0.015481
# 2 -0.001073 0.023469 -0.002732 0.005004 -0.001410 0.012957
# 3 -0.001143 -0.002732 0.009894 -0.001110 0.004023 0.003889
# 4 -0.002176 0.005004 -0.001110 0.086072 0.035860 -0.018850
# 5 -0.003136 -0.001410 0.004023 0.035860 0.046818 -0.013155
# 6 0.015481 0.012957 0.003889 -0.018850 -0.013155 0.077585
#
#
# Mechanical properties :
#
#
# Convention : Reuss Voigt Hill
#
# Bulk Modulus (GPa) = 28.15264 56.06684 42.10974
# Shear Modulus (GPa) = 18.00979 30.79847 24.40413
#
# Velocity S-wave (km/s) = 2.90504 3.79894 3.38166
# Velocity P-wave (km/s) = 4.94413 6.74649 5.91437
#
# Compressibility (1/GPa) = 0.03552064
#
# Stress axis : x y z
#
# Youngs Moduli (GPa) = 82.96397 42.60932 101.07365
#
# Poissons Ratio (x) = 0.04570 0.11551
# Poissons Ratio (y) = 0.08899 0.27617
# Poissons Ratio (z) = 0.09481 0.11642
#
# Static dielectric constant tensor:
#      x y z
#    x 4.220760 -0.250750 0.209050 
#    y -0.250750 3.210240 0.046280 
#    z 0.209050 0.046280 4.053690 
# 
# 
# High freq. dielectric constant tensor:
#      x y z
#    x 1.857390 -0.035370 -0.001260 
#    y -0.035370 1.758700 0.009040 
#    z -0.001260 0.009040 1.861560 
# 
# From -- ./inp_files/433097.got.cif
#   From: 2010.06.25/outbox.cif.g09.slc.cpg/sg2_217_cif.got.tgz:433097.got - 2010.06.27 13:26:56.
