data_PCOD8028340
_publ_section_title
;
Structure prediction by ZEFSAII (Michael W. Deem and Ramdas Pophale) SiO2 
 PCOD8028340
Probable space group: P -1
;
_chemical_formula_sum "Si O2"
_cell_formula_units_Z 16
_cell_length_a 8.632002
_cell_length_b 12.485210
_cell_length_c 18.001806
_cell_angle_alpha 148.832231
_cell_angle_beta 45.582766
_cell_angle_gamma 133.068582
_cell_volume 698.413055
_symmetry_space_group_name_H-M "P -1"
_symmetry_group_IT_number 2
_symmetry_cell_setting 'triclinic'
loop_
_space_group_symop_operation_xyz
x,y,z
-x,-y,-z
loop_
_atom_site_type_symbol
_atom_site_label
_atom_site_fract_x
_atom_site_fract_y
_atom_site_fract_z
Si Si1 0.398687 0.840827 0.002503
Si Si2 0.181067 0.542363 0.189947
Si Si3 0.527192 0.954336 0.376703
Si Si4 0.030178 0.039534 0.715260
Si Si5 0.071913 0.434494 0.856207
Si Si6 0.251548 0.111113 0.960236
Si Si7 0.549786 0.226369 0.395137
Si Si8 0.838955 0.623351 0.463175
O O1 0.599309 0.823711 0.978529
O O2 0.206066 0.934112 0.160460
O O3 0.295914 0.608740 0.862968
O O4 0.500000 0.000000 0.000000
O O5 0.357077 0.745766 0.281139
O O6 0.124200 0.574741 0.142597
O O7 0.955375 0.506676 0.293062
O O8 0.270141 0.328726 0.037839
O O9 0.500000 0.000000 0.500000
O O10 0.506454 0.159744 0.456284
O O11 0.777725 0.914875 0.259140
O O12 0.019461 0.800101 0.550240
O O13 0.111892 0.197573 0.711322
O O14 0.000000 0.500000 0.000000
O O15 0.358122 0.957897 0.783815
O O16 0.000000 0.000000 0.000000
O O17 0.721731 0.452957 0.462538
O O18 0.322418 0.247994 0.446136
#
# Coordination Sequence:
#
# PCOD8028340 Si02
#       8
#     2   2   2   2   2   2   2   2
#     4  11  25  45  72 107 146 194 244 306 368 443
#     4  12  26  46  77 105 148 193 249 305 370 436
#     4  12  28  47  72 113 148 196 247 306 368 443
#     4  11  24  48  70 104 150 189 251 294 376 440
#     4  10  25  45  72 106 144 195 241 303 363 442
#     4  12  25  46  73 110 144 187 246 304 370 433
#     4  11  27  46  75 105 149 187 249 307 369 439
#     4  11  24  49  74 105 142 201 241 303 374 441
#
# _framework density 22.909078000000001
#
# number of rings (size 3 to 8) (size 9 to 14) (size 15 to 20)
#    0.000    0.750    3.750    2.250    8.750    2.000 
#    2.250    0.000    0.000    0.000    0.000    0.000 
#    0.000    0.000    0.000    0.000    0.000    0.000 
#
# Total GULP energy -198401.745799 kJ/mol
# GULP energy per Si atom -12400.109112 kJ/mol
# Density = 2.285694 g / cm^3
# Si number density = 22.909078 Si / 1000 Ang^3
#
#
#
# Elastic Constant Matrix: (Units=GPa)
#
#
# Indices 1 2 3 4 5 6 
#
# 1 174.2813 72.0635 50.0862 22.3383 5.5891 0.6158
# 2 72.0635 136.6662 43.1264 34.2521 -2.0552 -11.5795
# 3 50.0862 43.1264 97.9513 23.3672 -3.6826 -3.2263
# 4 22.3383 34.2521 23.3672 49.1566 4.2731 -6.5451
# 5 5.5891 -2.0552 -3.6826 4.2731 40.0081 3.8099
# 6 0.6158 -11.5795 -3.2263 -6.5451 3.8099 44.7432
#
#
#
# Elastic Compliance Matrix: (Units=1/GPa)
#
#
# Indices 1 2 3 4 5 6 
#
# 1 0.007991 -0.003504 -0.002645 0.000050 -0.001442 -0.001077
# 2 -0.003504 0.011225 -0.001791 -0.005229 0.001274 0.001951
# 3 -0.002645 -0.001791 0.013400 -0.004123 0.001973 -0.000232
# 4 0.000050 -0.005229 -0.004123 0.026589 -0.003738 0.002557
# 5 -0.001442 0.001274 0.001973 -0.003738 0.026059 -0.002274
# 6 -0.001077 0.001951 -0.000232 0.002557 -0.002274 0.023420
#
#
# Mechanical properties :
#
#
# Convention : Reuss Voigt Hill
#
# Bulk Modulus (GPa) = 59.75088 82.16124 70.95606
# Shear Modulus (GPa) = 38.41957 43.02310 40.72134
#
# Velocity S-wave (km/s) = 4.09962 4.33828 4.22064
# Velocity P-wave (km/s) = 6.96761 7.81257 7.40215
#
# Compressibility (1/GPa) = 0.01673616
#
# Stress axis : x y z
#
# Youngs Moduli (GPa) = 125.14783 89.08774 74.62743
#
# Poissons Ratio (x) = 0.31219 0.19736
# Poissons Ratio (y) = 0.43856 0.13364
# Poissons Ratio (z) = 0.33096 0.15953
#
# Static dielectric constant tensor:
#      x y z
#    x 4.294510 0.026150 -0.135900 
#    y 0.026150 4.438480 0.298080 
#    z -0.135900 0.298080 4.291480 
# 
# 
# High freq. dielectric constant tensor:
#      x y z
#    x 1.915930 0.008370 -0.006710 
#    y 0.008370 1.916750 0.015520 
#    z -0.006710 0.015520 1.906340 
# 
# From -- ./inp_files/589698.got.cif
#   From: 2010.06.25/outbox.cif.g09.slc.cpg/sg2_295_cif.got.tgz:589698.got - 2010.06.27 13:26:56.
