data_PCOD8028274
_publ_section_title
;
Structure prediction by ZEFSAII (Michael W. Deem and Ramdas Pophale) SiO2 
 PCOD8028274
Probable space group: P -1
;
_chemical_formula_sum "Si O2"
_cell_formula_units_Z 16
_cell_length_a 16.723604
_cell_length_b 9.143732
_cell_length_c 11.168966
_cell_angle_alpha 78.129020
_cell_angle_beta 137.354413
_cell_angle_gamma 67.332914
_cell_volume 664.772600
_symmetry_space_group_name_H-M "P -1"
_symmetry_group_IT_number 2
_symmetry_cell_setting 'triclinic'
loop_
_space_group_symop_operation_xyz
x,y,z
-x,-y,-z
loop_
_atom_site_type_symbol
_atom_site_label
_atom_site_fract_x
_atom_site_fract_y
_atom_site_fract_z
Si Si1 0.802815 0.543440 0.412302
Si Si2 0.237914 0.158408 0.066325
Si Si3 0.057938 0.562233 0.956440
Si Si4 0.325034 0.906511 0.641618
Si Si5 0.620113 0.242354 0.541347
Si Si6 0.548707 0.975740 0.905493
Si Si7 0.805185 0.266138 0.908209
Si Si8 0.112564 0.863771 0.519823
O O1 0.019824 0.328754 0.750845
O O2 0.617531 0.741599 0.270730
O O3 0.795225 0.396985 0.350201
O O4 0.759266 0.739531 0.251390
O O5 0.224369 0.332449 0.086086
O O6 0.404171 0.001142 0.173593
O O7 0.331907 0.958779 0.304271
O O8 0.869535 0.789565 0.627671
O O9 0.000000 0.500000 0.000000
O O10 0.140636 0.625489 0.100001
O O11 0.362880 0.790716 0.575378
O O12 0.494405 0.853476 0.869033
O O13 0.290350 0.807986 0.716740
O O14 0.788178 0.186512 0.782657
O O15 0.400569 0.529001 0.279150
O O16 0.969103 0.037219 0.219238
O O17 0.000000 0.000000 0.500000
#
# Coordination Sequence:
#
# PCOD8028274 Si02
#       8
#     2   2   2   2   2   2   2   2
#     4  11  26  49  71 104 144 189 247 297 357 422
#     4  12  24  44  75 103 142 191 234 298 363 427
#     4  11  23  40  68 101 145 183 231 290 361 427
#     4  11  25  44  69 106 144 185 238 300 358 427
#     4  11  24  44  69 105 144 184 240 296 358 432
#     4  11  27  46  74 108 142 190 244 301 354 428
#     4  10  25  45  68 105 141 189 240 294 356 430
#     4  11  27  48  75 101 142 197 240 297 362 429
#
# _framework density 24.068382
#
# number of rings (size 3 to 8) (size 9 to 14) (size 15 to 20)
#    0.000    1.000    3.750    1.125    7.000    8.500 
#    0.000    0.000    0.000    0.000    0.000    0.000 
#    0.000    0.000    0.000    0.000    0.000    0.000 
#
# Total GULP energy -198278.282174 kJ/mol
# GULP energy per Si atom -12392.392636 kJ/mol
# Density = 2.401360 g / cm^3
# Si number density = 24.068382 Si / 1000 Ang^3
#
#
#
# Elastic Constant Matrix: (Units=GPa)
#
#
# Indices 1 2 3 4 5 6 
#
# 1 125.3813 41.8395 -6.0570 -2.7335 3.6616 -10.0265
# 2 41.8395 139.0565 5.2586 -10.9879 5.3046 -12.6255
# 3 -6.0570 5.2586 40.7902 -7.2424 9.6016 3.7492
# 4 -2.7335 -10.9879 -7.2424 32.6468 -2.6798 1.2148
# 5 3.6616 5.3046 9.6016 -2.6798 22.6821 0.3415
# 6 -10.0265 -12.6255 3.7492 1.2148 0.3415 43.8261
#
#
#
# Elastic Compliance Matrix: (Units=1/GPa)
#
#
# Indices 1 2 3 4 5 6 
#
# 1 0.009096 -0.002632 0.002009 0.000139 -0.001705 0.001161
# 2 -0.002632 0.008400 -0.001044 0.002236 -0.000861 0.001852
# 3 0.002009 -0.001044 0.028853 0.005351 -0.011626 -0.002367
# 4 0.000139 0.002236 0.005351 0.032695 0.001063 -0.000697
# 5 -0.001705 -0.000861 -0.011626 0.001063 0.049612 -0.000060
# 6 0.001161 0.001852 -0.002367 -0.000697 -0.000060 0.023839
#
#
# Mechanical properties :
#
#
# Convention : Reuss Voigt Hill
#
# Bulk Modulus (GPa) = 23.24687 43.03448 33.14067
# Shear Modulus (GPa) = 29.38269 37.44345 33.41307
#
# Velocity S-wave (km/s) = 3.49779 3.94853 3.72997
# Velocity P-wave (km/s) = 5.09827 6.22147 5.68767
#
# Compressibility (1/GPa) = 0.04301654
#
# Stress axis : x y z
#
# Youngs Moduli (GPa) = 109.93241 119.04368 34.65839
#
# Poissons Ratio (x) = 0.31328 -0.06964
# Poissons Ratio (y) = 0.28930 0.03619
# Poissons Ratio (z) = -0.22087 0.12431
#
# Static dielectric constant tensor:
#      x y z
#    x 5.565960 1.749700 0.382850 
#    y 1.749700 6.979830 0.335920 
#    z 0.382850 0.335920 4.569280 
# 
# 
# High freq. dielectric constant tensor:
#      x y z
#    x 1.944400 -0.003840 0.001870 
#    y -0.003840 1.972890 -0.007890 
#    z 0.001870 -0.007890 1.965950 
# 
# From -- ./inp_files/461267.got.cif
#   From: 2010.06.25/outbox.cif.g09.slc.cpg/sg2_231_cif.got.tgz:461267.got - 2010.06.27 13:26:56.
