data_PCOD8028020
_publ_section_title
;
Structure prediction by ZEFSAII (Michael W. Deem and Ramdas Pophale) SiO2 
 PCOD8028020
Probable space group: P -1
;
_chemical_formula_sum "Si O2"
_cell_formula_units_Z 14
_cell_length_a 5.013023
_cell_length_b 15.510182
_cell_length_c 15.960131
_cell_angle_alpha 142.005526
_cell_angle_beta 77.637858
_cell_angle_gamma 121.094988
_cell_volume 608.763883
_symmetry_space_group_name_H-M "P -1"
_symmetry_group_IT_number 2
_symmetry_cell_setting 'triclinic'
loop_
_space_group_symop_operation_xyz
x,y,z
-x,-y,-z
loop_
_atom_site_type_symbol
_atom_site_label
_atom_site_fract_x
_atom_site_fract_y
_atom_site_fract_z
Si Si1 0.689810 0.168552 0.860840
Si Si2 0.214830 0.795866 0.546828
Si Si3 0.750183 0.734084 0.747265
Si Si4 0.419766 0.315947 0.880087
Si Si5 0.604447 0.877986 0.422896
Si Si6 0.576721 0.926980 0.018803
Si Si7 0.467792 0.628008 0.506085
O O1 0.642129 0.312993 0.938380
O O2 0.694853 0.163329 0.958075
O O3 0.027050 0.190111 0.829100
O O4 0.386432 0.994940 0.705794
O O5 0.388810 0.771738 0.437477
O O6 0.264137 0.702990 0.548300
O O7 0.820088 0.708809 0.495793
O O8 0.511815 0.671062 0.634533
O O9 0.769569 0.576906 0.652195
O O10 0.615272 0.780169 0.871451
O O11 0.100149 0.909538 0.832816
O O12 0.507695 0.262394 0.748147
O O13 0.500000 0.500000 0.000000
O O14 0.500000 0.000000 0.500000
O O15 0.000000 0.000000 0.500000
O O16 0.500000 0.000000 0.000000
#
# Coordination Sequence:
#
# PCOD8028020 Si02
#       7
#     2   2   2   2   2   2   2
#     4  12  25  45  74  98 138 184 233 274 354 420
#     4  12  23  41  71  98 133 176 232 274 344 412
#     4  10  25  42  64  99 140 175 228 284 338 397
#     4  12  27  47  71 104 139 178 229 296 349 407
#     4  12  23  43  69  98 132 171 223 285 334 408
#     4  11  25  43  71  97 141 187 229 277 345 417
#     4  11  25  42  67 101 135 178 226 286 335 398
#
# _framework density 22.997423000000001
#
# number of rings (size 3 to 8) (size 9 to 14) (size 15 to 20)
#    0.000    0.571    4.286    3.000    6.000    3.429 
#    0.000    0.000    0.000    0.000    0.000    0.000 
#    0.000    0.000    0.000    0.000    0.000    0.000 
#
# Total GULP energy -173599.463127 kJ/mol
# GULP energy per Si atom -12399.961652 kJ/mol
# Density = 2.294508 g / cm^3
# Si number density = 22.997423 Si / 1000 Ang^3
#
#
#
# Elastic Constant Matrix: (Units=GPa)
#
#
# Indices 1 2 3 4 5 6 
#
# 1 87.2054 10.0372 13.1475 -2.0539 -13.7338 -10.5478
# 2 10.0372 100.1399 37.9825 -18.2210 -10.2621 -1.8865
# 3 13.1475 37.9825 131.3472 5.6943 -15.8539 -3.8144
# 4 -2.0539 -18.2210 5.6943 32.5105 -4.9926 -9.5653
# 5 -13.7338 -10.2621 -15.8539 -4.9926 27.6992 3.3465
# 6 -10.5478 -1.8865 -3.8144 -9.5653 3.3465 51.4946
#
#
#
# Elastic Compliance Matrix: (Units=1/GPa)
#
#
# Indices 1 2 3 4 5 6 
#
# 1 0.012926 0.000135 -0.000616 0.002762 0.006276 0.002712
# 2 0.000135 0.013622 -0.003776 0.009495 0.004455 0.001721
# 3 -0.000616 -0.003776 0.009270 -0.003435 0.003032 -0.000413
# 4 0.002762 0.009495 -0.003435 0.040517 0.009308 0.007580
# 5 0.006276 0.004455 0.003032 0.009308 0.044214 0.000529
# 6 0.002712 0.001721 -0.000413 0.007580 0.000529 0.021381
#
#
# Mechanical properties :
#
#
# Convention : Reuss Voigt Hill
#
# Bulk Modulus (GPa) = 36.62695 49.00297 42.81496
# Shear Modulus (GPa) = 31.33897 39.50921 35.42409
#
# Velocity S-wave (km/s) = 3.69550 4.14935 3.92899
# Velocity P-wave (km/s) = 5.84552 6.65661 6.26421
#
# Compressibility (1/GPa) = 0.02730230
#
# Stress axis : x y z
#
# Youngs Moduli (GPa) = 77.36270 73.41320 107.87458
#
# Poissons Ratio (x) = -0.00991 0.06648
# Poissons Ratio (y) = -0.01045 0.40738
# Poissons Ratio (z) = 0.04768 0.27724
#
# Static dielectric constant tensor:
#      x y z
#    x 4.178850 -0.002650 -0.114600 
#    y -0.002650 4.175130 0.041070 
#    z -0.114600 0.041070 4.151580 
# 
# 
# High freq. dielectric constant tensor:
#      x y z
#    x 1.910490 0.002280 -0.015340 
#    y 0.002280 1.917650 -0.005380 
#    z -0.015340 -0.005380 1.909410 
# 
# From -- ./inp_files/43584.got.cif
#   From: 2010.06.25/outbox.cif.g09.slc.cpg/sg2_22_cif.got.tgz:43584.got - 2010.06.27 13:26:56.
