data_PCOD8028339
_publ_section_title
;
Structure prediction by ZEFSAII (Michael W. Deem and Ramdas Pophale) SiO2 
 PCOD8028339
Probable space group: P -1
;
_chemical_formula_sum "Si O2"
_cell_formula_units_Z 12
_cell_length_a 8.752289
_cell_length_b 8.501608
_cell_length_c 11.731507
_cell_angle_alpha 103.158019
_cell_angle_beta 140.187850
_cell_angle_gamma 69.424875
_cell_volume 521.952353
_symmetry_space_group_name_H-M "P -1"
_symmetry_group_IT_number 2
_symmetry_cell_setting 'triclinic'
loop_
_space_group_symop_operation_xyz
x,y,z
-x,-y,-z
loop_
_atom_site_type_symbol
_atom_site_label
_atom_site_fract_x
_atom_site_fract_y
_atom_site_fract_z
Si Si1 0.941283 0.830521 0.974297
Si Si2 0.716519 0.790934 0.296538
Si Si3 0.484948 0.910411 0.594504
Si Si4 0.199122 0.656665 0.441939
Si Si5 0.455000 0.549533 0.219267
Si Si6 0.747052 0.720135 0.058838
O O1 0.759438 0.793752 0.766387
O O2 0.793000 0.849229 0.011890
O O3 0.186507 0.678285 0.101633
O O4 0.000000 0.000000 0.000000
O O5 0.639088 0.629689 0.270165
O O6 0.616695 0.824611 0.113247
O O7 0.019464 0.743055 0.460373
O O8 0.602568 0.951926 0.334053
O O9 0.299487 0.796830 0.458907
O O10 0.500000 0.000000 0.500000
O O11 0.425535 0.505288 0.595543
O O12 0.020115 0.599034 0.238478
O O13 0.425586 0.387487 0.108231
#
# Coordination Sequence:
#
# PCOD8028339 Si02
#       6
#     2   2   2   2   2   2
#     4  12  25  47  70 104 140 190 233 287 353 412
#     4  10  25  46  71 103 144 188 231 289 354 414
#     4  12  25  49  72 104 143 188 238 292 345 423
#     4  10  25  45  72 104 142 185 236 285 358 402
#     4  12  23  48  70 106 147 177 242 285 348 428
#     4  10  25  45  72 108 139 186 231 294 353 409
#
# _framework density 22.990604999999999
#
# number of rings (size 3 to 8) (size 9 to 14) (size 15 to 20)
#    1.000    0.000    3.333    3.000    0.000    2.667 
#    3.000    0.000    0.000    0.000    0.000    0.000 
#    0.000    0.000    0.000    0.000    0.000    0.000 
#
# Total GULP energy -148704.026824 kJ/mol
# GULP energy per Si atom -12392.002235 kJ/mol
# Density = 2.293828 g / cm^3
# Si number density = 22.990605 Si / 1000 Ang^3
#
#
#
# Elastic Constant Matrix: (Units=GPa)
#
#
# Indices 1 2 3 4 5 6 
#
# 1 114.7182 39.5022 13.0760 -14.2127 -5.7761 40.2633
# 2 39.5022 52.9721 4.1894 -7.6889 1.9753 13.9925
# 3 13.0760 4.1894 122.0113 -21.4726 0.9679 14.9207
# 4 -14.2127 -7.6889 -21.4726 36.7893 6.7692 5.0683
# 5 -5.7761 1.9753 0.9679 6.7692 48.0163 -0.2141
# 6 40.2633 13.9925 14.9207 5.0683 -0.2141 41.9739
#
#
#
# Elastic Compliance Matrix: (Units=1/GPa)
#
#
# Indices 1 2 3 4 5 6 
#
# 1 0.018174 -0.008208 0.001797 0.008379 0.001234 -0.016342
# 2 -0.008208 0.025907 0.000782 0.003371 -0.002551 -0.001461
# 3 0.001797 0.000782 0.010183 0.007921 -0.001167 -0.006567
# 4 0.008379 0.003371 0.007921 0.038941 -0.004855 -0.016704
# 5 0.001234 -0.002551 -0.001167 -0.004855 0.021791 0.000779
# 6 -0.016342 -0.001461 -0.006567 -0.016704 0.000779 0.044342
#
#
# Mechanical properties :
#
#
# Convention : Reuss Voigt Hill
#
# Bulk Modulus (GPa) = 23.25191 44.80407 34.02799
# Shear Modulus (GPa) = 27.03704 40.88483 33.96094
#
# Velocity S-wave (km/s) = 3.43301 4.22160 3.84756
# Velocity P-wave (km/s) = 5.08426 6.57973 5.87973
#
# Compressibility (1/GPa) = 0.04300721
#
# Stress axis : x y z
#
# Youngs Moduli (GPa) = 55.02267 38.59924 98.20518
#
# Poissons Ratio (x) = 0.31683 -0.17651
# Poissons Ratio (y) = 0.45163 -0.07682
# Poissons Ratio (z) = -0.09890 -0.03019
#
# Static dielectric constant tensor:
#      x y z
#    x 4.375560 0.111900 0.075920 
#    y 0.111900 4.181450 0.084460 
#    z 0.075920 0.084460 4.467180 
# 
# 
# High freq. dielectric constant tensor:
#      x y z
#    x 1.923790 0.021800 0.003690 
#    y 0.021800 1.883460 -0.003360 
#    z 0.003690 -0.003360 1.921070 
# 
# From -- ./inp_files/279330.got.cif
#   From: 2010.06.25/outbox.cif.g09.slc.cpg/sg2_140_cif.got.tgz:279330.got - 2010.06.27 13:26:56.
