data_PCOD8028473
_publ_section_title
;
Structure prediction by ZEFSAII (Michael W. Deem and Ramdas Pophale) SiO2 
 PCOD8028473
Probable space group: P -1
;
_chemical_formula_sum "Si O2"
_cell_formula_units_Z 16
_cell_length_a 5.452385
_cell_length_b 7.642414
_cell_length_c 19.717900
_cell_angle_alpha 81.550825
_cell_angle_beta 60.805947
_cell_angle_gamma 62.285538
_cell_volume 631.572076
_symmetry_space_group_name_H-M "P -1"
_symmetry_group_IT_number 2
_symmetry_cell_setting 'triclinic'
loop_
_space_group_symop_operation_xyz
x,y,z
-x,-y,-z
loop_
_atom_site_type_symbol
_atom_site_label
_atom_site_fract_x
_atom_site_fract_y
_atom_site_fract_z
Si Si1 0.275055 0.525005 0.642824
Si Si2 0.889486 0.174720 0.557518
Si Si3 0.265051 0.282644 0.406348
Si Si4 0.119849 0.061603 0.682661
Si Si5 0.908871 0.667155 0.220306
Si Si6 0.512090 0.614527 0.077587
Si Si7 0.684343 0.198299 0.047254
Si Si8 0.579524 0.047047 0.824758
O O1 0.512892 0.305907 0.595375
O O2 0.481806 0.640368 0.614401
O O3 0.171998 0.509663 0.735788
O O4 0.978234 0.618976 0.627655
O O5 0.074749 0.298712 0.500784
O O6 0.988100 0.091645 0.623377
O O7 0.000000 0.000000 0.500000
O O8 0.498761 0.058885 0.362351
O O9 0.001354 0.276220 0.721241
O O10 0.947184 0.958288 0.758413
O O11 0.620636 0.868258 0.220984
O O12 0.186868 0.598967 0.132407
O O13 0.759629 0.375068 0.059114
O O14 0.551041 0.755692 0.120165
O O15 0.511908 0.712227 0.999954
O O16 0.473912 0.132950 0.127504
O O17 0.000000 0.000000 0.000000
#
# Coordination Sequence:
#
# PCOD8028473 Si02
#       8
#     2   2   2   2   2   2   2   2
#     4  12  27  47  71 109 151 193 254 326 391 461
#     4  12  25  50  76 104 146 201 257 322 392 469
#     4  12  28  45  74 109 146 196 258 326 395 465
#     4  11  26  47  72 105 143 205 258 315 391 470
#     4  11  24  47  71 102 152 198 253 313 382 464
#     4  10  25  46  73 113 150 196 255 317 382 466
#     4  11  23  47  77 111 152 195 252 313 388 475
#     4  11  24  48  75 105 153 204 254 318 389 467
#
# _framework density 25.333608999999999
#
# number of rings (size 3 to 8) (size 9 to 14) (size 15 to 20)
#    0.000    0.750    2.500    3.750    5.250    2.500 
#    2.250    0.000    0.000    0.000    0.000    0.000 
#    0.000    0.000    0.000    0.000    0.000    0.000 
#
# Total GULP energy -198256.387751 kJ/mol
# GULP energy per Si atom -12391.024234 kJ/mol
# Density = 2.527595 g / cm^3
# Si number density = 25.333609 Si / 1000 Ang^3
#
#
#
# Elastic Constant Matrix: (Units=GPa)
#
#
# Indices 1 2 3 4 5 6 
#
# 1 83.1744 35.1065 20.4000 -0.0471 17.5956 -17.4236
# 2 35.1065 124.5355 26.2699 -12.7934 11.9577 -12.6966
# 3 20.4000 26.2699 137.0687 -25.6776 8.3764 -17.8250
# 4 -0.0471 -12.7934 -25.6776 41.3550 1.4607 -11.5111
# 5 17.5956 11.9577 8.3764 1.4607 33.0679 10.9645
# 6 -17.4236 -12.6966 -17.8250 -11.5111 10.9645 43.9183
#
#
#
# Elastic Compliance Matrix: (Units=1/GPa)
#
#
# Indices 1 2 3 4 5 6 
#
# 1 0.017709 -0.002601 0.000445 0.002757 -0.012098 0.010197
# 2 -0.002601 0.009956 0.000022 0.004310 -0.003708 0.003910
# 3 0.000445 0.000022 0.010326 0.008913 -0.005973 0.008201
# 4 0.002757 0.004310 0.008913 0.036772 -0.013169 0.018883
# 5 -0.012098 -0.003708 -0.005973 -0.013169 0.047981 -0.023726
# 6 0.010197 0.003910 0.008201 0.018883 -0.023726 0.042147
#
#
# Mechanical properties :
#
#
# Convention : Reuss Voigt Hill
#
# Bulk Modulus (GPa) = 29.65479 56.48124 43.06801
# Shear Modulus (GPa) = 27.71585 41.20173 34.45879
#
# Velocity S-wave (km/s) = 3.31121 4.03720 3.69209
# Velocity P-wave (km/s) = 5.13322 6.63893 5.93402
#
# Compressibility (1/GPa) = 0.03372137
#
# Stress axis : x y z
#
# Youngs Moduli (GPa) = 56.46905 100.44041 96.83836
#
# Poissons Ratio (x) = 0.26129 -0.04308
# Poissons Ratio (y) = 0.14690 -0.00209
# Poissons Ratio (z) = -0.02512 -0.00217
#
# Static dielectric constant tensor:
#      x y z
#    x 4.422760 0.177730 -0.526860 
#    y 0.177730 5.103180 0.075640 
#    z -0.526860 0.075640 5.800000 
# 
# 
# High freq. dielectric constant tensor:
#      x y z
#    x 1.996380 0.010100 -0.013100 
#    y 0.010100 2.018160 -0.002120 
#    z -0.013100 -0.002120 2.040450 
# 
# From -- ./inp_files/582384.got.cif
#   From: 2010.06.25/outbox.cif.g09.slc.cpg/sg2_292_cif.got.tgz:582384.got - 2010.06.27 13:26:56.
