data_PCOD8028893
_publ_section_title
;
Structure prediction by ZEFSAII (Michael W. Deem and Ramdas Pophale) SiO2 
 PCOD8028893
Probable space group: P -1
;
_chemical_formula_sum "Si O2"
_cell_formula_units_Z 16
_cell_length_a 21.619500
_cell_length_b 10.011132
_cell_length_c 17.903295
_cell_angle_alpha 41.533809
_cell_angle_beta 17.913552
_cell_angle_gamma 40.467894
_cell_volume 767.605659
_symmetry_space_group_name_H-M "P -1"
_symmetry_group_IT_number 2
_symmetry_cell_setting 'triclinic'
loop_
_space_group_symop_operation_xyz
x,y,z
-x,-y,-z
loop_
_atom_site_type_symbol
_atom_site_label
_atom_site_fract_x
_atom_site_fract_y
_atom_site_fract_z
Si Si1 0.749320 0.217590 0.009760
Si Si2 0.738609 0.416400 0.783322
Si Si3 0.672303 0.525339 0.593935
Si Si4 0.218222 0.878782 0.267768
Si Si5 0.233990 0.584712 0.628259
Si Si6 0.226553 0.223670 0.890798
Si Si7 0.485971 0.119845 0.775353
Si Si8 0.181706 0.232858 0.541454
O O1 0.767474 0.362447 0.858315
O O2 0.962480 0.171984 0.830944
O O3 0.557969 0.354982 0.218609
O O4 0.693592 0.005555 0.138076
O O5 0.835293 0.206467 0.714879
O O6 0.856465 0.592400 0.552438
O O7 0.500000 0.500000 0.000000
O O8 0.673230 0.308801 0.724202
O O9 0.804617 0.480304 0.385075
O O10 0.757718 0.677452 0.487574
O O11 0.000000 0.000000 0.500000
O O12 0.382284 0.018807 0.004792
O O13 0.312259 0.380862 0.674018
O O14 0.403368 0.720389 0.378715
O O15 0.021310 0.722201 0.847247
O O16 0.307957 0.241378 0.873610
O O17 0.643231 0.958765 0.609383
#
# Coordination Sequence:
#
# PCOD8028893 Si02
#       8
#     2   2   2   2   2   2   2   2
#     4  12  21  39  69  91 124 173 219 258 318 382
#     4  11  18  38  60  93 126 169 205 256 310 382
#     4  11  24  44  59  98 138 158 206 276 318 377
#     4  11  22  36  67  96 134 166 198 263 330 377
#     4  11  27  42  67  94 129 171 220 266 324 374
#     4  11  23  45  67  93 126 172 223 269 310 380
#     4  12  21  44  69  94 126 174 217 258 323 389
#     4  11  22  38  67  95 126 170 215 253 322 391
#
# _framework density 20.844037
#
# number of rings (size 3 to 8) (size 9 to 14) (size 15 to 20)
#    0.000    0.750    7.500    1.500    0.000    4.000 
#    0.000    0.625    0.000    0.000    0.000    0.000 
#    0.000    0.000    0.000    0.000    0.000    0.000 
#
# Total GULP energy -198399.215042 kJ/mol
# GULP energy per Si atom -12399.950940 kJ/mol
# Density = 2.079659 g / cm^3
# Si number density = 20.844037 Si / 1000 Ang^3
#
#
#
# Elastic Constant Matrix: (Units=GPa)
#
#
# Indices 1 2 3 4 5 6 
#
# 1 77.0137 32.2203 30.3142 -4.7475 3.3670 1.3443
# 2 32.2203 94.2117 43.3873 7.1763 -0.9591 4.7485
# 3 30.3142 43.3873 99.9176 4.1593 -9.9792 3.0189
# 4 -4.7475 7.1763 4.1593 28.2607 -0.5477 -0.1068
# 5 3.3670 -0.9591 -9.9792 -0.5477 30.5095 2.4893
# 6 1.3443 4.7485 3.0189 -0.1068 2.4893 28.4710
#
#
#
# Elastic Compliance Matrix: (Units=1/GPa)
#
#
# Indices 1 2 3 4 5 6 
#
# 1 0.016669 -0.004416 -0.003656 0.004401 -0.003147 0.000629
# 2 -0.004416 0.014757 -0.004918 -0.003783 -0.000587 -0.001694
# 3 -0.003656 -0.004918 0.013816 -0.001309 0.004818 -0.000898
# 4 0.004401 -0.003783 -0.001309 0.037272 -0.000424 0.000739
# 5 -0.003147 -0.000587 0.004818 -0.000424 0.034945 -0.003321
# 6 0.000629 -0.001694 -0.000898 0.000739 -0.003321 0.035765
#
#
# Mechanical properties :
#
#
# Convention : Reuss Voigt Hill
#
# Bulk Modulus (GPa) = 51.91707 53.66518 52.79113
# Shear Modulus (GPa) = 26.93598 28.46300 27.69949
#
# Velocity S-wave (km/s) = 3.59871 3.69931 3.64935
# Velocity P-wave (km/s) = 6.49839 6.63690 6.56801
#
# Compressibility (1/GPa) = 0.01926149
#
# Stress axis : x y z
#
# Youngs Moduli (GPa) = 59.99046 67.76334 72.38020
#
# Poissons Ratio (x) = 0.29925 0.26464
# Poissons Ratio (y) = 0.26492 0.35598
# Poissons Ratio (z) = 0.21934 0.33327
#
# Static dielectric constant tensor:
#      x y z
#    x 3.721080 -0.065020 -0.021650 
#    y -0.065020 4.039840 0.136690 
#    z -0.021650 0.136690 3.913650 
# 
# 
# High freq. dielectric constant tensor:
#      x y z
#    x 1.799580 -0.001510 -0.003530 
#    y -0.001510 1.826590 0.004290 
#    z -0.003530 0.004290 1.812440 
# 
# From -- ./inp_files/577546.got.cif
#   From: 2010.06.25/outbox.cif.g09.slc.cpg/sg2_289_cif.got.tgz:577546.got - 2010.06.27 13:26:56.
