data_PCOD8028048
_publ_section_title
;
Structure prediction by ZEFSAII (Michael W. Deem and Ramdas Pophale) SiO2 
 PCOD8028048
Probable space group: P -1
;
_chemical_formula_sum "Si O2"
_cell_formula_units_Z 14
_cell_length_a 16.349478
_cell_length_b 14.583020
_cell_length_c 8.587950
_cell_angle_alpha 34.584435
_cell_angle_beta 39.067675
_cell_angle_gamma 25.639481
_cell_volume 498.020041
_symmetry_space_group_name_H-M "P -1"
_symmetry_group_IT_number 2
_symmetry_cell_setting 'triclinic'
loop_
_space_group_symop_operation_xyz
x,y,z
-x,-y,-z
loop_
_atom_site_type_symbol
_atom_site_label
_atom_site_fract_x
_atom_site_fract_y
_atom_site_fract_z
Si Si1 0.293627 0.477977 0.567161
Si Si2 0.966785 0.835827 0.302534
Si Si3 0.068187 0.210958 0.923687
Si Si4 0.767134 0.206333 0.546094
Si Si5 0.770905 0.700386 0.837941
Si Si6 0.669064 0.327065 0.180757
Si Si7 0.487493 0.787582 0.919259
O O1 0.230434 0.622641 0.616813
O O2 0.497825 0.354827 0.375796
O O3 0.148348 0.644288 0.411523
O O4 0.287460 0.300643 0.896509
O O5 0.030747 0.737624 0.167650
O O6 0.803980 0.861620 0.571032
O O7 0.844367 0.121893 0.087186
O O8 0.969302 0.447491 0.828957
O O9 0.291684 0.050242 0.780980
O O10 0.060943 0.060215 0.259849
O O11 0.785864 0.205445 0.337097
O O12 0.564954 0.302914 0.748953
O O13 0.610213 0.811093 0.790582
O O14 0.592689 0.582961 0.915466
#
# Coordination Sequence:
#
# PCOD8028048 Si02
#       7
#     2   2   2   2   2   2   2
#     4  11  22  42  67  97 124 160 214 263 316 357
#     4  12  29  38  60 101 135 164 197 261 329 369
#     4  10  25  43  61  94 128 170 212 246 316 382
#     4   9  19  44  67  92 118 163 215 261 299 368
#     4  12  23  44  68  88 127 174 211 252 306 385
#     4  11  21  44  68  95 123 158 220 268 301 364
#     4   9  21  41  71  88 115 171 218 251 302 367
#
# _framework density 28.111318000000001
#
# number of rings (size 3 to 8) (size 9 to 14) (size 15 to 20)
#    0.857    0.571    2.857    2.571    2.000    5.714 
#    0.000    0.000    0.000    0.000    0.000    0.000 
#    0.000    0.000    0.000    0.000    0.000    0.000 
#
# Total GULP energy -173547.992352 kJ/mol
# GULP energy per Si atom -12396.285168 kJ/mol
# Density = 2.804734 g / cm^3
# Si number density = 28.111318 Si / 1000 Ang^3
#
#
#
# Elastic Constant Matrix: (Units=GPa)
#
#
# Indices 1 2 3 4 5 6 
#
# 1 123.2904 51.8766 37.9704 2.2733 13.1572 -39.8309
# 2 51.8766 154.4935 -3.5060 25.1130 -8.9117 -20.1477
# 3 37.9704 -3.5060 73.2519 15.7806 -0.0983 -16.8653
# 4 2.2733 25.1130 15.7806 37.4729 -2.5770 -3.8728
# 5 13.1572 -8.9117 -0.0983 -2.5770 26.2191 3.4915
# 6 -39.8309 -20.1477 -16.8653 -3.8728 3.4915 35.1367
#
#
#
# Elastic Compliance Matrix: (Units=1/GPa)
#
#
# Indices 1 2 3 4 5 6 
#
# 1 0.020960 -0.007063 -0.008857 0.008030 -0.014531 0.017788
# 2 -0.007063 0.010712 0.005952 -0.008879 0.006418 -0.000624
# 3 -0.008857 0.005952 0.021549 -0.011979 0.005119 0.001887
# 4 0.008030 -0.008879 -0.011979 0.037216 -0.003800 0.002741
# 5 -0.014531 0.006418 0.005119 -0.003800 0.049344 -0.015657
# 6 0.017788 -0.000624 0.001887 0.002741 -0.015657 0.051031
#
#
# Mechanical properties :
#
#
# Convention : Reuss Voigt Hill
#
# Bulk Modulus (GPa) = 30.04365 58.19086 44.11726
# Shear Modulus (GPa) = 22.53857 37.41207 29.97532
#
# Velocity S-wave (km/s) = 2.83461 3.65205 3.26898
# Velocity P-wave (km/s) = 4.62860 6.20712 5.47505
#
# Compressibility (1/GPa) = 0.03328490
#
# Stress axis : x y z
#
# Youngs Moduli (GPa) = 47.71072 93.35695 46.40540
#
# Poissons Ratio (x) = 0.65935 0.41099
# Poissons Ratio (y) = 0.33697 -0.27618
# Poissons Ratio (z) = 0.42255 -0.55562
#
# Static dielectric constant tensor:
#      x y z
#    x 4.818590 -0.239470 -0.240820 
#    y -0.239470 5.156260 0.250080 
#    z -0.240820 0.250080 5.344370 
# 
# 
# High freq. dielectric constant tensor:
#      x y z
#    x 2.129310 -0.025120 -0.007370 
#    y -0.025120 2.157820 0.024920 
#    z -0.007370 0.024920 2.153880 
# 
# From -- ./inp_files/314436.got.cif
#   From: 2010.06.25/outbox.cif.g09.slc.cpg/sg2_158_cif.got.tgz:314436.got - 2010.06.27 13:26:56.
