data_PCOD8028380
_publ_section_title
;
Structure prediction by ZEFSAII (Michael W. Deem and Ramdas Pophale) SiO2 
 PCOD8028380
Probable space group: P -1
;
_chemical_formula_sum "Si O2"
_cell_formula_units_Z 14
_cell_length_a 8.823779
_cell_length_b 9.125561
_cell_length_c 11.942332
_cell_angle_alpha 98.729805
_cell_angle_beta 120.181086
_cell_angle_gamma 48.136062
_cell_volume 593.320699
_symmetry_space_group_name_H-M "P -1"
_symmetry_group_IT_number 2
_symmetry_cell_setting 'triclinic'
loop_
_space_group_symop_operation_xyz
x,y,z
-x,-y,-z
loop_
_atom_site_type_symbol
_atom_site_label
_atom_site_fract_x
_atom_site_fract_y
_atom_site_fract_z
Si Si1 0.214803 0.504915 0.455779
Si Si2 0.293584 0.444500 0.118549
Si Si3 0.289946 0.677223 0.313872
Si Si4 0.997548 0.893893 0.836723
Si Si5 0.089584 0.594438 0.669024
Si Si6 0.487865 0.730468 0.057480
Si Si7 0.760688 0.845825 0.927491
O O1 0.150587 0.665432 0.357036
O O2 0.506512 0.333961 0.559054
O O3 0.082084 0.620669 0.536334
O O4 0.118713 0.400240 0.368598
O O5 0.426461 0.484667 0.254284
O O6 0.366643 0.235659 0.161649
O O7 0.361510 0.419153 0.010183
O O8 0.008928 0.649595 0.058040
O O9 0.093488 0.889101 0.200323
O O10 0.039768 0.783633 0.724369
O O11 0.807032 0.915791 0.842398
O O12 0.245870 0.772015 0.985210
O O13 0.350724 0.381715 0.784304
O O14 0.414776 0.946899 0.038118
#
# Coordination Sequence:
#
# PCOD8028380 Si02
#       7
#     2   2   2   2   2   2   2
#     4  10  25  46  66  91 132 195 221 277 323 393
#     4  11  24  43  68 101 140 173 217 286 340 402
#     4  11  24  45  69  95 138 176 231 274 333 402
#     4  12  24  41  71 104 135 175 220 290 343 399
#     4  11  24  44  68  96 139 176 230 273 331 405
#     4  12  24  41  72 107 136 173 218 285 350 398
#     4  11  24  40  65 106 137 173 213 267 363 397
#
# _framework density 23.596005999999999
#
# number of rings (size 3 to 8) (size 9 to 14) (size 15 to 20)
#    0.000    0.857    2.857    3.857    4.000    2.286 
#    0.000    5.714    0.000    0.000    0.000    0.000 
#    0.000    0.000    0.000    0.000    0.000    0.000 
#
# Total GULP energy -173607.693745 kJ/mol
# GULP energy per Si atom -12400.549553 kJ/mol
# Density = 2.354230 g / cm^3
# Si number density = 23.596006 Si / 1000 Ang^3
#
#
#
# Elastic Constant Matrix: (Units=GPa)
#
#
# Indices 1 2 3 4 5 6 
#
# 1 75.3850 27.9751 21.3367 -10.1441 -9.3948 18.1185
# 2 27.9751 138.6151 41.7293 18.1569 5.1533 21.1806
# 3 21.3367 41.7293 88.8237 6.3964 -5.3185 6.0386
# 4 -10.1441 18.1569 6.3964 22.4351 4.1539 2.1823
# 5 -9.3948 5.1533 -5.3185 4.1539 41.9655 -2.4421
# 6 18.1185 21.1806 6.0386 2.1823 -2.4421 31.9464
#
#
#
# Elastic Compliance Matrix: (Units=1/GPa)
#
#
# Indices 1 2 3 4 5 6 
#
# 1 0.019694 -0.003409 -0.003299 0.012996 0.002601 -0.008975
# 2 -0.003409 0.010757 -0.003458 -0.008506 -0.001920 -0.004110
# 3 -0.003299 -0.003458 0.013887 -0.003184 0.001872 0.001899
# 4 0.012996 -0.008506 -0.003184 0.059250 -0.002627 -0.005377
# 5 0.002601 -0.001920 0.001872 -0.002627 0.025235 0.001552
# 6 -0.008975 -0.004110 0.001899 -0.005377 0.001552 0.039245
#
#
# Mechanical properties :
#
#
# Convention : Reuss Voigt Hill
#
# Bulk Modulus (GPa) = 41.65535 53.87841 47.76688
# Shear Modulus (GPa) = 25.45804 33.38825 29.42315
#
# Velocity S-wave (km/s) = 3.28824 3.76572 3.53506
# Velocity P-wave (km/s) = 5.66645 6.46458 6.07863
#
# Compressibility (1/GPa) = 0.02400652
#
# Stress axis : x y z
#
# Youngs Moduli (GPa) = 50.77686 92.96510 72.00771
#
# Poissons Ratio (x) = 0.31692 0.23757
# Poissons Ratio (y) = 0.17310 0.24897
# Poissons Ratio (z) = 0.16752 0.32143
#
# Static dielectric constant tensor:
#      x y z
#    x 4.296870 0.236930 0.162630 
#    y 0.236930 4.370970 0.303880 
#    z 0.162630 0.303880 4.138710 
# 
# 
# High freq. dielectric constant tensor:
#      x y z
#    x 1.944010 0.017920 -0.000020 
#    y 0.017920 1.930280 0.019460 
#    z -0.000020 0.019460 1.922450 
# 
# From -- ./inp_files/215572.got.cif
#   From: 2010.06.25/outbox.cif.g09.slc.cpg/sg2_108_cif.got.tgz:215572.got - 2010.06.27 13:26:56.
