data_PCOD8028477
_publ_section_title
;
Structure prediction by ZEFSAII (Michael W. Deem and Ramdas Pophale) SiO2 
 PCOD8028477
Probable space group: P -1
;
_chemical_formula_sum "Si O2"
_cell_formula_units_Z 14
_cell_length_a 24.386859
_cell_length_b 6.796029
_cell_length_c 8.253826
_cell_angle_alpha 69.982970
_cell_angle_beta 31.103156
_cell_angle_gamma 58.632145
_cell_volume 586.555125
_symmetry_space_group_name_H-M "P -1"
_symmetry_group_IT_number 2
_symmetry_cell_setting 'triclinic'
loop_
_space_group_symop_operation_xyz
x,y,z
-x,-y,-z
loop_
_atom_site_type_symbol
_atom_site_label
_atom_site_fract_x
_atom_site_fract_y
_atom_site_fract_z
Si Si1 0.880660 0.742363 0.226649
Si Si2 0.644124 0.392201 0.161945
Si Si3 0.649360 0.772964 0.825523
Si Si4 0.520508 0.725021 0.873667
Si Si5 0.190620 0.101867 0.269033
Si Si6 0.040726 0.906156 0.107125
Si Si7 0.251085 0.481266 0.847889
O O1 0.771707 0.711016 0.431305
O O2 0.825101 0.855598 0.510662
O O3 0.000000 0.500000 0.000000
O O4 0.913935 0.913869 0.985733
O O5 0.500000 0.500000 0.500000
O O6 0.709238 0.360104 0.180563
O O7 0.680591 0.580551 0.939669
O O8 0.696175 0.147199 0.998472
O O9 0.546577 0.765011 0.980314
O O10 0.596769 0.039990 0.957383
O O11 0.628764 0.697833 0.495646
O O12 0.500000 0.500000 0.000000
O O13 0.070930 0.089150 0.513368
O O14 0.198275 0.324812 0.111540
O O15 0.153589 0.646572 0.914698
O O16 0.000000 0.000000 0.000000
#
# Coordination Sequence:
#
# PCOD8028477 Si02
#       7
#     2   2   2   2   2   2   2
#     4  11  24  45  76 104 140 193 245 295 364 436
#     4  12  27  45  73 107 151 192 241 299 372 433
#     4  11  25  45  71 106 146 191 248 298 360 438
#     4  11  26  44  74 107 147 194 246 301 361 435
#     4  11  26  47  73 107 147 190 240 307 366 430
#     4  10  25  46  74 103 140 189 241 304 362 429
#     4  12  26  46  74 109 146 190 246 302 367 438
#
# _framework density 23.868172999999999
#
# number of rings (size 3 to 8) (size 9 to 14) (size 15 to 20)
#    0.000    0.857    1.429    3.857   12.000    5.143 
#    0.000    0.000    0.000    0.000    0.000    0.000 
#    0.000    0.000    0.000    0.000    0.000    0.000 
#
# Total GULP energy -173479.182282 kJ/mol
# GULP energy per Si atom -12391.370163 kJ/mol
# Density = 2.381385 g / cm^3
# Si number density = 23.868173 Si / 1000 Ang^3
#
#
#
# Elastic Constant Matrix: (Units=GPa)
#
#
# Indices 1 2 3 4 5 6 
#
# 1 77.6349 40.4438 32.9564 7.0533 -12.6772 -7.4640
# 2 40.4438 162.4465 56.8946 3.0775 -19.0311 -0.6355
# 3 32.9564 56.8946 145.0116 2.9418 -34.9812 5.6649
# 4 7.0533 3.0775 2.9418 62.4262 7.0639 -6.2608
# 5 -12.6772 -19.0311 -34.9812 7.0639 42.3996 1.6932
# 6 -7.4640 -0.6355 5.6649 -6.2608 1.6932 25.7686
#
#
#
# Elastic Compliance Matrix: (Units=1/GPa)
#
#
# Indices 1 2 3 4 5 6 
#
# 1 0.016257 -0.003015 -0.002268 -0.001297 0.001664 0.004708
# 2 -0.003015 0.007755 -0.002145 -0.000063 0.000832 -0.000281
# 3 -0.002268 -0.002145 0.010133 -0.001290 0.007082 -0.003716
# 4 -0.001297 -0.000063 -0.001290 0.017179 -0.004517 0.004377
# 5 0.001664 0.000832 0.007082 -0.004517 0.031220 -0.004203
# 6 0.004708 -0.000281 -0.003716 0.004377 -0.004203 0.042320
#
#
# Mechanical properties :
#
#
# Convention : Reuss Voigt Hill
#
# Bulk Modulus (GPa) = 51.84177 71.74252 61.79215
# Shear Modulus (GPa) = 34.21177 43.10544 38.65860
#
# Velocity S-wave (km/s) = 3.79009 4.25429 4.02888
# Velocity P-wave (km/s) = 6.39689 7.36580 6.89838
#
# Compressibility (1/GPa) = 0.01928946
#
# Stress axis : x y z
#
# Youngs Moduli (GPa) = 61.51382 128.94608 98.69118
#
# Poissons Ratio (x) = 0.38879 0.22380
# Poissons Ratio (y) = 0.18547 0.21165
# Poissons Ratio (z) = 0.13950 0.27654
#
# Static dielectric constant tensor:
#      x y z
#    x 4.542480 0.215590 -0.583900 
#    y 0.215590 4.609930 -0.226850 
#    z -0.583900 -0.226850 5.023050 
# 
# 
# High freq. dielectric constant tensor:
#      x y z
#    x 1.938300 0.006350 -0.027760 
#    y 0.006350 1.961770 -0.008900 
#    z -0.027760 -0.008900 1.957810 
# 
# From -- ./inp_files/355968.got.cif
#   From: 2010.06.25/outbox.cif.g09.slc.cpg/sg2_178_cif.got.tgz:355968.got - 2010.06.27 13:26:56.
