data_PCOD8028755
_publ_section_title
;
Structure prediction by ZEFSAII (Michael W. Deem and Ramdas Pophale) SiO2 
 PCOD8028755
Probable space group: P -1
;
_chemical_formula_sum "Si O2"
_cell_formula_units_Z 16
_cell_length_a 8.802939
_cell_length_b 8.906041
_cell_length_c 12.167238
_cell_angle_alpha 61.117589
_cell_angle_beta 120.482454
_cell_angle_gamma 95.047921
_cell_volume 704.046984
_symmetry_space_group_name_H-M "P -1"
_symmetry_group_IT_number 2
_symmetry_cell_setting 'triclinic'
loop_
_space_group_symop_operation_xyz
x,y,z
-x,-y,-z
loop_
_atom_site_type_symbol
_atom_site_label
_atom_site_fract_x
_atom_site_fract_y
_atom_site_fract_z
Si Si1 0.164849 0.153902 0.507763
Si Si2 0.793130 0.592241 0.397993
Si Si3 0.675692 0.873646 0.652861
Si Si4 0.119514 0.120749 0.060465
Si Si5 0.217350 0.776971 0.721547
Si Si6 0.702787 0.902737 0.085549
Si Si7 0.808632 0.255173 0.032727
Si Si8 0.498056 0.560536 0.751893
O O1 0.251625 0.306419 0.538427
O O2 0.181520 0.140529 0.387520
O O3 0.949035 0.207711 0.430469
O O4 0.256831 0.974052 0.668465
O O5 0.759491 0.729179 0.238002
O O6 0.655915 0.459200 0.386698
O O7 0.000000 0.500000 0.500000
O O8 0.752278 0.954525 0.761267
O O9 0.631640 0.682947 0.720996
O O10 0.500000 0.000000 0.500000
O O11 0.975575 0.285257 0.005075
O O12 0.254948 0.166487 0.000892
O O13 0.000000 0.000000 0.000000
O O14 0.166250 0.702718 0.845652
O O15 0.393913 0.641252 0.794309
O O16 0.820177 0.046399 0.104441
O O17 0.500000 0.000000 0.000000
O O18 0.618194 0.367400 0.883215
#
# Coordination Sequence:
#
# PCOD8028755 Si02
#       8
#     2   2   2   2   2   2   2   2
#     4  11  24  44  76  99 147 197 241 294 383 449
#     4  12  26  46  72 112 149 195 251 309 377 444
#     4  12  27  47  73 106 149 196 244 309 383 444
#     4  10  26  46  74 108 147 199 246 299 379 455
#     4  11  22  43  72 106 136 194 247 302 360 449
#     4  11  24  44  76 106 148 194 244 308 369 447
#     4  11  23  45  70 103 147 188 248 296 379 436
#     4  12  27  42  72 111 144 191 253 313 358 449
#
# _framework density 22.725757999999999
#
# number of rings (size 3 to 8) (size 9 to 14) (size 15 to 20)
#    0.000    0.750    6.250    0.375    3.500    5.000 
#    0.000    0.000    0.000    0.000    0.000    0.000 
#    0.000    0.000    0.000    0.000    0.000    0.000 
#
# Total GULP energy -198243.513157 kJ/mol
# GULP energy per Si atom -12390.219572 kJ/mol
# Density = 2.267403 g / cm^3
# Si number density = 22.725758 Si / 1000 Ang^3
#
#
#
# Elastic Constant Matrix: (Units=GPa)
#
#
# Indices 1 2 3 4 5 6 
#
# 1 136.6779 24.7654 51.5213 1.8243 2.7749 -28.0185
# 2 24.7654 88.5632 34.7181 16.4600 3.2061 2.7985
# 3 51.5213 34.7181 122.6056 12.8083 9.4263 -9.2207
# 4 1.8243 16.4600 12.8083 37.3851 -5.3038 2.5421
# 5 2.7749 3.2061 9.4263 -5.3038 46.8143 5.0799
# 6 -28.0185 2.7985 -9.2207 2.5421 5.0799 39.8281
#
#
#
# Elastic Compliance Matrix: (Units=1/GPa)
#
#
# Indices 1 2 3 4 5 6 
#
# 1 0.010272 -0.001939 -0.003346 0.000994 -0.000403 0.006576
# 2 -0.001939 0.013950 -0.002764 -0.005005 -0.000570 -0.002592
# 3 -0.003346 -0.002764 0.010857 -0.002705 -0.002192 0.000806
# 4 0.000994 -0.005005 -0.002705 0.030616 0.004526 -0.002107
# 5 -0.000403 -0.000570 -0.002192 0.004526 0.022807 -0.003949
# 6 0.006576 -0.002592 0.000806 -0.002107 -0.003949 0.030741
#
#
# Mechanical properties :
#
#
# Convention : Reuss Voigt Hill
#
# Bulk Modulus (GPa) = 52.68229 63.31736 57.99983
# Shear Modulus (GPa) = 35.29453 40.59496 37.94474
#
# Velocity S-wave (km/s) = 3.94517 4.23105 4.09060
# Velocity P-wave (km/s) = 6.63208 7.19660 6.92010
#
# Compressibility (1/GPa) = 0.01898171
#
# Stress axis : x y z
#
# Youngs Moduli (GPa) = 97.35295 71.68652 92.10998
#
# Poissons Ratio (x) = 0.13898 0.30818
# Poissons Ratio (y) = 0.18875 0.25456
# Poissons Ratio (z) = 0.32572 0.19812
#
# Static dielectric constant tensor:
#      x y z
#    x 5.219810 -0.045230 -0.086310 
#    y -0.045230 4.199710 0.142050 
#    z -0.086310 0.142050 3.409590 
# 
# 
# High freq. dielectric constant tensor:
#      x y z
#    x 1.910880 -0.013450 0.012040 
#    y -0.013450 1.887940 0.013920 
#    z 0.012040 0.013920 1.890330 
# 
# From -- ./inp_files/381467.got.cif
#   From: 2010.06.25/outbox.cif.g09.slc.cpg/sg2_191_cif.got.tgz:381467.got - 2010.06.27 13:26:56.
