data_PCOD8028431
_publ_section_title
;
Structure prediction by ZEFSAII (Michael W. Deem and Ramdas Pophale) SiO2 
 PCOD8028431
Probable space group: P -1
;
_chemical_formula_sum "Si O2"
_cell_formula_units_Z 16
_cell_length_a 8.629933
_cell_length_b 15.526404
_cell_length_c 5.577417
_cell_angle_alpha 103.304714
_cell_angle_beta 80.705371
_cell_angle_gamma 71.580505
_cell_volume 667.438933
_symmetry_space_group_name_H-M "P -1"
_symmetry_group_IT_number 2
_symmetry_cell_setting 'triclinic'
loop_
_space_group_symop_operation_xyz
x,y,z
-x,-y,-z
loop_
_atom_site_type_symbol
_atom_site_label
_atom_site_fract_x
_atom_site_fract_y
_atom_site_fract_z
Si Si1 0.110361 0.867279 0.235693
Si Si2 0.321255 0.588260 0.754951
Si Si3 0.746716 0.009332 0.473743
Si Si4 0.538067 0.918444 0.742468
Si Si5 0.879285 0.238335 0.322416
Si Si6 0.321635 0.442595 0.315793
Si Si7 0.051425 0.582028 0.150354
Si Si8 0.197095 0.280626 0.359988
O O1 0.243336 0.920102 0.270860
O O2 0.115197 0.810007 0.449210
O O3 0.157009 0.812691 0.938647
O O4 0.929341 0.948434 0.288813
O O5 0.277413 0.660151 0.582298
O O6 0.348168 0.479365 0.600163
O O7 0.487461 0.588966 0.859707
O O8 0.152368 0.627535 0.982361
O O9 0.637432 0.074783 0.328844
O O10 0.662717 0.935543 0.528035
O O11 0.630647 0.810361 0.732338
O O12 0.500000 0.000000 0.000000
O O13 0.057767 0.251325 0.238972
O O14 0.181057 0.535225 0.300591
O O15 0.250949 0.358332 0.257311
O O16 0.885796 0.669833 0.335771
O O17 0.000000 0.500000 0.000000
#
# Coordination Sequence:
#
# PCOD8028431 Si02
#       8
#     2   2   2   2   2   2   2   2
#     4  11  26  46  77 106 144 198 249 309 381 446
#     4  11  25  44  70 101 149 187 244 308 368 438
#     4  10  25  46  70 104 146 192 245 317 374 445
#     4  11  25  47  72 107 150 192 250 315 376 449
#     4  12  25  45  73 111 146 193 256 304 371 464
#     4  11  25  45  67 106 143 194 243 310 369 444
#     4  12  23  46  72 104 145 199 245 304 375 457
#     4  12  24  46  74 106 146 197 255 304 383 453
#
# _framework density 23.97223
#
# number of rings (size 3 to 8) (size 9 to 14) (size 15 to 20)
#    0.000    0.750    3.750    3.000    3.500    1.000 
#    6.750    0.000    0.000    0.000    0.000    0.000 
#    0.000    0.000    0.000    0.000    0.000    0.000 
#
# Total GULP energy -198226.787131 kJ/mol
# GULP energy per Si atom -12389.174196 kJ/mol
# Density = 2.391767 g / cm^3
# Si number density = 23.972230 Si / 1000 Ang^3
#
#
#
# Elastic Constant Matrix: (Units=GPa)
#
#
# Indices 1 2 3 4 5 6 
#
# 1 97.8556 22.7489 18.1936 1.7247 11.5622 -8.3282
# 2 22.7489 111.6827 25.8670 11.8977 4.8554 -18.9476
# 3 18.1936 25.8670 91.4503 14.5334 13.4363 -7.4232
# 4 1.7247 11.8977 14.5334 34.8455 3.4883 -4.8883
# 5 11.5622 4.8554 13.4363 3.4883 36.0863 3.2959
# 6 -8.3282 -18.9476 -7.4232 -4.8883 3.2959 43.2399
#
#
#
# Elastic Compliance Matrix: (Units=1/GPa)
#
#
# Indices 1 2 3 4 5 6 
#
# 1 0.011357 -0.001714 -0.001363 0.001128 -0.003153 0.001570
# 2 -0.001714 0.010644 -0.001978 -0.002167 -0.000281 0.003771
# 3 -0.001363 -0.001978 0.013073 -0.004194 -0.003845 0.000934
# 4 0.001128 -0.002167 -0.004194 0.031625 -0.001772 0.002258
# 5 -0.003153 -0.000281 -0.003845 -0.001772 0.030721 -0.003933
# 6 0.001570 0.003771 0.000934 0.002258 -0.003933 0.025797
#
#
# Mechanical properties :
#
#
# Convention : Reuss Voigt Hill
#
# Bulk Modulus (GPa) = 40.05815 48.28972 44.17393
# Shear Modulus (GPa) = 35.29837 38.44630 36.87233
#
# Velocity S-wave (km/s) = 3.84144 4.00907 3.92615
# Velocity P-wave (km/s) = 6.03507 6.45120 6.24660
#
# Compressibility (1/GPa) = 0.02496371
#
# Stress axis : x y z
#
# Youngs Moduli (GPa) = 88.04806 93.94872 76.49572
#
# Poissons Ratio (x) = 0.16106 0.10427
# Poissons Ratio (y) = 0.15095 0.15129
# Poissons Ratio (z) = 0.12002 0.18581
#
# Static dielectric constant tensor:
#      x y z
#    x 4.732460 -0.008010 0.141840 
#    y -0.008010 4.502470 0.040110 
#    z 0.141840 0.040110 4.041940 
# 
# 
# High freq. dielectric constant tensor:
#      x y z
#    x 1.971520 0.000320 0.010520 
#    y 0.000320 1.956710 0.011250 
#    z 0.010520 0.011250 1.928390 
# 
# From -- ./inp_files/37952.got.cif
#   From: 2010.06.25/outbox.cif.g09.slc.cpg/sg2_19_cif.got.tgz:37952.got - 2010.06.27 13:26:56.
