data_PCOD8028142
_publ_section_title
;
Structure prediction by ZEFSAII (Michael W. Deem and Ramdas Pophale) SiO2 
 PCOD8028142
Probable space group: P -1
;
_chemical_formula_sum "Si O2"
_cell_formula_units_Z 16
_cell_length_a 9.526844
_cell_length_b 13.979135
_cell_length_c 8.689460
_cell_angle_alpha 136.256729
_cell_angle_beta 79.163167
_cell_angle_gamma 112.852187
_cell_volume 729.521953
_symmetry_space_group_name_H-M "P -1"
_symmetry_group_IT_number 2
_symmetry_cell_setting 'triclinic'
loop_
_space_group_symop_operation_xyz
x,y,z
-x,-y,-z
loop_
_atom_site_type_symbol
_atom_site_label
_atom_site_fract_x
_atom_site_fract_y
_atom_site_fract_z
Si Si1 0.077223 0.456642 0.152548
Si Si2 0.776125 0.251289 0.373153
Si Si3 0.871098 0.623711 0.272481
Si Si4 0.521726 0.155848 0.102633
Si Si5 0.609986 0.991736 0.334071
Si Si6 0.952803 0.782469 0.881762
Si Si7 0.059548 0.968309 0.615083
Si Si8 0.350804 0.358343 0.413952
O O1 0.194035 0.586029 0.380613
O O2 0.008926 0.309150 0.095983
O O3 0.938836 0.506312 0.188847
O O4 0.166899 0.419081 0.947563
O O5 0.696628 0.255667 0.229276
O O6 0.664821 0.138127 0.386941
O O7 0.926277 0.208000 0.268584
O O8 0.714629 0.602506 0.368893
O O9 0.993511 0.792626 0.459553
O O10 0.403290 0.221054 0.279821
O O11 0.500000 0.000000 0.000000
O O12 0.491108 0.146750 0.914817
O O13 0.754965 0.968120 0.354850
O O14 0.500000 0.000000 0.500000
O O15 0.780490 0.696224 0.754079
O O16 0.985264 0.947141 0.134668
O O17 0.000000 0.000000 0.500000
O O18 0.500000 0.500000 0.500000
#
# Coordination Sequence:
#
# PCOD8028142 Si02
#       8
#     2   2   2   2   2   2   2   2
#     4  11  23  46  68 104 137 181 240 280 360 410
#     4  11  24  45  73 102 137 193 234 290 343 426
#     4  11  26  44  73 102 142 185 235 292 347 422
#     4  10  25  44  66 100 141 187 231 285 356 410
#     4  11  25  44  66 104 144 184 232 285 360 415
#     4  12  25  44  77 102 138 181 246 291 344 424
#     4  12  25  46  73 108 136 183 239 298 347 410
#     4  12  26  46  67 107 144 181 233 292 356 415
#
# _framework density 21.932171
#
# number of rings (size 3 to 8) (size 9 to 14) (size 15 to 20)
#    0.000    0.750    5.000    1.125    7.000    3.000 
#    0.000    1.250    0.000    0.000    0.000    0.000 
#    0.000    0.000    0.000    0.000    0.000    0.000 
#
# Total GULP energy -198365.887283 kJ/mol
# GULP energy per Si atom -12397.867955 kJ/mol
# Density = 2.188225 g / cm^3
# Si number density = 21.932171 Si / 1000 Ang^3
#
#
#
# Elastic Constant Matrix: (Units=GPa)
#
#
# Indices 1 2 3 4 5 6 
#
# 1 142.6610 40.5817 70.3087 -12.7649 3.6062 2.6715
# 2 40.5817 73.2000 41.4902 -10.6988 -20.5362 5.2973
# 3 70.3087 41.4902 186.8594 -11.7989 -8.3489 12.7922
# 4 -12.7649 -10.6988 -11.7989 35.4763 -0.7580 -7.2899
# 5 3.6062 -20.5362 -8.3489 -0.7580 47.4604 0.3233
# 6 2.6715 5.2973 12.7922 -7.2899 0.3233 34.3880
#
#
#
# Elastic Compliance Matrix: (Units=1/GPa)
#
#
# Indices 1 2 3 4 5 6 
#
# 1 0.009933 -0.004706 -0.002841 0.001415 -0.003277 0.001341
# 2 -0.004706 0.020611 -0.002077 0.003751 0.008979 -0.001326
# 3 -0.002841 -0.002077 0.007065 0.000296 0.000579 -0.002030
# 4 0.001415 0.003751 0.000296 0.031160 0.002026 0.005788
# 5 -0.003277 0.008979 0.000579 0.002026 0.025347 -0.001153
# 6 0.001341 -0.001326 -0.002030 0.005788 -0.001153 0.031173
#
#
# Mechanical properties :
#
#
# Convention : Reuss Voigt Hill
#
# Bulk Modulus (GPa) = 54.46408 78.60908 66.53658
# Shear Modulus (GPa) = 33.18792 40.15428 36.67110
#
# Velocity S-wave (km/s) = 3.89422 4.28347 4.09347
# Velocity P-wave (km/s) = 6.71616 7.77071 7.26260
#
# Compressibility (1/GPa) = 0.01836072
#
# Stress axis : x y z
#
# Youngs Moduli (GPa) = 100.67432 48.51845 141.53382
#
# Poissons Ratio (x) = 0.22832 0.40216
# Poissons Ratio (y) = 0.47377 0.29395
# Poissons Ratio (z) = 0.28606 0.10077
#
# Static dielectric constant tensor:
#      x y z
#    x 4.188970 -0.214960 0.225590 
#    y -0.214960 3.692980 0.016230 
#    z 0.225590 0.016230 4.485160 
# 
# 
# High freq. dielectric constant tensor:
#      x y z
#    x 1.865670 -0.014940 0.006390 
#    y -0.014940 1.849940 0.002740 
#    z 0.006390 0.002740 1.884700 
# 
# From -- ./inp_files/209218.got.cif
#   From: 2010.06.25/outbox.cif.g09.slc.cpg/sg2_105_cif.got.tgz:209218.got - 2010.06.27 13:26:56.
