data_PCOD8028834
_publ_section_title
;
Structure prediction by ZEFSAII (Michael W. Deem and Ramdas Pophale) SiO2 
 PCOD8028834
Probable space group: P -1
;
_chemical_formula_sum "Si O2"
_cell_formula_units_Z 16
_cell_length_a 14.854265
_cell_length_b 11.237980
_cell_length_c 9.104412
_cell_angle_alpha 53.611538
_cell_angle_beta 46.985539
_cell_angle_gamma 81.426213
_cell_volume 805.815192
_symmetry_space_group_name_H-M "P -1"
_symmetry_group_IT_number 2
_symmetry_cell_setting 'triclinic'
loop_
_space_group_symop_operation_xyz
x,y,z
-x,-y,-z
loop_
_atom_site_type_symbol
_atom_site_label
_atom_site_fract_x
_atom_site_fract_y
_atom_site_fract_z
Si Si1 0.551347 0.682540 0.937097
Si Si2 0.291141 0.388448 0.417775
Si Si3 0.950414 0.506648 0.386858
Si Si4 0.640192 0.001394 0.788628
Si Si5 0.215746 0.795271 0.794123
Si Si6 0.139772 0.025021 0.901399
Si Si7 0.806339 0.145639 0.772548
Si Si8 0.403834 0.826410 0.798110
O O1 0.425708 0.518016 0.260170
O O2 0.671084 0.640659 0.770568
O O3 0.609688 0.822603 0.891805
O O4 0.491211 0.733821 0.822176
O O5 0.182821 0.462452 0.474777
O O6 0.230809 0.215669 0.696325
O O7 0.912472 0.332233 0.478328
O O8 0.000000 0.500000 0.500000
O O9 0.063374 0.649251 0.057374
O O10 0.709387 0.147152 0.486443
O O11 0.751630 0.037984 0.765969
O O12 0.500000 0.000000 0.000000
O O13 0.299790 0.726465 0.856263
O O14 0.216311 0.956099 0.753894
O O15 0.116093 0.930759 0.152265
O O16 0.000000 0.000000 0.000000
O O17 0.674914 0.148189 0.993871
O O18 0.500000 0.000000 0.500000
#
# Coordination Sequence:
#
# PCOD8028834 Si02
#       8
#     2   2   2   2   2   2   2   2
#     4  11  21  35  60  91 125 163 205 260 308 366
#     4  11  21  35  62  93 120 158 210 263 308 351
#     4  12  20  40  65  94 123 152 217 266 303 362
#     4  12  22  40  58  91 133 167 200 250 323 376
#     4  11  22  34  66  92 121 161 209 255 306 371
#     4  11  20  39  64  91 120 160 210 259 311 364
#     4  11  23  37  62  92 123 165 201 257 312 373
#     4  11  17  35  59  92 115 155 217 251 293 360
#
# _framework density 19.855671000000001
#
# number of rings (size 3 to 8) (size 9 to 14) (size 15 to 20)
#    0.000    0.750    8.750    0.750    0.000    0.500 
#    0.000    1.250    0.000    3.000    0.000    0.000 
#    0.000    0.000    0.000    0.000    0.000    0.000 
#
# Total GULP energy -198356.633418 kJ/mol
# GULP energy per Si atom -12397.289589 kJ/mol
# Density = 1.981048 g / cm^3
# Si number density = 19.855671 Si / 1000 Ang^3
#
#
#
# Elastic Constant Matrix: (Units=GPa)
#
#
# Indices 1 2 3 4 5 6 
#
# 1 113.5452 50.0607 36.5265 -2.1826 1.7197 9.8828
# 2 50.0607 94.2716 51.1853 -23.1665 -3.0772 17.3021
# 3 36.5265 51.1853 123.4998 -16.2997 -9.7011 9.9056
# 4 -2.1826 -23.1665 -16.2997 40.4004 4.0314 -2.2272
# 5 1.7197 -3.0772 -9.7011 4.0314 30.1698 -4.0364
# 6 9.8828 17.3021 9.9056 -2.2272 -4.0364 34.2536
#
#
#
# Elastic Compliance Matrix: (Units=1/GPa)
#
#
# Indices 1 2 3 4 5 6 
#
# 1 0.012121 -0.006543 -0.001435 -0.003549 -0.001368 -0.000169
# 2 -0.006543 0.019999 -0.004749 0.008962 -0.001168 -0.006395
# 3 -0.001435 -0.004749 0.010885 0.001303 0.002936 0.000096
# 4 -0.003549 0.008962 0.001303 0.030384 -0.002824 -0.002237
# 5 -0.001368 -0.001168 0.002936 -0.002824 0.034971 0.004073
# 6 -0.000169 -0.006395 0.000096 -0.002237 0.004073 0.032780
#
#
# Mechanical properties :
#
#
# Convention : Reuss Voigt Hill
#
# Bulk Modulus (GPa) = 56.98259 67.42908 62.20584
# Shear Modulus (GPa) = 28.99485 33.86769 31.43127
#
# Velocity S-wave (km/s) = 3.82551 4.13449 3.98299
# Velocity P-wave (km/s) = 6.94790 7.53825 7.24909
#
# Compressibility (1/GPa) = 0.01754922
#
# Stress axis : x y z
#
# Youngs Moduli (GPa) = 82.50358 50.00288 91.86890
#
# Poissons Ratio (x) = 0.32716 0.13187
# Poissons Ratio (y) = 0.53980 0.43633
# Poissons Ratio (z) = 0.11843 0.23749
#
# Static dielectric constant tensor:
#      x y z
#    x 4.946660 -0.930130 -0.409860 
#    y -0.930130 4.207030 -0.168390 
#    z -0.409860 -0.168390 3.917500 
# 
# 
# High freq. dielectric constant tensor:
#      x y z
#    x 1.764620 -0.009990 -0.022770 
#    y -0.009990 1.757070 -0.022930 
#    z -0.022770 -0.022930 1.784340 
# 
# From -- ./inp_files/306450.got.cif
#   From: 2010.06.25/outbox.cif.g09.slc.cpg/sg2_154_cif.got.tgz:306450.got - 2010.06.27 13:26:56.
