data_PCOD8028017
_publ_section_title
;
Structure prediction by ZEFSAII (Michael W. Deem and Ramdas Pophale) SiO2 
 PCOD8028017
Probable space group: P -1
;
_chemical_formula_sum "Si O2"
_cell_formula_units_Z 16
_cell_length_a 8.804581
_cell_length_b 12.765128
_cell_length_c 11.851104
_cell_angle_alpha 46.315520
_cell_angle_beta 83.223887
_cell_angle_gamma 58.129524
_cell_volume 749.108418
_symmetry_space_group_name_H-M "P -1"
_symmetry_group_IT_number 2
_symmetry_cell_setting 'triclinic'
loop_
_space_group_symop_operation_xyz
x,y,z
-x,-y,-z
loop_
_atom_site_type_symbol
_atom_site_label
_atom_site_fract_x
_atom_site_fract_y
_atom_site_fract_z
Si Si1 0.142921 0.545687 0.349898
Si Si2 0.519806 0.832623 0.989073
Si Si3 0.205343 0.456947 0.006164
Si Si4 0.295589 0.243819 0.728449
Si Si5 0.842578 0.163829 0.974393
Si Si6 0.300322 0.268170 0.358269
Si Si7 0.259966 0.981231 0.492769
Si Si8 0.906965 0.157753 0.236144
O O1 0.283045 0.403890 0.543497
O O2 0.226048 0.644910 0.217626
O O3 0.146358 0.419818 0.348100
O O4 0.920367 0.699827 0.293222
O O5 0.680381 0.686472 0.997097
O O6 0.625798 0.770141 0.145308
O O7 0.345157 0.823612 0.012463
O O8 0.437600 0.040845 0.808773
O O9 0.187584 0.639286 0.859029
O O10 0.322911 0.360634 0.181533
O O11 0.000000 0.500000 0.000000
O O12 0.925239 0.140507 0.111341
O O13 0.000000 0.000000 0.000000
O O14 0.519767 0.136735 0.486522
O O15 0.207504 0.169433 0.406303
O O16 0.229808 0.888859 0.668604
O O17 0.125396 0.015652 0.373138
#
# Coordination Sequence:
#
# PCOD8028017 Si02
#       8
#     2   2   2   2   2   2   2   2
#     4  11  24  44  70  99 132 178 224 279 329 402
#     4  11  26  45  70  99 135 179 223 278 340 394
#     4  12  24  42  71 100 133 178 223 277 337 402
#     4  10  25  46  68  98 135 177 230 272 327 406
#     4  12  26  45  68  98 138 181 220 276 339 397
#     4  11  23  41  69  99 132 171 227 274 338 397
#     4  10  25  42  64 102 132 177 217 286 337 393
#     4  11  25  45  65  97 136 174 224 276 339 401
#
# _framework density 21.358723999999999
#
# number of rings (size 3 to 8) (size 9 to 14) (size 15 to 20)
#    0.000    1.000    3.750    1.500    7.000    2.500 
#    2.250    0.000    0.000    0.000    0.000    0.000 
#    0.000    0.000    0.000    0.000    0.000    0.000 
#
# Total GULP energy -198400.038836 kJ/mol
# GULP energy per Si atom -12400.002427 kJ/mol
# Density = 2.131011 g / cm^3
# Si number density = 21.358724 Si / 1000 Ang^3
#
#
#
# Elastic Constant Matrix: (Units=GPa)
#
#
# Indices 1 2 3 4 5 6 
#
# 1 181.1689 77.8489 33.9134 10.1856 -17.8757 55.2823
# 2 77.8489 177.5464 46.5147 0.7132 -5.8874 24.9074
# 3 33.9134 46.5147 145.6381 5.0342 -4.5371 1.3343
# 4 10.1856 0.7132 5.0342 26.7068 -3.0596 5.1402
# 5 -17.8757 -5.8874 -4.5371 -3.0596 35.4990 -12.9337
# 6 55.2823 24.9074 1.3343 5.1402 -12.9337 65.2489
#
#
#
# Elastic Compliance Matrix: (Units=1/GPa)
#
#
# Indices 1 2 3 4 5 6 
#
# 1 0.009029 -0.002766 -0.001052 -0.001814 0.001568 -0.006119
# 2 -0.002766 0.007375 -0.001765 0.001254 -0.000519 -0.000637
# 3 -0.001052 -0.001765 0.007723 -0.001247 0.000653 0.001634
# 4 -0.001814 0.001254 -0.001247 0.038863 0.001901 -0.001601
# 5 0.001568 -0.000519 0.000653 0.001901 0.030879 0.004828
# 6 -0.006119 -0.000637 0.001634 -0.001601 0.004828 0.021803
#
#
# Mechanical properties :
#
#
# Convention : Reuss Voigt Hill
#
# Bulk Modulus (GPa) = 77.14685 91.21195 84.17940
# Shear Modulus (GPa) = 38.12210 48.56269 43.34239
#
# Velocity S-wave (km/s) = 4.22933 4.77347 4.50962
# Velocity P-wave (km/s) = 7.74904 8.55447 8.16170
#
# Compressibility (1/GPa) = 0.01296229
#
# Stress axis : x y z
#
# Youngs Moduli (GPa) = 110.75750 135.60086 129.47688
#
# Poissons Ratio (x) = 0.37503 0.13615
# Poissons Ratio (y) = 0.30632 0.22853
# Poissons Ratio (z) = 0.11646 0.23933
#
# Static dielectric constant tensor:
#      x y z
#    x 4.386820 -0.606160 -0.048290 
#    y -0.606160 4.623940 -0.103310 
#    z -0.048290 -0.103310 4.293700 
# 
# 
# High freq. dielectric constant tensor:
#      x y z
#    x 1.833990 0.001290 -0.001610 
#    y 0.001290 1.841730 -0.004190 
#    z -0.001610 -0.004190 1.858630 
# 
# From -- ./inp_files/392086.got.cif
#   From: 2010.06.25/outbox.cif.g09.slc.cpg/sg2_197_cif.got.tgz:392086.got - 2010.06.27 13:26:56.
