data_PCOD8028005
_publ_section_title
;
Structure prediction by ZEFSAII (Michael W. Deem and Ramdas Pophale) SiO2 
 PCOD8028005
Probable space group: P -1
;
_chemical_formula_sum "Si O2"
_cell_formula_units_Z 14
_cell_length_a 9.430663
_cell_length_b 8.020345
_cell_length_c 14.446041
_cell_angle_alpha 111.761932
_cell_angle_beta 39.434229
_cell_angle_gamma 113.847002
_cell_volume 631.569989
_symmetry_space_group_name_H-M "P -1"
_symmetry_group_IT_number 2
_symmetry_cell_setting 'triclinic'
loop_
_space_group_symop_operation_xyz
x,y,z
-x,-y,-z
loop_
_atom_site_type_symbol
_atom_site_label
_atom_site_fract_x
_atom_site_fract_y
_atom_site_fract_z
Si Si1 0.961039 0.587666 0.406704
Si Si2 0.351840 0.872845 0.341825
Si Si3 0.193100 0.137459 0.793228
Si Si4 0.338837 0.200042 0.278254
Si Si5 0.729772 0.554183 0.337128
Si Si6 0.165457 0.675944 0.915366
Si Si7 0.059850 0.837814 0.653056
O O1 0.772335 0.654995 0.578500
O O2 0.931434 0.637093 0.323997
O O3 0.917081 0.370660 0.392481
O O4 0.213540 0.678183 0.332776
O O5 0.610440 0.861113 0.230076
O O6 0.234585 0.932559 0.505434
O O7 0.338631 0.020928 0.301496
O O8 0.279845 0.296453 0.706735
O O9 0.127604 0.941846 0.735967
O O10 0.969529 0.159786 0.969081
O O11 0.598778 0.286940 0.137896
O O12 0.196219 0.147313 0.245066
O O13 0.500000 0.500000 0.500000
O O14 0.775724 0.364915 0.229214
O O15 0.000000 0.500000 0.000000
#
# Coordination Sequence:
#
# PCOD8028005 Si02
#       7
#     2   2   2   2   2   2   2
#     4  11  23  40  69 102 128 170 224 276 324 381
#     4  11  23  40  68 100 135 170 222 274 323 387
#     4  11  25  44  64 100 138 172 216 269 331 394
#     4  11  22  42  68  94 133 173 220 275 325 385
#     4  11  21  41  72  96 128 171 228 272 320 385
#     4  10  25  41  69  94 135 175 216 267 338 386
#     4  11  24  39  68 100 134 170 222 273 325 387
#
# _framework density 22.166982000000001
#
# number of rings (size 3 to 8) (size 9 to 14) (size 15 to 20)
#    0.000    1.143    1.429    6.429    8.000    1.143 
#    0.000    0.714    0.000    0.000    0.000    0.000 
#    0.000    0.000    0.000    0.000    0.000    0.000 
#
# Total GULP energy -173594.705640 kJ/mol
# GULP energy per Si atom -12399.621831 kJ/mol
# Density = 2.211653 g / cm^3
# Si number density = 22.166982 Si / 1000 Ang^3
#
#
#
# Elastic Constant Matrix: (Units=GPa)
#
#
# Indices 1 2 3 4 5 6 
#
# 1 131.3524 36.5751 52.1811 14.3702 -28.0872 14.6041
# 2 36.5751 101.1043 42.5574 5.4743 -9.1368 2.4227
# 3 52.1811 42.5574 126.2115 5.1044 -21.8178 18.8010
# 4 14.3702 5.4743 5.1044 26.0135 5.7824 -0.2666
# 5 -28.0872 -9.1368 -21.8178 5.7824 41.9237 -3.6490
# 6 14.6041 2.4227 18.8010 -0.2666 -3.6490 39.9170
#
#
#
# Elastic Compliance Matrix: (Units=1/GPa)
#
#
# Indices 1 2 3 4 5 6 
#
# 1 0.011643 -0.002211 -0.002211 -0.007099 0.006930 -0.002498
# 2 -0.002211 0.012100 -0.003467 -0.000532 -0.000430 0.001664
# 3 -0.002211 -0.003467 0.011228 -0.001050 0.003406 -0.003965
# 4 -0.007099 -0.000532 -0.001050 0.045251 -0.011452 0.002379
# 5 0.006930 -0.000430 0.003406 -0.011452 0.031641 -0.001298
# 6 -0.002498 0.001664 -0.003965 0.002379 -0.001298 0.027630
#
#
# Mechanical properties :
#
#
# Convention : Reuss Voigt Hill
#
# Bulk Modulus (GPa) = 52.09984 69.03281 60.56633
# Shear Modulus (GPa) = 30.92755 36.72782 33.82769
#
# Velocity S-wave (km/s) = 3.73930 4.07488 3.91069
# Velocity P-wave (km/s) = 6.49596 7.30406 6.91183
#
# Compressibility (1/GPa) = 0.01919392
#
# Stress axis : x y z
#
# Youngs Moduli (GPa) = 85.88667 82.64577 89.06126
#
# Poissons Ratio (x) = 0.18271 0.19694
# Poissons Ratio (y) = 0.18988 0.30874
# Poissons Ratio (z) = 0.18992 0.28650
#
# Static dielectric constant tensor:
#      x y z
#    x 4.565090 0.270450 0.028580 
#    y 0.270450 4.043970 0.267430 
#    z 0.028580 0.267430 4.659130 
# 
# 
# High freq. dielectric constant tensor:
#      x y z
#    x 1.884640 0.008210 -0.010850 
#    y 0.008210 1.879920 0.003850 
#    z -0.010850 0.003850 1.854090 
# 
# From -- ./inp_files/495380.got.cif
#   From: 2010.06.25/outbox.cif.g09.slc.cpg/sg2_248_cif.got.tgz:495380.got - 2010.06.27 13:26:56.
