data_PCOD8028756
_publ_section_title
;
Structure prediction by ZEFSAII (Michael W. Deem and Ramdas Pophale) SiO2 
 PCOD8028756
Probable space group: P -1
;
_chemical_formula_sum "Si O2"
_cell_formula_units_Z 16
_cell_length_a 14.478203
_cell_length_b 10.160663
_cell_length_c 11.628976
_cell_angle_alpha 84.477204
_cell_angle_beta 29.288778
_cell_angle_gamma 68.660867
_cell_volume 681.586990
_symmetry_space_group_name_H-M "P -1"
_symmetry_group_IT_number 2
_symmetry_cell_setting 'triclinic'
loop_
_space_group_symop_operation_xyz
x,y,z
-x,-y,-z
loop_
_atom_site_type_symbol
_atom_site_label
_atom_site_fract_x
_atom_site_fract_y
_atom_site_fract_z
Si Si1 0.221419 0.978634 0.315433
Si Si2 0.342883 0.977945 0.438125
Si Si3 0.753887 0.279557 0.439833
Si Si4 0.042027 0.832179 0.000734
Si Si5 0.985102 0.515718 0.378540
Si Si6 0.824788 0.831409 0.858988
Si Si7 0.487916 0.651445 0.946646
Si Si8 0.292438 0.625780 0.952828
O O1 0.218919 0.036822 0.442220
O O2 0.257361 0.090467 0.184836
O O3 0.424155 0.785368 0.101735
O O4 0.000000 0.000000 0.500000
O O5 0.354482 0.817498 0.468113
O O6 0.595588 0.941874 0.176245
O O7 0.191482 0.119836 0.684160
O O8 0.547349 0.458269 0.685382
O O9 0.947164 0.184943 0.339041
O O10 0.893032 0.276683 0.175498
O O11 0.249276 0.725691 0.875562
O O12 0.000000 0.000000 0.000000
O O13 0.716421 0.606118 0.635110
O O14 0.000000 0.500000 0.500000
O O15 0.126751 0.342486 0.180319
O O16 0.087845 0.605553 0.203095
O O17 0.293249 0.726206 0.051912
O O18 0.500000 0.500000 0.000000
#
# Coordination Sequence:
#
# PCOD8028756 Si02
#       8
#     2   2   2   2   2   2   2   2
#     4  12  24  40  69 103 145 183 224 278 354 421
#     4  11  23  44  65 101 141 182 226 283 346 409
#     4  11  23  48  68  96 133 182 239 288 335 406
#     4  10  26  46  74  97 132 186 241 291 341 403
#     4  12  25  40  68 106 144 182 223 275 347 431
#     4  12  25  42  69 103 144 180 225 286 351 417
#     4  12  24  42  66 106 145 183 224 275 345 428
#     4  12  24  45  73  99 142 181 232 286 351 406
#
# _framework density 23.474626000000001
#
# number of rings (size 3 to 8) (size 9 to 14) (size 15 to 20)
#    0.000    0.500    5.000    3.750    5.250    0.500 
#    0.000    3.125    0.000    0.000    0.000    0.000 
#    0.000    0.000    0.000    0.000    0.000    0.000 
#
# Total GULP energy -198301.736735 kJ/mol
# GULP energy per Si atom -12393.858546 kJ/mol
# Density = 2.342120 g / cm^3
# Si number density = 23.474626 Si / 1000 Ang^3
#
#
#
# Elastic Constant Matrix: (Units=GPa)
#
#
# Indices 1 2 3 4 5 6 
#
# 1 51.8318 22.6437 9.3842 -10.1843 3.4294 -16.8936
# 2 22.6437 79.3609 21.0824 -3.2213 -7.9745 -21.3315
# 3 9.3842 21.0824 138.9368 -12.5132 -5.2088 -3.9531
# 4 -10.1843 -3.2213 -12.5132 27.6183 -3.4422 -3.6607
# 5 3.4294 -7.9745 -5.2088 -3.4422 42.7463 -3.7465
# 6 -16.8936 -21.3315 -3.9531 -3.6607 -3.7465 37.1065
#
#
#
# Elastic Compliance Matrix: (Units=1/GPa)
#
#
# Indices 1 2 3 4 5 6 
#
# 1 0.026883 -0.004541 0.000090 0.010675 -0.001207 0.010569
# 2 -0.004541 0.016986 -0.001792 0.001070 0.004104 0.008026
# 3 0.000090 -0.001792 0.007823 0.003521 0.000920 0.000285
# 4 0.010675 0.001070 0.003521 0.043796 0.004228 0.010598
# 5 -0.001207 0.004104 0.000920 0.004228 0.025135 0.004863
# 6 0.010569 0.008026 0.000285 0.010598 0.004863 0.037942
#
#
# Mechanical properties :
#
#
# Convention : Reuss Voigt Hill
#
# Bulk Modulus (GPa) = 25.50681 41.81668 33.66174
# Shear Modulus (GPa) = 27.15620 35.96217 31.55918
#
# Velocity S-wave (km/s) = 3.40491 3.91827 3.67058
# Velocity P-wave (km/s) = 5.13295 6.19053 5.68638
#
# Compressibility (1/GPa) = 0.03920521
#
# Stress axis : x y z
#
# Youngs Moduli (GPa) = 37.19818 58.87306 127.82701
#
# Poissons Ratio (x) = 0.26737 -0.01154
# Poissons Ratio (y) = 0.16893 0.22908
# Poissons Ratio (z) = -0.00336 0.10551
#
# Static dielectric constant tensor:
#      x y z
#    x 4.430270 0.208360 -0.037750 
#    y 0.208360 5.120170 -0.460860 
#    z -0.037750 -0.460860 5.220390 
# 
# 
# High freq. dielectric constant tensor:
#      x y z
#    x 1.908860 -0.007990 0.004620 
#    y -0.007990 1.921180 0.007180 
#    z 0.004620 0.007180 1.951520 
# 
# From -- ./inp_files/306179.got.cif
#   From: 2010.06.25/outbox.cif.g09.slc.cpg/sg2_154_cif.got.tgz:306179.got - 2010.06.27 13:26:56.
