data_PCOD8028392
_publ_section_title
;
Structure prediction by ZEFSAII (Michael W. Deem and Ramdas Pophale) SiO2 
 PCOD8028392
Probable space group: P -1
;
_chemical_formula_sum "Si O2"
_cell_formula_units_Z 16
_cell_length_a 14.465362
_cell_length_b 9.748738
_cell_length_c 11.364522
_cell_angle_alpha 91.304070
_cell_angle_beta 150.587874
_cell_angle_gamma 99.009967
_cell_volume 734.260616
_symmetry_space_group_name_H-M "P -1"
_symmetry_group_IT_number 2
_symmetry_cell_setting 'triclinic'
loop_
_space_group_symop_operation_xyz
x,y,z
-x,-y,-z
loop_
_atom_site_type_symbol
_atom_site_label
_atom_site_fract_x
_atom_site_fract_y
_atom_site_fract_z
Si Si1 0.541880 0.884644 0.962040
Si Si2 0.592786 0.266630 0.412693
Si Si3 0.064735 0.924855 0.678757
Si Si4 0.899829 0.384129 0.287564
Si Si5 0.162862 0.412065 0.372112
Si Si6 0.463504 0.356825 0.877594
Si Si7 0.105098 0.824586 0.109901
Si Si8 0.153363 0.081106 0.003048
O O1 0.368504 0.783022 0.679322
O O2 0.623578 0.783076 0.134562
O O3 0.500000 0.000000 0.000000
O O4 0.697778 0.985295 0.043654
O O5 0.680607 0.443142 0.511301
O O6 0.707247 0.214456 0.639131
O O7 0.356004 0.207397 0.181716
O O8 0.034245 0.756128 0.618802
O O9 0.000000 0.000000 0.500000
O O10 0.001100 0.969275 0.735801
O O11 0.000000 0.500000 0.500000
O O12 0.995547 0.447231 0.268295
O O13 0.661209 0.350837 0.029325
O O14 0.290924 0.337773 0.590647
O O15 0.043313 0.301976 0.137719
O O16 0.500000 0.500000 0.000000
O O17 0.203482 0.978187 0.153353
O O18 0.977830 0.834325 0.082483
#
# Coordination Sequence:
#
# PCOD8028392 Si02
#       8
#     2   2   2   2   2   2   2   2
#     4  11  23  40  66 101 134 181 231 279 356 407
#     4  11  25  45  67  97 143 176 236 293 342 417
#     4  11  24  41  69 103 139 178 232 288 349 420
#     4  12  24  42  68 101 145 187 227 284 359 415
#     4  12  26  44  69 104 137 188 235 282 356 419
#     4  12  24  44  67 100 150 183 226 292 352 425
#     4  11  25  46  73  98 136 186 239 283 344 420
#     4  10  25  46  68 101 135 183 233 287 354 406
#
# _framework density 21.790627000000001
#
# number of rings (size 3 to 8) (size 9 to 14) (size 15 to 20)
#    0.000    0.750    5.000    1.500    1.750    3.500 
#    0.000    0.000    0.000    0.000    0.000    0.000 
#    0.000    0.000    0.000    0.000    0.000    0.000 
#
# Total GULP energy -198273.966198 kJ/mol
# GULP energy per Si atom -12392.122887 kJ/mol
# Density = 2.174103 g / cm^3
# Si number density = 21.790627 Si / 1000 Ang^3
#
#
#
# Elastic Constant Matrix: (Units=GPa)
#
#
# Indices 1 2 3 4 5 6 
#
# 1 120.4034 33.7049 27.9932 10.5977 -3.9196 -14.2125
# 2 33.7049 99.1375 7.4145 11.4122 -0.4382 1.1960
# 3 27.9932 7.4145 65.6703 -1.9527 -14.4636 -8.1458
# 4 10.5977 11.4122 -1.9527 40.1626 7.5131 -3.4717
# 5 -3.9196 -0.4382 -14.4636 7.5131 38.9001 8.8942
# 6 -14.2125 1.1960 -8.1458 -3.4717 8.8942 42.7840
#
#
#
# Elastic Compliance Matrix: (Units=1/GPa)
#
#
# Indices 1 2 3 4 5 6 
#
# 1 0.010582 -0.003139 -0.004026 -0.001700 -0.000792 0.002863
# 2 -0.003139 0.011500 -0.000104 -0.002727 0.000702 -0.001751
# 3 -0.004026 -0.000104 0.018437 0.000945 0.006038 0.000997
# 4 -0.001700 -0.002727 0.000945 0.027543 -0.005891 0.003151
# 5 -0.000792 0.000702 0.006038 -0.005891 0.030372 -0.005925
# 6 0.002863 -0.001751 0.000997 0.003151 -0.005925 0.026051
#
#
# Mechanical properties :
#
#
# Convention : Reuss Voigt Hill
#
# Bulk Modulus (GPa) = 38.49020 47.04849 42.76935
# Shear Modulus (GPa) = 33.85606 38.77590 36.31598
#
# Velocity S-wave (km/s) = 3.94597 4.22296 4.08681
# Velocity P-wave (km/s) = 6.20185 6.73913 6.47606
#
# Compressibility (1/GPa) = 0.02598064
#
# Stress axis : x y z
#
# Youngs Moduli (GPa) = 94.49983 86.95559 54.23801
#
# Poissons Ratio (x) = 0.27294 0.21838
# Poissons Ratio (y) = 0.29662 0.00565
# Poissons Ratio (z) = 0.38049 0.00906
#
# Static dielectric constant tensor:
#      x y z
#    x 3.928310 0.020910 0.387760 
#    y 0.020910 4.166440 0.225560 
#    z 0.387760 0.225560 4.253040 
# 
# 
# High freq. dielectric constant tensor:
#      x y z
#    x 1.865630 0.005660 -0.003560 
#    y 0.005660 1.864190 0.016870 
#    z -0.003560 0.016870 1.858290 
# 
# From -- ./inp_files/273110.got.cif
#   From: 2010.06.25/outbox.cif.g09.slc.cpg/sg2_137_cif.got.tgz:273110.got - 2010.06.27 13:26:56.
