data_PCOD8028114
_publ_section_title
;
Structure prediction by ZEFSAII (Michael W. Deem and Ramdas Pophale) SiO2 
 PCOD8028114
Probable space group: P -1
;
_chemical_formula_sum "Si O2"
_cell_formula_units_Z 16
_cell_length_a 13.327914
_cell_length_b 9.052636
_cell_length_c 8.660335
_cell_angle_alpha 123.427318
_cell_angle_beta 57.308014
_cell_angle_gamma 113.135115
_cell_volume 727.112227
_symmetry_space_group_name_H-M "P -1"
_symmetry_group_IT_number 2
_symmetry_cell_setting 'triclinic'
loop_
_space_group_symop_operation_xyz
x,y,z
-x,-y,-z
loop_
_atom_site_type_symbol
_atom_site_label
_atom_site_fract_x
_atom_site_fract_y
_atom_site_fract_z
Si Si1 0.831198 0.076582 0.174218
Si Si2 0.590115 0.158003 0.938188
Si Si3 0.098778 0.261790 0.625271
Si Si4 0.458665 0.467163 0.842118
Si Si5 0.989556 0.433658 0.297807
Si Si6 0.195067 0.303674 0.898080
Si Si7 0.836595 0.066261 0.804493
Si Si8 0.407920 0.837164 0.429556
O O1 0.942768 0.224809 0.203185
O O2 0.721863 0.147898 0.391083
O O3 0.860550 0.895210 0.120841
O O4 0.806656 0.041819 0.994643
O O5 0.727549 0.153829 0.871083
O O6 0.588288 0.156684 0.754982
O O7 0.546130 0.346148 0.136904
O O8 0.500000 0.000000 0.000000
O O9 0.098648 0.449140 0.647355
O O10 0.187051 0.307055 0.721835
O O11 0.962442 0.191669 0.748695
O O12 0.155345 0.125865 0.388504
O O13 0.329905 0.345660 0.870425
O O14 0.555079 0.344220 0.627705
O O15 0.500000 0.500000 0.000000
O O16 0.000000 0.500000 0.500000
O O17 0.120884 0.451894 0.119640
O O18 0.500000 0.000000 0.500000
#
# Coordination Sequence:
#
# PCOD8028114 Si02
#       8
#     2   2   2   2   2   2   2   2
#     4  12  26  44  72 100 142 186 235 284 353 423
#     4  11  25  45  73 100 138 184 234 291 355 416
#     4  11  26  46  71 103 142 182 235 292 347 416
#     4  10  25  43  72 100 138 186 232 288 352 417
#     4  12  28  42  70 108 141 183 233 289 354 419
#     4  12  24  47  73  99 144 184 235 289 356 416
#     4  11  25  45  72 100 143 184 235 288 354 414
#     4  11  23  47  69 101 136 183 238 293 349 416
#
# _framework density 22.004854999999999
#
# number of rings (size 3 to 8) (size 9 to 14) (size 15 to 20)
#    0.000    0.750    2.500    3.750   12.250    1.000 
#    0.000    2.500    0.000    0.000    0.000    0.000 
#    0.000    0.000    0.000    0.000    0.000    0.000 
#
# Total GULP energy -198397.853784 kJ/mol
# GULP energy per Si atom -12399.865862 kJ/mol
# Density = 2.195477 g / cm^3
# Si number density = 22.004855 Si / 1000 Ang^3
#
#
#
# Elastic Constant Matrix: (Units=GPa)
#
#
# Indices 1 2 3 4 5 6 
#
# 1 135.3290 38.4242 47.3605 7.9646 10.0107 -12.2143
# 2 38.4242 114.2746 38.2633 15.7706 3.5446 -23.5824
# 3 47.3605 38.2633 140.5393 6.9395 2.5265 -16.0567
# 4 7.9646 15.7706 6.9395 35.1959 -4.9020 -5.8105
# 5 10.0107 3.5446 2.5265 -4.9020 47.5598 4.4555
# 6 -12.2143 -23.5824 -16.0567 -5.8105 4.4555 39.1453
#
#
#
# Elastic Compliance Matrix: (Units=1/GPa)
#
#
# Indices 1 2 3 4 5 6 
#
# 1 0.009007 -0.001909 -0.002353 -0.000840 -0.001787 0.000773
# 2 -0.001909 0.011610 -0.001706 -0.003735 -0.001253 0.005286
# 3 -0.002353 -0.001706 0.008577 -0.000108 -0.000007 0.001741
# 4 -0.000840 -0.003735 -0.000108 0.031059 0.003507 0.001655
# 5 -0.001787 -0.001253 -0.000007 0.003507 0.022168 -0.003318
# 6 0.000773 0.005286 0.001741 0.001655 -0.003318 0.030309
#
#
# Mechanical properties :
#
#
# Convention : Reuss Voigt Hill
#
# Bulk Modulus (GPa) = 57.95364 70.91545 64.43454
# Shear Modulus (GPa) = 38.33757 42.11986 40.22871
#
# Velocity S-wave (km/s) = 4.17853 4.37981 4.28035
# Velocity P-wave (km/s) = 7.04799 7.60750 7.33308
#
# Compressibility (1/GPa) = 0.01725517
#
# Stress axis : x y z
#
# Youngs Moduli (GPa) = 111.02970 86.13599 116.58514
#
# Poissons Ratio (x) = 0.16448 0.27436
# Poissons Ratio (y) = 0.21201 0.19894
# Poissons Ratio (z) = 0.26129 0.14698
#
# Static dielectric constant tensor:
#      x y z
#    x 3.798670 -0.131320 -0.006900 
#    y -0.131320 4.187740 0.342010 
#    z -0.006900 0.342010 4.113610 
# 
# 
# High freq. dielectric constant tensor:
#      x y z
#    x 1.882940 -0.007670 -0.004890 
#    y -0.007670 1.866540 0.020570 
#    z -0.004890 0.020570 1.876430 
# 
# From -- ./inp_files/226769.got.cif
#   From: 2010.06.25/outbox.cif.g09.slc.cpg/sg2_114_cif.got.tgz:226769.got - 2010.06.27 13:26:56.
