data_PCOD8028378
_publ_section_title
;
Structure prediction by ZEFSAII (Michael W. Deem and Ramdas Pophale) SiO2 
 PCOD8028378
Probable space group: P -1
;
_chemical_formula_sum "Si O2"
_cell_formula_units_Z 12
_cell_length_a 18.916068
_cell_length_b 8.444299
_cell_length_c 14.773467
_cell_angle_alpha 40.370916
_cell_angle_beta 21.031975
_cell_angle_gamma 47.905270
_cell_volume 540.075703
_symmetry_space_group_name_H-M "P -1"
_symmetry_group_IT_number 2
_symmetry_cell_setting 'triclinic'
loop_
_space_group_symop_operation_xyz
x,y,z
-x,-y,-z
loop_
_atom_site_type_symbol
_atom_site_label
_atom_site_fract_x
_atom_site_fract_y
_atom_site_fract_z
Si Si1 0.882999 0.874015 0.063359
Si Si2 0.449809 0.943322 0.867611
Si Si3 0.279053 0.871949 0.691905
Si Si4 0.592801 0.780713 0.941623
Si Si5 0.977762 0.210959 0.632604
Si Si6 0.523092 0.481152 0.633858
O O1 0.747742 0.632035 0.286424
O O2 0.739296 0.998112 0.246789
O O3 0.063501 0.791420 0.938468
O O4 0.970256 0.067515 0.798297
O O5 0.571254 0.933473 0.633591
O O6 0.512972 0.217494 0.713554
O O7 0.509696 0.741049 0.955202
O O8 0.214579 0.880196 0.159315
O O9 0.365008 0.620551 0.712586
O O10 0.833273 0.846016 0.624945
O O11 0.525607 0.542304 0.189931
O O12 0.500000 0.000000 0.000000
O O13 0.000000 0.500000 0.500000
#
# Coordination Sequence:
#
# PCOD8028378 Si02
#       6
#     2   2   2   2   2   2
#     4  11  25  42  70 102 135 173 231 279 337 402
#     4  11  25  44  71  99 138 178 228 277 343 402
#     4  11  23  42  68 103 133 176 223 278 339 401
#     4  10  25  46  66 101 140 178 222 282 339 401
#     4  12  26  44  71 101 137 183 229 279 342 409
#     4  11  24  43  71  99 134 178 220 286 332 402
#
# _framework density 22.219106
#
# number of rings (size 3 to 8) (size 9 to 14) (size 15 to 20)
#    0.000    1.000    3.333    2.000    2.333   10.667 
#    0.000    0.000    0.000    0.000    0.000    0.000 
#    0.000    0.000    0.000    0.000    0.000    0.000 
#
# Total GULP energy -148846.130664 kJ/mol
# GULP energy per Si atom -12403.844222 kJ/mol
# Density = 2.216853 g / cm^3
# Si number density = 22.219106 Si / 1000 Ang^3
#
#
#
# Elastic Constant Matrix: (Units=GPa)
#
#
# Indices 1 2 3 4 5 6 
#
# 1 77.5773 15.9554 26.6370 -7.5424 14.8656 -19.2198
# 2 15.9554 45.6767 49.2817 2.6405 -6.2962 -0.3435
# 3 26.6370 49.2817 128.5458 9.2692 0.8207 -0.9493
# 4 -7.5424 2.6405 9.2692 44.1045 -1.5815 -0.3756
# 5 14.8656 -6.2962 0.8207 -1.5815 58.5811 -1.5712
# 6 -19.2198 -0.3435 -0.9493 -0.3756 -1.5712 38.2554
#
#
#
# Elastic Compliance Matrix: (Units=1/GPa)
#
#
# Indices 1 2 3 4 5 6 
#
# 1 0.018053 -0.004923 -0.002026 0.003713 -0.004745 0.008817
# 2 -0.004923 0.039791 -0.014285 -0.000038 0.005665 -0.002238
# 3 -0.002026 -0.014285 0.013855 -0.002457 -0.001305 -0.000880
# 4 0.003713 -0.000038 -0.002457 0.023837 -0.000214 0.002029
# 5 -0.004745 0.005665 -0.001305 -0.000214 0.018853 -0.001593
# 6 0.008817 -0.002238 -0.000880 0.002029 -0.001593 0.030482
#
#
# Mechanical properties :
#
#
# Convention : Reuss Voigt Hill
#
# Bulk Modulus (GPa) = 34.20937 48.39422 41.30179
# Shear Modulus (GPa) = 25.37007 38.84992 32.11000
#
# Velocity S-wave (km/s) = 3.38274 4.18603 3.80564
# Velocity P-wave (km/s) = 5.53959 6.72247 6.15949
#
# Compressibility (1/GPa) = 0.02923176
#
# Stress axis : x y z
#
# Youngs Moduli (GPa) = 55.39190 25.13120 72.17752
#
# Poissons Ratio (x) = 0.12371 0.14623
# Poissons Ratio (y) = 0.27268 1.03105
# Poissons Ratio (z) = 0.11222 0.35900
#
# Static dielectric constant tensor:
#      x y z
#    x 4.668110 -0.320190 0.522960 
#    y -0.320190 3.867220 0.139250 
#    z 0.522960 0.139250 3.670760 
# 
# 
# High freq. dielectric constant tensor:
#      x y z
#    x 1.894750 -0.015170 0.009440 
#    y -0.015170 1.867940 0.012080 
#    z 0.009440 0.012080 1.882810 
# 
# From -- ./inp_files/157810.got.cif
#   From: 2010.06.25/outbox.cif.g09.slc.cpg/sg2_79_cif.got.tgz:157810.got - 2010.06.27 13:26:56.
