data_PCOD8028999
_publ_section_title
;
Structure prediction by ZEFSAII (Michael W. Deem and Ramdas Pophale) SiO2 
 PCOD8028999
Probable space group: P -1
;
_chemical_formula_sum "Si O2"
_cell_formula_units_Z 14
_cell_length_a 8.692808
_cell_length_b 11.211079
_cell_length_c 9.421159
_cell_angle_alpha 84.742415
_cell_angle_beta 132.515785
_cell_angle_gamma 111.222749
_cell_volume 615.020748
_symmetry_space_group_name_H-M "P -1"
_symmetry_group_IT_number 2
_symmetry_cell_setting 'triclinic'
loop_
_space_group_symop_operation_xyz
x,y,z
-x,-y,-z
loop_
_atom_site_type_symbol
_atom_site_label
_atom_site_fract_x
_atom_site_fract_y
_atom_site_fract_z
Si Si1 0.064442 0.247802 0.254688
Si Si2 0.135013 0.642979 0.628139
Si Si3 0.497833 0.656934 0.064677
Si Si4 0.562138 0.097751 0.895979
Si Si5 0.996613 0.245461 0.714063
Si Si6 0.144427 0.424171 0.039944
Si Si7 0.831781 0.973561 0.531725
O O1 0.218395 0.357051 0.225539
O O2 0.201481 0.163136 0.400045
O O3 0.004459 0.320616 0.339906
O O4 0.833409 0.153061 0.038095
O O5 0.000000 0.500000 0.500000
O O6 0.179403 0.741789 0.512975
O O7 0.374817 0.653388 0.838099
O O8 0.516625 0.784433 0.146004
O O9 0.748525 0.666282 0.192336
O O10 0.368067 0.525135 0.089096
O O11 0.412672 0.028193 0.671617
O O12 0.500000 0.000000 0.000000
O O13 0.977526 0.307121 0.846075
O O14 0.941042 0.090582 0.702994
O O15 0.000000 0.500000 0.000000
O O16 0.000000 0.000000 0.500000
#
# Coordination Sequence:
#
# PCOD8028999 Si02
#       7
#     2   2   2   2   2   2   2
#     4  11  23  41  63  94 135 171 209 271 333 380
#     4  11  20  36  65  93 125 165 222 261 311 382
#     4  11  22  40  68  94 130 172 218 261 327 386
#     4  11  19  37  67  95 124 168 216 262 321 381
#     4  12  24  42  69  98 127 170 227 266 314 396
#     4  12  24  44  65  94 138 177 204 272 342 382
#     4  12  21  39  67  98 126 167 222 272 315 383
#
# _framework density 22.763458
#
# number of rings (size 3 to 8) (size 9 to 14) (size 15 to 20)
#    0.000    0.571    8.571    1.286    0.000    0.571 
#    0.000    6.429    0.000    0.000    0.000    0.000 
#    0.000    0.000    0.000    0.000    0.000    0.000 
#
# Total GULP energy -173564.765122 kJ/mol
# GULP energy per Si atom -12397.483223 kJ/mol
# Density = 2.271165 g / cm^3
# Si number density = 22.763458 Si / 1000 Ang^3
#
#
#
# Elastic Constant Matrix: (Units=GPa)
#
#
# Indices 1 2 3 4 5 6 
#
# 1 32.8033 25.6529 33.1210 3.9634 -9.2619 -11.0659
# 2 25.6529 149.6163 53.5132 -17.0851 -16.3948 -11.0257
# 3 33.1210 53.5132 120.6251 -6.1855 -6.9230 -3.3209
# 4 3.9634 -17.0851 -6.1855 54.6581 -2.9041 -13.0701
# 5 -9.2619 -16.3948 -6.9230 -2.9041 38.0727 6.6352
# 6 -11.0659 -11.0257 -3.3209 -13.0701 6.6352 27.8099
#
#
#
# Elastic Compliance Matrix: (Units=1/GPa)
#
#
# Indices 1 2 3 4 5 6 
#
# 1 0.052806 -0.002948 -0.012492 -0.002029 0.006384 0.015875
# 2 -0.002948 0.009118 -0.002821 0.003649 0.002409 0.003245
# 3 -0.012492 -0.002821 0.012814 0.000438 -0.001181 -0.004071
# 4 -0.002029 0.003649 0.000438 0.022301 0.000951 0.010945
# 5 0.006384 0.002409 -0.001181 0.000951 0.029268 -0.003182
# 6 0.015875 0.003245 -0.004071 0.010945 -0.003182 0.048979
#
#
# Mechanical properties :
#
#
# Convention : Reuss Voigt Hill
#
# Bulk Modulus (GPa) = 26.16709 58.62433 42.39571
# Shear Modulus (GPa) = 22.26705 36.82531 29.54618
#
# Velocity S-wave (km/s) = 3.13100 4.02647 3.60664
# Velocity P-wave (km/s) = 4.95894 6.88667 6.00072
#
# Compressibility (1/GPa) = 0.03821594
#
# Stress axis : x y z
#
# Youngs Moduli (GPa) = 18.93719 109.67394 78.03848
#
# Poissons Ratio (x) = 0.32336 0.97486
# Poissons Ratio (y) = 0.05583 0.22013
# Poissons Ratio (z) = 0.23656 0.30937
#
# Static dielectric constant tensor:
#      x y z
#    x 3.819350 -0.116230 -0.181590 
#    y -0.116230 4.566950 -0.149060 
#    z -0.181590 -0.149060 4.809310 
# 
# 
# High freq. dielectric constant tensor:
#      x y z
#    x 1.853650 -0.018950 -0.007000 
#    y -0.018950 1.919930 0.002140 
#    z -0.007000 0.002140 1.907580 
# 
# From -- ./inp_files/187128.got.cif
#   From: 2010.06.25/outbox.cif.g09.slc.cpg/sg2_94_cif.got.tgz:187128.got - 2010.06.27 13:26:56.
