data_PCOD8028445
_publ_section_title
;
Structure prediction by ZEFSAII (Michael W. Deem and Ramdas Pophale) SiO2 
 PCOD8028445
Probable space group: P -1
;
_chemical_formula_sum "Si O2"
_cell_formula_units_Z 16
_cell_length_a 12.416445
_cell_length_b 11.813313
_cell_length_c 6.382253
_cell_angle_alpha 127.701103
_cell_angle_beta 98.159859
_cell_angle_gamma 91.027406
_cell_volume 726.605192
_symmetry_space_group_name_H-M "P -1"
_symmetry_group_IT_number 2
_symmetry_cell_setting 'triclinic'
loop_
_space_group_symop_operation_xyz
x,y,z
-x,-y,-z
loop_
_atom_site_type_symbol
_atom_site_label
_atom_site_fract_x
_atom_site_fract_y
_atom_site_fract_z
Si Si1 0.203477 0.347024 0.102187
Si Si2 0.030441 0.246951 0.267026
Si Si3 0.088179 0.599268 0.266513
Si Si4 0.095428 0.094672 0.506529
Si Si5 0.522979 0.898608 0.701217
Si Si6 0.839996 0.181677 0.812456
Si Si7 0.393439 0.828150 0.188440
Si Si8 0.549325 0.663201 0.752050
O O1 0.148515 0.306485 0.266773
O O2 0.191305 0.513925 0.242271
O O3 0.331419 0.332787 0.109157
O O4 0.139702 0.247540 0.793586
O O5 0.051227 0.121790 0.292583
O O6 0.973508 0.371486 0.504219
O O7 0.945990 0.192659 0.000740
O O8 0.128351 0.746452 0.321698
O O9 0.000000 0.500000 0.000000
O O10 0.192317 0.992112 0.419369
O O11 0.000000 0.000000 0.500000
O O12 0.421252 0.835199 0.452363
O O13 0.567385 0.758056 0.651499
O O14 0.604334 0.006026 0.701144
O O15 0.500000 0.000000 0.000000
O O16 0.733797 0.244490 0.950052
O O17 0.469964 0.732422 0.971427
O O18 0.500000 0.500000 0.500000
#
# Coordination Sequence:
#
# PCOD8028445 Si02
#       8
#     2   2   2   2   2   2   2   2
#     4  12  28  44  72  99 144 186 228 289 344 410
#     4  12  24  43  72 102 140 181 230 271 361 412
#     4  12  24  47  65 103 142 180 230 284 343 421
#     4  12  24  46  67 110 143 174 230 290 345 415
#     4   9  22  47  70  96 133 179 238 290 343 408
#     4  12  27  41  74 103 141 183 227 286 349 423
#     4  10  25  46  71 101 137 184 232 290 354 404
#     4  11  28  48  68 104 141 185 241 286 340 417
#
# _framework density 22.020212000000001
#
# number of rings (size 3 to 8) (size 9 to 14) (size 15 to 20)
#    0.000    0.750    5.000    0.750   10.500    1.500 
#    0.000    0.000    0.000    0.000    0.000    0.000 
#    0.000    0.000    0.000    0.000    0.000    0.000 
#
# Total GULP energy -198267.440706 kJ/mol
# GULP energy per Si atom -12391.715044 kJ/mol
# Density = 2.197009 g / cm^3
# Si number density = 22.020212 Si / 1000 Ang^3
#
#
#
# Elastic Constant Matrix: (Units=GPa)
#
#
# Indices 1 2 3 4 5 6 
#
# 1 142.8740 40.2865 36.0215 -2.7836 -12.0987 -4.0017
# 2 40.2865 139.2983 47.9263 -5.5125 -1.0706 -24.8447
# 3 36.0215 47.9263 97.9363 -1.2633 -11.7069 -2.3801
# 4 -2.7836 -5.5125 -1.2633 38.4081 -3.9474 -1.3301
# 5 -12.0987 -1.0706 -11.7069 -3.9474 32.3457 3.7171
# 6 -4.0017 -24.8447 -2.3801 -1.3301 3.7171 28.3121
#
#
#
# Elastic Compliance Matrix: (Units=1/GPa)
#
#
# Indices 1 2 3 4 5 6 
#
# 1 0.008179 -0.001874 -0.001808 0.000490 0.002512 -0.000947
# 2 -0.001874 0.011129 -0.004870 0.001320 -0.003032 0.009552
# 3 -0.001808 -0.004870 0.013709 -0.000047 0.004576 -0.003980
# 4 0.000490 0.001320 -0.000047 0.026662 0.003228 0.002053
# 5 0.002512 -0.003032 0.004576 0.003228 0.034529 -0.006302
# 6 -0.000947 0.009552 -0.003980 0.002053 -0.006302 0.044158
#
#
# Mechanical properties :
#
#
# Convention : Reuss Voigt Hill
#
# Bulk Modulus (GPa) = 62.84108 69.84193 66.34151
# Shear Modulus (GPa) = 31.09955 36.87146 33.98551
#
# Velocity S-wave (km/s) = 3.76216 4.09643 3.93285
# Velocity P-wave (km/s) = 6.88997 7.35937 7.12853
#
# Compressibility (1/GPa) = 0.01591316
#
# Stress axis : x y z
#
# Youngs Moduli (GPa) = 122.26456 89.85641 72.94701
#
# Poissons Ratio (x) = 0.16836 0.13188
# Poissons Ratio (y) = 0.22908 0.35526
# Poissons Ratio (z) = 0.22104 0.43761
#
# Static dielectric constant tensor:
#      x y z
#    x 3.511700 -0.024650 0.501200 
#    y -0.024650 4.602990 -0.416270 
#    z 0.501200 -0.416270 3.156150 
# 
# 
# High freq. dielectric constant tensor:
#      x y z
#    x 1.859390 -0.012270 -0.010050 
#    y -0.012270 1.882760 -0.002280 
#    z -0.010050 -0.002280 1.868140 
# 
# From -- ./inp_files/72336.got.cif
#   From: 2010.06.25/outbox.cif.g09.slc.cpg/sg2_37_cif.got.tgz:72336.got - 2010.06.27 13:26:56.
