data_PCOD8028804
_publ_section_title
;
Structure prediction by ZEFSAII (Michael W. Deem and Ramdas Pophale) SiO2 
 PCOD8028804
Probable space group: P -1
;
_chemical_formula_sum "Si O2"
_cell_formula_units_Z 16
_cell_length_a 8.543468
_cell_length_b 15.314974
_cell_length_c 11.934333
_cell_angle_alpha 152.356690
_cell_angle_beta 92.701461
_cell_angle_gamma 96.032622
_cell_volume 686.399620
_symmetry_space_group_name_H-M "P -1"
_symmetry_group_IT_number 2
_symmetry_cell_setting 'triclinic'
loop_
_space_group_symop_operation_xyz
x,y,z
-x,-y,-z
loop_
_atom_site_type_symbol
_atom_site_label
_atom_site_fract_x
_atom_site_fract_y
_atom_site_fract_z
Si Si1 0.577944 0.773905 0.082038
Si Si2 0.111711 0.375563 0.592225
Si Si3 0.770849 0.205981 0.976059
Si Si4 0.433549 0.655183 0.334422
Si Si5 0.164095 0.452195 0.926152
Si Si6 0.715182 0.886133 0.446210
Si Si7 0.184306 0.049907 0.107138
Si Si8 0.255335 0.923366 0.739650
O O1 0.415282 0.789454 0.034049
O O2 0.603917 0.881564 0.327249
O O3 0.727395 0.904767 0.156855
O O4 0.573139 0.546476 0.831051
O O5 0.206129 0.470117 0.816594
O O6 0.229283 0.272369 0.412286
O O7 0.931839 0.224450 0.440395
O O8 0.102348 0.571165 0.749623
O O9 0.809541 0.104968 0.746843
O O10 0.799241 0.096600 0.962739
O O11 0.609525 0.770285 0.417586
O O12 0.382335 0.799541 0.583428
O O13 0.310629 0.612441 0.176406
O O14 0.153386 0.228725 0.710866
O O15 0.000000 0.500000 0.000000
O O16 0.297166 0.029418 0.983099
O O17 0.000000 0.000000 0.000000
#
# Coordination Sequence:
#
# PCOD8028804 Si02
#       8
#     2   2   2   2   2   2   2   2
#     4  11  25  42  70 106 141 185 228 282 356 422
#     4  11  24  44  70 102 140 181 236 288 349 410
#     4  12  24  42  76  99 131 194 234 277 349 420
#     4  11  23  44  69 103 148 183 223 290 352 416
#     4  11  21  40  67 104 141 177 225 289 342 411
#     4  11  23  44  71 104 149 184 224 282 362 424
#     4  10  26  49  69  96 142 186 235 290 348 406
#     4  11  25  45  69  98 144 180 236 292 341 407
#
# _framework density 23.310037999999999
#
# number of rings (size 3 to 8) (size 9 to 14) (size 15 to 20)
#    0.000    1.000    3.750    3.375    1.750    5.500 
#    0.000    3.125    0.000    0.000    0.000    0.000 
#    0.000    0.000    0.000    0.000    0.000    0.000 
#
# Total GULP energy -198337.413054 kJ/mol
# GULP energy per Si atom -12396.088316 kJ/mol
# Density = 2.325698 g / cm^3
# Si number density = 23.310038 Si / 1000 Ang^3
#
#
#
# Elastic Constant Matrix: (Units=GPa)
#
#
# Indices 1 2 3 4 5 6 
#
# 1 90.5237 41.8605 43.8600 -1.7244 -20.2546 -10.0132
# 2 41.8605 145.1493 85.3629 1.1213 -13.0457 -7.7884
# 3 43.8600 85.3629 157.1442 3.1526 -33.8276 8.2363
# 4 -1.7244 1.1213 3.1526 47.9413 7.0430 -1.6172
# 5 -20.2546 -13.0457 -33.8276 7.0430 36.6959 -3.3669
# 6 -10.0132 -7.7884 8.2363 -1.6172 -3.3669 35.6351
#
#
#
# Elastic Compliance Matrix: (Units=1/GPa)
#
#
# Indices 1 2 3 4 5 6 
#
# 1 0.014931 -0.002486 -0.001724 -0.000046 0.006203 0.004635
# 2 -0.002486 0.011098 -0.006127 0.000581 -0.002920 0.002893
# 3 -0.001724 -0.006127 0.012169 -0.002045 0.008117 -0.003962
# 4 -0.000046 0.000581 -0.002045 0.021866 -0.005806 0.001030
# 5 0.006203 -0.002920 0.008117 -0.005806 0.038472 0.002600
# 6 0.004635 0.002893 -0.003962 0.001030 0.002600 0.031205
#
#
# Mechanical properties :
#
#
# Convention : Reuss Voigt Hill
#
# Bulk Modulus (GPa) = 57.06057 81.66489 69.36273
# Shear Modulus (GPa) = 31.99907 38.83673 35.41790
#
# Velocity S-wave (km/s) = 3.70910 4.08621 3.90221
# Velocity P-wave (km/s) = 6.54792 7.57450 7.07984
#
# Compressibility (1/GPa) = 0.01752524
#
# Stress axis : x y z
#
# Youngs Moduli (GPa) = 66.97401 90.10867 82.17770
#
# Poissons Ratio (x) = 0.22399 0.14166
# Poissons Ratio (y) = 0.16648 0.50347
# Poissons Ratio (z) = 0.11545 0.55206
#
# Static dielectric constant tensor:
#      x y z
#    x 4.090430 -0.034740 -0.570250 
#    y -0.034740 4.334690 -0.187910 
#    z -0.570250 -0.187910 4.715500 
# 
# 
# High freq. dielectric constant tensor:
#      x y z
#    x 1.913130 -0.015170 -0.014640 
#    y -0.015170 1.915390 -0.000090 
#    z -0.014640 -0.000090 1.939290 
# 
# From -- ./inp_files/400057.got.cif
#   From: 2010.06.25/outbox.cif.g09.slc.cpg/sg2_201_cif.got.tgz:400057.got - 2010.06.27 13:26:56.
