data_PCOD8028232
_publ_section_title
;
Structure prediction by ZEFSAII (Michael W. Deem and Ramdas Pophale) SiO2 
 PCOD8028232
Probable space group: P -1
;
_chemical_formula_sum "Si O2"
_cell_formula_units_Z 14
_cell_length_a 9.224361
_cell_length_b 18.523702
_cell_length_c 9.694899
_cell_angle_alpha 153.912126
_cell_angle_beta 59.782155
_cell_angle_gamma 121.731264
_cell_volume 617.459397
_symmetry_space_group_name_H-M "P -1"
_symmetry_group_IT_number 2
_symmetry_cell_setting 'triclinic'
loop_
_space_group_symop_operation_xyz
x,y,z
-x,-y,-z
loop_
_atom_site_type_symbol
_atom_site_label
_atom_site_fract_x
_atom_site_fract_y
_atom_site_fract_z
Si Si1 0.510269 0.454988 0.214354
Si Si2 0.154744 0.459951 0.264503
Si Si3 0.938412 0.872369 0.429209
Si Si4 0.694222 0.320532 0.672894
Si Si5 0.132196 0.940562 0.733147
Si Si6 0.408461 0.031444 0.235947
Si Si7 0.528733 0.781730 0.931466
O O1 0.306845 0.417612 0.213964
O O2 0.571271 0.633189 0.562159
O O3 0.544201 0.301691 0.032268
O O4 0.639434 0.467170 0.043160
O O5 0.238699 0.620567 0.409489
O O6 0.000000 0.500000 0.500000
O O7 0.082465 0.313818 0.940614
O O8 0.765368 0.921031 0.649329
O O9 0.069476 0.903245 0.544344
O O10 0.000000 0.000000 0.500000
O O11 0.838853 0.236908 0.528928
O O12 0.516506 0.190096 0.532241
O O13 0.301680 0.081835 0.890348
O O14 0.000000 0.000000 0.000000
O O15 0.500000 0.000000 0.000000
O O16 0.388867 0.870839 0.073536
#
# Coordination Sequence:
#
# PCOD8028232 Si02
#       7
#     2   2   2   2   2   2   2
#     4  11  24  46  75 103 138 190 241 299 346 433
#     4  12  29  47  72 106 148 185 241 305 364 421
#     4  12  28  45  74 107 147 187 237 296 366 423
#     4  11  26  46  74 100 138 192 245 287 357 426
#     4  11  27  46  71 107 149 188 232 298 361 431
#     4  11  24  45  74 102 138 190 236 289 347 436
#     4  10  25  44  75 100 144 185 243 282 364 421
#
# _framework density 22.673556999999999
#
# number of rings (size 3 to 8) (size 9 to 14) (size 15 to 20)
#    0.000    0.857    1.429    3.857   14.000    2.857 
#    0.000    0.000    0.000    0.000    0.000    0.000 
#    0.000    0.000    0.000    0.000    0.000    0.000 
#
# Total GULP energy -173617.408584 kJ/mol
# GULP energy per Si atom -12401.243470 kJ/mol
# Density = 2.262195 g / cm^3
# Si number density = 22.673557 Si / 1000 Ang^3
#
#
#
# Elastic Constant Matrix: (Units=GPa)
#
#
# Indices 1 2 3 4 5 6 
#
# 1 103.0573 17.3492 36.8009 -3.1894 0.7927 -14.3288
# 2 17.3492 102.5966 28.5397 -3.5192 -10.5190 -16.8384
# 3 36.8009 28.5397 110.7184 -12.1262 -2.4891 1.8389
# 4 -3.1894 -3.5192 -12.1262 46.5090 4.0344 -7.2527
# 5 0.7927 -10.5190 -2.4891 4.0344 42.5622 -6.5138
# 6 -14.3288 -16.8384 1.8389 -7.2527 -6.5138 37.0554
#
#
#
# Elastic Compliance Matrix: (Units=1/GPa)
#
#
# Indices 1 2 3 4 5 6 
#
# 1 0.011809 -0.000063 -0.003928 0.000521 0.000232 0.004875
# 2 -0.000063 0.012059 -0.003023 0.000798 0.003711 0.006414
# 3 -0.003928 -0.003023 0.011377 0.002032 -0.000688 -0.003180
# 4 0.000521 0.000798 0.002032 0.022968 -0.001143 0.004758
# 5 0.000232 0.003711 -0.000688 -0.001143 0.025402 0.006052
# 6 0.004875 0.006414 -0.003180 0.004758 0.006052 0.033939
#
#
# Mechanical properties :
#
#
# Convention : Reuss Voigt Hill
#
# Bulk Modulus (GPa) = 47.13111 53.52800 50.32955
# Shear Modulus (GPa) = 36.06124 40.80414 38.43269
#
# Velocity S-wave (km/s) = 3.99238 4.24681 4.12156
# Velocity P-wave (km/s) = 6.48722 6.90700 6.70040
#
# Compressibility (1/GPa) = 0.02121741
#
# Stress axis : x y z
#
# Youngs Moduli (GPa) = 84.68420 82.92544 87.89995
#
# Poissons Ratio (x) = 0.00518 0.34523
# Poissons Ratio (y) = 0.00529 0.26575
# Poissons Ratio (z) = 0.33260 0.25071
#
# Static dielectric constant tensor:
#      x y z
#    x 3.956700 -0.188690 -0.023930 
#    y -0.188690 4.086170 0.048870 
#    z -0.023930 0.048870 3.807650 
# 
# 
# High freq. dielectric constant tensor:
#      x y z
#    x 1.899540 -0.012380 0.001020 
#    y -0.012380 1.899660 -0.001140 
#    z 0.001020 -0.001140 1.912540 
# 
# From -- ./inp_files/158484.got.cif
#   From: 2010.06.25/outbox.cif.g09.slc.cpg/sg2_80_cif.got.tgz:158484.got - 2010.06.27 13:26:56.
