data_PCOD8028163
_publ_section_title
;
Structure prediction by ZEFSAII (Michael W. Deem and Ramdas Pophale) SiO2 
 PCOD8028163
Probable space group: P -1
;
_chemical_formula_sum "Si O2"
_cell_formula_units_Z 12
_cell_length_a 17.619587
_cell_length_b 14.411287
_cell_length_c 6.125092
_cell_angle_alpha 109.578934
_cell_angle_beta 68.903346
_cell_angle_gamma 159.330673
_cell_volume 512.174625
_symmetry_space_group_name_H-M "P -1"
_symmetry_group_IT_number 2
_symmetry_cell_setting 'triclinic'
loop_
_space_group_symop_operation_xyz
x,y,z
-x,-y,-z
loop_
_atom_site_type_symbol
_atom_site_label
_atom_site_fract_x
_atom_site_fract_y
_atom_site_fract_z
Si Si1 0.164322 0.770423 0.342365
Si Si2 0.685603 0.890394 0.264429
Si Si3 0.509731 0.232917 0.023177
Si Si4 0.945445 0.014754 0.254888
Si Si5 0.698941 0.587480 0.440965
Si Si6 0.284155 0.713940 0.397045
O O1 0.190074 0.682828 0.287123
O O2 0.906864 0.511062 0.397743
O O3 0.272954 0.952008 0.573137
O O4 0.295009 0.941844 0.121592
O O5 0.897185 0.060032 0.203211
O O6 0.529234 0.652476 0.395784
O O7 0.587452 0.788678 0.044153
O O8 0.674438 0.466874 0.208428
O O9 0.657545 0.323470 0.805598
O O10 0.756938 0.753753 0.390785
O O11 0.135256 0.255895 0.415436
O O12 0.000000 0.000000 0.000000
O O13 0.500000 0.000000 0.500000
#
# Coordination Sequence:
#
# PCOD8028163 Si02
#       6
#     2   2   2   2   2   2
#     4  10  25  44  68 105 139 184 236 282 346 421
#     4  11  24  45  67 104 139 178 235 288 342 417
#     4  11  24  46  74 103 144 186 226 295 348 409
#     4  11  25  44  71 100 138 186 230 286 347 416
#     4  10  25  45  67 101 138 186 228 284 347 414
#     4  11  23  47  71 101 143 184 233 284 347 419
#
# _framework density 23.429508999999999
#
# number of rings (size 3 to 8) (size 9 to 14) (size 15 to 20)
#    0.000    1.333    1.667    2.000    4.667    8.667 
#    3.000    0.000    0.000    0.000    0.000    0.000 
#    0.000    0.000    0.000    0.000    0.000    0.000 
#
# Total GULP energy -148738.004680 kJ/mol
# GULP energy per Si atom -12394.833723 kJ/mol
# Density = 2.337618 g / cm^3
# Si number density = 23.429509 Si / 1000 Ang^3
#
#
#
# Elastic Constant Matrix: (Units=GPa)
#
#
# Indices 1 2 3 4 5 6 
#
# 1 146.0422 15.3637 52.5751 6.4127 4.7961 18.0051
# 2 15.3637 114.5960 30.8814 5.3927 -2.1214 12.9278
# 3 52.5751 30.8814 102.4833 14.5962 5.2270 19.1101
# 4 6.4127 5.3927 14.5962 39.8872 5.3477 0.9001
# 5 4.7961 -2.1214 5.2270 5.3477 19.9819 -1.0621
# 6 18.0051 12.9278 19.1101 0.9001 -1.0621 26.3889
#
#
#
# Elastic Compliance Matrix: (Units=1/GPa)
#
#
# Indices 1 2 3 4 5 6 
#
# 1 0.008649 0.000215 -0.003861 0.000239 -0.001281 -0.003271
# 2 0.000215 0.009769 -0.002484 -0.000596 0.001633 -0.003047
# 3 -0.003861 -0.002484 0.014372 -0.003831 -0.002418 -0.006524
# 4 0.000239 -0.000596 -0.003831 0.027326 -0.006340 0.001717
# 5 -0.001281 0.001633 -0.002418 -0.006340 0.053078 0.004178
# 6 -0.003271 -0.003047 -0.006524 0.001717 0.004178 0.046453
#
#
# Mechanical properties :
#
#
# Convention : Reuss Voigt Hill
#
# Bulk Modulus (GPa) = 48.70739 62.30689 55.50714
# Shear Modulus (GPa) = 27.97188 34.87169 31.42179
#
# Velocity S-wave (km/s) = 3.45900 3.86212 3.66610
# Velocity P-wave (km/s) = 6.06522 6.82195 6.45469
#
# Compressibility (1/GPa) = 0.02053077
#
# Stress axis : x y z
#
# Youngs Moduli (GPa) = 115.61464 102.36478 69.57847
#
# Poissons Ratio (x) = -0.02199 0.26863
# Poissons Ratio (y) = -0.02483 0.17283
# Poissons Ratio (z) = 0.44636 0.25427
#
# Static dielectric constant tensor:
#      x y z
#    x 4.111940 -0.101690 0.051560 
#    y -0.101690 4.536330 -0.149570 
#    z 0.051560 -0.149570 4.169450 
# 
# 
# High freq. dielectric constant tensor:
#      x y z
#    x 1.925090 -0.007420 0.000010 
#    y -0.007420 1.946310 -0.006110 
#    z 0.000010 -0.006110 1.918500 
# 
# From -- ./inp_files/3127.got.cif
#   From: 2010.06.25/outbox.cif.g09.slc.cpg/sg2_2_cif.got.tgz:3127.got - 2010.06.27 13:26:56.
