data_PCOD8028167
_publ_section_title
;
Structure prediction by ZEFSAII (Michael W. Deem and Ramdas Pophale) SiO2 
 PCOD8028167
Probable space group: P -1
;
_chemical_formula_sum "Si O2"
_cell_formula_units_Z 12
_cell_length_a 20.124986
_cell_length_b 7.099682
_cell_length_c 22.529314
_cell_angle_alpha 53.385305
_cell_angle_beta 167.842961
_cell_angle_gamma 125.661474
_cell_volume 544.124244
_symmetry_space_group_name_H-M "P -1"
_symmetry_group_IT_number 2
_symmetry_cell_setting 'triclinic'
loop_
_space_group_symop_operation_xyz
x,y,z
-x,-y,-z
loop_
_atom_site_type_symbol
_atom_site_label
_atom_site_fract_x
_atom_site_fract_y
_atom_site_fract_z
Si Si1 0.613773 0.043063 0.913383
Si Si2 0.589623 0.502101 0.008934
Si Si3 0.638187 0.375121 0.772568
Si Si4 0.215427 0.172663 0.356268
Si Si5 0.801427 0.766083 0.382047
Si Si6 0.653827 0.901953 0.711367
O O1 0.540129 0.767761 0.893307
O O2 0.993707 0.076289 0.234180
O O3 0.466241 0.190389 0.701854
O O4 0.485639 0.159743 0.839830
O O5 0.955488 0.417909 0.340270
O O6 0.500000 0.500000 0.000000
O O7 0.355599 0.338130 0.795927
O O8 0.439997 0.380574 0.538079
O O9 0.658081 0.625430 0.772337
O O10 0.999948 0.284455 0.094401
O O11 0.439850 0.968610 0.567911
O O12 0.000000 0.000000 0.500000
O O13 0.500000 0.000000 0.500000
O O14 0.000000 0.000000 0.000000
#
# Coordination Sequence:
#
# PCOD8028167 Si02
#       6
#     2   2   2   2   2   2
#     4  10  28  42  71  98 142 176 228 276 341 398
#     4  12  27  44  72 100 139 180 233 282 337 398
#     4  10  25  44  68  97 138 175 222 268 347 390
#     4  10  25  44  68  97 138 175 222 268 347 390
#     4  12  27  44  72 100 139 180 233 282 337 398
#     4  12  26  44  71 100 132 174 226 276 331 406
#
# _framework density 22.053788999999998
#
# number of rings (size 3 to 8) (size 9 to 14) (size 15 to 20)
#    1.000    0.000    1.667    3.000    7.000    4.000 
#    0.000    0.000    0.000    0.000    0.000    0.000 
#    0.000    0.000    0.000    0.000    0.000    0.000 
#
# Total GULP energy -148681.348874 kJ/mol
# GULP energy per Si atom -12390.112406 kJ/mol
# Density = 2.200359 g / cm^3
# Si number density = 22.053789 Si / 1000 Ang^3
#
#
#
# Elastic Constant Matrix: (Units=GPa)
#
#
# Indices 1 2 3 4 5 6 
#
# 1 61.5341 38.4653 60.0958 3.6897 6.4165 -8.7647
# 2 38.4653 159.3020 71.0621 -0.1901 1.6880 -9.3466
# 3 60.0958 71.0621 158.6558 13.9064 1.8388 -15.1854
# 4 3.6897 -0.1901 13.9064 38.3892 -15.5656 -9.4237
# 5 6.4165 1.6880 1.8388 -15.5656 47.1574 -5.7669
# 6 -8.7647 -9.3466 -15.1854 -9.4237 -5.7669 35.0315
#
#
#
# Elastic Compliance Matrix: (Units=1/GPa)
#
#
# Indices 1 2 3 4 5 6 
#
# 1 0.027092 -0.002411 -0.008966 -0.000221 -0.003118 0.001676
# 2 -0.002411 0.008174 -0.002829 0.001911 0.000900 0.001014
# 3 -0.008966 -0.002829 0.011333 -0.002967 0.000037 0.001123
# 4 -0.000221 0.001911 -0.002967 0.035041 0.012955 0.010727
# 5 -0.003118 0.000900 0.000037 0.012955 0.026774 0.007369
# 6 0.001676 0.001014 0.001123 0.010727 0.007369 0.033821
#
#
# Mechanical properties :
#
#
# Convention : Reuss Voigt Hill
#
# Bulk Modulus (GPa) = 54.98364 79.85982 67.42173
# Shear Modulus (GPa) = 28.29531 38.10687 33.20109
#
# Velocity S-wave (km/s) = 3.58580 4.16132 3.88423
# Velocity P-wave (km/s) = 6.49074 7.70576 7.12420
#
# Compressibility (1/GPa) = 0.01818723
#
# Stress axis : x y z
#
# Youngs Moduli (GPa) = 36.91142 122.34596 88.23636
#
# Poissons Ratio (x) = 0.29496 0.79114
# Poissons Ratio (y) = 0.08899 0.24959
# Poissons Ratio (z) = 0.33095 0.34607
#
# Static dielectric constant tensor:
#      x y z
#    x 3.890190 -0.122570 0.094510 
#    y -0.122570 4.135080 -0.186960 
#    z 0.094510 -0.186960 4.213440 
# 
# 
# High freq. dielectric constant tensor:
#      x y z
#    x 1.855200 -0.007000 0.002580 
#    y -0.007000 1.879270 -0.005140 
#    z 0.002580 -0.005140 1.883960 
# 
# From -- ./inp_files/102698.got.cif
#   From: 2010.06.25/outbox.cif.g09.slc.cpg/sg2_52_cif.got.tgz:102698.got - 2010.06.27 13:26:56.
