data_PCOD8028300
_publ_section_title
;
Structure prediction by ZEFSAII (Michael W. Deem and Ramdas Pophale) SiO2 
 PCOD8028300
Probable space group: P -1
;
_chemical_formula_sum "Si O2"
_cell_formula_units_Z 14
_cell_length_a 11.074656
_cell_length_b 7.809783
_cell_length_c 16.029020
_cell_angle_alpha 44.706429
_cell_angle_beta 136.517743
_cell_angle_gamma 138.759766
_cell_volume 585.752266
_symmetry_space_group_name_H-M "P -1"
_symmetry_group_IT_number 2
_symmetry_cell_setting 'triclinic'
loop_
_space_group_symop_operation_xyz
x,y,z
-x,-y,-z
loop_
_atom_site_type_symbol
_atom_site_label
_atom_site_fract_x
_atom_site_fract_y
_atom_site_fract_z
Si Si1 0.449482 0.768440 0.183215
Si Si2 0.145280 0.741411 0.551624
Si Si3 0.430240 0.015049 0.258617
Si Si4 0.702182 0.603657 0.013184
Si Si5 0.057985 0.694137 0.273045
Si Si6 0.233462 0.832916 0.906098
Si Si7 0.165567 0.169423 0.297476
O O1 0.508053 0.949141 0.234606
O O2 0.371114 0.446323 0.280138
O O3 0.641546 0.868129 0.182536
O O4 0.288689 0.831042 0.031677
O O5 0.047332 0.622612 0.634263
O O6 0.000000 0.500000 0.500000
O O7 0.376344 0.800344 0.650128
O O8 0.165903 0.040804 0.433561
O O9 0.259346 0.731273 0.314880
O O10 0.296751 0.168178 0.127693
O O11 0.500000 0.500000 0.000000
O O12 0.898765 0.734164 0.123779
O O13 0.699885 0.363751 0.039521
O O14 0.123936 0.926220 0.296943
O O15 0.999737 0.730136 0.819466
#
# Coordination Sequence:
#
# PCOD8028300 Si02
#       7
#     2   2   2   2   2   2   2
#     4  11  24  41  66 100 135 177 217 280 346 394
#     4  10  25  45  69  98 136 185 232 279 327 399
#     4  12  24  44  71 101 137 177 235 275 335 403
#     4  12  22  43  74  99 135 172 225 283 337 398
#     4  11  24  43  71 103 132 180 229 281 334 401
#     4  11  24  42  68  99 138 175 217 282 343 402
#     4  11  25  43  66  99 141 177 225 273 342 401
#
# _framework density 23.90089
#
# number of rings (size 3 to 8) (size 9 to 14) (size 15 to 20)
#    0.000    0.857    2.857    3.429    2.000    6.286 
#    0.000    5.000    0.000    0.000    0.000    0.000 
#    0.000    0.000    0.000    0.000    0.000    0.000 
#
# Total GULP energy -173512.840426 kJ/mol
# GULP energy per Si atom -12393.774316 kJ/mol
# Density = 2.384649 g / cm^3
# Si number density = 23.900890 Si / 1000 Ang^3
#
#
#
# Elastic Constant Matrix: (Units=GPa)
#
#
# Indices 1 2 3 4 5 6 
#
# 1 64.8917 16.7896 15.4475 2.7699 -15.0008 12.6838
# 2 16.7896 117.7042 52.4681 -9.2582 -8.9189 21.5514
# 3 15.4475 52.4681 120.0673 -3.0010 -9.8327 13.6196
# 4 2.7699 -9.2582 -3.0010 47.8615 8.7264 -3.1237
# 5 -15.0008 -8.9189 -9.8327 8.7264 12.0566 -7.9036
# 6 12.6838 21.5514 13.6196 -3.1237 -7.9036 41.7472
#
#
#
# Elastic Compliance Matrix: (Units=1/GPa)
#
#
# Indices 1 2 3 4 5 6 
#
# 1 0.024199 -0.001427 0.000224 -0.008009 0.034542 -0.000748
# 2 -0.001427 0.011493 -0.004403 0.001936 -0.000953 -0.004098
# 3 0.000224 -0.004403 0.010755 -0.001428 0.006737 -0.000135
# 4 -0.008009 0.001936 -0.001428 0.027085 -0.030514 -0.001851
# 5 0.034542 -0.000953 0.006737 -0.030514 0.163604 0.016490
# 6 -0.000748 -0.004098 -0.000135 -0.001851 0.016490 0.029324
#
#
# Mechanical properties :
#
#
# Convention : Reuss Voigt Hill
#
# Bulk Modulus (GPa) = 28.38166 52.45260 40.41713
# Shear Modulus (GPa) = 17.27597 34.86360 26.06978
#
# Velocity S-wave (km/s) = 2.69144 3.82340 3.30623
# Velocity P-wave (km/s) = 4.64317 6.44086 5.61443
#
# Compressibility (1/GPa) = 0.03523402
#
# Stress axis : x y z
#
# Youngs Moduli (GPa) = 41.32333 87.01120 92.97593
#
# Poissons Ratio (x) = 0.12418 -0.02080
# Poissons Ratio (y) = 0.05897 0.40941
# Poissons Ratio (z) = -0.00924 0.38314
#
# Static dielectric constant tensor:
#      x y z
#    x 4.114110 0.477810 -0.427000 
#    y 0.477810 4.706210 -0.407270 
#    z -0.427000 -0.407270 5.068000 
# 
# 
# High freq. dielectric constant tensor:
#      x y z
#    x 1.925390 0.025520 -0.021320 
#    y 0.025520 1.958060 -0.004000 
#    z -0.021320 -0.004000 1.954580 
# 
# From -- ./inp_files/515096.got.cif
#   From: 2010.06.25/outbox.cif.g09.slc.cpg/sg2_258_cif.got.tgz:515096.got - 2010.06.27 13:26:56.
