data_PCOD8028681
_publ_section_title
;
Structure prediction by ZEFSAII (Michael W. Deem and Ramdas Pophale) SiO2 
 PCOD8028681
Probable space group: P -1
;
_chemical_formula_sum "Si O2"
_cell_formula_units_Z 16
_cell_length_a 9.090808
_cell_length_b 9.084140
_cell_length_c 12.191842
_cell_angle_alpha 78.129977
_cell_angle_beta 46.230440
_cell_angle_gamma 75.230467
_cell_volume 702.415490
_symmetry_space_group_name_H-M "P -1"
_symmetry_group_IT_number 2
_symmetry_cell_setting 'triclinic'
loop_
_space_group_symop_operation_xyz
x,y,z
-x,-y,-z
loop_
_atom_site_type_symbol
_atom_site_label
_atom_site_fract_x
_atom_site_fract_y
_atom_site_fract_z
Si Si1 0.290159 0.440717 0.645231
Si Si2 0.118753 0.078805 0.016435
Si Si3 0.234152 0.671950 0.807506
Si Si4 0.228980 0.830516 0.169526
Si Si5 0.449392 0.852061 0.490856
Si Si6 0.462128 0.291475 0.156716
Si Si7 0.935122 0.467528 0.660675
Si Si8 0.592643 0.035771 0.731312
O O1 0.500000 0.500000 0.500000
O O2 0.230079 0.500363 0.790971
O O3 0.336855 0.257923 0.637084
O O4 0.108479 0.511535 0.645833
O O5 0.001011 0.251235 0.061925
O O6 0.112560 0.979670 0.145326
O O7 0.347907 0.085033 0.858849
O O8 0.000000 0.000000 0.000000
O O9 0.313972 0.769099 0.654196
O O10 0.374681 0.669610 0.843034
O O11 0.076124 0.710712 0.290779
O O12 0.301798 0.887751 0.237801
O O13 0.423357 0.748577 0.011243
O O14 0.326942 0.901804 0.433550
O O15 0.500000 0.000000 0.500000
O O16 0.285571 0.435601 0.209947
O O17 0.354687 0.147944 0.269969
O O18 0.000000 0.500000 0.500000
#
# Coordination Sequence:
#
# PCOD8028681 Si02
#       8
#     2   2   2   2   2   2   2   2
#     4  10  26  44  67 101 137 179 232 285 350 413
#     4  11  21  44  71 104 137 185 237 287 340 407
#     4  11  23  41  72  99 143 179 236 290 343 413
#     4  11  27  45  70 103 144 185 241 279 352 422
#     4  11  22  43  71 100 134 178 234 295 347 405
#     4  11  23  48  67 102 145 190 222 287 356 412
#     4  12  28  45  71  99 145 186 229 290 355 418
#     4  11  25  42  73 100 145 181 236 291 345 417
#
# _framework density 22.77854
#
# number of rings (size 3 to 8) (size 9 to 14) (size 15 to 20)
#    0.000    1.000    3.750    3.375   12.250    0.000 
#    0.000    2.500    0.000    0.000    0.000    0.000 
#    0.000    0.000    0.000    0.000    0.000    0.000 
#
# Total GULP energy -198381.385393 kJ/mol
# GULP energy per Si atom -12398.836587 kJ/mol
# Density = 2.272670 g / cm^3
# Si number density = 22.778540 Si / 1000 Ang^3
#
#
#
# Elastic Constant Matrix: (Units=GPa)
#
#
# Indices 1 2 3 4 5 6 
#
# 1 155.6220 37.9992 17.1396 9.4372 17.0163 8.8826
# 2 37.9992 115.1274 8.8568 29.0627 -0.1719 5.4428
# 3 17.1396 8.8568 27.7433 -1.5133 16.3293 1.0508
# 4 9.4372 29.0627 -1.5133 42.6072 0.7671 7.6615
# 5 17.0163 -0.1719 16.3293 0.7671 45.0599 7.9207
# 6 8.8826 5.4428 1.0508 7.6615 7.9207 31.5948
#
#
#
# Elastic Compliance Matrix: (Units=1/GPa)
#
#
# Indices 1 2 3 4 5 6 
#
# 1 0.007533 -0.002192 -0.002998 -0.000028 -0.001547 -0.001246
# 2 -0.002192 0.011684 -0.004306 -0.007677 0.002570 -0.000036
# 3 -0.002998 -0.004306 0.049762 0.005130 -0.017547 0.003085
# 4 -0.000028 -0.007677 0.005130 0.029956 -0.001375 -0.005759
# 5 -0.001547 0.002570 -0.017547 -0.001375 0.030347 -0.006698
# 6 -0.001246 -0.000036 0.003085 -0.005759 -0.006698 0.034981
#
#
# Mechanical properties :
#
#
# Convention : Reuss Voigt Hill
#
# Bulk Modulus (GPa) = 20.00457 47.38712 33.69584
# Shear Modulus (GPa) = 25.01035 39.48551 32.24793
#
# Velocity S-wave (km/s) = 3.31717 4.16799 3.76668
# Velocity P-wave (km/s) = 4.84487 6.63411 5.80879
#
# Compressibility (1/GPa) = 0.04998859
#
# Stress axis : x y z
#
# Youngs Moduli (GPa) = 132.74443 85.58416 20.09552
#
# Poissons Ratio (x) = 0.18762 0.06024
# Poissons Ratio (y) = 0.29101 0.08653
# Poissons Ratio (z) = 0.39793 0.36851
#
# Static dielectric constant tensor:
#      x y z
#    x 4.024560 0.364590 0.169570 
#    y 0.364590 5.276380 0.040240 
#    z 0.169570 0.040240 4.268190 
# 
# 
# High freq. dielectric constant tensor:
#      x y z
#    x 1.902510 0.001240 0.013190 
#    y 0.001240 1.912850 0.010710 
#    z 0.013190 0.010710 1.894500 
# 
# From -- ./inp_files/357069.got.cif
#   From: 2010.06.25/outbox.cif.g09.slc.cpg/sg2_179_cif.got.tgz:357069.got - 2010.06.27 13:26:56.
