data_PCOD8028317
_publ_section_title
;
Structure prediction by ZEFSAII (Michael W. Deem and Ramdas Pophale) SiO2 
 PCOD8028317
Probable space group: P -1
;
_chemical_formula_sum "Si O2"
_cell_formula_units_Z 14
_cell_length_a 4.992447
_cell_length_b 17.777158
_cell_length_c 9.557377
_cell_angle_alpha 104.245512
_cell_angle_beta 62.803786
_cell_angle_gamma 128.705861
_cell_volume 587.787993
_symmetry_space_group_name_H-M "P -1"
_symmetry_group_IT_number 2
_symmetry_cell_setting 'triclinic'
loop_
_space_group_symop_operation_xyz
x,y,z
-x,-y,-z
loop_
_atom_site_type_symbol
_atom_site_label
_atom_site_fract_x
_atom_site_fract_y
_atom_site_fract_z
Si Si1 0.535545 0.018220 0.335786
Si Si2 0.668519 0.307591 0.908891
Si Si3 0.640564 0.870005 0.750115
Si Si4 0.593679 0.898326 0.066598
Si Si5 0.788699 0.327824 0.396007
Si Si6 0.787334 0.608680 0.941089
Si Si7 0.732928 0.608678 0.435501
O O1 0.307805 0.056920 0.348333
O O2 0.979987 0.099737 0.249269
O O3 0.500000 0.000000 0.500000
O O4 0.377352 0.921340 0.238483
O O5 0.437246 0.191616 0.896238
O O6 0.377594 0.331637 0.962710
O O7 0.824994 0.339505 0.043290
O O8 0.030815 0.371763 0.751581
O O9 0.469324 0.771271 0.669303
O O10 0.405586 0.866737 0.939835
O O11 0.000000 0.000000 0.000000
O O12 0.559754 0.368224 0.515498
O O13 0.964542 0.317209 0.487770
O O14 0.131284 0.398929 0.243387
O O15 0.500000 0.500000 0.000000
O O16 0.500000 0.500000 0.500000
#
# Coordination Sequence:
#
# PCOD8028317 Si02
#       7
#     2   2   2   2   2   2   2
#     4  11  25  44  70 101 136 180 233 289 350 417
#     4  12  26  45  72 107 143 188 241 290 365 425
#     4  11  24  44  67  99 137 183 232 289 352 412
#     4  10  25  45  71 100 145 187 238 291 351 423
#     4  12  25  43  74  98 144 182 237 289 361 425
#     4  12  25  46  74 105 139 185 244 299 350 431
#     4  12  26  47  70 105 146 187 232 300 369 424
#
# _framework density 23.818107999999999
#
# number of rings (size 3 to 8) (size 9 to 14) (size 15 to 20)
#    0.000    0.571    1.429    6.000    8.000    2.286 
#    0.000    0.000    0.000    0.000    0.000    0.000 
#    0.000    0.000    0.000    0.000    0.000    0.000 
#
# Total GULP energy -173533.651922 kJ/mol
# GULP energy per Si atom -12395.260852 kJ/mol
# Density = 2.376390 g / cm^3
# Si number density = 23.818108 Si / 1000 Ang^3
#
#
#
# Elastic Constant Matrix: (Units=GPa)
#
#
# Indices 1 2 3 4 5 6 
#
# 1 68.3087 21.1651 5.9327 -2.1853 -4.4383 -9.4500
# 2 21.1651 103.2385 -7.7848 -2.5532 7.4052 -6.5337
# 3 5.9327 -7.7848 110.6489 -5.1343 5.5014 -9.0080
# 4 -2.1853 -2.5532 -5.1343 37.6715 2.7720 6.8894
# 5 -4.4383 7.4052 5.5014 2.7720 29.7717 -2.5654
# 6 -9.4500 -6.5337 -9.0080 6.8894 -2.5654 33.3327
#
#
#
# Elastic Compliance Matrix: (Units=1/GPa)
#
#
# Indices 1 2 3 4 5 6 
#
# 1 0.016634 -0.003519 -0.001019 -0.000462 0.003944 0.004150
# 2 -0.003519 0.010832 0.001241 0.000761 -0.003429 0.001040
# 3 -0.001019 0.001241 0.009510 0.001088 -0.002135 0.002135
# 4 -0.000462 0.000761 0.001088 0.028033 -0.003565 -0.005756
# 5 0.003944 -0.003429 -0.002135 -0.003565 0.036048 0.003380
# 6 0.004150 0.001040 0.002135 -0.005756 0.003380 0.033408
#
#
# Mechanical properties :
#
#
# Convention : Reuss Voigt Hill
#
# Bulk Modulus (GPa) = 32.91351 35.64689 34.28020
# Shear Modulus (GPa) = 33.07208 37.68071 35.37640
#
# Velocity S-wave (km/s) = 3.73034 3.98178 3.85811
# Velocity P-wave (km/s) = 5.69233 6.01150 5.85409
#
# Compressibility (1/GPa) = 0.03038266
#
# Stress axis : x y z
#
# Youngs Moduli (GPa) = 60.11891 92.32002 105.15203
#
# Poissons Ratio (x) = 0.32484 0.10716
# Poissons Ratio (y) = 0.21154 -0.13052
# Poissons Ratio (z) = 0.06127 -0.11459
#
# Static dielectric constant tensor:
#      x y z
#    x 4.345250 0.036100 0.170680 
#    y 0.036100 4.312370 -0.207010 
#    z 0.170680 -0.207010 3.956430 
# 
# 
# High freq. dielectric constant tensor:
#      x y z
#    x 1.936820 -0.000640 0.010280 
#    y -0.000640 1.951510 0.005650 
#    z 0.010280 0.005650 1.964290 
# 
# From -- ./inp_files/139214.got.cif
#   From: 2010.06.25/outbox.cif.g09.slc.cpg/sg2_70_cif.got.tgz:139214.got - 2010.06.27 13:26:56.
