data_PCOD8028914
_publ_section_title
;
Structure prediction by ZEFSAII (Michael W. Deem and Ramdas Pophale) SiO2 
 PCOD8028914
Probable space group: P -1
;
_chemical_formula_sum "Si O2"
_cell_formula_units_Z 16
_cell_length_a 17.353144
_cell_length_b 22.873056
_cell_length_c 9.363533
_cell_angle_alpha 149.905448
_cell_angle_beta 144.709878
_cell_angle_gamma 22.870368
_cell_volume 720.810375
_symmetry_space_group_name_H-M "P -1"
_symmetry_group_IT_number 2
_symmetry_cell_setting 'triclinic'
loop_
_space_group_symop_operation_xyz
x,y,z
-x,-y,-z
loop_
_atom_site_type_symbol
_atom_site_label
_atom_site_fract_x
_atom_site_fract_y
_atom_site_fract_z
Si Si1 0.471183 0.707357 0.164972
Si Si2 0.359136 0.420339 0.135520
Si Si3 0.180827 0.349110 0.352997
Si Si4 0.918494 0.295349 0.200873
Si Si5 0.524992 0.559324 0.341983
Si Si6 0.928260 0.584647 0.221974
Si Si7 0.013460 0.746098 0.108358
Si Si8 0.827473 0.104663 0.658186
O O1 0.616544 0.720782 0.445579
O O2 0.262156 0.874531 0.278655
O O3 0.459267 0.709261 0.977780
O O4 0.533837 0.539203 0.966959
O O5 0.439255 0.434272 0.424593
O O6 0.181646 0.607959 0.188002
O O7 0.275006 0.347248 0.895390
O O8 0.000000 0.500000 0.500000
O O9 0.124438 0.424389 0.269289
O O10 0.185657 0.203571 0.060228
O O11 0.717884 0.459413 0.328434
O O12 0.095460 0.259301 0.463187
O O13 0.968739 0.126049 0.939266
O O14 0.897039 0.340480 0.095702
O O15 0.344830 0.752228 0.414262
O O16 0.000000 0.500000 0.000000
O O17 0.959953 0.916271 0.396283
#
# Coordination Sequence:
#
# PCOD8028914 Si02
#       8
#     2   2   2   2   2   2   2   2
#     4  11  21  39  60  88 118 160 206 237 294 363
#     4  11  21  37  63  89 115 158 206 244 287 353
#     4  11  19  36  64  85 108 158 207 246 279 356
#     4  11  20  39  62  87 117 164 206 237 282 365
#     4  11  22  36  62  89 121 159 196 248 295 349
#     4  11  19  32  61  90 109 142 211 253 271 335
#     4  11  22  39  62  91 117 159 204 244 291 352
#     4  11  24  37  60  90 127 157 191 250 303 345
#
# _framework density 22.197237000000001
#
# number of rings (size 3 to 8) (size 9 to 14) (size 15 to 20)
#    0.000    1.000    5.000    5.250    0.000    0.500 
#    0.000    3.750    0.000    1.500    0.000    0.000 
#    0.000    0.000    0.000    0.000    0.000    0.000 
#
# Total GULP energy -198269.934336 kJ/mol
# GULP energy per Si atom -12391.870896 kJ/mol
# Density = 2.214672 g / cm^3
# Si number density = 22.197237 Si / 1000 Ang^3
#
#
#
# Elastic Constant Matrix: (Units=GPa)
#
#
# Indices 1 2 3 4 5 6 
#
# 1 128.6298 14.3720 41.3386 -4.6694 -11.9243 -0.0412
# 2 14.3720 27.0676 30.9958 -1.6631 -8.3975 6.0255
# 3 41.3386 30.9958 125.3010 -5.7614 0.2863 10.2921
# 4 -4.6694 -1.6631 -5.7614 19.6772 5.0059 0.6146
# 5 -11.9243 -8.3975 0.2863 5.0059 60.4672 -9.0752
# 6 -0.0412 6.0255 10.2921 0.6146 -9.0752 19.5896
#
#
#
# Elastic Compliance Matrix: (Units=1/GPa)
#
#
# Indices 1 2 3 4 5 6 
#
# 1 0.009059 -0.001588 -0.002808 0.000605 0.001960 0.002872
# 2 -0.001588 0.056046 -0.012775 -0.000792 0.006469 -0.007509
# 3 -0.002808 -0.012775 0.012560 0.002897 -0.003270 -0.004281
# 4 0.000605 -0.000792 0.002897 0.053240 -0.005217 -0.005364
# 5 0.001960 0.006469 -0.003270 -0.005217 0.019619 0.008984
# 6 0.002872 -0.007509 -0.004281 -0.005364 0.008984 0.059943
#
#
# Mechanical properties :
#
#
# Convention : Reuss Voigt Hill
#
# Bulk Modulus (GPa) = 23.08262 50.49013 36.78637
# Shear Modulus (GPa) = 19.28646 32.89962 26.09304
#
# Velocity S-wave (km/s) = 2.95085 3.85405 3.43229
# Velocity P-wave (km/s) = 4.69377 6.52690 5.68471
#
# Compressibility (1/GPa) = 0.04332265
#
# Stress axis : x y z
#
# Youngs Moduli (GPa) = 110.38969 17.84234 79.61974
#
# Poissons Ratio (x) = 0.02833 0.22360
# Poissons Ratio (y) = 0.17531 1.01712
# Poissons Ratio (z) = 0.31002 0.22793
#
# Static dielectric constant tensor:
#      x y z
#    x 5.061750 -0.015510 0.236020 
#    y -0.015510 3.154140 -0.104580 
#    z 0.236020 -0.104580 4.286270 
# 
# 
# High freq. dielectric constant tensor:
#      x y z
#    x 1.913360 -0.002500 0.007820 
#    y -0.002500 1.796810 -0.021090 
#    z 0.007820 -0.021090 1.894290 
# 
# From -- ./inp_files/338572.got.cif
#   From: 2010.06.25/outbox.cif.g09.slc.cpg/sg2_170_cif.got.tgz:338572.got - 2010.06.27 13:26:56.
