data_PCOD8028968
_publ_section_title
;
Structure prediction by ZEFSAII (Michael W. Deem and Ramdas Pophale) SiO2 
 PCOD8028968
Probable space group: P -1
;
_chemical_formula_sum "Si O2"
_cell_formula_units_Z 16
_cell_length_a 8.953380
_cell_length_b 11.421257
_cell_length_c 11.016627
_cell_angle_alpha 60.658016
_cell_angle_beta 53.829168
_cell_angle_gamma 70.795735
_cell_volume 791.484599
_symmetry_space_group_name_H-M "P -1"
_symmetry_group_IT_number 2
_symmetry_cell_setting 'triclinic'
loop_
_space_group_symop_operation_xyz
x,y,z
-x,-y,-z
loop_
_atom_site_type_symbol
_atom_site_label
_atom_site_fract_x
_atom_site_fract_y
_atom_site_fract_z
Si Si1 0.274913 0.287347 0.501505
Si Si2 0.289257 0.685617 0.238235
Si Si3 0.658858 0.375371 0.287232
Si Si4 0.999713 0.187983 0.294597
Si Si5 0.274664 0.501423 0.566976
Si Si6 0.003060 0.119456 0.607069
Si Si7 0.134116 0.471581 0.275840
Si Si8 0.315214 0.371058 0.013162
O O1 0.486799 0.300346 0.348742
O O2 0.273846 0.341020 0.614850
O O3 0.187230 0.144030 0.589947
O O4 0.130664 0.385363 0.444902
O O5 0.330279 0.577770 0.379663
O O6 0.165729 0.624861 0.221274
O O7 0.186226 0.822108 0.267231
O O8 0.490176 0.707191 0.072472
O O9 0.806038 0.256463 0.309851
O O10 0.597775 0.455616 0.402272
O O11 0.730520 0.488949 0.107122
O O12 0.021744 0.187619 0.430660
O O13 0.161359 0.265252 0.112944
O O14 0.012419 0.037985 0.314096
O O15 0.062653 0.542235 0.690490
O O16 0.301282 0.413264 0.139902
#
# Coordination Sequence:
#
# PCOD8028968 Si02
#       8
#     2   2   2   2   2   2   2   2
#     4  11  20  35  65  90 117 151 200 256 290 347
#     4  11  20  35  65  90 117 151 200 256 290 347
#     4  12  23  36  61  94 126 150 189 255 307 351
#     4  11  25  41  61  84 124 163 206 233 293 360
#     4  11  19  36  59  93 116 152 200 243 306 341
#     4  11  22  44  64  83 115 168 208 243 272 362
#     4  11  19  36  59  93 116 152 200 243 306 341
#     4  12  23  36  61  94 126 150 189 255 307 351
#
# _framework density 20.215174000000001
#
# number of rings (size 3 to 8) (size 9 to 14) (size 15 to 20)
#    0.000    0.750    8.750    1.875    0.000    1.000 
#    0.000    0.000    0.000    3.000    0.000    0.000 
#    0.000    0.000    0.000    0.000    0.000    0.000 
#
# Total GULP energy -198300.721014 kJ/mol
# GULP energy per Si atom -12393.795063 kJ/mol
# Density = 2.016916 g / cm^3
# Si number density = 20.215174 Si / 1000 Ang^3
#
#
#
# Elastic Constant Matrix: (Units=GPa)
#
#
# Indices 1 2 3 4 5 6 
#
# 1 105.7021 42.3236 21.5722 -3.3644 -19.1406 12.3674
# 2 42.3236 121.0637 37.1918 7.9710 -12.1095 11.1169
# 3 21.5722 37.1918 81.6480 11.1623 -19.4368 -0.4878
# 4 -3.3644 7.9710 11.1623 27.5348 0.1883 2.6982
# 5 -19.1406 -12.1095 -19.4368 0.1883 27.6084 0.0396
# 6 12.3674 11.1169 -0.4878 2.6982 0.0396 28.4740
#
#
#
# Elastic Compliance Matrix: (Units=1/GPa)
#
#
# Indices 1 2 3 4 5 6 
#
# 1 0.012847 -0.003383 -0.000670 0.003223 0.006936 -0.004586
# 2 -0.003383 0.010995 -0.003968 -0.001719 -0.000300 -0.002728
# 3 -0.000670 -0.003968 0.017546 -0.006384 0.010188 0.002731
# 4 0.003223 -0.001719 -0.006384 0.040275 -0.003282 -0.004650
# 5 0.006936 -0.000300 0.010188 -0.003282 0.048096 -0.002477
# 6 -0.004586 -0.002728 0.002731 -0.004650 -0.002477 0.038668
#
#
# Mechanical properties :
#
#
# Convention : Reuss Voigt Hill
#
# Bulk Modulus (GPa) = 39.45187 56.73212 48.09199
# Shear Modulus (GPa) = 25.91793 30.54519 28.23156
#
# Velocity S-wave (km/s) = 3.58453 3.89138 3.74110
# Velocity P-wave (km/s) = 6.05724 6.95093 6.51942
#
# Compressibility (1/GPa) = 0.02534734
#
# Stress axis : x y z
#
# Youngs Moduli (GPa) = 77.84054 90.94879 56.99194
#
# Poissons Ratio (x) = 0.30765 0.03820
# Poissons Ratio (y) = 0.26331 0.22612
# Poissons Ratio (z) = 0.05218 0.36084
#
# Static dielectric constant tensor:
#      x y z
#    x 3.835180 0.234090 -0.203890 
#    y 0.234090 3.648810 0.204110 
#    z -0.203890 0.204110 3.529610 
# 
# 
# High freq. dielectric constant tensor:
#      x y z
#    x 1.801470 0.014800 -0.025690 
#    y 0.014800 1.779200 0.027840 
#    z -0.025690 0.027840 1.770460 
# 
# From -- ./inp_files/243430.got.cif
#   From: 2010.06.25/outbox.cif.g09.slc.cpg/sg2_122_cif.got.tgz:243430.got - 2010.06.27 13:26:56.
