data_PCOD8028758
_publ_section_title
;
Structure prediction by ZEFSAII (Michael W. Deem and Ramdas Pophale) SiO2 
 PCOD8028758
Probable space group: P -1
;
_chemical_formula_sum "Si O2"
_cell_formula_units_Z 16
_cell_length_a 18.253178
_cell_length_b 21.729462
_cell_length_c 10.844617
_cell_angle_alpha 28.049954
_cell_angle_beta 144.207947
_cell_angle_gamma 160.607268
_cell_volume 665.314694
_symmetry_space_group_name_H-M "P -1"
_symmetry_group_IT_number 2
_symmetry_cell_setting 'triclinic'
loop_
_space_group_symop_operation_xyz
x,y,z
-x,-y,-z
loop_
_atom_site_type_symbol
_atom_site_label
_atom_site_fract_x
_atom_site_fract_y
_atom_site_fract_z
Si Si1 0.497140 0.294807 0.818908
Si Si2 0.124484 0.296638 0.227093
Si Si3 0.846854 0.119267 0.726101
Si Si4 0.448651 0.104518 0.493648
Si Si5 0.151927 0.606563 0.635406
Si Si6 0.713835 0.772055 0.591871
Si Si7 0.331941 0.547349 0.614150
Si Si8 0.746364 0.317805 0.950037
O O1 0.670957 0.545501 0.676933
O O2 0.359908 0.241601 0.617958
O O3 0.645999 0.303465 0.957825
O O4 0.316737 0.091139 0.030828
O O5 0.191455 0.291534 0.193657
O O6 0.069620 0.401992 0.949361
O O7 0.904914 0.033521 0.444324
O O8 0.869201 0.294226 0.472145
O O9 0.096064 0.273021 0.804614
O O10 0.771464 0.031817 0.635622
O O11 0.596186 0.188271 0.429614
O O12 0.570261 0.318908 0.360014
O O13 0.391559 0.935648 0.805326
O O14 0.000000 0.500000 0.500000
O O15 0.505328 0.590164 0.721562
O O16 0.290608 0.629176 0.316646
O O17 0.000000 0.500000 0.000000
#
# Coordination Sequence:
#
# PCOD8028758 Si02
#       8
#     2   2   2   2   2   2   2   2
#     4  11  23  42  73  95 131 176 220 272 331 390
#     4  11  24  44  71  94 129 174 228 273 322 390
#     4  12  23  41  66 106 134 166 217 272 336 402
#     4  12  23  38  61  96 138 177 211 263 340 396
#     4  12  23  39  69 102 132 171 216 273 337 394
#     4  10  26  47  66  96 128 177 232 270 318 385
#     4  11  26  40  63  94 136 177 219 267 329 395
#     4  11  23  38  60  98 140 170 212 274 332 399
#
# _framework density 24.048769
#
# number of rings (size 3 to 8) (size 9 to 14) (size 15 to 20)
#    0.000    0.750    5.000    2.625    3.500    0.000 
#    0.000    1.250    0.000    0.000    0.000    0.000 
#    0.000    0.000    0.000    0.000    0.000    0.000 
#
# Total GULP energy -198416.746681 kJ/mol
# GULP energy per Si atom -12401.046668 kJ/mol
# Density = 2.399403 g / cm^3
# Si number density = 24.048769 Si / 1000 Ang^3
#
#
#
# Elastic Constant Matrix: (Units=GPa)
#
#
# Indices 1 2 3 4 5 6 
#
# 1 100.1552 52.1443 10.4272 -14.9788 -11.4480 13.8609
# 2 52.1443 142.1722 17.6832 -37.0950 1.5798 -7.5386
# 3 10.4272 17.6832 46.3192 -20.7538 -7.1109 -3.9842
# 4 -14.9788 -37.0950 -20.7538 26.2637 0.9079 -0.6431
# 5 -11.4480 1.5798 -7.1109 0.9079 26.3183 0.7522
# 6 13.8609 -7.5386 -3.9842 -0.6431 0.7522 46.1039
#
#
#
# Elastic Compliance Matrix: (Units=1/GPa)
#
#
# Indices 1 2 3 4 5 6 
#
# 1 0.014479 -0.005859 -0.001020 -0.001186 0.006573 -0.005523
# 2 -0.005859 0.014424 0.005469 0.021571 -0.002822 0.004940
# 3 -0.001020 0.005469 0.037956 0.036976 0.008069 0.004865
# 4 -0.001186 0.021571 0.036976 0.097131 0.004590 0.008359
# 5 0.006573 -0.002822 0.008069 0.004590 0.043115 -0.002380
# 6 -0.005523 0.004940 0.004865 0.008359 -0.002380 0.024734
#
#
# Mechanical properties :
#
#
# Convention : Reuss Voigt Hill
#
# Bulk Modulus (GPa) = 15.61539 49.90622 32.76080
# Shear Modulus (GPa) = 19.53079 33.62998 26.58039
#
# Velocity S-wave (km/s) = 2.85289 3.74359 3.32817
# Velocity P-wave (km/s) = 4.16644 6.28355 5.33115
#
# Compressibility (1/GPa) = 0.06403940
#
# Stress axis : x y z
#
# Youngs Moduli (GPa) = 69.06323 69.32892 26.34644
#
# Poissons Ratio (x) = 0.40621 0.02688
# Poissons Ratio (y) = 0.40465 -0.14410
# Poissons Ratio (z) = 0.07045 -0.37918
#
# Static dielectric constant tensor:
#      x y z
#    x 4.224190 -0.121350 0.004870 
#    y -0.121350 4.281830 -0.205500 
#    z 0.004870 -0.205500 4.096980 
# 
# 
# High freq. dielectric constant tensor:
#      x y z
#    x 1.949790 0.001030 -0.005900 
#    y 0.001030 1.978310 -0.005880 
#    z -0.005900 -0.005880 1.935200 
# 
# From -- ./inp_files/272476.got.cif
#   From: 2010.06.25/outbox.cif.g09.slc.cpg/sg2_137_cif.got.tgz:272476.got - 2010.06.27 13:26:56.
