data_PCOD8028410
_publ_section_title
;
Structure prediction by ZEFSAII (Michael W. Deem and Ramdas Pophale) SiO2 
 PCOD8028410
Probable space group: P -1
;
_chemical_formula_sum "Si O2"
_cell_formula_units_Z 14
_cell_length_a 7.680718
_cell_length_b 17.610435
_cell_length_c 17.010739
_cell_angle_alpha 23.181445
_cell_angle_beta 137.840891
_cell_angle_gamma 135.995241
_cell_volume 601.649293
_symmetry_space_group_name_H-M "P -1"
_symmetry_group_IT_number 2
_symmetry_cell_setting 'triclinic'
loop_
_space_group_symop_operation_xyz
x,y,z
-x,-y,-z
loop_
_atom_site_type_symbol
_atom_site_label
_atom_site_fract_x
_atom_site_fract_y
_atom_site_fract_z
Si Si1 0.482865 0.578447 0.831974
Si Si2 0.170000 0.912903 0.961726
Si Si3 0.583925 0.808829 0.903847
Si Si4 0.440290 0.568815 0.328113
Si Si5 0.982274 0.764427 0.508396
Si Si6 0.281870 0.106397 0.967290
Si Si7 0.214215 0.023534 0.482507
O O1 0.201174 0.646644 0.656521
O O2 0.719994 0.753819 0.733789
O O3 0.500000 0.500000 0.000000
O O4 0.538149 0.413869 0.944192
O O5 0.892543 0.815221 0.994818
O O6 0.360485 0.978957 0.039133
O O7 0.274626 0.749770 0.100007
O O8 0.131067 0.106237 0.717964
O O9 0.479851 0.953268 0.669445
O O10 0.522358 0.879515 0.905087
O O11 0.500000 0.500000 0.500000
O O12 0.701914 0.665151 0.275452
O O13 0.264687 0.389278 0.396352
O O14 0.110591 0.894144 0.497943
O O15 0.000000 0.000000 0.000000
O O16 0.000000 0.000000 0.500000
#
# Coordination Sequence:
#
# PCOD8028410 Si02
#       7
#     2   2   2   2   2   2   2
#     4  12  24  47  74 101 138 190 242 282 340 423
#     4  11  23  47  71 103 140 184 237 289 341 419
#     4  11  24  46  70 102 146 184 232 287 353 414
#     4  12  26  44  75 107 134 185 242 287 340 420
#     4  12  25  44  74 104 137 186 242 282 347 414
#     4  10  25  46  69 101 146 182 221 290 360 409
#     4  12  29  43  69 107 146 185 227 294 359 407
#
# _framework density 23.269369000000001
#
# number of rings (size 3 to 8) (size 9 to 14) (size 15 to 20)
#    0.000    0.571    5.714    1.714    4.000    0.571 
#    0.000    2.143    0.000    0.000    0.000    0.000 
#    0.000    0.000    0.000    0.000    0.000    0.000 
#
# Total GULP energy -173511.053839 kJ/mol
# GULP energy per Si atom -12393.646703 kJ/mol
# Density = 2.321641 g / cm^3
# Si number density = 23.269369 Si / 1000 Ang^3
#
#
#
# Elastic Constant Matrix: (Units=GPa)
#
#
# Indices 1 2 3 4 5 6 
#
# 1 72.1295 38.4668 41.6267 -8.7717 -25.9853 -6.5808
# 2 38.4668 173.3708 63.0476 -22.4962 -23.5925 -19.3973
# 3 41.6267 63.0476 139.8762 -11.4864 -20.8095 1.3872
# 4 -8.7717 -22.4962 -11.4864 43.7844 12.5172 -5.5476
# 5 -25.9853 -23.5925 -20.8095 12.5172 48.1829 -11.7956
# 6 -6.5808 -19.3973 1.3872 -5.5476 -11.7956 46.8738
#
#
#
# Elastic Compliance Matrix: (Units=1/GPa)
#
#
# Indices 1 2 3 4 5 6 
#
# 1 0.021123 -0.001116 -0.004295 0.000279 0.010198 0.005230
# 2 -0.001116 0.008267 -0.002811 0.003127 0.002483 0.004343
# 3 -0.004295 -0.002811 0.009714 -0.000018 0.000004 -0.002055
# 4 0.000279 0.003127 -0.000018 0.026150 -0.004300 0.003347
# 5 0.010198 0.002483 0.000004 -0.004300 0.030975 0.009745
# 6 0.005230 0.004343 -0.002055 0.003347 0.009745 0.026774
#
#
# Mechanical properties :
#
#
# Convention : Reuss Voigt Hill
#
# Bulk Modulus (GPa) = 44.12960 74.62873 59.37917
# Shear Modulus (GPa) = 34.01338 43.91727 38.96532
#
# Velocity S-wave (km/s) = 3.82740 4.34907 4.09655
# Velocity P-wave (km/s) = 6.20788 7.57367 6.92453
#
# Compressibility (1/GPa) = 0.02266053
#
# Stress axis : x y z
#
# Youngs Moduli (GPa) = 47.34234 120.95699 102.94386
#
# Poissons Ratio (x) = 0.13493 0.44214
# Poissons Ratio (y) = 0.05281 0.28941
# Poissons Ratio (z) = 0.20333 0.34005
#
# Static dielectric constant tensor:
#      x y z
#    x 3.862980 0.216340 -0.364530 
#    y 0.216340 4.676230 -0.169730 
#    z -0.364530 -0.169730 4.342080 
# 
# 
# High freq. dielectric constant tensor:
#      x y z
#    x 1.910180 0.007140 -0.021350 
#    y 0.007140 1.947850 -0.015160 
#    z -0.021350 -0.015160 1.918090 
# 
# From -- ./inp_files/24133.got.cif
#   From: 2010.06.25/outbox.cif.g09.slc.cpg/sg2_13_cif.got.tgz:24133.got - 2010.06.27 13:26:56.
