data_PCOD8028550
_publ_section_title
;
Structure prediction by ZEFSAII (Michael W. Deem and Ramdas Pophale) SiO2 
 PCOD8028550
Probable space group: P -1
;
_chemical_formula_sum "Si O2"
_cell_formula_units_Z 16
_cell_length_a 15.405196
_cell_length_b 14.944188
_cell_length_c 9.342279
_cell_angle_alpha 115.172474
_cell_angle_beta 67.901272
_cell_angle_gamma 161.414415
_cell_volume 617.677130
_symmetry_space_group_name_H-M "P -1"
_symmetry_group_IT_number 2
_symmetry_cell_setting 'triclinic'
loop_
_space_group_symop_operation_xyz
x,y,z
-x,-y,-z
loop_
_atom_site_type_symbol
_atom_site_label
_atom_site_fract_x
_atom_site_fract_y
_atom_site_fract_z
Si Si1 0.603964 0.319961 0.366325
Si Si2 0.746863 0.515473 0.100892
Si Si3 0.023283 0.407784 0.183975
Si Si4 0.268709 0.299054 0.115748
Si Si5 0.984118 0.964677 0.318713
Si Si6 0.492225 0.990068 0.668203
Si Si7 0.421802 0.660479 0.213496
Si Si8 0.852516 0.049382 0.424862
O O1 0.623755 0.342661 0.199066
O O2 0.841099 0.612722 0.503085
O O3 0.608365 0.212159 0.342921
O O4 0.320143 0.093060 0.423704
O O5 0.844167 0.721876 0.215535
O O6 0.985392 0.677407 0.003523
O O7 0.523389 0.304236 0.966814
O O8 0.207855 0.689305 0.230899
O O9 0.210819 0.542673 0.285789
O O10 0.712513 0.967133 0.320225
O O11 0.265515 0.413945 0.217648
O O12 0.500000 0.500000 0.000000
O O13 0.269524 0.249403 0.242163
O O14 0.000000 0.000000 0.000000
O O15 0.822367 0.900789 0.313064
O O16 0.000000 0.000000 0.500000
O O17 0.282320 0.868750 0.766674
O O18 0.500000 0.000000 0.500000
#
# Coordination Sequence:
#
# PCOD8028550 Si02
#       8
#     2   2   2   2   2   2   2   2
#     4  12  28  52  79 119 159 212 265 338 407 479
#     4  10  26  53  77 119 166 213 263 334 406 483
#     4  10  26  48  78 116 156 203 260 333 397 483
#     4  12  25  45  73 108 153 207 266 324 386 473
#     4  12  26  51  81 121 165 222 274 333 406 482
#     4  12  26  48  82 119 155 205 267 335 408 480
#     4  10  25  47  74 112 160 206 265 323 403 461
#     4  12  27  49  79 116 164 207 271 333 395 479
#
# _framework density 25.903500999999999
#
# number of rings (size 3 to 8) (size 9 to 14) (size 15 to 20)
#    0.750    0.000    2.500    3.375    0.000   10.500 
#    0.000    0.000    0.000    0.000    0.000    0.000 
#    0.000    0.000    0.000    0.000    0.000    0.000 
#
# Total GULP energy -198249.916282 kJ/mol
# GULP energy per Si atom -12390.619768 kJ/mol
# Density = 2.584454 g / cm^3
# Si number density = 25.903501 Si / 1000 Ang^3
#
#
#
# Elastic Constant Matrix: (Units=GPa)
#
#
# Indices 1 2 3 4 5 6 
#
# 1 74.5920 33.0507 33.6109 -13.8430 -6.8044 -25.1077
# 2 33.0507 89.4441 39.4841 -13.2671 -0.9798 -11.1153
# 3 33.6109 39.4841 173.8929 -30.2594 4.5070 -20.2812
# 4 -13.8430 -13.2671 -30.2594 46.2874 -5.8521 1.6190
# 5 -6.8044 -0.9798 4.5070 -5.8521 59.0285 -9.4032
# 6 -25.1077 -11.1153 -20.2812 1.6190 -9.4032 50.3176
#
#
#
# Elastic Compliance Matrix: (Units=1/GPa)
#
#
# Indices 1 2 3 4 5 6 
#
# 1 0.020519 -0.005294 -0.001071 0.004131 0.004250 0.009299
# 2 -0.005294 0.014151 -0.002035 0.001135 -0.000172 -0.000405
# 3 -0.001071 -0.002035 0.007294 0.003795 -0.000047 0.001825
# 4 0.004131 0.001135 0.003795 0.025943 0.003356 0.003634
# 5 0.004250 -0.000172 -0.000047 0.003356 0.018631 0.005437
# 6 0.009299 -0.000405 0.001825 0.003634 0.005437 0.026059
#
#
# Mechanical properties :
#
#
# Convention : Reuss Voigt Hill
#
# Bulk Modulus (GPa) = 39.73958 61.13562 50.43760
# Shear Modulus (GPa) = 36.28833 46.57893 41.43363
#
# Velocity S-wave (km/s) = 3.74693 4.24509 4.00376
# Velocity P-wave (km/s) = 5.83900 6.90508 6.39430
#
# Compressibility (1/GPa) = 0.02516383
#
# Stress axis : x y z
#
# Youngs Moduli (GPa) = 48.73541 70.66624 137.09534
#
# Poissons Ratio (x) = 0.37414 0.14677
# Poissons Ratio (y) = 0.25803 0.27900
# Poissons Ratio (z) = 0.05218 0.14381
#
# Static dielectric constant tensor:
#      x y z
#    x 5.111290 0.003620 -0.365300 
#    y 0.003620 5.347960 -0.264300 
#    z -0.365300 -0.264300 5.310730 
# 
# 
# High freq. dielectric constant tensor:
#      x y z
#    x 2.024850 -0.017300 -0.015890 
#    y -0.017300 2.045210 -0.005030 
#    z -0.015890 -0.005030 2.057010 
# 
# From -- ./inp_files/335477.got.cif
#   From: 2010.06.25/outbox.cif.g09.slc.cpg/sg2_168_cif.got.tgz:335477.got - 2010.06.27 13:26:56.
