data_PCOD8028799
_publ_section_title
;
Structure prediction by ZEFSAII (Michael W. Deem and Ramdas Pophale) SiO2 
 PCOD8028799
Probable space group: P -1
;
_chemical_formula_sum "Si O2"
_cell_formula_units_Z 12
_cell_length_a 15.512207
_cell_length_b 7.876868
_cell_length_c 10.781109
_cell_angle_alpha 58.436260
_cell_angle_beta 23.630228
_cell_angle_gamma 60.769417
_cell_volume 449.758725
_symmetry_space_group_name_H-M "P -1"
_symmetry_group_IT_number 2
_symmetry_cell_setting 'triclinic'
loop_
_space_group_symop_operation_xyz
x,y,z
-x,-y,-z
loop_
_atom_site_type_symbol
_atom_site_label
_atom_site_fract_x
_atom_site_fract_y
_atom_site_fract_z
Si Si1 0.356166 0.088641 0.426060
Si Si2 0.050673 0.632644 0.734973
Si Si3 0.678751 0.671267 0.372138
Si Si4 0.058394 0.274897 0.547248
Si Si5 0.699734 0.016990 0.821941
Si Si6 0.220307 0.723938 0.872952
O O1 0.380960 0.190751 0.486481
O O2 0.258669 0.241195 0.393396
O O3 0.205495 0.897839 0.721527
O O4 0.595191 0.007886 0.100234
O O5 0.232053 0.548107 0.623402
O O6 0.176969 0.775924 0.423072
O O7 0.865605 0.759345 0.004124
O O8 0.947608 0.447086 0.870756
O O9 0.462953 0.638210 0.591483
O O10 0.000000 0.500000 0.500000
O O11 0.122232 0.156506 0.381062
O O12 0.853234 0.193865 0.924942
O O13 0.500000 0.000000 0.000000
#
# Coordination Sequence:
#
# PCOD8028799 Si02
#       6
#     2   2   2   2   2   2
#     4  11  25  51  79 115 162 207 260 323 388 463
#     4  11  26  48  79 116 163 202 261 322 393 459
#     4  11  26  45  81 115 160 203 264 314 390 459
#     4  11  26  48  79 113 156 204 260 322 388 461
#     4  10  26  48  79 110 159 207 255 321 396 458
#     4  12  26  48  83 116 157 206 265 318 390 464
#
# _framework density 26.680973999999999
#
# number of rings (size 3 to 8) (size 9 to 14) (size 15 to 20)
#    0.000    1.000    1.667    2.500   14.000    3.333 
#    0.000    2.500    0.000    0.000    0.000    0.000 
#    0.000    0.000    0.000    0.000    0.000    0.000 
#
# Total GULP energy -148676.341509 kJ/mol
# GULP energy per Si atom -12389.695126 kJ/mol
# Density = 2.662025 g / cm^3
# Si number density = 26.680974 Si / 1000 Ang^3
#
#
#
# Elastic Constant Matrix: (Units=GPa)
#
#
# Indices 1 2 3 4 5 6 
#
# 1 45.1196 34.3025 30.4156 9.5632 2.9018 -11.8028
# 2 34.3025 149.8570 80.3242 -0.6202 7.9902 -6.3820
# 3 30.4156 80.3242 209.5341 12.2577 34.4749 4.0085
# 4 9.5632 -0.6202 12.2577 57.2183 7.6450 0.5920
# 5 2.9018 7.9902 34.4749 7.6450 54.4165 19.4917
# 6 -11.8028 -6.3820 4.0085 0.5920 19.4917 47.1262
#
#
#
# Elastic Compliance Matrix: (Units=1/GPa)
#
#
# Indices 1 2 3 4 5 6 
#
# 1 0.030920 -0.005639 -0.001909 -0.004661 -0.001803 0.007947
# 2 -0.005639 0.009562 -0.003046 0.001613 0.000653 -0.000149
# 3 -0.001909 -0.003046 0.006871 -0.000687 -0.003735 0.000078
# 4 -0.004661 0.001613 -0.000687 0.018702 -0.002086 -0.000263
# 5 -0.001803 0.000653 -0.003735 -0.002086 0.024703 -0.010237
# 6 0.007947 -0.000149 0.000078 -0.000263 -0.010237 0.027420
#
#
# Mechanical properties :
#
#
# Convention : Reuss Voigt Hill
#
# Bulk Modulus (GPa) = 38.22012 77.17724 57.69868
# Shear Modulus (GPa) = 33.76356 49.05009 41.40682
#
# Velocity S-wave (km/s) = 3.56118 4.29230 3.94372
# Velocity P-wave (km/s) = 5.59154 7.31805 6.51226
#
# Compressibility (1/GPa) = 0.02616423
#
# Stress axis : x y z
#
# Youngs Moduli (GPa) = 32.34122 104.58084 145.54789
#
# Poissons Ratio (x) = 0.58973 0.27790
# Poissons Ratio (y) = 0.18237 0.44333
# Poissons Ratio (z) = 0.06175 0.31855
#
# Static dielectric constant tensor:
#      x y z
#    x 4.687660 -0.040740 0.456880 
#    y -0.040740 4.798170 0.617350 
#    z 0.456880 0.617350 5.777650 
# 
# 
# High freq. dielectric constant tensor:
#      x y z
#    x 2.068070 -0.004150 0.014370 
#    y -0.004150 2.064980 0.027980 
#    z 0.014370 0.027980 2.093430 
# 
# From -- ./inp_files/461847.got.cif
#   From: 2010.06.25/outbox.cif.g09.slc.cpg/sg2_231_cif.got.tgz:461847.got - 2010.06.27 13:26:56.
