data_PCOD8028913
_publ_section_title
;
Structure prediction by ZEFSAII (Michael W. Deem and Ramdas Pophale) SiO2 
 PCOD8028913
Probable space group: P -1
;
_chemical_formula_sum "Si O2"
_cell_formula_units_Z 16
_cell_length_a 15.321585
_cell_length_b 21.095430
_cell_length_c 9.015175
_cell_angle_alpha 40.688341
_cell_angle_beta 39.586386
_cell_angle_gamma 26.211162
_cell_volume 796.654495
_symmetry_space_group_name_H-M "P -1"
_symmetry_group_IT_number 2
_symmetry_cell_setting 'triclinic'
loop_
_space_group_symop_operation_xyz
x,y,z
-x,-y,-z
loop_
_atom_site_type_symbol
_atom_site_label
_atom_site_fract_x
_atom_site_fract_y
_atom_site_fract_z
Si Si1 0.913368 0.201395 0.461395
Si Si2 0.516489 0.778717 0.533296
Si Si3 0.355833 0.996103 0.123221
Si Si4 0.102531 0.902159 0.839775
Si Si5 0.264610 0.517632 0.304912
Si Si6 0.319559 0.655452 0.772042
Si Si7 0.009950 0.216908 0.606842
Si Si8 0.519655 0.010362 0.627083
O O1 0.714089 0.321306 0.402656
O O2 0.870340 0.285979 0.517818
O O3 0.112238 0.137815 0.224785
O O4 0.947244 0.071684 0.697853
O O5 0.439712 0.851298 0.339974
O O6 0.317996 0.823784 0.775211
O O7 0.721751 0.602077 0.552830
O O8 0.576542 0.834651 0.466694
O O9 0.500000 0.000000 0.000000
O O10 0.397996 0.986037 0.909672
O O11 0.154152 0.817887 0.770993
O O12 0.992916 0.886659 0.125147
O O13 0.447451 0.441281 0.317781
O O14 0.057563 0.659082 0.415475
O O15 0.279568 0.569506 0.041192
O O16 0.238539 0.116104 0.423141
O O17 0.500000 0.000000 0.500000
#
# Coordination Sequence:
#
# PCOD8028913 Si02
#       8
#     2   2   2   2   2   2   2   2
#     4  11  19  32  59  88 112 149 194 232 283 329
#     4   9  18  40  62  78 113 156 180 231 288 343
#     4   9  18  37  58  79 110 147 191 234 277 325
#     4   9  18  34  56  89 116 142 186 234 292 327
#     4   9  20  38  54  81 121 152 182 220 298 341
#     4   9  19  34  55  81 119 156 180 224 284 360
#     4  11  21  36  58  88 121 147 181 245 276 336
#     4  11  23  38  60  86 110 145 197 237 281 319
#
# _framework density 20.083988999999999
#
# number of rings (size 3 to 8) (size 9 to 14) (size 15 to 20)
#    0.000    2.250    3.750    1.500    3.500    0.500 
#    0.000    2.500    0.000    0.000    0.000    0.000 
#    0.000    0.000    0.000    0.000    0.000    0.000 
#
# Total GULP energy -198255.979192 kJ/mol
# GULP energy per Si atom -12390.998700 kJ/mol
# Density = 2.003828 g / cm^3
# Si number density = 20.083989 Si / 1000 Ang^3
#
#
#
# Elastic Constant Matrix: (Units=GPa)
#
#
# Indices 1 2 3 4 5 6 
#
# 1 90.6220 16.5899 27.0150 -13.9663 23.9945 14.2918
# 2 16.5899 74.9515 37.6934 -14.1587 -1.7990 20.8428
# 3 27.0150 37.6934 76.3585 4.5770 10.1553 14.2460
# 4 -13.9663 -14.1587 4.5770 27.2565 0.9758 -2.4887
# 5 23.9945 -1.7990 10.1553 0.9758 30.3476 -1.6187
# 6 14.2918 20.8428 14.2460 -2.4887 -1.6187 29.7438
#
#
#
# Elastic Compliance Matrix: (Units=1/GPa)
#
#
# Indices 1 2 3 4 5 6 
#
# 1 0.018880 0.002645 -0.005332 0.011694 -0.013797 -0.008144
# 2 0.002645 0.025210 -0.012480 0.015405 0.002469 -0.011536
# 3 -0.005332 -0.012480 0.022556 -0.012941 -0.003698 -0.000780
# 4 0.011694 0.015405 -0.012941 0.052510 -0.006018 -0.006149
# 5 -0.013797 0.002469 -0.003698 -0.006018 0.045899 0.008665
# 6 -0.008144 -0.011536 -0.000780 -0.006149 0.008665 0.045948
#
#
# Mechanical properties :
#
#
# Convention : Reuss Voigt Hill
#
# Bulk Modulus (GPa) = 27.53879 44.94762 36.24321
# Shear Modulus (GPa) = 19.72853 28.17851 23.95352
#
# Velocity S-wave (km/s) = 3.13757 3.74977 3.45725
# Velocity P-wave (km/s) = 5.18337 6.41686 5.83282
#
# Compressibility (1/GPa) = 0.03631242
#
# Stress axis : x y z
#
# Youngs Moduli (GPa) = 52.96722 39.66685 44.33396
#
# Poissons Ratio (x) = -0.10492 0.23638
# Poissons Ratio (y) = -0.14010 0.55328
# Poissons Ratio (z) = 0.28241 0.49504
#
# Static dielectric constant tensor:
#      x y z
#    x 3.607730 0.154250 0.049840 
#    y 0.154250 3.578160 0.103940 
#    z 0.049840 0.103940 4.637030 
# 
# 
# High freq. dielectric constant tensor:
#      x y z
#    x 1.769640 0.010970 0.008730 
#    y 0.010970 1.763300 0.000370 
#    z 0.008730 0.000370 1.782100 
# 
# From -- ./inp_files/318864.got.cif
#   From: 2010.06.25/outbox.cif.g09.slc.cpg/sg2_160_cif.got.tgz:318864.got - 2010.06.27 13:26:56.
