data_PCOD8028533
_publ_section_title
;
Structure prediction by ZEFSAII (Michael W. Deem and Ramdas Pophale) SiO2 
 PCOD8028533
Probable space group: P -1
;
_chemical_formula_sum "Si O2"
_cell_formula_units_Z 10
_cell_length_a 5.211241
_cell_length_b 5.213403
_cell_length_c 14.532997
_cell_angle_alpha 71.168867
_cell_angle_beta 92.143294
_cell_angle_gamma 89.410571
_cell_volume 373.336986
_symmetry_space_group_name_H-M "P -1"
_symmetry_group_IT_number 2
_symmetry_cell_setting 'triclinic'
loop_
_space_group_symop_operation_xyz
x,y,z
-x,-y,-z
loop_
_atom_site_type_symbol
_atom_site_label
_atom_site_fract_x
_atom_site_fract_y
_atom_site_fract_z
Si Si1 0.863068 0.639149 0.112767
Si Si2 0.815089 0.871284 0.894282
Si Si3 0.212943 0.473389 0.384783
Si Si4 0.484524 0.717753 0.750485
Si Si5 0.721850 0.784841 0.398042
O O1 0.639394 0.567408 0.189957
O O2 0.986581 0.355992 0.113834
O O3 0.735477 0.799922 0.006033
O O4 0.066421 0.830680 0.143062
O O5 0.564473 0.877181 0.825675
O O6 0.262166 0.339600 0.301476
O O7 0.439020 0.678605 0.386308
O O8 0.212544 0.238930 0.490038
O O9 0.937365 0.624773 0.360196
O O10 0.279588 0.899688 0.667864
#
# Coordination Sequence:
#
# PCOD8028533 Si02
#       5
#     2   2   2   2   2
#     4  10  25  47  72 109 156 201 253 321 390 459
#     4  10  25  47  72 109 156 201 253 321 390 459
#     4  10  25  47  72 109 156 201 253 321 390 459
#     4  12  26  40  80 110 148 204 262 316 376 474
#     4  10  25  47  72 109 156 201 253 321 390 459
#
# _framework density 26.785447999999999
#
# number of rings (size 3 to 8) (size 9 to 14) (size 15 to 20)
#    0.000    1.600    0.000    1.200   11.200    0.000 
#    0.000   12.000    0.000    7.200    0.000    0.000 
#    0.000    0.000    0.000    0.000    0.000    0.000 
#
# Total GULP energy -124067.414334 kJ/mol
# GULP energy per Si atom -12406.741433 kJ/mol
# Density = 2.672448 g / cm^3
# Si number density = 26.785448 Si / 1000 Ang^3
#
#
#
# Elastic Constant Matrix: (Units=GPa)
#
#
# Indices 1 2 3 4 5 6 
#
# 1 95.9239 31.3272 62.6438 -22.4098 -20.2379 3.6062
# 2 31.3272 108.6582 62.4535 -15.9874 -22.8835 13.8810
# 3 62.6438 62.4535 166.3661 -23.9173 -22.2269 11.8988
# 4 -22.4098 -15.9874 -23.9173 22.4762 9.2094 5.8751
# 5 -20.2379 -22.8835 -22.2269 9.2094 19.8810 -1.0663
# 6 3.6062 13.8810 11.8988 5.8751 -1.0663 36.1572
#
#
#
# Elastic Compliance Matrix: (Units=1/GPa)
#
#
# Indices 1 2 3 4 5 6 
#
# 1 0.017144 0.001134 -0.003969 0.010428 0.009368 -0.002257
# 2 0.001134 0.014576 -0.003320 0.004381 0.011924 -0.004977
# 3 -0.003969 -0.003320 0.009611 0.004113 0.000864 -0.002135
# 4 0.010428 0.004381 0.004113 0.072440 -0.014172 -0.016264
# 5 0.009368 0.011924 0.000864 -0.014172 0.081032 -0.001104
# 6 -0.002257 -0.004977 -0.002135 -0.016264 -0.001104 0.033106
#
#
# Mechanical properties :
#
#
# Convention : Reuss Voigt Hill
#
# Bulk Modulus (GPa) = 34.45733 75.97746 55.21739
# Shear Modulus (GPa) = 20.00870 30.00446 25.00658
#
# Velocity S-wave (km/s) = 2.73609 3.35054 3.05878
# Velocity P-wave (km/s) = 4.78265 6.58748 5.75624
#
# Compressibility (1/GPa) = 0.02902140
#
# Stress axis : x y z
#
# Youngs Moduli (GPa) = 58.32897 68.60626 104.04723
#
# Poissons Ratio (x) = -0.07781 0.41296
# Poissons Ratio (y) = -0.06615 0.34544
# Poissons Ratio (z) = 0.23151 0.22778
#
# Static dielectric constant tensor:
#      x y z
#    x 4.501820 0.018280 -0.107380 
#    y 0.018280 4.557800 -0.121430 
#    z -0.107380 -0.121430 5.367560 
# 
# 
# High freq. dielectric constant tensor:
#      x y z
#    x 2.065160 0.000520 -0.000630 
#    y 0.000520 2.066020 -0.006630 
#    z -0.000630 -0.006630 2.104100 
# 
# From -- ./inp_files/478231.got.cif
#   From: 2010.06.25/outbox.cif.g09.slc.cpg/sg2_240_cif.got.tgz:478231.got - 2010.06.27 13:26:56.
