data_PCOD8028574
_publ_section_title
;
Structure prediction by ZEFSAII (Michael W. Deem and Ramdas Pophale) SiO2 
 PCOD8028574
Probable space group: P -1
;
_chemical_formula_sum "Si O2"
_cell_formula_units_Z 16
_cell_length_a 12.701147
_cell_length_b 10.504238
_cell_length_c 13.289772
_cell_angle_alpha 79.517585
_cell_angle_beta 144.508505
_cell_angle_gamma 75.246509
_cell_volume 717.330460
_symmetry_space_group_name_H-M "P -1"
_symmetry_group_IT_number 2
_symmetry_cell_setting 'triclinic'
loop_
_space_group_symop_operation_xyz
x,y,z
-x,-y,-z
loop_
_atom_site_type_symbol
_atom_site_label
_atom_site_fract_x
_atom_site_fract_y
_atom_site_fract_z
Si Si1 0.568615 0.294004 0.371602
Si Si2 0.649869 0.794703 0.642560
Si Si3 0.951356 0.245294 0.795083
Si Si4 0.366874 0.843524 0.225309
Si Si5 0.156434 0.471627 0.474168
Si Si6 0.261341 0.789621 0.714242
Si Si7 0.170864 0.667994 0.096898
Si Si8 0.238549 0.502444 0.758317
O O1 0.395955 0.260984 0.280951
O O2 0.647668 0.238788 0.325815
O O3 0.415938 0.505347 0.244044
O O4 0.822128 0.184147 0.651994
O O5 0.545412 0.757848 0.476148
O O6 0.500000 0.000000 0.500000
O O7 0.941409 0.695662 0.869765
O O8 0.970291 0.353513 0.717568
O O9 0.801954 0.378654 0.756607
O O10 0.228919 0.051846 0.074183
O O11 0.560032 0.718226 0.303406
O O12 0.154512 0.833842 0.060452
O O13 0.156196 0.526013 0.577517
O O14 0.969256 0.443091 0.330610
O O15 0.231882 0.658307 0.746625
O O16 0.499130 0.709815 0.982214
O O17 0.000000 0.000000 0.500000
#
# Coordination Sequence:
#
# PCOD8028574 Si02
#       8
#     2   2   2   2   2   2   2   2
#     4  12  25  45  72 102 139 192 234 285 359 420
#     4  12  26  43  65 110 148 182 236 283 348 430
#     4  12  23  43  71 100 139 189 231 279 355 423
#     4  12  25  45  72 104 145 192 228 288 355 420
#     4  11  25  45  72  99 136 183 236 295 350 414
#     4  11  26  48  72 102 140 181 236 295 350 418
#     4  12  24  46  71 103 150 186 232 292 345 427
#     4  10  25  48  69 101 136 178 240 299 352 405
#
# _framework density 22.304921
#
# number of rings (size 3 to 8) (size 9 to 14) (size 15 to 20)
#    0.000    0.500    5.000    2.625    5.250    2.000 
#    2.250    2.500    0.000    0.000    0.000    0.000 
#    0.000    0.000    0.000    0.000    0.000    0.000 
#
# Total GULP energy -198273.583943 kJ/mol
# GULP energy per Si atom -12392.098996 kJ/mol
# Density = 2.225415 g / cm^3
# Si number density = 22.304921 Si / 1000 Ang^3
#
#
#
# Elastic Constant Matrix: (Units=GPa)
#
#
# Indices 1 2 3 4 5 6 
#
# 1 124.3959 43.5637 62.9178 -9.5990 4.5126 -10.4869
# 2 43.5637 82.3255 34.4902 -18.6686 -2.5003 -6.4870
# 3 62.9178 34.4902 107.2260 -4.8691 -6.3429 5.4723
# 4 -9.5990 -18.6686 -4.8691 35.9506 7.4351 0.4590
# 5 4.5126 -2.5003 -6.3429 7.4351 29.6055 6.8985
# 6 -10.4869 -6.4870 5.4723 0.4590 6.8985 23.6292
#
#
#
# Elastic Compliance Matrix: (Units=1/GPa)
#
#
# Indices 1 2 3 4 5 6 
#
# 1 0.014639 -0.003123 -0.008387 0.002510 -0.007165 0.009625
# 2 -0.003123 0.017545 -0.003803 0.008115 -0.001999 0.004737
# 3 -0.008387 -0.003803 0.016325 -0.003487 0.007839 -0.010768
# 4 0.002510 0.008115 -0.003487 0.034336 -0.010600 0.006577
# 5 -0.007165 -0.001999 0.007839 -0.010600 0.043227 -0.017958
# 6 0.009625 0.004737 -0.010768 0.006577 -0.017958 0.055501
#
#
# Mechanical properties :
#
#
# Convention : Reuss Voigt Hill
#
# Bulk Modulus (GPa) = 55.91102 66.21010 61.06056
# Shear Modulus (GPa) = 22.91886 29.36880 26.14383
#
# Velocity S-wave (km/s) = 3.20898 3.63257 3.42732
# Velocity P-wave (km/s) = 6.23307 6.88059 6.56482
#
# Compressibility (1/GPa) = 0.01788556
#
# Stress axis : x y z
#
# Youngs Moduli (GPa) = 68.30884 56.99497 61.25489
#
# Poissons Ratio (x) = 0.17800 0.51372
# Poissons Ratio (y) = 0.21333 0.23293
# Poissons Ratio (z) = 0.57288 0.21673
#
# Static dielectric constant tensor:
#      x y z
#    x 4.270550 0.039970 -0.115680 
#    y 0.039970 3.579800 -0.404370 
#    z -0.115680 -0.404370 3.261150 
# 
# 
# High freq. dielectric constant tensor:
#      x y z
#    x 1.884600 0.008550 0.002780 
#    y 0.008550 1.875200 0.005670 
#    z 0.002780 0.005670 1.885820 
# 
# From -- ./inp_files/428247.got.cif
#   From: 2010.06.25/outbox.cif.g09.slc.cpg/sg2_215_cif.got.tgz:428247.got - 2010.06.27 13:26:56.
