data_PCOD8028531
_publ_section_title
;
Structure prediction by ZEFSAII (Michael W. Deem and Ramdas Pophale) SiO2 
 PCOD8028531
Probable space group: P -1
;
_chemical_formula_sum "Si O2"
_cell_formula_units_Z 14
_cell_length_a 5.131372
_cell_length_b 14.185422
_cell_length_c 17.091981
_cell_angle_alpha 147.371050
_cell_angle_beta 119.920271
_cell_angle_gamma 62.510828
_cell_volume 579.127830
_symmetry_space_group_name_H-M "P -1"
_symmetry_group_IT_number 2
_symmetry_cell_setting 'triclinic'
loop_
_space_group_symop_operation_xyz
x,y,z
-x,-y,-z
loop_
_atom_site_type_symbol
_atom_site_label
_atom_site_fract_x
_atom_site_fract_y
_atom_site_fract_z
Si Si1 0.816370 0.148127 0.660520
Si Si2 0.103380 0.493166 0.268466
Si Si3 0.687675 0.880649 0.007198
Si Si4 0.672514 0.628567 0.168352
Si Si5 0.818149 0.579529 0.601246
Si Si6 0.311199 0.030649 0.193365
Si Si7 0.312700 0.861418 0.537399
O O1 0.574345 0.214406 0.735249
O O2 0.633242 0.111129 0.527727
O O3 0.057048 0.292225 0.782516
O O4 0.992529 0.965525 0.586780
O O5 0.998759 0.468668 0.325212
O O6 0.304160 0.657165 0.411663
O O7 0.806521 0.523942 0.191435
O O8 0.324557 0.325033 0.156670
O O9 0.566713 0.919730 0.103704
O O10 0.034195 0.915864 0.079403
O O11 0.500000 0.000000 0.000000
O O12 0.500000 0.500000 0.000000
O O13 0.500000 0.500000 0.500000
O O14 0.781571 0.788949 0.738961
O O15 0.000000 0.500000 0.500000
O O16 0.422663 0.065137 0.321643
#
# Coordination Sequence:
#
# PCOD8028531 Si02
#       7
#     2   2   2   2   2   2   2
#     4  10  25  47  72 104 149 184 244 304 358 424
#     4  11  27  47  76 107 147 194 245 300 364 433
#     4  12  28  49  68 105 149 188 233 298 363 427
#     4  11  26  46  72 108 147 191 239 300 366 432
#     4  12  26  45  72 109 143 184 245 303 354 429
#     4  12  27  45  75 101 143 192 240 290 365 431
#     4  10  25  47  77 107 141 195 244 301 360 429
#
# _framework density 24.174284
#
# number of rings (size 3 to 8) (size 9 to 14) (size 15 to 20)
#    0.000    0.857    2.857    1.714    6.000    8.571 
#    0.000    0.000    0.000    0.000    0.000    0.000 
#    0.000    0.000    0.000    0.000    0.000    0.000 
#
# Total GULP energy -173680.508109 kJ/mol
# GULP energy per Si atom -12405.750579 kJ/mol
# Density = 2.411926 g / cm^3
# Si number density = 24.174284 Si / 1000 Ang^3
#
#
#
# Elastic Constant Matrix: (Units=GPa)
#
#
# Indices 1 2 3 4 5 6 
#
# 1 94.7279 3.3654 33.3670 3.6543 -5.3790 -1.6197
# 2 3.3654 108.6348 48.8346 2.5410 3.0463 -3.7631
# 3 33.3670 48.8346 148.3591 2.4610 -10.0044 -0.9986
# 4 3.6543 2.5410 2.4610 55.6490 -10.6438 -5.8815
# 5 -5.3790 3.0463 -10.0044 -10.6438 40.7685 0.9479
# 6 -1.6197 -3.7631 -0.9986 -5.8815 0.9479 19.6470
#
#
#
# Elastic Compliance Matrix: (Units=1/GPa)
#
#
# Indices 1 2 3 4 5 6 
#
# 1 0.011600 0.000952 -0.002868 -0.000474 0.000613 0.000821
# 2 0.000952 0.011092 -0.003969 -0.000546 -0.001865 0.001928
# 3 -0.002868 -0.003969 0.008830 0.000339 0.002186 -0.000552
# 4 -0.000474 -0.000546 0.000339 0.019554 0.005039 0.005484
# 5 0.000613 -0.001865 0.002186 0.005039 0.026600 0.000030
# 6 0.000821 0.001928 -0.000552 0.005484 0.000030 0.052948
#
#
# Mechanical properties :
#
#
# Convention : Reuss Voigt Hill
#
# Bulk Modulus (GPa) = 50.62582 58.09508 54.36045
# Shear Modulus (GPa) = 33.56237 40.95656 37.25946
#
# Velocity S-wave (km/s) = 3.73010 4.12056 3.93018
# Velocity P-wave (km/s) = 6.28800 6.83539 6.56740
#
# Compressibility (1/GPa) = 0.01975277
#
# Stress axis : x y z
#
# Youngs Moduli (GPa) = 86.20735 90.15848 113.25261
#
# Poissons Ratio (x) = -0.08584 0.32476
# Poissons Ratio (y) = -0.08208 0.44947
# Poissons Ratio (z) = 0.24721 0.35782
#
# Static dielectric constant tensor:
#      x y z
#    x 4.169750 0.042170 -0.094900 
#    y 0.042170 4.758850 0.018140 
#    z -0.094900 0.018140 4.647340 
# 
# 
# High freq. dielectric constant tensor:
#      x y z
#    x 1.951650 -0.002130 -0.000220 
#    y -0.002130 1.970220 0.001490 
#    z -0.000220 0.001490 1.981390 
# 
# From -- ./inp_files/549989.got.cif
#   From: 2010.06.25/outbox.cif.g09.slc.cpg/sg2_275_cif.got.tgz:549989.got - 2010.06.27 13:26:56.
