data_PCOD8028464
_publ_section_title
;
Structure prediction by ZEFSAII (Michael W. Deem and Ramdas Pophale) SiO2 
 PCOD8028464
Probable space group: P -1
;
_chemical_formula_sum "Si O2"
_cell_formula_units_Z 16
_cell_length_a 11.457062
_cell_length_b 15.589483
_cell_length_c 14.391988
_cell_angle_alpha 141.702962
_cell_angle_beta 28.730652
_cell_angle_gamma 123.781587
_cell_volume 686.293051
_symmetry_space_group_name_H-M "P -1"
_symmetry_group_IT_number 2
_symmetry_cell_setting 'triclinic'
loop_
_space_group_symop_operation_xyz
x,y,z
-x,-y,-z
loop_
_atom_site_type_symbol
_atom_site_label
_atom_site_fract_x
_atom_site_fract_y
_atom_site_fract_z
Si Si1 0.635897 0.313917 0.381322
Si Si2 0.242400 0.987532 0.207059
Si Si3 0.271379 0.858104 0.436435
Si Si4 0.675996 0.590629 0.808606
Si Si5 0.179404 0.218671 0.597587
Si Si6 0.397441 0.700951 0.392617
Si Si7 0.812668 0.820891 0.224914
Si Si8 0.389906 0.656552 0.885698
O O1 0.414568 0.267457 0.449430
O O2 0.696309 0.258250 0.399919
O O3 0.543926 0.496198 0.586412
O O4 0.904388 0.224734 0.060988
O O5 0.208661 0.058680 0.395114
O O6 0.980682 0.089256 0.413413
O O7 0.500000 0.000000 0.000000
O O8 0.298650 0.808836 0.014926
O O9 0.184815 0.807970 0.553064
O O10 0.356621 0.994894 0.513123
O O11 0.549813 0.718977 0.085238
O O12 0.543170 0.473764 0.816917
O O13 0.582175 0.671507 0.843139
O O14 0.000000 0.500000 0.500000
O O15 0.151146 0.211707 0.720243
O O16 0.880304 0.348071 0.884963
O O17 0.663496 0.725357 0.205536
#
# Coordination Sequence:
#
# PCOD8028464 Si02
#       8
#     2   2   2   2   2   2   2   2
#     4  10  25  46  72 107 141 190 244 286 361 430
#     4  12  26  44  73 112 143 192 237 296 370 422
#     4  12  24  47  72 105 148 186 239 301 356 432
#     4  11  26  47  74 105 141 194 242 297 362 422
#     4  11  22  46  70 106 143 182 241 293 361 419
#     4  10  26  46  71 104 142 188 240 298 350 423
#     4  11  24  47  75 104 144 193 234 300 359 419
#     4  11  23  46  71 102 149 185 238 304 349 431
#
# _framework density 23.313655000000001
#
# number of rings (size 3 to 8) (size 9 to 14) (size 15 to 20)
#    0.000    1.000    2.500    3.000    5.250    2.000 
#    6.750    0.000    0.000    0.000    0.000    0.000 
#    0.000    0.000    0.000    0.000    0.000    0.000 
#
# Total GULP energy -198286.635963 kJ/mol
# GULP energy per Si atom -12392.914748 kJ/mol
# Density = 2.326059 g / cm^3
# Si number density = 23.313655 Si / 1000 Ang^3
#
#
#
# Elastic Constant Matrix: (Units=GPa)
#
#
# Indices 1 2 3 4 5 6 
#
# 1 115.0724 48.2659 55.5672 6.1450 -4.9144 2.4504
# 2 48.2659 107.7211 65.4513 0.4637 -0.3645 19.9680
# 3 55.5672 65.4513 138.7971 -2.4433 1.7982 8.3096
# 4 6.1450 0.4637 -2.4433 38.3250 4.0486 3.0216
# 5 -4.9144 -0.3645 1.7982 4.0486 32.4878 10.2882
# 6 2.4504 19.9680 8.3096 3.0216 10.2882 34.4092
#
#
#
# Elastic Compliance Matrix: (Units=1/GPa)
#
#
# Indices 1 2 3 4 5 6 
#
# 1 0.011962 -0.003732 -0.003201 -0.002395 0.001674 0.001797
# 2 -0.003732 0.015868 -0.005510 0.000451 0.002524 -0.008407
# 3 -0.003201 -0.005510 0.011062 0.001374 -0.001690 0.001139
# 4 -0.002395 0.000451 0.001374 0.027044 -0.003223 -0.001834
# 5 0.001674 0.002524 -0.001690 -0.003223 0.035170 -0.011409
# 6 0.001797 -0.008407 0.001139 -0.001834 -0.011409 0.037110
#
#
# Mechanical properties :
#
#
# Convention : Reuss Voigt Hill
#
# Bulk Modulus (GPa) = 71.39226 77.79548 74.59387
# Shear Modulus (GPa) = 29.80232 33.86481 31.83357
#
# Velocity S-wave (km/s) = 3.57924 3.81540 3.69920
# Velocity P-wave (km/s) = 6.91160 7.26988 7.09301
#
# Compressibility (1/GPa) = 0.01400712
#
# Stress axis : x y z
#
# Youngs Moduli (GPa) = 83.59585 63.01825 90.39657
#
# Poissons Ratio (x) = 0.23520 0.28931
# Poissons Ratio (y) = 0.31201 0.49810
# Poissons Ratio (z) = 0.26755 0.34724
#
# Static dielectric constant tensor:
#      x y z
#    x 4.906220 0.314920 -0.048210 
#    y 0.314920 4.428120 0.086930 
#    z -0.048210 0.086930 4.196690 
# 
# 
# High freq. dielectric constant tensor:
#      x y z
#    x 1.944350 0.007660 0.002390 
#    y 0.007660 1.922960 0.004750 
#    z 0.002390 0.004750 1.913860 
# 
# From -- ./inp_files/522473.got.cif
#   From: 2010.06.25/outbox.cif.g09.slc.cpg/sg2_262_cif.got.tgz:522473.got - 2010.06.27 13:26:56.
