data_PCOD8028833
_publ_section_title
;
Structure prediction by ZEFSAII (Michael W. Deem and Ramdas Pophale) SiO2 
 PCOD8028833
Probable space group: P -1
;
_chemical_formula_sum "Si O2"
_cell_formula_units_Z 16
_cell_length_a 17.165998
_cell_length_b 12.011373
_cell_length_c 16.982048
_cell_angle_alpha 145.367923
_cell_angle_beta 24.762596
_cell_angle_gamma 146.322211
_cell_volume 778.530609
_symmetry_space_group_name_H-M "P -1"
_symmetry_group_IT_number 2
_symmetry_cell_setting 'triclinic'
loop_
_space_group_symop_operation_xyz
x,y,z
-x,-y,-z
loop_
_atom_site_type_symbol
_atom_site_label
_atom_site_fract_x
_atom_site_fract_y
_atom_site_fract_z
Si Si1 0.702901 0.058226 0.162542
Si Si2 0.277536 0.908753 0.414782
Si Si3 0.271004 0.361289 0.871616
Si Si4 0.945970 0.083136 0.218249
Si Si5 0.975354 0.689409 0.089187
Si Si6 0.944259 0.487844 0.712985
Si Si7 0.707932 0.483269 0.486246
Si Si8 0.326841 0.294997 0.507416
O O1 0.714852 0.262485 0.321511
O O2 0.475121 0.904097 0.275382
O O3 0.805630 0.147047 0.036214
O O4 0.832238 0.925899 0.000929
O O5 0.132312 0.952698 0.639775
O O6 0.165156 0.683673 0.350508
O O7 0.371854 0.082345 0.358733
O O8 0.156218 0.388623 0.914398
O O9 0.506500 0.453400 0.699616
O O10 0.200987 0.112981 0.811276
O O11 0.218124 0.487560 0.063967
O O12 0.938669 0.297042 0.315209
O O13 0.867859 0.783703 0.305508
O O14 0.000000 0.500000 0.000000
O O15 0.106989 0.416323 0.566756
O O16 0.727560 0.657582 0.502407
O O17 0.500000 0.500000 0.500000
#
# Coordination Sequence:
#
# PCOD8028833 Si02
#       8
#     2   2   2   2   2   2   2   2
#     4  11  21  38  69  95 120 168 223 259 314 381
#     4  12  25  44  66 100 130 169 218 272 326 382
#     4  11  22  41  63 100 127 166 223 259 316 395
#     4  11  23  45  70  93 126 176 228 260 313 400
#     4  11  17  33  66  95 122 160 218 265 302 372
#     4  12  28  43  62  98 141 165 212 281 329 369
#     4  12  23  40  69  99 130 172 214 265 331 379
#     4  12  19  39  71  97 125 168 221 265 303 403
#
# _framework density 20.551537
#
# number of rings (size 3 to 8) (size 9 to 14) (size 15 to 20)
#    0.000    0.500   10.000    0.750    0.000    3.500 
#    0.000    0.625    0.000    0.000    0.000    0.000 
#    0.000    0.000    0.000    0.000    0.000    0.000 
#
# Total GULP energy -198268.284525 kJ/mol
# GULP energy per Si atom -12391.767783 kJ/mol
# Density = 2.050476 g / cm^3
# Si number density = 20.551537 Si / 1000 Ang^3
#
#
#
# Elastic Constant Matrix: (Units=GPa)
#
#
# Indices 1 2 3 4 5 6 
#
# 1 55.5019 11.7711 26.9696 -9.0927 -4.0920 -5.3063
# 2 11.7711 41.2516 20.3979 -7.9749 1.1048 -5.4647
# 3 26.9696 20.3979 111.6012 -20.2684 0.5389 14.9484
# 4 -9.0927 -7.9749 -20.2684 29.5910 3.1375 -2.3424
# 5 -4.0920 1.1048 0.5389 3.1375 15.8021 6.6078
# 6 -5.3063 -5.4647 14.9484 -2.3424 6.6078 41.0661
#
#
#
# Elastic Compliance Matrix: (Units=1/GPa)
#
#
# Indices 1 2 3 4 5 6 
#
# 1 0.022077 -0.003039 -0.004838 0.002515 0.004047 0.003702
# 2 -0.003039 0.029369 -0.004554 0.005055 -0.006403 0.006492
# 3 -0.004838 -0.004554 0.012714 0.005576 -0.000169 -0.005514
# 4 0.002515 0.005055 0.005576 0.040942 -0.009184 0.002781
# 5 0.004047 -0.006403 -0.000169 -0.009184 0.071768 -0.012339
# 6 0.003702 0.006492 -0.005514 0.002781 -0.012339 0.029844
#
#
# Mechanical properties :
#
#
# Convention : Reuss Voigt Hill
#
# Bulk Modulus (GPa) = 25.44698 36.29243 30.86970
# Shear Modulus (GPa) = 20.43507 27.23958 23.83733
#
# Velocity S-wave (km/s) = 3.15673 3.64459 3.40940
# Velocity P-wave (km/s) = 5.06907 5.95049 5.52738
#
# Compressibility (1/GPa) = 0.03929739
#
# Stress axis : x y z
#
# Youngs Moduli (GPa) = 45.29542 34.04915 78.65231
#
# Poissons Ratio (x) = 0.10348 0.38055
# Poissons Ratio (y) = 0.13766 0.35820
# Poissons Ratio (z) = 0.21916 0.15507
#
# Static dielectric constant tensor:
#      x y z
#    x 3.647280 -0.122170 -0.072800 
#    y -0.122170 3.394130 -0.309870 
#    z -0.072800 -0.309870 3.980400 
# 
# 
# High freq. dielectric constant tensor:
#      x y z
#    x 1.796830 -0.024030 -0.012040 
#    y -0.024030 1.786330 -0.015980 
#    z -0.012040 -0.015980 1.815720 
# 
# From -- ./inp_files/532013.got.cif
#   From: 2010.06.25/outbox.cif.g09.slc.cpg/sg2_267_cif.got.tgz:532013.got - 2010.06.27 13:26:56.
