data_PCOD8028982
_publ_section_title
;
Structure prediction by ZEFSAII (Michael W. Deem and Ramdas Pophale) SiO2 
 PCOD8028982
Probable space group: P -1
;
_chemical_formula_sum "Si O2"
_cell_formula_units_Z 14
_cell_length_a 9.169539
_cell_length_b 14.087036
_cell_length_c 17.228707
_cell_angle_alpha 157.178422
_cell_angle_beta 131.574710
_cell_angle_gamma 50.078664
_cell_volume 642.251096
_symmetry_space_group_name_H-M "P -1"
_symmetry_group_IT_number 2
_symmetry_cell_setting 'triclinic'
loop_
_space_group_symop_operation_xyz
x,y,z
-x,-y,-z
loop_
_atom_site_type_symbol
_atom_site_label
_atom_site_fract_x
_atom_site_fract_y
_atom_site_fract_z
Si Si1 0.212084 0.858450 0.963938
Si Si2 0.340993 0.532857 0.035971
Si Si3 0.839275 0.335674 0.356761
Si Si4 0.561037 0.774824 0.585965
Si Si5 0.647404 0.675061 0.363187
Si Si6 0.164683 0.042853 0.651397
Si Si7 0.940014 0.022489 0.711572
O O1 0.260639 0.826486 0.865520
O O2 0.218031 0.583793 0.793302
O O3 0.368119 0.995324 0.169467
O O4 0.000000 0.000000 0.000000
O O5 0.435309 0.651476 0.234055
O O6 0.153570 0.723624 0.089764
O O7 0.500000 0.500000 0.000000
O O8 0.273721 0.272009 0.836121
O O9 0.662099 0.522879 0.471046
O O10 0.000000 0.500000 0.500000
O O11 0.930639 0.147453 0.310689
O O12 0.625499 0.772675 0.517161
O O13 0.325162 0.802466 0.529865
O O14 0.763309 0.870673 0.504661
O O15 0.000000 0.000000 0.500000
O O16 0.072786 0.094011 0.741725
#
# Coordination Sequence:
#
# PCOD8028982 Si02
#       7
#     2   2   2   2   2   2   2
#     4  11  19  36  71  99 138 177 237 286 337 396
#     4  12  26  44  75 101 134 191 242 287 352 415
#     4  11  22  41  69 105 139 182 234 295 336 417
#     4  11  22  44  73  99 144 185 235 284 346 416
#     4  11  22  42  72 104 132 181 241 288 335 419
#     4  12  27  48  69 103 149 182 229 297 356 417
#     4  12  24  44  68 107 145 180 231 292 355 410
#
# _framework density 21.798327
#
# number of rings (size 3 to 8) (size 9 to 14) (size 15 to 20)
#    0.000    0.571    5.714    3.429    2.000    0.571 
#    2.571    0.714    0.000    0.000    0.000    0.000 
#    0.000    0.000    0.000    0.000    0.000    0.000 
#
# Total GULP energy -173565.003862 kJ/mol
# GULP energy per Si atom -12397.500276 kJ/mol
# Density = 2.174871 g / cm^3
# Si number density = 21.798327 Si / 1000 Ang^3
#
#
#
# Elastic Constant Matrix: (Units=GPa)
#
#
# Indices 1 2 3 4 5 6 
#
# 1 131.6398 59.1329 51.9830 15.1079 -9.7321 -7.3432
# 2 59.1329 145.1633 54.5561 14.1668 -8.3233 -16.9234
# 3 51.9830 54.5561 117.3325 -6.9488 -15.8833 -1.5457
# 4 15.1079 14.1668 -6.9488 52.7156 -9.3795 -8.9793
# 5 -9.7321 -8.3233 -15.8833 -9.3795 33.6283 7.2686
# 6 -7.3432 -16.9234 -1.5457 -8.9793 7.2686 44.3143
#
#
#
# Elastic Compliance Matrix: (Units=1/GPa)
#
#
# Indices 1 2 3 4 5 6 
#
# 1 0.010532 -0.002662 -0.003607 -0.002787 -0.000104 0.000055
# 2 -0.002662 0.009818 -0.003643 -0.002078 -0.001283 0.002971
# 3 -0.003607 -0.003643 0.012828 0.004449 0.005695 -0.001574
# 4 -0.002787 -0.002078 0.004449 0.022482 0.006536 0.002383
# 5 -0.000104 -0.001283 0.005695 0.006536 0.034920 -0.004712
# 6 0.000055 0.002971 -0.001574 0.002383 -0.004712 0.024911
#
#
# Mechanical properties :
#
#
# Convention : Reuss Voigt Hill
#
# Bulk Modulus (GPa) = 74.88347 80.60883 77.74615
# Shear Modulus (GPa) = 35.77388 41.36254 38.56821
#
# Velocity S-wave (km/s) = 4.05548 4.36077 4.21089
# Velocity P-wave (km/s) = 7.50711 7.90030 7.70621
#
# Compressibility (1/GPa) = 0.01335408
#
# Stress axis : x y z
#
# Youngs Moduli (GPa) = 94.94985 101.85323 77.95315
#
# Poissons Ratio (x) = 0.27116 0.28114
# Poissons Ratio (y) = 0.25278 0.28400
# Poissons Ratio (z) = 0.34244 0.37107
#
# Static dielectric constant tensor:
#      x y z
#    x 3.846310 -0.155310 -0.172040 
#    y -0.155310 4.509870 0.048840 
#    z -0.172040 0.048840 4.311600 
# 
# 
# High freq. dielectric constant tensor:
#      x y z
#    x 1.825780 -0.016090 -0.019530 
#    y -0.016090 1.883610 0.006470 
#    z -0.019530 0.006470 1.864740 
# 
# From -- ./inp_files/561476.got.cif
#   From: 2010.06.25/outbox.cif.g09.slc.cpg/sg2_281_cif.got.tgz:561476.got - 2010.06.27 13:26:56.
