data_PCOD8028865
_publ_section_title
;
Structure prediction by ZEFSAII (Michael W. Deem and Ramdas Pophale) SiO2 
 PCOD8028865
Probable space group: P -1
;
_chemical_formula_sum "Si O2"
_cell_formula_units_Z 14
_cell_length_a 15.443898
_cell_length_b 12.655693
_cell_length_c 12.746578
_cell_angle_alpha 133.316678
_cell_angle_beta 26.888333
_cell_angle_gamma 141.891238
_cell_volume 694.258208
_symmetry_space_group_name_H-M "P -1"
_symmetry_group_IT_number 2
_symmetry_cell_setting 'triclinic'
loop_
_space_group_symop_operation_xyz
x,y,z
-x,-y,-z
loop_
_atom_site_type_symbol
_atom_site_label
_atom_site_fract_x
_atom_site_fract_y
_atom_site_fract_z
Si Si1 0.649014 0.220696 0.822206
Si Si2 0.723136 0.049969 0.434541
Si Si3 0.405680 0.617868 0.195588
Si Si4 0.824803 0.863899 0.677034
Si Si5 0.903840 0.573844 0.412417
Si Si6 0.751627 0.215466 0.303372
Si Si7 0.866841 0.955295 0.929238
O O1 0.659198 0.086289 0.642773
O O2 0.693245 0.377621 0.807496
O O3 0.832979 0.284448 0.758376
O O4 0.408485 0.141481 0.086361
O O5 0.771353 0.196109 0.395794
O O6 0.945056 0.038630 0.194326
O O7 0.511272 0.870634 0.501587
O O8 0.204819 0.526602 0.431558
O O9 0.500000 0.500000 0.000000
O O10 0.612094 0.806953 0.137073
O O11 0.789657 0.676630 0.563547
O O12 0.919044 0.923562 0.733360
O O13 0.000000 0.000000 0.500000
O O14 0.870602 0.414267 0.269920
O O15 0.873332 0.132397 0.053884
#
# Coordination Sequence:
#
# PCOD8028865 Si02
#       7
#     2   2   2   2   2   2   2
#     4  11  21  38  65  88 122 160 203 247 301 363
#     4  11  20  37  60  92 129 169 187 232 309 379
#     4  11  18  33  60  91 124 154 194 245 300 360
#     4  11  25  44  64  87 116 159 219 262 291 348
#     4  12  23  37  62  94 121 157 202 254 303 360
#     4  11  23  35  58  96 133 155 192 238 311 375
#     4  11  22  40  59  90 129 167 193 245 302 363
#
# _framework density 20.165406999999998
#
# number of rings (size 3 to 8) (size 9 to 14) (size 15 to 20)
#    0.000    0.857    8.571    1.714    2.000    1.714 
#    0.000    0.714    0.000    1.714    0.000    0.000 
#    0.000    0.000    0.000    0.000    0.000    0.000 
#
# Total GULP energy -173494.289787 kJ/mol
# GULP energy per Si atom -12392.449270 kJ/mol
# Density = 2.011951 g / cm^3
# Si number density = 20.165407 Si / 1000 Ang^3
#
#
#
# Elastic Constant Matrix: (Units=GPa)
#
#
# Indices 1 2 3 4 5 6 
#
# 1 49.8214 20.2344 23.8290 -7.0120 -18.9446 13.5617
# 2 20.2344 115.6928 46.2082 20.6450 6.0791 4.8211
# 3 23.8290 46.2082 94.1899 -0.1544 -12.2143 -2.1267
# 4 -7.0120 20.6450 -0.1544 41.5610 -2.7892 0.5591
# 5 -18.9446 6.0791 -12.2143 -2.7892 30.1708 -6.6850
# 6 13.5617 4.8211 -2.1267 0.5591 -6.6850 24.5804
#
#
#
# Elastic Compliance Matrix: (Units=1/GPa)
#
#
# Indices 1 2 3 4 5 6 
#
# 1 0.039613 -0.008590 -0.003084 0.012699 0.023344 -0.014378
# 2 -0.008590 0.015589 -0.007210 -0.010054 -0.012874 -0.002215
# 3 -0.003084 -0.007210 0.016102 0.003557 0.007816 0.006554
# 4 0.012699 -0.010054 0.003557 0.032176 0.014052 -0.001637
# 5 0.023344 -0.012874 0.007816 0.014052 0.056020 0.005238
# 6 -0.014378 -0.002215 0.006554 -0.001637 0.005238 0.051079
#
#
# Mechanical properties :
#
#
# Convention : Reuss Voigt Hill
#
# Bulk Modulus (GPa) = 29.82003 48.91637 39.36820
# Shear Modulus (GPa) = 19.26599 30.55795 24.91197
#
# Velocity S-wave (km/s) = 3.09430 3.89699 3.51861
# Velocity P-wave (km/s) = 5.25225 6.67525 6.00604
#
# Compressibility (1/GPa) = 0.03353451
#
# Stress axis : x y z
#
# Youngs Moduli (GPa) = 25.24418 64.14977 62.10518
#
# Poissons Ratio (x) = 0.55104 0.19155
# Poissons Ratio (y) = 0.21685 0.44780
# Poissons Ratio (z) = 0.07786 0.46254
#
# Static dielectric constant tensor:
#      x y z
#    x 3.355360 -0.018950 -0.276270 
#    y -0.018950 3.818800 0.332440 
#    z -0.276270 0.332440 3.661020 
# 
# 
# High freq. dielectric constant tensor:
#      x y z
#    x 1.756280 0.010060 -0.028890 
#    y 0.010060 1.777810 0.026520 
#    z -0.028890 0.026520 1.795050 
# 
# From -- ./inp_files/273193.got.cif
#   From: 2010.06.25/outbox.cif.g09.slc.cpg/sg2_137_cif.got.tgz:273193.got - 2010.06.27 13:26:56.
