data_PCOD8028815
_publ_section_title
;
Structure prediction by ZEFSAII (Michael W. Deem and Ramdas Pophale) SiO2 
 PCOD8028815
Probable space group: P -1
;
_chemical_formula_sum "Si O2"
_cell_formula_units_Z 16
_cell_length_a 8.776658
_cell_length_b 14.884355
_cell_length_c 9.403642
_cell_angle_alpha 107.480110
_cell_angle_beta 90.952518
_cell_angle_gamma 42.326253
_cell_volume 747.520040
_symmetry_space_group_name_H-M "P -1"
_symmetry_group_IT_number 2
_symmetry_cell_setting 'triclinic'
loop_
_space_group_symop_operation_xyz
x,y,z
-x,-y,-z
loop_
_atom_site_type_symbol
_atom_site_label
_atom_site_fract_x
_atom_site_fract_y
_atom_site_fract_z
Si Si1 0.721137 0.647731 0.552102
Si Si2 0.831598 0.860058 0.169161
Si Si3 0.576692 0.520001 0.373747
Si Si4 0.520392 0.274973 0.127809
Si Si5 0.557338 0.079115 0.497307
Si Si6 0.604637 0.073798 0.807994
Si Si7 0.957343 0.194694 0.147554
Si Si8 0.315804 0.560700 0.147470
O O1 0.604166 0.615430 0.455082
O O2 0.608748 0.715558 0.738699
O O3 0.667640 0.763794 0.508173
O O4 0.000000 0.500000 0.500000
O O5 0.606587 0.899957 0.158351
O O6 0.046732 0.694811 0.153483
O O7 0.772522 0.971539 0.334590
O O8 0.900281 0.877801 0.032620
O O9 0.500000 0.500000 0.500000
O O10 0.822693 0.358808 0.239194
O O11 0.363624 0.611191 0.300071
O O12 0.770722 0.197729 0.149447
O O13 0.351857 0.437622 0.143702
O O14 0.562239 0.183684 0.957471
O O15 0.622029 0.100371 0.656389
O O16 0.500000 0.000000 0.500000
O O17 0.855681 0.905063 0.769184
O O18 0.500000 0.500000 0.000000
#
# Coordination Sequence:
#
# PCOD8028815 Si02
#       8
#     2   2   2   2   2   2   2   2
#     4  12  28  45  74 105 143 184 239 288 344 424
#     4  11  24  44  71  96 138 184 234 284 352 407
#     4  11  24  44  71 102 140 187 232 280 359 408
#     4  11  25  45  67 103 142 181 234 287 346 417
#     4  10  27  46  65 103 140 180 227 293 352 402
#     4  11  26  41  70  99 138 178 237 287 354 396
#     4  11  23  45  69  98 141 188 224 283 348 429
#     4  11  23  44  70 101 140 184 231 287 345 421
#
# _framework density 21.404108000000001
#
# number of rings (size 3 to 8) (size 9 to 14) (size 15 to 20)
#    0.000    1.000    5.000    1.500   12.250    0.500 
#    0.000    1.875    0.000    0.000    0.000    0.000 
#    0.000    0.000    0.000    0.000    0.000    0.000 
#
# Total GULP energy -198430.606546 kJ/mol
# GULP energy per Si atom -12401.912909 kJ/mol
# Density = 2.135539 g / cm^3
# Si number density = 21.404108 Si / 1000 Ang^3
#
#
#
# Elastic Constant Matrix: (Units=GPa)
#
#
# Indices 1 2 3 4 5 6 
#
# 1 75.9292 43.5589 21.0973 -2.9601 1.4657 -7.5739
# 2 43.5589 150.3430 43.8631 -17.7373 -1.7478 -14.0235
# 3 21.0973 43.8631 139.9882 -4.7160 -4.2816 -0.1096
# 4 -2.9601 -17.7373 -4.7160 40.2635 4.7669 -0.5586
# 5 1.4657 -1.7478 -4.2816 4.7669 41.7345 2.0537
# 6 -7.5739 -14.0235 -0.1096 -0.5586 2.0537 40.6274
#
#
#
# Elastic Compliance Matrix: (Units=1/GPa)
#
#
# Indices 1 2 3 4 5 6 
#
# 1 0.016083 -0.004279 -0.001132 -0.000712 -0.000855 0.001552
# 2 -0.004279 0.009144 -0.002106 0.003525 -0.000204 0.002412
# 3 -0.001132 -0.002106 0.007993 -0.000188 0.000840 -0.000961
# 4 -0.000712 0.003525 -0.000188 0.026689 -0.002974 0.001601
# 5 -0.000855 -0.000204 0.000840 -0.002974 0.024482 -0.001506
# 6 0.001552 0.002412 -0.000961 0.001601 -0.001506 0.025831
#
#
# Mechanical properties :
#
#
# Convention : Reuss Voigt Hill
#
# Bulk Modulus (GPa) = 54.98725 64.81099 59.89912
# Shear Modulus (GPa) = 38.07578 41.70784 39.89181
#
# Velocity S-wave (km/s) = 4.22228 4.41907 4.32180
# Velocity P-wave (km/s) = 7.03676 7.50886 7.27664
#
# Compressibility (1/GPa) = 0.01818604
#
# Stress axis : x y z
#
# Youngs Moduli (GPa) = 62.17830 109.36243 125.11650
#
# Poissons Ratio (x) = 0.46792 0.14164
# Poissons Ratio (y) = 0.26604 0.26348
# Poissons Ratio (z) = 0.07039 0.23031
#
# Static dielectric constant tensor:
#      x y z
#    x 4.346330 1.055830 0.294140 
#    y 1.055830 6.126360 0.209240 
#    z 0.294140 0.209240 4.801620 
# 
# 
# High freq. dielectric constant tensor:
#      x y z
#    x 1.823410 -0.003900 0.000770 
#    y -0.003900 1.847870 -0.003520 
#    z 0.000770 -0.003520 1.865780 
# 
# From -- ./inp_files/207773.got.cif
#   From: 2010.06.25/outbox.cif.g09.slc.cpg/sg2_104_cif.got.tgz:207773.got - 2010.06.27 13:26:56.
