data_PCOD8028820
_publ_section_title
;
Structure prediction by ZEFSAII (Michael W. Deem and Ramdas Pophale) SiO2 
 PCOD8028820
Probable space group: P -1
;
_chemical_formula_sum "Si O2"
_cell_formula_units_Z 16
_cell_length_a 5.473082
_cell_length_b 9.346720
_cell_length_c 14.091772
_cell_angle_alpha 103.385460
_cell_angle_beta 74.509791
_cell_angle_gamma 83.001360
_cell_volume 662.716371
_symmetry_space_group_name_H-M "P -1"
_symmetry_group_IT_number 2
_symmetry_cell_setting 'triclinic'
loop_
_space_group_symop_operation_xyz
x,y,z
-x,-y,-z
loop_
_atom_site_type_symbol
_atom_site_label
_atom_site_fract_x
_atom_site_fract_y
_atom_site_fract_z
Si Si1 0.604163 0.286185 0.532811
Si Si2 0.662431 0.286510 0.880084
Si Si3 0.489283 0.879062 0.304749
Si Si4 0.266474 0.725148 0.839538
Si Si5 0.942186 0.979002 0.170319
Si Si6 0.086860 0.155337 0.352406
Si Si7 0.382423 0.395594 0.379234
Si Si8 0.739714 0.609672 0.915094
O O1 0.460193 0.202551 0.612057
O O2 0.406911 0.352952 0.481157
O O3 0.700687 0.425432 0.595600
O O4 0.839278 0.166456 0.446614
O O5 0.652600 0.219233 0.765849
O O6 0.799915 0.429271 0.881450
O O7 0.831784 0.156650 0.910502
O O8 0.376075 0.330646 0.961403
O O9 0.760944 0.893290 0.236060
O O10 0.320283 0.044826 0.364210
O O11 0.351458 0.669759 0.715152
O O12 0.513534 0.666352 0.870855
O O13 0.010200 0.662427 0.882677
O O14 0.202313 0.909258 0.879198
O O15 0.061298 0.091552 0.241288
O O16 0.152851 0.319162 0.352120
#
# Coordination Sequence:
#
# PCOD8028820 Si02
#       8
#     2   2   2   2   2   2   2   2
#     4  11  24  40  66 100 131 192 233 292 356 423
#     4  10  27  48  71 109 138 186 238 303 349 440
#     4  11  24  43  68  98 140 185 235 292 357 421
#     4  12  25  48  74 109 144 194 234 299 361 426
#     4  11  25  43  73 100 149 183 242 294 357 431
#     4  11  21  44  62  97 139 187 231 294 347 420
#     4  11  24  41  66 100 140 176 242 295 345 428
#     4  11  28  48  80 105 144 191 239 296 369 426
#
# _framework density 24.143058
#
# number of rings (size 3 to 8) (size 9 to 14) (size 15 to 20)
#    0.000    1.000    2.500    2.250    7.000    6.000 
#    2.250    0.000    0.000    0.000    0.000    0.000 
#    0.000    0.000    0.000    0.000    0.000    0.000 
#
# Total GULP energy -198400.009285 kJ/mol
# GULP energy per Si atom -12400.000580 kJ/mol
# Density = 2.408811 g / cm^3
# Si number density = 24.143058 Si / 1000 Ang^3
#
#
#
# Elastic Constant Matrix: (Units=GPa)
#
#
# Indices 1 2 3 4 5 6 
#
# 1 84.3959 18.2467 5.4622 -7.5108 -6.6752 10.1400
# 2 18.2467 111.5367 20.2979 3.5104 4.3926 0.2313
# 3 5.4622 20.2979 43.7825 -5.5482 -12.7533 4.2860
# 4 -7.5108 3.5104 -5.5482 43.4239 1.7277 -7.4341
# 5 -6.6752 4.3926 -12.7533 1.7277 25.8187 -8.6643
# 6 10.1400 0.2313 4.2860 -7.4341 -8.6643 39.4929
#
#
#
# Elastic Compliance Matrix: (Units=1/GPa)
#
#
# Indices 1 2 3 4 5 6 
#
# 1 0.013056 -0.002513 0.001011 0.002059 0.003387 -0.002316
# 2 -0.002513 0.010871 -0.006620 -0.001988 -0.005749 -0.000335
# 3 0.001011 -0.006620 0.031110 0.004166 0.016766 0.000866
# 4 0.002059 -0.001988 0.004166 0.024702 0.002710 0.004275
# 5 0.003387 -0.005749 0.016766 0.002710 0.051778 0.009214
# 6 -0.002316 -0.000335 0.000866 0.004275 0.009214 0.028650
#
#
# Mechanical properties :
#
#
# Convention : Reuss Voigt Hill
#
# Bulk Modulus (GPa) = 25.77825 36.41431 31.09628
# Shear Modulus (GPa) = 26.40696 34.79434 30.60065
#
# Velocity S-wave (km/s) = 3.31081 3.80040 3.56402
# Velocity P-wave (km/s) = 5.03147 5.86283 5.46299
#
# Compressibility (1/GPa) = 0.03879239
#
# Stress axis : x y z
#
# Youngs Moduli (GPa) = 76.59094 91.98593 32.14379
#
# Poissons Ratio (x) = 0.23119 -0.03249
# Poissons Ratio (y) = 0.19249 0.21279
# Poissons Ratio (z) = -0.07741 0.60896
#
# Static dielectric constant tensor:
#      x y z
#    x 4.105730 -0.045250 -0.012400 
#    y -0.045250 4.716590 0.227840 
#    z -0.012400 0.227840 4.426260 
# 
# 
# High freq. dielectric constant tensor:
#      x y z
#    x 1.946860 0.000890 -0.004850 
#    y 0.000890 1.974310 0.010730 
#    z -0.004850 0.010730 1.957080 
# 
# From -- ./inp_files/38783.got.cif
#   From: 2010.06.25/outbox.cif.g09.slc.cpg/sg2_20_cif.got.tgz:38783.got - 2010.06.27 13:26:56.
