data_PCOD8028520
_publ_section_title
;
Structure prediction by ZEFSAII (Michael W. Deem and Ramdas Pophale) SiO2 
 PCOD8028520
Probable space group: P -1
;
_chemical_formula_sum "Si O2"
_cell_formula_units_Z 16
_cell_length_a 11.360225
_cell_length_b 14.606453
_cell_length_c 6.176420
_cell_angle_alpha 49.362465
_cell_angle_beta 91.966181
_cell_angle_gamma 111.014628
_cell_volume 696.681944
_symmetry_space_group_name_H-M "P -1"
_symmetry_group_IT_number 2
_symmetry_cell_setting 'triclinic'
loop_
_space_group_symop_operation_xyz
x,y,z
-x,-y,-z
loop_
_atom_site_type_symbol
_atom_site_label
_atom_site_fract_x
_atom_site_fract_y
_atom_site_fract_z
Si Si1 0.338648 0.006520 0.331168
Si Si2 0.962864 0.434353 0.341302
Si Si3 0.720104 0.415143 0.531467
Si Si4 0.903726 0.706582 0.233506
Si Si5 0.604155 0.222285 0.196492
Si Si6 0.509795 0.638745 0.700254
Si Si7 0.901139 0.042855 0.315169
Si Si8 0.768913 0.863317 0.205460
O O1 0.488254 0.111854 0.218343
O O2 0.328278 0.856103 0.543952
O O3 0.240908 0.007585 0.509254
O O4 0.298982 0.051455 0.037555
O O5 0.804173 0.373017 0.429149
O O6 0.000000 0.500000 0.500000
O O7 0.029113 0.332296 0.498054
O O8 0.000000 0.500000 0.000000
O O9 0.792633 0.576257 0.314178
O O10 0.574465 0.380923 0.492929
O O11 0.711448 0.335457 0.875635
O O12 0.839342 0.805021 0.135511
O O13 0.025989 0.794014 0.947720
O O14 0.546996 0.298081 0.225524
O O15 0.661563 0.735903 0.521897
O O16 0.500000 0.500000 0.000000
O O17 0.879892 0.970440 0.195646
O O18 0.000000 0.000000 0.500000
#
# Coordination Sequence:
#
# PCOD8028520 Si02
#       8
#     2   2   2   2   2   2   2   2
#     4  11  25  47  75 102 150 191 250 307 373 459
#     4  10  25  47  71 108 152 200 250 306 382 466
#     4  11  26  48  73 108 147 193 249 310 388 454
#     4  11  26  46  74 107 148 199 248 313 383 460
#     4  11  25  48  73 108 146 198 243 312 379 450
#     4  12  28  43  77 109 147 193 246 320 379 453
#     4  12  26  47  71 104 146 195 250 308 378 459
#     4  12  26  47  70 111 141 192 256 310 380 449
#
# _framework density 22.966003000000001
#
# number of rings (size 3 to 8) (size 9 to 14) (size 15 to 20)
#    0.000    0.750    3.750    1.875    8.750    4.500 
#    0.000    0.000    0.000    0.000    0.000    0.000 
#    0.000    0.000    0.000    0.000    0.000    0.000 
#
# Total GULP energy -198216.369401 kJ/mol
# GULP energy per Si atom -12388.523088 kJ/mol
# Density = 2.291373 g / cm^3
# Si number density = 22.966003 Si / 1000 Ang^3
#
#
#
# Elastic Constant Matrix: (Units=GPa)
#
#
# Indices 1 2 3 4 5 6 
#
# 1 84.3594 9.8821 19.4192 -2.4271 13.8360 -3.2704
# 2 9.8821 83.3868 30.0836 -10.3822 6.4886 3.9763
# 3 19.4192 30.0836 138.7654 -10.2091 9.3618 10.2289
# 4 -2.4271 -10.3822 -10.2091 35.8015 0.5239 -4.3638
# 5 13.8360 6.4886 9.3618 0.5239 60.5155 -2.7235
# 6 -3.2704 3.9763 10.2289 -4.3638 -2.7235 33.4520
#
#
#
# Elastic Compliance Matrix: (Units=1/GPa)
#
#
# Indices 1 2 3 4 5 6 
#
# 1 0.012793 -0.000789 -0.001539 0.000440 -0.002531 0.001666
# 2 -0.000789 0.013464 -0.002475 0.003087 -0.000934 -0.000594
# 3 -0.001539 -0.002475 0.008272 0.001270 -0.000776 -0.002283
# 4 0.000440 0.003087 0.001270 0.029606 -0.000745 0.003089
# 5 -0.002531 -0.000934 -0.000776 -0.000745 0.017394 0.001420
# 6 0.001666 -0.000594 -0.002283 0.003089 0.001420 0.031344
#
#
# Mechanical properties :
#
#
# Convention : Reuss Voigt Hill
#
# Bulk Modulus (GPa) = 40.12075 47.25352 43.68713
# Shear Modulus (GPa) = 38.23031 42.42893 40.32962
#
# Velocity S-wave (km/s) = 4.08444 4.30288 4.19508
# Velocity P-wave (km/s) = 6.30484 6.73101 6.52141
#
# Compressibility (1/GPa) = 0.02492476
#
# Stress axis : x y z
#
# Youngs Moduli (GPa) = 78.16719 74.27302 120.88392
#
# Poissons Ratio (x) = 0.05857 0.18605
# Poissons Ratio (y) = 0.06164 0.29914
# Poissons Ratio (z) = 0.12030 0.18380
#
# Static dielectric constant tensor:
#      x y z
#    x 4.817570 0.048110 -0.034950 
#    y 0.048110 4.085660 0.020320 
#    z -0.034950 0.020320 4.638240 
# 
# 
# High freq. dielectric constant tensor:
#      x y z
#    x 1.932710 0.003300 0.002250 
#    y 0.003300 1.890790 -0.010930 
#    z 0.002250 -0.010930 1.922630 
# 
# From -- ./inp_files/76991.got.cif
#   From: 2010.06.25/outbox.cif.g09.slc.cpg/sg2_39_cif.got.tgz:76991.got - 2010.06.27 13:26:56.
