data_PCOD8028747
_publ_section_title
;
Structure prediction by ZEFSAII (Michael W. Deem and Ramdas Pophale) SiO2 
 PCOD8028747
Probable space group: P -1
;
_chemical_formula_sum "Si O2"
_cell_formula_units_Z 16
_cell_length_a 21.479329
_cell_length_b 11.796714
_cell_length_c 8.472227
_cell_angle_alpha 37.466476
_cell_angle_beta 116.497842
_cell_angle_gamma 141.652146
_cell_volume 716.355603
_symmetry_space_group_name_H-M "P -1"
_symmetry_group_IT_number 2
_symmetry_cell_setting 'triclinic'
loop_
_space_group_symop_operation_xyz
x,y,z
-x,-y,-z
loop_
_atom_site_type_symbol
_atom_site_label
_atom_site_fract_x
_atom_site_fract_y
_atom_site_fract_z
Si Si1 0.018098 0.321608 0.695413
Si Si2 0.661044 0.738695 0.205782
Si Si3 0.067699 0.936317 0.459504
Si Si4 0.269785 0.764813 0.466464
Si Si5 0.809417 0.719883 0.294373
Si Si6 0.142390 0.421049 0.193096
Si Si7 0.263209 0.052720 0.591633
Si Si8 0.434194 0.267760 0.323117
O O1 0.998884 0.211577 0.616524
O O2 0.000000 0.500000 0.500000
O O3 0.147581 0.560692 0.623506
O O4 0.937605 0.030998 0.039163
O O5 0.746893 0.782859 0.167779
O O6 0.679678 0.765125 0.383311
O O7 0.530422 0.396015 0.409980
O O8 0.687689 0.999279 0.879367
O O9 0.975845 0.726784 0.729289
O O10 0.130098 0.267147 0.192050
O O11 0.155199 0.951153 0.544848
O O12 0.262154 0.545732 0.622523
O O13 0.355905 0.940413 0.518806
O O14 0.813590 0.618885 0.573896
O O15 0.232878 0.770720 0.875324
O O16 0.356247 0.260468 0.327983
O O17 0.500000 0.500000 0.000000
#
# Coordination Sequence:
#
# PCOD8028747 Si02
#       8
#     2   2   2   2   2   2   2   2
#     4  12  24  40  68 103 141 182 217 275 345 410
#     4  11  23  46  69  97 133 182 232 285 334 394
#     4  11  25  41  66 105 141 177 224 269 340 418
#     4  11  23  45  65  97 141 181 229 278 340 399
#     4  12  24  42  70  99 142 178 224 280 342 407
#     4  11  25  42  65 104 141 180 219 276 336 418
#     4  12  23  45  72  95 138 180 226 280 345 397
#     4  10  26  46  71  99 131 181 240 286 332 396
#
# _framework density 22.335274999999999
#
# number of rings (size 3 to 8) (size 9 to 14) (size 15 to 20)
#    0.000    0.750    5.000    1.875    3.500    3.500 
#    0.000    3.125    0.000    0.000    0.000    0.000 
#    0.000    0.000    0.000    0.000    0.000    0.000 
#
# Total GULP energy -198416.020363 kJ/mol
# GULP energy per Si atom -12401.001273 kJ/mol
# Density = 2.228444 g / cm^3
# Si number density = 22.335275 Si / 1000 Ang^3
#
#
#
# Elastic Constant Matrix: (Units=GPa)
#
#
# Indices 1 2 3 4 5 6 
#
# 1 85.1322 25.2581 42.8667 -6.6861 -5.3442 -21.8698
# 2 25.2581 110.4197 28.6698 -36.9536 -0.1359 -2.9687
# 3 42.8667 28.6698 79.7889 -15.1494 0.1527 -0.1553
# 4 -6.6861 -36.9536 -15.1494 28.7927 -1.0954 5.7849
# 5 -5.3442 -0.1359 0.1527 -1.0954 29.2731 -7.1640
# 6 -21.8698 -2.9687 -0.1553 5.7849 -7.1640 38.9555
#
#
#
# Elastic Compliance Matrix: (Units=1/GPa)
#
#
# Indices 1 2 3 4 5 6 
#
# 1 0.023379 -0.005248 -0.012721 -0.010862 0.007749 0.015712
# 2 -0.005248 0.017479 0.000832 0.022651 -0.001310 -0.005215
# 3 -0.012721 0.000832 0.021140 0.010964 -0.004323 -0.009417
# 4 -0.010862 0.022651 0.010964 0.070003 -0.003056 -0.015285
# 5 0.007749 -0.001310 -0.004323 -0.003056 0.038351 0.011740
# 6 0.015712 -0.005215 -0.009417 -0.015285 0.011740 0.038485
#
#
# Mechanical properties :
#
#
# Convention : Reuss Voigt Hill
#
# Bulk Modulus (GPa) = 36.07007 52.10334 44.08670
# Shear Modulus (GPa) = 19.81352 31.30733 25.56043
#
# Velocity S-wave (km/s) = 2.98165 3.74799 3.38656
# Velocity P-wave (km/s) = 5.29510 6.48910 5.92226
#
# Compressibility (1/GPa) = 0.02772382
#
# Stress axis : x y z
#
# Youngs Moduli (GPa) = 42.77407 57.21039 47.30296
#
# Poissons Ratio (x) = 0.30023 0.60175
# Poissons Ratio (y) = 0.22447 -0.03934
# Poissons Ratio (z) = 0.54413 -0.04758
#
# Static dielectric constant tensor:
#      x y z
#    x 4.230100 -0.005740 -0.123110 
#    y -0.005740 4.769670 -0.382040 
#    z -0.123110 -0.382040 3.967420 
# 
# 
# High freq. dielectric constant tensor:
#      x y z
#    x 1.883420 -0.016390 -0.006640 
#    y -0.016390 1.896270 -0.008370 
#    z -0.006640 -0.008370 1.866900 
# 
# From -- ./inp_files/281539.got.cif
#   From: 2010.06.25/outbox.cif.g09.slc.cpg/sg2_141_cif.got.tgz:281539.got - 2010.06.27 13:26:56.
