data_PCOD8028202
_publ_section_title
;
Structure prediction by ZEFSAII (Michael W. Deem and Ramdas Pophale) SiO2 
 PCOD8028202
Probable space group: P -1
;
_chemical_formula_sum "Si O2"
_cell_formula_units_Z 16
_cell_length_a 7.572792
_cell_length_b 12.437945
_cell_length_c 15.346556
_cell_angle_alpha 30.967421
_cell_angle_beta 107.549714
_cell_angle_gamma 113.187569
_cell_volume 681.704100
_symmetry_space_group_name_H-M "P -1"
_symmetry_group_IT_number 2
_symmetry_cell_setting 'triclinic'
loop_
_space_group_symop_operation_xyz
x,y,z
-x,-y,-z
loop_
_atom_site_type_symbol
_atom_site_label
_atom_site_fract_x
_atom_site_fract_y
_atom_site_fract_z
Si Si1 0.482903 0.651389 0.813115
Si Si2 0.802930 0.305630 0.877360
Si Si3 0.080107 0.704087 0.720608
Si Si4 0.228045 0.532002 0.520844
Si Si5 0.202184 0.901704 0.158712
Si Si6 0.877208 0.916642 0.231709
Si Si7 0.421255 0.390427 0.807589
Si Si8 0.900643 0.935971 0.662540
O O1 0.307247 0.752324 0.735894
O O2 0.446475 0.510121 0.819257
O O3 0.670992 0.852802 0.693619
O O4 0.500000 0.500000 0.000000
O O5 0.858873 0.261617 0.818412
O O6 0.629239 0.417095 0.776149
O O7 0.991549 0.458182 0.846378
O O8 0.747308 0.080602 0.081127
O O9 0.984162 0.744711 0.769556
O O10 0.033494 0.858330 0.532944
O O11 0.321302 0.775826 0.327443
O O12 0.264424 0.329535 0.610537
O O13 0.300504 0.510493 0.644684
O O14 0.000000 0.500000 0.500000
O O15 0.009594 0.928691 0.156571
O O16 0.328921 0.134684 0.984657
O O17 0.014203 0.987461 0.284517
#
# Coordination Sequence:
#
# PCOD8028202 Si02
#       8
#     2   2   2   2   2   2   2   2
#     4  12  27  47  75 104 146 194 246 298 372 439
#     4  12  24  44  71 103 148 188 240 304 361 439
#     4  11  26  46  75 103 146 194 239 314 359 434
#     4  10  25  44  71 105 139 187 241 298 359 438
#     4  11  24  44  70 103 141 190 237 292 374 420
#     4  11  24  43  75 100 145 187 245 298 362 445
#     4  12  26  47  69 108 150 188 245 304 361 442
#     4  11  25  50  68 112 142 188 252 300 368 436
#
# _framework density 23.470593999999998
#
# number of rings (size 3 to 8) (size 9 to 14) (size 15 to 20)
#    0.000    0.750    2.500    4.125   10.500    1.500 
#    4.500    0.000    0.000    0.000    0.000    0.000 
#    0.000    0.000    0.000    0.000    0.000    0.000 
#
# Total GULP energy -198397.984859 kJ/mol
# GULP energy per Si atom -12399.874054 kJ/mol
# Density = 2.341717 g / cm^3
# Si number density = 23.470594 Si / 1000 Ang^3
#
#
#
# Elastic Constant Matrix: (Units=GPa)
#
#
# Indices 1 2 3 4 5 6 
#
# 1 70.2682 16.3347 7.3707 22.9839 10.4371 -4.7233
# 2 16.3347 127.9639 19.2934 17.4940 8.8945 0.8086
# 3 7.3707 19.2934 126.2853 8.3762 13.0508 4.8370
# 4 22.9839 17.4940 8.3762 30.5766 11.2075 2.1639
# 5 10.4371 8.8945 13.0508 11.2075 33.9066 -2.0046
# 6 -4.7233 0.8086 4.8370 2.1639 -2.0046 24.5535
#
#
#
# Elastic Compliance Matrix: (Units=1/GPa)
#
#
# Indices 1 2 3 4 5 6 
#
# 1 0.019534 -0.000466 -0.000228 -0.014442 -0.000732 0.005031
# 2 -0.000466 0.008619 -0.000982 -0.004198 -0.000342 0.000162
# 3 -0.000228 -0.000982 0.008482 -0.000386 -0.002921 -0.001887
# 4 -0.014442 -0.004198 -0.000386 0.050885 -0.011597 -0.007995
# 5 -0.000732 -0.000342 -0.002921 -0.011597 0.035021 0.004327
# 6 0.005031 0.000162 -0.001887 -0.007995 0.004327 0.043119
#
#
# Mechanical properties :
#
#
# Convention : Reuss Voigt Hill
#
# Bulk Modulus (GPa) = 30.04512 45.61276 37.82894
# Shear Modulus (GPa) = 27.76144 36.57526 32.16835
#
# Velocity S-wave (km/s) = 3.44294 3.95187 3.70615
# Velocity P-wave (km/s) = 5.35109 6.34817 5.87083
#
# Compressibility (1/GPa) = 0.03328327
#
# Stress axis : x y z
#
# Youngs Moduli (GPa) = 51.19230 116.02408 117.90182
#
# Poissons Ratio (x) = 0.05403 0.02690
# Poissons Ratio (y) = 0.02384 0.11577
# Poissons Ratio (z) = 0.01168 0.11393
#
# Static dielectric constant tensor:
#      x y z
#    x 4.143360 -0.069150 0.127800 
#    y -0.069150 4.317180 -0.130400 
#    z 0.127800 -0.130400 4.859580 
# 
# 
# High freq. dielectric constant tensor:
#      x y z
#    x 1.915910 -0.003690 0.010120 
#    y -0.003690 1.937320 -0.000960 
#    z 0.010120 -0.000960 1.947440 
# 
# From -- ./inp_files/398707.got.cif
#   From: 2010.06.25/outbox.cif.g09.slc.cpg/sg2_200_cif.got.tgz:398707.got - 2010.06.27 13:26:56.
