data_PCOD8028964
_publ_section_title
;
Structure prediction by ZEFSAII (Michael W. Deem and Ramdas Pophale) SiO2 
 PCOD8028964
Probable space group: P -1
;
_chemical_formula_sum "Si O2"
_cell_formula_units_Z 16
_cell_length_a 8.926705
_cell_length_b 18.037875
_cell_length_c 10.413926
_cell_angle_alpha 137.651256
_cell_angle_beta 122.035680
_cell_angle_gamma 51.479238
_cell_volume 875.903277
_symmetry_space_group_name_H-M "P -1"
_symmetry_group_IT_number 2
_symmetry_cell_setting 'triclinic'
loop_
_space_group_symop_operation_xyz
x,y,z
-x,-y,-z
loop_
_atom_site_type_symbol
_atom_site_label
_atom_site_fract_x
_atom_site_fract_y
_atom_site_fract_z
Si Si1 0.876406 0.421945 0.707692
Si Si2 0.541536 0.616408 0.193585
Si Si3 0.698068 0.042860 0.238532
Si Si4 0.289262 0.344298 0.924580
Si Si5 0.076158 0.403285 0.521706
Si Si6 0.787703 0.821066 0.145076
Si Si7 0.816658 0.237939 0.613659
Si Si8 0.733030 0.821023 0.841779
O O1 0.796824 0.323950 0.592991
O O2 0.083328 0.390626 0.823121
O O3 0.903159 0.420741 0.564795
O O4 0.720315 0.552536 0.846927
O O5 0.547493 0.676544 0.135102
O O6 0.745208 0.578704 0.309199
O O7 0.374705 0.712971 0.324630
O O8 0.500000 0.500000 0.000000
O O9 0.845810 0.106800 0.404899
O O10 0.489183 0.147277 0.252100
O O11 0.696717 0.966043 0.268803
O O12 0.763670 0.947161 0.026239
O O13 0.336098 0.218593 0.859599
O O14 0.136141 0.268773 0.320871
O O15 0.000000 0.500000 0.500000
O O16 0.007720 0.772346 0.228944
O O17 0.784943 0.757836 0.925374
#
# Coordination Sequence:
#
# PCOD8028964 Si02
#       8
#     2   2   2   2   2   2   2   2
#     4   9  19  32  55  79 112 143 181 222 282 322
#     4  11  22  34  56  83 116 140 179 235 281 316
#     4   9  19  36  59  80 110 152 184 224 270 324
#     4   9  17  34  52  82 107 147 179 227 272 329
#     4  11  22  37  58  82 111 150 186 219 274 345
#     4   9  19  33  62  78 106 144 192 220 270 327
#     4  11  19  36  58  84 110 142 185 235 274 317
#     4   9  19  36  57  80 110 149 185 216 277 327
#
# _framework density 18.266857000000002
#
# number of rings (size 3 to 8) (size 9 to 14) (size 15 to 20)
#    0.750    1.500    2.500    1.125    3.500    0.000 
#    0.000    3.125    2.750    0.000    0.000    0.000 
#    0.000    0.000    0.000    0.000    0.000    0.000 
#
# Total GULP energy -198264.356990 kJ/mol
# GULP energy per Si atom -12391.522312 kJ/mol
# Density = 1.822528 g / cm^3
# Si number density = 18.266857 Si / 1000 Ang^3
#
#
#
# Elastic Constant Matrix: (Units=GPa)
#
#
# Indices 1 2 3 4 5 6 
#
# 1 105.5147 47.4979 51.6069 -2.0503 -12.3244 27.8821
# 2 47.4979 91.3986 45.4291 -3.9353 1.6215 22.8673
# 3 51.6069 45.4291 97.4923 8.9460 -11.1511 17.8576
# 4 -2.0503 -3.9353 8.9460 31.6061 3.8985 2.3693
# 5 -12.3244 1.6215 -11.1511 3.8985 28.6209 1.4364
# 6 27.8821 22.8673 17.8576 2.3693 1.4364 32.4408
#
#
#
# Elastic Compliance Matrix: (Units=1/GPa)
#
#
# Indices 1 2 3 4 5 6 
#
# 1 0.016851 -0.004022 -0.004843 0.001951 0.005802 -0.009382
# 2 -0.004022 0.017888 -0.006214 0.004846 -0.005533 -0.005841
# 3 -0.004843 -0.006214 0.017114 -0.006606 0.005867 -0.000655
# 4 0.001951 0.004846 -0.006606 0.035338 -0.006634 -0.003743
# 5 0.005802 -0.005533 0.005867 -0.006634 0.041225 -0.005657
# 6 -0.009382 -0.005841 -0.000655 -0.003743 -0.005657 0.043890
#
#
# Mechanical properties :
#
#
# Convention : Reuss Voigt Hill
#
# Bulk Modulus (GPa) = 46.09305 64.83036 55.46171
# Shear Modulus (GPa) = 23.84409 28.52503 26.18456
#
# Velocity S-wave (km/s) = 3.61684 3.95596 3.79020
# Velocity P-wave (km/s) = 6.53682 7.51225 7.04145
#
# Compressibility (1/GPa) = 0.02169524
#
# Stress axis : x y z
#
# Youngs Moduli (GPa) = 59.34304 55.90372 58.43264
#
# Poissons Ratio (x) = 0.22483 0.28298
# Poissons Ratio (y) = 0.23866 0.36311
# Poissons Ratio (z) = 0.28739 0.34739
#
# Static dielectric constant tensor:
#      x y z
#    x 3.279480 0.200320 -0.055690 
#    y 0.200320 3.328780 -0.020200 
#    z -0.055690 -0.020200 3.498380 
# 
# 
# High freq. dielectric constant tensor:
#      x y z
#    x 1.682700 0.012800 0.005480 
#    y 0.012800 1.702360 0.000760 
#    z 0.005480 0.000760 1.710230 
# 
# From -- ./inp_files/215932.got.cif
#   From: 2010.06.25/outbox.cif.g09.slc.cpg/sg2_108_cif.got.tgz:215932.got - 2010.06.27 13:26:56.
