data_PCOD8028462
_publ_section_title
;
Structure prediction by ZEFSAII (Michael W. Deem and Ramdas Pophale) SiO2 
 PCOD8028462
Probable space group: P -1
;
_chemical_formula_sum "Si O2"
_cell_formula_units_Z 12
_cell_length_a 16.007698
_cell_length_b 8.226714
_cell_length_c 6.952001
_cell_angle_alpha 82.419788
_cell_angle_beta 127.389424
_cell_angle_gamma 61.034494
_cell_volume 502.914280
_symmetry_space_group_name_H-M "P -1"
_symmetry_group_IT_number 2
_symmetry_cell_setting 'triclinic'
loop_
_space_group_symop_operation_xyz
x,y,z
-x,-y,-z
loop_
_atom_site_type_symbol
_atom_site_label
_atom_site_fract_x
_atom_site_fract_y
_atom_site_fract_z
Si Si1 0.532382 0.633883 0.430430
Si Si2 0.642399 0.748637 0.829760
Si Si3 0.798028 0.879146 0.065863
Si Si4 0.700061 0.496031 0.313104
Si Si5 0.906938 0.991367 0.514570
Si Si6 0.016107 0.669378 0.066360
O O1 0.500000 0.500000 0.500000
O O2 0.671231 0.567359 0.747912
O O3 0.575208 0.574137 0.277019
O O4 0.380376 0.901307 0.214959
O O5 0.500000 0.000000 0.500000
O O6 0.799474 0.677612 0.079999
O O7 0.608593 0.706810 0.997254
O O8 0.858177 0.882364 0.349483
O O9 0.884870 0.858101 0.008909
O O10 0.824634 0.475895 0.586286
O O11 0.767303 0.256473 0.349800
O O12 0.000000 0.000000 0.500000
O O13 0.000416 0.821327 0.853020
O O14 0.000000 0.500000 0.000000
#
# Coordination Sequence:
#
# PCOD8028462 Si02
#       6
#     2   2   2   2   2   2
#     4  11  25  44  73 103 143 186 243 300 359 427
#     4  10  25  46  72 104 148 187 241 296 360 429
#     4  11  25  45  70 103 147 184 238 295 362 420
#     4  12  26  44  76 105 144 192 243 293 366 427
#     4  12  27  44  73 106 148 187 242 299 354 427
#     4  12  27  45  74 106 145 193 243 293 365 432
#
# _framework density 23.860925999999999
#
# number of rings (size 3 to 8) (size 9 to 14) (size 15 to 20)
#    0.000    0.667    1.667    4.500    7.000    9.333 
#    0.000    0.000    0.000    0.000    0.000    0.000 
#    0.000    0.000    0.000    0.000    0.000    0.000 
#
# Total GULP energy -148694.551715 kJ/mol
# GULP energy per Si atom -12391.212643 kJ/mol
# Density = 2.380662 g / cm^3
# Si number density = 23.860926 Si / 1000 Ang^3
#
#
#
# Elastic Constant Matrix: (Units=GPa)
#
#
# Indices 1 2 3 4 5 6 
#
# 1 153.9400 53.1580 56.3721 0.3781 -35.9349 -16.2169
# 2 53.1580 99.4624 49.5554 18.8256 -4.1159 -6.9862
# 3 56.3721 49.5554 134.7759 10.1996 -31.8424 6.3026
# 4 0.3781 18.8256 10.1996 39.0328 6.4139 5.2348
# 5 -35.9349 -4.1159 -31.8424 6.4139 49.6821 4.5587
# 6 -16.2169 -6.9862 6.3026 5.2348 4.5587 50.8543
#
#
#
# Elastic Compliance Matrix: (Units=1/GPa)
#
#
# Indices 1 2 3 4 5 6 
#
# 1 0.010142 -0.004568 -0.001412 0.001251 0.005694 0.002143
# 2 -0.004568 0.015924 -0.004636 -0.006014 -0.004392 0.002318
# 3 -0.001412 -0.004636 0.011470 -0.001405 0.006397 -0.002937
# 4 0.001251 -0.006014 -0.001405 0.029945 -0.004087 -0.002969
# 5 0.005694 -0.004392 0.006397 -0.004087 0.028669 -0.001729
# 6 0.002143 0.002318 -0.002937 -0.002969 -0.001729 0.021491
#
#
# Mechanical properties :
#
#
# Convention : Reuss Voigt Hill
#
# Bulk Modulus (GPa) = 61.32872 78.48325 69.90599
# Shear Modulus (GPa) = 34.64840 43.18668 38.91754
#
# Velocity S-wave (km/s) = 3.81477 4.25895 4.04296
# Velocity P-wave (km/s) = 6.72025 7.55964 7.15227
#
# Compressibility (1/GPa) = 0.01630557
#
# Stress axis : x y z
#
# Youngs Moduli (GPa) = 98.59652 62.79757 87.18506
#
# Poissons Ratio (x) = 0.28683 0.12313
# Poissons Ratio (y) = 0.45035 0.40415
# Poissons Ratio (z) = 0.13924 0.29110
#
# Static dielectric constant tensor:
#      x y z
#    x 4.521610 0.391690 0.057450 
#    y 0.391690 5.016810 0.541220 
#    z 0.057450 0.541220 4.458530 
# 
# 
# High freq. dielectric constant tensor:
#      x y z
#    x 1.957950 0.012130 -0.001060 
#    y 0.012130 1.959560 0.023690 
#    z -0.001060 0.023690 1.948500 
# 
# From -- ./inp_files/16972.got.cif
#   From: 2010.06.25/outbox.cif.g09.slc.cpg/sg2_9_cif.got.tgz:16972.got - 2010.06.27 13:26:56.
