data_PCOD8028832
_publ_section_title
;
Structure prediction by ZEFSAII (Michael W. Deem and Ramdas Pophale) SiO2 
 PCOD8028832
Probable space group: P -1
;
_chemical_formula_sum "Si O2"
_cell_formula_units_Z 12
_cell_length_a 10.364415
_cell_length_b 13.832125
_cell_length_c 8.755480
_cell_angle_alpha 87.493843
_cell_angle_beta 70.648462
_cell_angle_gamma 137.807196
_cell_volume 707.715656
_symmetry_space_group_name_H-M "P -1"
_symmetry_group_IT_number 2
_symmetry_cell_setting 'triclinic'
loop_
_space_group_symop_operation_xyz
x,y,z
-x,-y,-z
loop_
_atom_site_type_symbol
_atom_site_label
_atom_site_fract_x
_atom_site_fract_y
_atom_site_fract_z
Si Si1 0.975828 0.827127 0.523181
Si Si2 0.552094 0.654093 0.324763
Si Si3 0.148494 0.337146 0.702408
Si Si4 0.172921 0.511922 0.906972
Si Si5 0.679327 0.525822 0.862817
Si Si6 0.346885 0.182227 0.446763
O O1 0.034357 0.806035 0.340713
O O2 0.888168 0.701574 0.691238
O O3 0.778179 0.794469 0.574791
O O4 0.207527 0.005963 0.481034
O O5 0.362343 0.495068 0.511647
O O6 0.766719 0.702508 0.219374
O O7 0.450882 0.617575 0.199213
O O8 0.629504 0.793663 0.379095
O O9 0.054781 0.369615 0.844384
O O10 0.407813 0.688056 0.737252
O O11 0.217017 0.484894 0.051140
O O12 0.000000 0.500000 0.000000
O O13 0.500000 0.500000 0.000000
#
# Coordination Sequence:
#
# PCOD8028832 Si02
#       6
#     2   2   2   2   2   2
#     4   9  17  31  56  75  96 129 167 208 239 290
#     4   8  14  27  51  71  96 126 164 204 235 292
#     4   8  14  29  48  71  96 132 162 191 249 294
#     4  11  21  33  50  74 104 132 162 203 247 294
#     4  11  17  31  52  78  97 125 171 206 242 281
#     4   9  17  33  51  77 101 127 164 202 250 288
#
# _framework density 16.955960999999999
#
# number of rings (size 3 to 8) (size 9 to 14) (size 15 to 20)
#    0.000    2.667    3.333    2.000    0.000    0.000 
#    0.000   11.667    0.000    0.000    0.000    0.000 
#    0.000    0.000    0.000    0.000    0.000    0.000 
#
# Total GULP energy -148703.781698 kJ/mol
# GULP energy per Si atom -12391.981808 kJ/mol
# Density = 1.691737 g / cm^3
# Si number density = 16.955961 Si / 1000 Ang^3
#
#
#
# Elastic Constant Matrix: (Units=GPa)
#
#
# Indices 1 2 3 4 5 6 
#
# 1 92.3283 44.5593 56.5477 16.7907 -1.6149 -3.7746
# 2 44.5593 157.0916 61.7533 31.6057 0.1413 7.7512
# 3 56.5477 61.7533 89.2642 24.2820 1.2714 0.7943
# 4 16.7907 31.6057 24.2820 30.4590 2.0704 0.3524
# 5 -1.6149 0.1413 1.2714 2.0704 25.1695 3.7502
# 6 -3.7746 7.7512 0.7943 0.3524 3.7502 13.9938
#
#
#
# Elastic Compliance Matrix: (Units=1/GPa)
#
#
# Indices 1 2 3 4 5 6 
#
# 1 0.018312 -0.001185 -0.010726 -0.000443 0.000868 0.005983
# 2 -0.001185 0.009979 -0.004436 -0.006198 0.001471 -0.005833
# 3 -0.010726 -0.004436 0.023251 -0.007938 -0.000993 -0.001290
# 4 -0.000443 -0.006198 -0.007938 0.046059 -0.003926 0.003656
# 5 0.000868 0.001471 -0.000993 -0.003926 0.041887 -0.011651
# 6 0.005983 -0.005833 -0.001290 0.003656 -0.011651 0.079409
#
#
# Mechanical properties :
#
#
# Convention : Reuss Voigt Hill
#
# Bulk Modulus (GPa) = 53.05433 73.82276 63.43854
# Shear Modulus (GPa) = 19.38927 25.64604 22.51765
#
# Velocity S-wave (km/s) = 3.38525 3.89332 3.64814
# Velocity P-wave (km/s) = 6.82915 7.99018 7.43237
#
# Compressibility (1/GPa) = 0.01884860
#
# Stress axis : x y z
#
# Youngs Moduli (GPa) = 54.60770 100.20977 43.00806
#
# Poissons Ratio (x) = 0.11872 0.46132
# Poissons Ratio (y) = 0.06470 0.19079
# Poissons Ratio (z) = 0.58574 0.44455
#
# Static dielectric constant tensor:
#      x y z
#    x 3.308430 0.088690 0.439140 
#    y 0.088690 3.691490 0.470460 
#    z 0.439140 0.470460 3.341940 
# 
# 
# High freq. dielectric constant tensor:
#      x y z
#    x 1.609770 0.006300 0.010860 
#    y 0.006300 1.659010 0.028650 
#    z 0.010860 0.028650 1.643530 
# 
# From -- ./inp_files/145361.got.cif
#   From: 2010.06.25/outbox.cif.g09.slc.cpg/sg2_73_cif.got.tgz:145361.got - 2010.06.27 13:26:56.
