data_PCOD8028797
_publ_section_title
;
Structure prediction by ZEFSAII (Michael W. Deem and Ramdas Pophale) SiO2 
 PCOD8028797
Probable space group: P -1
;
_chemical_formula_sum "Si O2"
_cell_formula_units_Z 16
_cell_length_a 9.356892
_cell_length_b 18.521705
_cell_length_c 21.398852
_cell_angle_alpha 17.701420
_cell_angle_beta 36.131089
_cell_angle_gamma 39.189229
_cell_volume 664.547652
_symmetry_space_group_name_H-M "P -1"
_symmetry_group_IT_number 2
_symmetry_cell_setting 'triclinic'
loop_
_space_group_symop_operation_xyz
x,y,z
-x,-y,-z
loop_
_atom_site_type_symbol
_atom_site_label
_atom_site_fract_x
_atom_site_fract_y
_atom_site_fract_z
Si Si1 0.866600 0.916401 0.056566
Si Si2 0.887602 0.346135 0.017110
Si Si3 0.577946 0.281009 0.551837
Si Si4 0.645671 0.226320 0.781038
Si Si5 0.262778 0.583084 0.125523
Si Si6 0.032805 0.818557 0.406240
Si Si7 0.807580 0.208780 0.411599
Si Si8 0.270898 0.574687 0.862038
O O1 0.624798 0.794549 0.265677
O O2 0.037968 0.747497 0.092877
O O3 0.798733 0.158310 0.844443
O O4 0.000000 0.000000 0.000000
O O5 0.723835 0.398514 0.970012
O O6 0.058501 0.563953 0.793843
O O7 0.730340 0.294368 0.177992
O O8 0.030251 0.096817 0.161238
O O9 0.540993 0.556593 0.318578
O O10 0.834116 0.238928 0.528630
O O11 0.607680 0.137400 0.593525
O O12 0.825731 0.310662 0.594001
O O13 0.500000 0.000000 0.000000
O O14 0.522614 0.637070 0.023120
O O15 0.221463 0.310502 0.387831
O O16 0.655889 0.264743 0.355363
O O17 0.000000 0.000000 0.500000
O O18 0.000000 0.500000 0.000000
#
# Coordination Sequence:
#
# PCOD8028797 Si02
#       8
#     2   2   2   2   2   2   2   2
#     4  12  29  44  70 109 153 197 242 305 376 439
#     4  11  24  47  76 107 143 193 246 305 367 437
#     4  12  25  44  75 104 153 194 243 298 366 442
#     4  12  23  43  73 108 147 196 246 292 367 443
#     4  12  25  48  72 109 147 190 251 308 367 443
#     4  12  23  42  76 111 143 189 247 305 363 431
#     4  11  25  48  74 108 146 194 245 302 374 438
#     4  10  26  48  73 101 145 191 249 306 372 435
#
# _framework density 24.076526000000001
#
# number of rings (size 3 to 8) (size 9 to 14) (size 15 to 20)
#    0.000    0.500    5.000    3.000    1.750    5.000 
#    4.500    0.000    0.000    0.000    0.000    0.000 
#    0.000    0.000    0.000    0.000    0.000    0.000 
#
# Total GULP energy -198235.392862 kJ/mol
# GULP energy per Si atom -12389.712054 kJ/mol
# Density = 2.402173 g / cm^3
# Si number density = 24.076526 Si / 1000 Ang^3
#
#
#
# Elastic Constant Matrix: (Units=GPa)
#
#
# Indices 1 2 3 4 5 6 
#
# 1 173.9949 46.5995 39.5633 5.7531 45.3830 2.1296
# 2 46.5995 133.0778 34.5512 5.1872 22.6545 9.8350
# 3 39.5633 34.5512 80.3992 -13.7229 20.3381 -2.3432
# 4 5.7531 5.1872 -13.7229 41.8542 3.3392 12.0408
# 5 45.3830 22.6545 20.3381 3.3392 43.4440 5.4853
# 6 2.1296 9.8350 -2.3432 12.0408 5.4853 47.4265
#
#
#
# Elastic Compliance Matrix: (Units=1/GPa)
#
#
# Indices 1 2 3 4 5 6 
#
# 1 0.008463 -0.001222 -0.002002 -0.001364 -0.007283 0.000963
# 2 -0.001222 0.009240 -0.003225 -0.001481 -0.001736 -0.001444
# 3 -0.002002 -0.003225 0.017161 0.006542 -0.004828 0.000504
# 4 -0.001364 -0.001481 0.006542 0.028388 -0.002258 -0.006255
# 5 -0.007283 -0.001736 -0.004828 -0.002258 0.034337 -0.002950
# 6 0.000963 -0.001444 0.000504 -0.006255 -0.002950 0.023295
#
#
# Mechanical properties :
#
#
# Convention : Reuss Voigt Hill
#
# Bulk Modulus (GPa) = 45.52460 69.87778 57.70119
# Shear Modulus (GPa) = 35.43505 44.32878 39.88191
#
# Velocity S-wave (km/s) = 3.84052 4.29553 4.07438
# Velocity P-wave (km/s) = 6.21414 7.32723 6.79352
#
# Compressibility (1/GPa) = 0.02196614
#
# Stress axis : x y z
#
# Youngs Moduli (GPa) = 118.16758 108.23093 58.27020
#
# Poissons Ratio (x) = 0.13224 0.11664
# Poissons Ratio (y) = 0.14438 0.18793
# Poissons Ratio (z) = 0.23654 0.34906
#
# Static dielectric constant tensor:
#      x y z
#    x 4.910970 0.143640 0.580650 
#    y 0.143640 4.808950 0.219530 
#    z 0.580650 0.219530 4.097560 
# 
# 
# High freq. dielectric constant tensor:
#      x y z
#    x 1.960730 0.008170 0.031060 
#    y 0.008170 1.971670 0.011170 
#    z 0.031060 0.011170 1.943890 
# 
# From -- ./inp_files/591159.got.cif
#   From: 2010.06.25/outbox.cif.g09.slc.cpg/sg2_296_cif.got.tgz:591159.got - 2010.06.27 13:26:56.
