data_PCOD8028814
_publ_section_title
;
Structure prediction by ZEFSAII (Michael W. Deem and Ramdas Pophale) SiO2 
 PCOD8028814
Probable space group: P -1
;
_chemical_formula_sum "Si O2"
_cell_formula_units_Z 16
_cell_length_a 12.012754
_cell_length_b 12.146216
_cell_length_c 12.256816
_cell_angle_alpha 65.482389
_cell_angle_beta 88.708352
_cell_angle_gamma 144.153195
_cell_volume 704.259706
_symmetry_space_group_name_H-M "P -1"
_symmetry_group_IT_number 2
_symmetry_cell_setting 'triclinic'
loop_
_space_group_symop_operation_xyz
x,y,z
-x,-y,-z
loop_
_atom_site_type_symbol
_atom_site_label
_atom_site_fract_x
_atom_site_fract_y
_atom_site_fract_z
Si Si1 0.519373 0.760781 0.783131
Si Si2 0.303277 0.424950 0.727986
Si Si3 0.309567 0.813824 0.180409
Si Si4 0.304557 0.045937 0.625941
Si Si5 0.445081 0.292816 0.739911
Si Si6 0.727741 0.236798 0.174818
Si Si7 0.248732 0.022755 0.085927
Si Si8 0.023005 0.290112 0.421682
O O1 0.393900 0.531022 0.808129
O O2 0.318351 0.675209 0.811080
O O3 0.555011 0.752479 0.911462
O O4 0.799441 0.073417 0.605459
O O5 0.423996 0.645091 0.556700
O O6 0.395388 0.385762 0.700824
O O7 0.996374 0.129739 0.846092
O O8 0.162590 0.798583 0.193057
O O9 0.101417 0.504778 0.306788
O O10 0.485642 0.965977 0.217908
O O11 0.500000 0.000000 0.000000
O O12 0.269811 0.060371 0.744425
O O13 0.281612 0.877792 0.687701
O O14 0.078254 0.871395 0.622190
O O15 0.744522 0.562052 0.596521
O O16 0.393542 0.180501 0.903337
O O17 0.000000 0.500000 0.000000
#
# Coordination Sequence:
#
# PCOD8028814 Si02
#       8
#     2   2   2   2   2   2   2   2
#     4  10  27  43  66 106 131 177 222 279 343 393
#     4  11  27  45  68  97 139 181 226 276 328 403
#     4  11  21  40  66 101 132 174 216 275 340 394
#     4  11  25  42  69 101 129 184 220 278 336 392
#     4  12  25  46  68  99 134 184 230 271 332 396
#     4  11  24  40  69 101 140 170 220 278 337 409
#     4  11  25  42  68  97 137 174 225 279 335 392
#     4  11  24  42  69 100 139 173 224 279 334 403
#
# _framework density 22.718892
#
# number of rings (size 3 to 8) (size 9 to 14) (size 15 to 20)
#    0.000    1.000    2.500    2.250    8.750    5.500 
#    0.000    0.000    0.000    0.000    0.000    0.000 
#    0.000    0.000    0.000    0.000    0.000    0.000 
#
# Total GULP energy -198411.717592 kJ/mol
# GULP energy per Si atom -12400.732350 kJ/mol
# Density = 2.266718 g / cm^3
# Si number density = 22.718892 Si / 1000 Ang^3
#
#
#
# Elastic Constant Matrix: (Units=GPa)
#
#
# Indices 1 2 3 4 5 6 
#
# 1 111.5186 25.8741 16.0903 -5.9416 -25.7142 6.4990
# 2 25.8741 111.1720 18.1291 19.3334 -3.1561 3.9922
# 3 16.0903 18.1291 72.9654 6.3743 -7.7880 8.2434
# 4 -5.9416 19.3334 6.3743 38.8854 6.0515 -2.3897
# 5 -25.7142 -3.1561 -7.7880 6.0515 30.8074 2.9030
# 6 6.4990 3.9922 8.2434 -2.3897 2.9030 24.6007
#
#
#
# Elastic Compliance Matrix: (Units=1/GPa)
#
#
# Indices 1 2 3 4 5 6 
#
# 1 0.012218 -0.002584 -0.000739 0.001531 0.009782 -0.003566
# 2 -0.002584 0.010847 -0.001544 -0.005563 -0.000242 -0.001072
# 3 -0.000739 -0.001544 0.015589 -0.002906 0.004261 -0.005563
# 4 0.001531 -0.005563 -0.002906 0.030526 -0.006513 0.005206
# 5 0.009782 -0.000242 0.004261 -0.006513 0.043878 -0.009783
# 6 -0.003566 -0.001072 -0.005563 0.005206 -0.009783 0.045290
#
#
# Mechanical properties :
#
#
# Convention : Reuss Voigt Hill
#
# Bulk Modulus (GPa) = 34.57749 46.20478 40.39113
# Shear Modulus (GPa) = 28.13381 34.56286 31.34833
#
# Velocity S-wave (km/s) = 3.52283 3.90465 3.71864
# Velocity P-wave (km/s) = 5.63914 6.38045 6.02121
#
# Compressibility (1/GPa) = 0.02892055
#
# Stress axis : x y z
#
# Youngs Moduli (GPa) = 81.84526 92.18920 64.14851
#
# Poissons Ratio (x) = 0.23818 0.04742
# Poissons Ratio (y) = 0.21146 0.09905
# Poissons Ratio (z) = 0.06050 0.14235
#
# Static dielectric constant tensor:
#      x y z
#    x 4.096140 0.045390 -0.019680 
#    y 0.045390 4.241410 0.187290 
#    z -0.019680 0.187290 3.987430 
# 
# 
# High freq. dielectric constant tensor:
#      x y z
#    x 1.893190 0.008100 -0.000540 
#    y 0.008100 1.908800 0.008620 
#    z -0.000540 0.008620 1.891690 
# 
# From -- ./inp_files/278118.got.cif
#   From: 2010.06.25/outbox.cif.g09.slc.cpg/sg2_140_cif.got.tgz:278118.got - 2010.06.27 13:26:56.
