data_PCOD8028094
_publ_section_title
;
Structure prediction by ZEFSAII (Michael W. Deem and Ramdas Pophale) SiO2 
 PCOD8028094
Probable space group: P -1
;
_chemical_formula_sum "Si O2"
_cell_formula_units_Z 14
_cell_length_a 8.558486
_cell_length_b 17.801599
_cell_length_c 13.133590
_cell_angle_alpha 38.730570
_cell_angle_beta 52.975012
_cell_angle_gamma 33.944644
_cell_volume 693.242485
_symmetry_space_group_name_H-M "P -1"
_symmetry_group_IT_number 2
_symmetry_cell_setting 'triclinic'
loop_
_space_group_symop_operation_xyz
x,y,z
-x,-y,-z
loop_
_atom_site_type_symbol
_atom_site_label
_atom_site_fract_x
_atom_site_fract_y
_atom_site_fract_z
Si Si1 0.167652 0.478590 0.053304
Si Si2 0.464348 0.486309 0.225238
Si Si3 0.097077 0.257864 0.935105
Si Si4 0.333563 0.850341 0.513669
Si Si5 0.707266 0.349098 0.499667
Si Si6 0.321707 0.181876 0.426169
Si Si7 0.640111 0.110941 0.764780
O O1 0.325996 0.299040 0.233616
O O2 0.981929 0.638214 0.038457
O O3 0.415469 0.450851 0.943094
O O4 0.000000 0.500000 0.000000
O O5 0.582480 0.317305 0.300464
O O6 0.558961 0.438483 0.355397
O O7 0.129115 0.631221 0.184541
O O8 0.380134 0.194131 0.851107
O O9 0.138412 0.096739 0.106573
O O10 0.503717 0.875975 0.478876
O O11 0.449763 0.821230 0.386191
O O12 0.000000 0.000000 0.500000
O O13 0.500000 0.500000 0.500000
O O14 0.767023 0.182259 0.678744
O O15 0.001784 0.286473 0.460342
O O16 0.500000 0.000000 0.500000
#
# Coordination Sequence:
#
# PCOD8028094 Si02
#       7
#     2   2   2   2   2   2   2
#     4  12  25  43  66  97 134 170 223 279 332 398
#     4  11  24  41  70  94 126 177 227 268 338 389
#     4  11  24  45  67  99 130 182 223 279 332 400
#     4  11  24  43  68  97 131 176 227 275 329 406
#     4  11  25  45  67  99 139 178 220 279 341 411
#     4  12  26  42  66 100 134 176 222 279 345 394
#     4  10  25  43  69  95 138 172 226 274 336 403
#
# _framework density 20.194953999999999
#
# number of rings (size 3 to 8) (size 9 to 14) (size 15 to 20)
#    0.000    0.857    2.857    3.857    8.000    1.143 
#    0.000    0.714    0.000    0.000    0.000    0.000 
#    0.000    0.000    0.000    0.000    0.000    0.000 
#
# Total GULP energy -173517.419921 kJ/mol
# GULP energy per Si atom -12394.101423 kJ/mol
# Density = 2.014899 g / cm^3
# Si number density = 20.194954 Si / 1000 Ang^3
#
#
#
# Elastic Constant Matrix: (Units=GPa)
#
#
# Indices 1 2 3 4 5 6 
#
# 1 143.7869 57.5817 41.4986 -6.3454 3.0374 4.2506
# 2 57.5817 123.7405 52.6240 -12.2342 -0.9734 14.9374
# 3 41.4986 52.6240 114.6305 -14.1483 -26.5573 6.6454
# 4 -6.3454 -12.2342 -14.1483 38.2619 5.7791 -1.3065
# 5 3.0374 -0.9734 -26.5573 5.7791 33.1053 -8.6466
# 6 4.2506 14.9374 6.6454 -1.3065 -8.6466 37.6664
#
#
#
# Elastic Compliance Matrix: (Units=1/GPa)
#
#
# Indices 1 2 3 4 5 6 
#
# 1 0.008996 -0.003153 -0.002483 0.000005 -0.002909 0.000006
# 2 -0.003153 0.012548 -0.005281 0.002159 -0.005211 -0.004810
# 3 -0.002483 -0.005281 0.014993 0.001646 0.012507 0.002657
# 4 0.000005 0.002159 0.001646 0.027970 -0.003772 -0.001043
# 5 -0.002909 -0.005211 0.012507 -0.003772 0.043644 0.010076
# 6 0.000006 -0.004810 0.002657 -0.001043 0.010076 0.030264
#
#
# Mechanical properties :
#
#
# Convention : Reuss Voigt Hill
#
# Bulk Modulus (GPa) = 68.01204 76.17408 72.09306
# Shear Modulus (GPa) = 30.27589 37.17030 33.72309
#
# Velocity S-wave (km/s) = 3.87613 4.29484 4.09085
# Velocity P-wave (km/s) = 7.33371 7.89908 7.62164
#
# Compressibility (1/GPa) = 0.01470328
#
# Stress axis : x y z
#
# Youngs Moduli (GPa) = 111.16616 79.69602 66.69624
#
# Poissons Ratio (x) = 0.25130 0.16558
# Poissons Ratio (y) = 0.35054 0.35221
# Poissons Ratio (z) = 0.27599 0.42085
#
# Static dielectric constant tensor:
#      x y z
#    x 3.854800 0.210890 -0.204640 
#    y 0.210890 3.650090 -0.168250 
#    z -0.204640 -0.168250 3.989280 
# 
# 
# High freq. dielectric constant tensor:
#      x y z
#    x 1.804090 0.006730 -0.011910 
#    y 0.006730 1.793000 -0.005210 
#    z -0.011910 -0.005210 1.803530 
# 
# From -- ./inp_files/156981.got.cif
#   From: 2010.06.25/outbox.cif.g09.slc.cpg/sg2_79_cif.got.tgz:156981.got - 2010.06.27 13:26:56.
