data_PCOD8028904
_publ_section_title
;
Structure prediction by ZEFSAII (Michael W. Deem and Ramdas Pophale) SiO2 
 PCOD8028904
Probable space group: P -1
;
_chemical_formula_sum "Si O2"
_cell_formula_units_Z 14
_cell_length_a 14.939837
_cell_length_b 10.935992
_cell_length_c 12.619642
_cell_angle_alpha 126.550454
_cell_angle_beta 41.048398
_cell_angle_gamma 151.931250
_cell_volume 620.567372
_symmetry_space_group_name_H-M "P -1"
_symmetry_group_IT_number 2
_symmetry_cell_setting 'triclinic'
loop_
_space_group_symop_operation_xyz
x,y,z
-x,-y,-z
loop_
_atom_site_type_symbol
_atom_site_label
_atom_site_fract_x
_atom_site_fract_y
_atom_site_fract_z
Si Si1 0.232284 0.169855 0.949053
Si Si2 0.655447 0.459746 0.233434
Si Si3 0.036104 0.682001 0.854089
Si Si4 0.884822 0.252264 0.418051
Si Si5 0.994621 0.952554 0.708366
Si Si6 0.363241 0.708578 0.619213
Si Si7 0.335004 0.368588 0.347701
O O1 0.462631 0.440460 0.823951
O O2 0.237147 0.991085 0.864363
O O3 0.219861 0.229173 0.108479
O O4 0.000000 0.000000 0.000000
O O5 0.602838 0.295209 0.289145
O O6 0.403837 0.297121 0.331245
O O7 0.803416 0.739697 0.288058
O O8 0.791882 0.491706 0.036803
O O9 0.976307 0.640351 0.761259
O O10 0.134303 0.605987 0.756130
O O11 0.000000 0.500000 0.500000
O O12 0.901678 0.121059 0.410461
O O13 0.602016 0.014302 0.523620
O O14 0.907162 0.896828 0.636378
O O15 0.311575 0.508734 0.497075
#
# Coordination Sequence:
#
# PCOD8028904 Si02
#       7
#     2   2   2   2   2   2   2
#     4  11  18  40  68  94 132 169 216 276 317 386
#     4  11  24  48  67  94 138 173 219 273 318 402
#     4  11  22  43  68  93 132 177 214 265 338 385
#     4  12  24  42  65 100 136 165 222 280 321 388
#     4  11  23  40  69 101 127 173 222 267 328 390
#     4  12  25  43  68  96 136 179 212 271 339 377
#     4  12  22  40  70  96 131 172 222 270 326 387
#
# _framework density 22.559999999999999
#
# number of rings (size 3 to 8) (size 9 to 14) (size 15 to 20)
#    0.000    0.571    7.143    2.571    2.000    0.571 
#    5.143    0.714    0.000    0.000    0.000    0.000 
#    0.000    0.000    0.000    0.000    0.000    0.000 
#
# Total GULP energy -173646.941020 kJ/mol
# GULP energy per Si atom -12403.352930 kJ/mol
# Density = 2.250865 g / cm^3
# Si number density = 22.560000 Si / 1000 Ang^3
#
#
#
# Elastic Constant Matrix: (Units=GPa)
#
#
# Indices 1 2 3 4 5 6 
#
# 1 143.6067 20.8801 36.8594 9.8979 -8.6756 17.2827
# 2 20.8801 46.7676 32.2143 12.5193 -2.0916 12.9647
# 3 36.8594 32.2143 93.8715 21.8508 -8.5128 12.3746
# 4 9.8979 12.5193 21.8508 22.5443 0.4346 3.7678
# 5 -8.6756 -2.0916 -8.5128 0.4346 46.5803 2.7667
# 6 17.2827 12.9647 12.3746 3.7678 2.7667 34.9136
#
#
#
# Elastic Compliance Matrix: (Units=1/GPa)
#
#
# Indices 1 2 3 4 5 6 
#
# 1 0.008148 -0.001162 -0.002239 -0.000305 0.001230 -0.002873
# 2 -0.001162 0.031320 -0.007257 -0.008588 0.000394 -0.007587
# 3 -0.002239 -0.007257 0.017061 -0.011369 0.002554 -0.001219
# 4 -0.000305 -0.008588 -0.011369 0.060152 -0.003148 0.001128
# 5 0.001230 0.000394 0.002554 -0.003148 0.022395 -0.003095
# 6 -0.002873 -0.007587 -0.001219 0.001128 -0.003095 0.033437
#
#
# Mechanical properties :
#
#
# Convention : Reuss Voigt Hill
#
# Bulk Modulus (GPa) = 28.39913 51.57260 39.98587
# Shear Modulus (GPa) = 24.32292 33.76042 29.04167
#
# Velocity S-wave (km/s) = 3.28707 3.87262 3.59180
# Velocity P-wave (km/s) = 5.19827 6.55028 5.91304
#
# Compressibility (1/GPa) = 0.03521234
#
# Stress axis : x y z
#
# Youngs Moduli (GPa) = 122.72523 31.92875 58.61270
#
# Poissons Ratio (x) = 0.03711 0.13126
# Poissons Ratio (y) = 0.14266 0.42533
# Poissons Ratio (z) = 0.27483 0.23169
#
# Static dielectric constant tensor:
#      x y z
#    x 4.426550 0.073840 0.128010 
#    y 0.073840 3.997190 -0.074800 
#    z 0.128010 -0.074800 4.427930 
# 
# 
# High freq. dielectric constant tensor:
#      x y z
#    x 1.896930 -0.004650 0.008220 
#    y -0.004650 1.862480 -0.001660 
#    z 0.008220 -0.001660 1.910250 
# 
# From -- ./inp_files/451757.got.cif
#   From: 2010.06.25/outbox.cif.g09.slc.cpg/sg2_226_cif.got.tgz:451757.got - 2010.06.27 13:26:56.
