data_PCOD8028092
_publ_section_title
;
Structure prediction by ZEFSAII (Michael W. Deem and Ramdas Pophale) SiO2 
 PCOD8028092
Probable space group: P -1
;
_chemical_formula_sum "Si O2"
_cell_formula_units_Z 14
_cell_length_a 10.233710
_cell_length_b 10.395950
_cell_length_c 9.249489
_cell_angle_alpha 96.516499
_cell_angle_beta 136.339748
_cell_angle_gamma 67.837877
_cell_volume 609.304175
_symmetry_space_group_name_H-M "P -1"
_symmetry_group_IT_number 2
_symmetry_cell_setting 'triclinic'
loop_
_space_group_symop_operation_xyz
x,y,z
-x,-y,-z
loop_
_atom_site_type_symbol
_atom_site_label
_atom_site_fract_x
_atom_site_fract_y
_atom_site_fract_z
Si Si1 0.718691 0.036458 0.280154
Si Si2 0.394444 0.522800 0.266749
Si Si3 0.697582 0.739903 0.915876
Si Si4 0.108739 0.294854 0.651966
Si Si5 0.997214 0.010469 0.245596
Si Si6 0.024400 0.197569 0.044452
Si Si7 0.666091 0.519508 0.239938
O O1 0.797864 0.868029 0.343745
O O2 0.822500 0.080834 0.506022
O O3 0.470473 0.121755 0.113934
O O4 0.783773 0.076303 0.180216
O O5 0.500000 0.500000 0.500000
O O6 0.390882 0.377135 0.188162
O O7 0.162132 0.645811 0.091836
O O8 0.547372 0.567189 0.301478
O O9 0.901403 0.686886 0.178455
O O10 0.763459 0.783194 0.819863
O O11 0.273343 0.355028 0.741920
O O12 0.879521 0.373301 0.407741
O O13 0.035198 0.134863 0.206811
O O14 0.997460 0.902868 0.109277
O O15 0.500000 0.500000 0.000000
#
# Coordination Sequence:
#
# PCOD8028092 Si02
#       7
#     2   2   2   2   2   2   2
#     4  11  25  43  76  99 142 187 243 298 356 415
#     4  12  27  44  72  99 147 194 235 292 375 426
#     4  12  25  45  71 105 145 190 241 301 356 430
#     4  11  25  44  74 109 142 179 247 302 351 424
#     4  10  25  43  69 102 139 188 246 290 360 430
#     4  11  25  44  67 102 147 186 238 294 363 432
#     4  11  26  46  74 107 143 186 244 301 355 423
#
# _framework density 22.977028000000001
#
# number of rings (size 3 to 8) (size 9 to 14) (size 15 to 20)
#    0.000    0.857    2.857    2.571    8.000    2.857 
#    0.000    0.000    0.000    0.000    0.000    0.000 
#    0.000    0.000    0.000    0.000    0.000    0.000 
#
# Total GULP energy -173561.658581 kJ/mol
# GULP energy per Si atom -12397.261327 kJ/mol
# Density = 2.292473 g / cm^3
# Si number density = 22.977028 Si / 1000 Ang^3
#
#
#
# Elastic Constant Matrix: (Units=GPa)
#
#
# Indices 1 2 3 4 5 6 
#
# 1 200.3137 54.0234 38.2669 -17.1116 -3.7171 -0.1430
# 2 54.0234 77.9122 22.0693 -17.7462 -1.0756 -9.3671
# 3 38.2669 22.0693 108.9963 4.3149 -2.7326 -3.0573
# 4 -17.1116 -17.7462 4.3149 27.9441 -4.5911 -2.8748
# 5 -3.7171 -1.0756 -2.7326 -4.5911 42.4600 -0.5144
# 6 -0.1430 -9.3671 -3.0573 -2.8748 -0.5144 28.2568
#
#
#
# Elastic Compliance Matrix: (Units=1/GPa)
#
#
# Indices 1 2 3 4 5 6 
#
# 1 0.006476 -0.003766 -0.001602 0.001788 0.000547 -0.001197
# 2 -0.003766 0.019867 -0.002923 0.011752 0.001347 0.007471
# 3 -0.001602 -0.002923 0.010498 -0.004493 -0.000028 -0.000299
# 4 0.001788 0.011752 -0.004493 0.046764 0.005322 0.008273
# 5 0.000547 0.001347 -0.000028 0.005322 0.024225 0.001429
# 6 -0.001197 0.007471 -0.000299 0.008273 0.001429 0.038696
#
#
# Mechanical properties :
#
#
# Convention : Reuss Voigt Hill
#
# Bulk Modulus (GPa) = 49.35609 68.43794 58.89702
# Shear Modulus (GPa) = 29.43637 37.92301 33.67969
#
# Velocity S-wave (km/s) = 3.58316 4.06701 3.83273
# Velocity P-wave (km/s) = 6.21659 7.20445 6.72867
#
# Compressibility (1/GPa) = 0.02026092
#
# Stress axis : x y z
#
# Youngs Moduli (GPa) = 154.42199 50.33355 95.26057
#
# Poissons Ratio (x) = 0.18953 0.15258
# Poissons Ratio (y) = 0.58148 0.27841
# Poissons Ratio (z) = 0.24734 0.14711
#
# Static dielectric constant tensor:
#      x y z
#    x 4.530030 0.058670 -0.138810 
#    y 0.058670 3.928750 -0.040570 
#    z -0.138810 -0.040570 4.284450 
# 
# 
# High freq. dielectric constant tensor:
#      x y z
#    x 1.927820 0.006000 -0.005240 
#    y 0.006000 1.907280 0.004660 
#    z -0.005240 0.004660 1.909190 
# 
# From -- ./inp_files/188824.got.cif
#   From: 2010.06.25/outbox.cif.g09.slc.cpg/sg2_95_cif.got.tgz:188824.got - 2010.06.27 13:26:56.
