data_PCOD8028774
_publ_section_title
;
Structure prediction by ZEFSAII (Michael W. Deem and Ramdas Pophale) SiO2 
 PCOD8028774
Probable space group: P -1
;
_chemical_formula_sum "Si O2"
_cell_formula_units_Z 16
_cell_length_a 12.288710
_cell_length_b 11.805832
_cell_length_c 12.414750
_cell_angle_alpha 100.355413
_cell_angle_beta 37.909936
_cell_angle_gamma 70.692058
_cell_volume 678.929895
_symmetry_space_group_name_H-M "P -1"
_symmetry_group_IT_number 2
_symmetry_cell_setting 'triclinic'
loop_
_space_group_symop_operation_xyz
x,y,z
-x,-y,-z
loop_
_atom_site_type_symbol
_atom_site_label
_atom_site_fract_x
_atom_site_fract_y
_atom_site_fract_z
Si Si1 0.515260 0.594845 0.421394
Si Si2 0.637905 0.660980 0.540775
Si Si3 0.953629 0.782994 0.144566
Si Si4 0.937625 0.190555 0.369212
Si Si5 0.408760 0.998006 0.719598
Si Si6 0.306904 0.788697 0.235151
Si Si7 0.778764 0.728731 0.922311
Si Si8 0.738619 0.205180 0.959576
O O1 0.500000 0.500000 0.500000
O O2 0.553112 0.684627 0.485858
O O3 0.230551 0.745853 0.599666
O O4 0.786346 0.438808 0.105235
O O5 0.486620 0.859449 0.721658
O O6 0.974314 0.482089 0.264179
O O7 0.498233 0.647647 0.737709
O O8 0.674857 0.855088 0.406634
O O9 0.993810 0.856997 0.219657
O O10 0.881621 0.877759 0.100433
O O11 0.717230 0.289623 0.659593
O O12 0.092430 0.237394 0.252161
O O13 0.177719 0.970636 0.150860
O O14 0.370559 0.137134 0.835563
O O15 0.371678 0.692690 0.053518
O O16 0.545499 0.766247 0.056342
O O17 0.000000 0.000000 0.500000
#
# Coordination Sequence:
#
# PCOD8028774 Si02
#       8
#     2   2   2   2   2   2   2   2
#     4  12  22  41  69 104 147 181 229 290 357 425
#     4  12  25  41  72 106 142 183 233 292 356 429
#     4  11  23  42  67 102 145 182 235 289 354 430
#     4  11  23  44  74 104 139 195 228 294 362 404
#     4  11  24  42  67 107 141 184 227 294 363 416
#     4  10  26  47  72 103 140 191 243 292 346 419
#     4  12  24  47  73 105 143 181 240 294 349 424
#     4  11  23  45  69 101 140 188 240 285 349 424
#
# _framework density 23.566497999999999
#
# number of rings (size 3 to 8) (size 9 to 14) (size 15 to 20)
#    0.000    0.750    5.000    2.250    1.750    5.000 
#    2.250    2.500    0.000    0.000    0.000    0.000 
#    0.000    0.000    0.000    0.000    0.000    0.000 
#
# Total GULP energy -198258.697867 kJ/mol
# GULP energy per Si atom -12391.168617 kJ/mol
# Density = 2.351286 g / cm^3
# Si number density = 23.566498 Si / 1000 Ang^3
#
#
#
# Elastic Constant Matrix: (Units=GPa)
#
#
# Indices 1 2 3 4 5 6 
#
# 1 157.9616 38.0628 51.9039 -16.3991 -5.2874 -14.8553
# 2 38.0628 55.2045 21.1203 -17.8569 1.3771 -12.6335
# 3 51.9039 21.1203 92.1012 -17.8948 0.3118 -7.8399
# 4 -16.3991 -17.8569 -17.8948 37.3591 -1.7826 2.5990
# 5 -5.2874 1.3771 0.3118 -1.7826 42.1157 -6.1289
# 6 -14.8553 -12.6335 -7.8399 2.5990 -6.1289 32.2634
#
#
#
# Elastic Compliance Matrix: (Units=1/GPa)
#
#
# Indices 1 2 3 4 5 6 
#
# 1 0.008842 -0.004273 -0.003871 -0.000065 0.001531 0.001753
# 2 -0.004273 0.026275 -0.001124 0.009642 0.000081 0.007287
# 3 -0.003871 -0.001124 0.014246 0.004518 -0.000243 0.000829
# 4 -0.000065 0.009642 0.004518 0.033411 0.001410 0.002420
# 5 0.001531 0.000081 -0.000243 0.001410 0.024762 0.005268
# 6 0.001753 0.007287 0.000829 0.002420 0.005268 0.035663
#
#
# Mechanical properties :
#
#
# Convention : Reuss Voigt Hill
#
# Bulk Modulus (GPa) = 32.43961 58.60458 45.52209
# Shear Modulus (GPa) = 29.06805 35.29299 32.18052
#
# Velocity S-wave (km/s) = 3.51586 3.87407 3.69930
# Velocity P-wave (km/s) = 5.50243 6.70321 6.13228
#
# Compressibility (1/GPa) = 0.03082651
#
# Stress axis : x y z
#
# Youngs Moduli (GPa) = 113.09912 38.05900 70.19346
#
# Poissons Ratio (x) = 0.16263 0.27175
# Poissons Ratio (y) = 0.48328 0.07889
# Poissons Ratio (z) = 0.43786 0.04277
#
# Static dielectric constant tensor:
#      x y z
#    x 4.106540 -0.539640 0.055690 
#    y -0.539640 4.426470 -0.276180 
#    z 0.055690 -0.276180 4.309900 
# 
# 
# High freq. dielectric constant tensor:
#      x y z
#    x 1.923160 -0.012090 0.005050 
#    y -0.012090 1.922280 -0.002700 
#    z 0.005050 -0.002700 1.948100 
# 
# From -- ./inp_files/428322.got.cif
#   From: 2010.06.25/outbox.cif.g09.slc.cpg/sg2_215_cif.got.tgz:428322.got - 2010.06.27 13:26:56.
