data_PCOD8028069
_publ_section_title
;
Structure prediction by ZEFSAII (Michael W. Deem and Ramdas Pophale) SiO2 
 PCOD8028069
Probable space group: P -1
;
_chemical_formula_sum "Si O2"
_cell_formula_units_Z 16
_cell_length_a 14.550915
_cell_length_b 8.437180
_cell_length_c 9.167736
_cell_angle_alpha 111.405536
_cell_angle_beta 40.353430
_cell_angle_gamma 107.419535
_cell_volume 678.077850
_symmetry_space_group_name_H-M "P -1"
_symmetry_group_IT_number 2
_symmetry_cell_setting 'triclinic'
loop_
_space_group_symop_operation_xyz
x,y,z
-x,-y,-z
loop_
_atom_site_type_symbol
_atom_site_label
_atom_site_fract_x
_atom_site_fract_y
_atom_site_fract_z
Si Si1 0.361297 0.760916 0.103606
Si Si2 0.026885 0.806452 0.870863
Si Si3 0.390147 0.094267 0.322539
Si Si4 0.771950 0.720637 0.664766
Si Si5 0.581048 0.608652 0.107586
Si Si6 0.731148 0.650941 0.241204
Si Si7 0.278418 0.599224 0.567489
Si Si8 0.956702 0.303705 0.509635
O O1 0.199324 0.718839 0.237605
O O2 0.373358 0.888494 0.272067
O O3 0.448173 0.846120 0.892074
O O4 0.437387 0.586238 0.998666
O O5 0.168159 0.749512 0.765617
O O6 0.044868 0.794983 0.672978
O O7 0.899184 0.685927 0.044852
O O8 0.000000 0.000000 0.000000
O O9 0.278198 0.152716 0.355357
O O10 0.347429 0.177070 0.555357
O O11 0.781786 0.528993 0.527359
O O12 0.929192 0.779036 0.548222
O O13 0.662094 0.730750 0.935906
O O14 0.677451 0.594993 0.129924
O O15 0.429425 0.679495 0.358623
O O16 0.697591 0.497115 0.341713
O O17 0.000000 0.500000 0.500000
#
# Coordination Sequence:
#
# PCOD8028069 Si02
#       8
#     2   2   2   2   2   2   2   2
#     4  11  22  42  67  97 132 171 215 275 324 381
#     4  12  25  44  64  96 136 171 209 273 339 383
#     4  10  25  43  66  97 134 173 212 270 336 385
#     4  11  22  41  67 100 125 172 226 265 317 394
#     4  12  22  42  71  96 130 171 225 272 315 392
#     4  11  23  45  64  96 135 171 214 269 328 394
#     4  11  24  41  68  96 126 178 221 260 327 394
#     4  12  22  40  70  98 125 173 224 269 315 386
#
# _framework density 23.596109999999999
#
# number of rings (size 3 to 8) (size 9 to 14) (size 15 to 20)
#    0.000    0.750    6.250    1.875    1.750    0.500 
#    2.250    0.625    0.000    0.000    0.000    0.000 
#    0.000    0.000    0.000    0.000    0.000    0.000 
#
# Total GULP energy -198467.974052 kJ/mol
# GULP energy per Si atom -12404.248378 kJ/mol
# Density = 2.354240 g / cm^3
# Si number density = 23.596110 Si / 1000 Ang^3
#
#
#
# Elastic Constant Matrix: (Units=GPa)
#
#
# Indices 1 2 3 4 5 6 
#
# 1 61.9086 24.8831 20.1698 2.1359 -12.0483 1.1152
# 2 24.8831 78.7514 28.6741 15.5446 -16.8108 0.7551
# 3 20.1698 28.6741 108.2503 3.0781 -28.6177 -0.7593
# 4 2.1359 15.5446 3.0781 43.4234 8.8480 -6.6828
# 5 -12.0483 -16.8108 -28.6177 8.8480 52.9306 -7.5070
# 6 1.1152 0.7551 -0.7593 -6.6828 -7.5070 18.8283
#
#
#
# Elastic Compliance Matrix: (Units=1/GPa)
#
#
# Indices 1 2 3 4 5 6 
#
# 1 0.019107 -0.005181 -0.001783 0.000697 0.001608 -0.000107
# 2 -0.005181 0.017429 -0.002406 -0.006834 0.004011 -0.001315
# 3 -0.001783 -0.002406 0.011742 -0.000620 0.005667 0.002715
# 4 0.000697 -0.006834 -0.000620 0.027881 -0.005909 0.007748
# 5 0.001608 0.004011 0.005667 -0.005909 0.025739 0.008137
# 6 -0.000107 -0.001315 0.002715 0.007748 0.008137 0.059275
#
#
# Mechanical properties :
#
#
# Convention : Reuss Voigt Hill
#
# Bulk Modulus (GPa) = 33.85510 44.04046 38.94778
# Shear Modulus (GPa) = 26.34909 34.71535 30.53222
#
# Velocity S-wave (km/s) = 3.34529 3.83983 3.60106
# Velocity P-wave (km/s) = 5.41296 6.19385 5.81653
#
# Compressibility (1/GPa) = 0.02953765
#
# Stress axis : x y z
#
# Youngs Moduli (GPa) = 52.33637 57.37555 85.16189
#
# Poissons Ratio (x) = 0.29729 0.15186
# Poissons Ratio (y) = 0.27118 0.20488
# Poissons Ratio (z) = 0.09333 0.13803
#
# Static dielectric constant tensor:
#      x y z
#    x 4.207990 0.137250 -0.201020 
#    y 0.137250 4.104980 0.102490 
#    z -0.201020 0.102490 4.671040 
# 
# 
# High freq. dielectric constant tensor:
#      x y z
#    x 1.927860 0.004790 -0.016030 
#    y 0.004790 1.917380 0.000620 
#    z -0.016030 0.000620 1.951330 
# 
# From -- ./inp_files/299069.got.cif
#   From: 2010.06.25/outbox.cif.g09.slc.cpg/sg2_150_cif.got.tgz:299069.got - 2010.06.27 13:26:56.
