data_PCOD8028099
_publ_section_title
;
Structure prediction by ZEFSAII (Michael W. Deem and Ramdas Pophale) SiO2 
 PCOD8028099
Probable space group: P -1
;
_chemical_formula_sum "Si O2"
_cell_formula_units_Z 16
_cell_length_a 9.421965
_cell_length_b 15.775934
_cell_length_c 11.214082
_cell_angle_alpha 75.038351
_cell_angle_beta 96.012632
_cell_angle_gamma 151.261908
_cell_volume 747.257124
_symmetry_space_group_name_H-M "P -1"
_symmetry_group_IT_number 2
_symmetry_cell_setting 'triclinic'
loop_
_space_group_symop_operation_xyz
x,y,z
-x,-y,-z
loop_
_atom_site_type_symbol
_atom_site_label
_atom_site_fract_x
_atom_site_fract_y
_atom_site_fract_z
Si Si1 0.784069 0.182407 0.038247
Si Si2 0.280330 0.439973 0.794652
Si Si3 0.947116 0.745231 0.740320
Si Si4 0.077013 0.158404 0.746859
Si Si5 0.233966 0.606253 0.704589
Si Si6 0.161113 0.997783 0.477130
Si Si7 0.685677 0.417151 0.784127
Si Si8 0.550219 0.240860 0.069634
O O1 0.747509 0.262533 0.047103
O O2 0.817261 0.136770 0.171819
O O3 0.094317 0.338833 0.936783
O O4 0.500000 0.000000 0.000000
O O5 0.634056 0.622215 0.796896
O O6 0.172173 0.306419 0.743662
O O7 0.229636 0.503589 0.696665
O O8 0.871519 0.608763 0.730727
O O9 0.117547 0.897069 0.603923
O O10 0.366262 0.250638 0.746524
O O11 0.975248 0.109976 0.619789
O O12 0.808901 0.976885 0.874716
O O13 0.333269 0.658434 0.832272
O O14 0.894148 0.460979 0.715282
O O15 0.474935 0.791117 0.579586
O O16 0.000000 0.000000 0.500000
O O17 0.608363 0.346454 0.937750
#
# Coordination Sequence:
#
# PCOD8028099 Si02
#       8
#     2   2   2   2   2   2   2   2
#     4  12  23  40  68 104 139 167 218 276 335 392
#     4  11  22  42  69 103 134 171 219 275 336 386
#     4  11  25  44  68  97 131 181 224 267 334 391
#     4  10  25  43  69  98 135 177 219 272 329 392
#     4  11  22  42  70  95 132 182 220 272 329 391
#     4  11  25  50  69  90 133 183 227 268 325 398
#     4  11  22  40  69 103 131 172 220 276 330 391
#     4  11  21  41  65  98 142 174 212 271 337 397
#
# _framework density 21.411638
#
# number of rings (size 3 to 8) (size 9 to 14) (size 15 to 20)
#    0.000    1.000    5.000    1.875    0.000    4.500 
#    0.000    1.875    0.000    0.000    0.000    0.000 
#    0.000    0.000    0.000    0.000    0.000    0.000 
#
# Total GULP energy -198462.631746 kJ/mol
# GULP energy per Si atom -12403.914484 kJ/mol
# Density = 2.136290 g / cm^3
# Si number density = 21.411638 Si / 1000 Ang^3
#
#
#
# Elastic Constant Matrix: (Units=GPa)
#
#
# Indices 1 2 3 4 5 6 
#
# 1 127.5043 45.7327 33.0888 -8.2017 8.8283 9.5686
# 2 45.7327 82.8967 45.7044 -15.4938 3.4113 14.2557
# 3 33.0888 45.7044 132.9060 -20.3247 20.5781 3.1268
# 4 -8.2017 -15.4938 -20.3247 26.2237 -3.3299 -0.9451
# 5 8.8283 3.4113 20.5781 -3.3299 35.4294 -6.2132
# 6 9.5686 14.2557 3.1268 -0.9451 -6.2132 39.9069
#
#
#
# Elastic Compliance Matrix: (Units=1/GPa)
#
#
# Indices 1 2 3 4 5 6 
#
# 1 0.009961 -0.005104 -0.000496 -0.000556 -0.001901 -0.000835
# 2 -0.005104 0.019359 -0.004580 0.006344 0.001805 -0.004901
# 3 -0.000496 -0.004580 0.010760 0.004826 -0.005193 0.000218
# 4 -0.000556 0.006344 0.004826 0.045499 0.000770 -0.001314
# 5 -0.001901 0.001805 -0.005193 0.000770 0.032544 0.005303
# 6 -0.000835 -0.004901 0.000218 -0.001314 0.005303 0.027787
#
#
# Mechanical properties :
#
#
# Convention : Reuss Voigt Hill
#
# Bulk Modulus (GPa) = 50.71243 65.81763 58.26503
# Shear Modulus (GPa) = 28.92816 34.89740 31.91278
#
# Velocity S-wave (km/s) = 3.67965 4.04150 3.86481
# Velocity P-wave (km/s) = 6.46444 7.25150 6.86925
#
# Compressibility (1/GPa) = 0.01971903
#
# Stress axis : x y z
#
# Youngs Moduli (GPa) = 100.39418 51.65642 92.93939
#
# Poissons Ratio (x) = 0.26365 0.04607
# Poissons Ratio (y) = 0.51240 0.42571
# Poissons Ratio (z) = 0.04976 0.23661
#
# Static dielectric constant tensor:
#      x y z
#    x 4.194980 0.089300 -0.087460 
#    y 0.089300 3.974560 -0.188800 
#    z -0.087460 -0.188800 3.849600 
# 
# 
# High freq. dielectric constant tensor:
#      x y z
#    x 1.854800 0.004400 -0.003020 
#    y 0.004400 1.843940 -0.017940 
#    z -0.003020 -0.017940 1.832070 
# 
# From -- ./inp_files/207603.got.cif
#   From: 2010.06.25/outbox.cif.g09.slc.cpg/sg2_104_cif.got.tgz:207603.got - 2010.06.27 13:26:56.
