data_PCOD8028988
_publ_section_title
;
Structure prediction by ZEFSAII (Michael W. Deem and Ramdas Pophale) SiO2 
 PCOD8028988
Probable space group: P -1
;
_chemical_formula_sum "Si O2"
_cell_formula_units_Z 16
_cell_length_a 12.114969
_cell_length_b 14.349466
_cell_length_c 12.019594
_cell_angle_alpha 119.555785
_cell_angle_beta 50.426039
_cell_angle_gamma 150.225782
_cell_volume 790.014844
_symmetry_space_group_name_H-M "P -1"
_symmetry_group_IT_number 2
_symmetry_cell_setting 'triclinic'
loop_
_space_group_symop_operation_xyz
x,y,z
-x,-y,-z
loop_
_atom_site_type_symbol
_atom_site_label
_atom_site_fract_x
_atom_site_fract_y
_atom_site_fract_z
Si Si1 0.249441 0.213662 0.427910
Si Si2 0.829223 0.884919 0.815035
Si Si3 0.414383 0.531635 0.439970
Si Si4 0.823568 0.711075 0.109884
Si Si5 0.774748 0.371826 0.481638
Si Si6 0.750023 0.992556 0.292931
Si Si7 0.987446 0.658638 0.803714
Si Si8 0.572978 0.695619 0.087413
O O1 0.319428 0.203432 0.258690
O O2 0.217073 0.322495 0.492702
O O3 0.459337 0.326208 0.454612
O O4 0.000000 0.000000 0.500000
O O5 0.056346 0.936892 0.697808
O O6 0.620235 0.717043 0.938320
O O7 0.938190 0.068988 0.880507
O O8 0.624198 0.593065 0.270458
O O9 0.274622 0.533160 0.455381
O O10 0.681096 0.656750 0.054971
O O11 0.941794 0.669828 0.968139
O O12 0.000000 0.500000 0.500000
O O13 0.859323 0.359472 0.308119
O O14 0.521351 0.158119 0.564164
O O15 0.849482 0.160873 0.271557
O O16 0.731015 0.892950 0.149275
O O17 0.723806 0.473966 0.799293
#
# Coordination Sequence:
#
# PCOD8028988 Si02
#       8
#     2   2   2   2   2   2   2   2
#     4  11  23  42  67  93 118 167 221 274 309 356
#     4  11  20  36  68  93 127 159 218 272 312 366
#     4  11  24  43  66  94 126 165 218 266 311 377
#     4  11  19  37  61  94 127 162 212 263 313 378
#     4  12  24  42  60  95 139 171 204 253 326 392
#     4  11  21  37  55  93 131 171 205 248 310 390
#     4  12  23  34  61  90 134 173 196 249 325 381
#     4  11  20  36  58  94 131 163 209 259 324 370
#
# _framework density 20.252783000000001
#
# number of rings (size 3 to 8) (size 9 to 14) (size 15 to 20)
#    0.000    0.750    7.500    2.250    3.500    0.000 
#    2.250    0.000    0.000    7.500    0.000    0.000 
#    0.000    0.000    0.000    0.000    0.000    0.000 
#
# Total GULP energy -198305.535902 kJ/mol
# GULP energy per Si atom -12394.095994 kJ/mol
# Density = 2.020669 g / cm^3
# Si number density = 20.252783 Si / 1000 Ang^3
#
#
#
# Elastic Constant Matrix: (Units=GPa)
#
#
# Indices 1 2 3 4 5 6 
#
# 1 63.1526 34.4428 39.3184 -3.2113 10.1124 0.4411
# 2 34.4428 98.5750 26.9039 -17.0356 2.1532 -9.2065
# 3 39.3184 26.9039 135.9375 0.4926 0.2326 7.9450
# 4 -3.2113 -17.0356 0.4926 31.0128 2.2839 5.4519
# 5 10.1124 2.1532 0.2326 2.2839 36.6260 3.8949
# 6 0.4411 -9.2065 7.9450 5.4519 3.8949 27.8753
#
#
#
# Elastic Compliance Matrix: (Units=1/GPa)
#
#
# Indices 1 2 3 4 5 6 
#
# 1 0.023985 -0.006861 -0.005563 -0.000735 -0.006131 -0.000060
# 2 -0.006861 0.014314 -0.001097 0.006475 0.000247 0.003848
# 3 -0.005563 -0.001097 0.009360 -0.000937 0.001921 -0.003027
# 4 -0.000735 0.006475 -0.000937 0.036674 -0.001982 -0.004478
# 5 -0.006131 0.000247 0.001921 -0.001982 0.029530 -0.004107
# 6 -0.000060 0.003848 -0.003027 -0.004478 -0.004107 0.039459
#
#
# Mechanical properties :
#
#
# Convention : Reuss Voigt Hill
#
# Bulk Modulus (GPa) = 48.50465 55.44391 51.97428
# Shear Modulus (GPa) = 26.70446 32.23616 29.47031
#
# Velocity S-wave (km/s) = 3.63513 3.99393 3.81875
# Velocity P-wave (km/s) = 6.45140 6.97882 6.72029
#
# Compressibility (1/GPa) = 0.02061658
#
# Stress axis : x y z
#
# Youngs Moduli (GPa) = 41.69327 69.86002 106.84298
#
# Poissons Ratio (x) = 0.47929 0.59435
# Poissons Ratio (y) = 0.28605 0.11725
# Poissons Ratio (z) = 0.23193 0.07666
#
# Static dielectric constant tensor:
#      x y z
#    x 3.442610 -0.036890 0.121090 
#    y -0.036890 3.888590 0.100960 
#    z 0.121090 0.100960 3.954180 
# 
# 
# High freq. dielectric constant tensor:
#      x y z
#    x 1.734660 -0.006970 0.015370 
#    y -0.006970 1.820160 0.007040 
#    z 0.015370 0.007040 1.794910 
# 
# From -- ./inp_files/432764.got.cif
#   From: 2010.06.25/outbox.cif.g09.slc.cpg/sg2_217_cif.got.tgz:432764.got - 2010.06.27 13:26:56.
