data_PCOD8028409
_publ_section_title
;
Structure prediction by ZEFSAII (Michael W. Deem and Ramdas Pophale) SiO2 
 PCOD8028409
Probable space group: P -1
;
_chemical_formula_sum "Si O2"
_cell_formula_units_Z 12
_cell_length_a 5.052296
_cell_length_b 16.399992
_cell_length_c 15.892714
_cell_angle_alpha 154.498562
_cell_angle_beta 130.025703
_cell_angle_gamma 55.603150
_cell_volume 433.654995
_symmetry_space_group_name_H-M "P -1"
_symmetry_group_IT_number 2
_symmetry_cell_setting 'triclinic'
loop_
_space_group_symop_operation_xyz
x,y,z
-x,-y,-z
loop_
_atom_site_type_symbol
_atom_site_label
_atom_site_fract_x
_atom_site_fract_y
_atom_site_fract_z
Si Si1 0.801147 0.816799 0.825360
Si Si2 0.168830 0.476694 0.747286
Si Si3 0.305001 0.167385 0.813805
Si Si4 0.583061 0.142468 0.574987
Si Si5 0.650078 0.887617 0.039173
Si Si6 0.635083 0.499415 0.370377
O O1 0.864655 0.794071 0.918524
O O2 0.791575 0.605903 0.584093
O O3 0.415059 0.896164 0.800717
O O4 0.000000 0.000000 0.000000
O O5 0.323103 0.311515 0.681018
O O6 0.185569 0.411496 0.592536
O O7 0.779903 0.498402 0.721058
O O8 0.400826 0.669104 0.986108
O O9 0.974924 0.226495 0.747377
O O10 0.450524 0.971206 0.626102
O O11 0.181769 0.122868 0.844071
O O12 0.500000 0.000000 0.500000
O O13 0.304313 0.733613 0.831332
#
# Coordination Sequence:
#
# PCOD8028409 Si02
#       6
#     2   2   2   2   2   2
#     4  11  26  43  74 103 142 183 238 292 351 421
#     4  11  27  46  73 105 145 187 235 288 352 424
#     4  10  25  46  69 103 139 189 233 292 352 419
#     4  11  26  43  75 102 143 182 238 294 352 422
#     4  10  25  46  69 101 141 185 235 289 350 417
#     4  11  27  46  74 104 145 188 234 289 351 424
#
# _framework density 27.671768
#
# number of rings (size 3 to 8) (size 9 to 14) (size 15 to 20)
#    0.000    1.333    0.000    2.000   21.000    1.333 
#    0.000    0.000    0.000    0.000    0.000    0.000 
#    0.000    0.000    0.000    0.000    0.000    0.000 
#
# Total GULP energy -148780.332578 kJ/mol
# GULP energy per Si atom -12398.361048 kJ/mol
# Density = 2.760879 g / cm^3
# Si number density = 27.671768 Si / 1000 Ang^3
#
#
#
# Elastic Constant Matrix: (Units=GPa)
#
#
# Indices 1 2 3 4 5 6 
#
# 1 126.0641 53.9273 43.7389 0.3676 -18.8884 -1.2024
# 2 53.9273 161.3159 72.6096 15.1025 -19.9791 -5.2611
# 3 43.7389 72.6096 158.4553 -10.2531 -31.6843 -4.5050
# 4 0.3676 15.1025 -10.2531 44.3412 0.5077 -14.3975
# 5 -18.8884 -19.9791 -31.6843 0.5077 50.5835 -5.3557
# 6 -1.2024 -5.2611 -4.5050 -14.3975 -5.3557 56.7396
#
#
#
# Elastic Compliance Matrix: (Units=1/GPa)
#
#
# Indices 1 2 3 4 5 6 
#
# 1 0.009693 -0.002569 -0.001062 0.000598 0.001957 0.000219
# 2 -0.002569 0.009126 -0.003689 -0.004111 0.000321 -0.000514
# 3 -0.001062 -0.003689 0.009446 0.003984 0.004213 0.001794
# 4 0.000598 -0.004111 0.003984 0.027116 0.001561 0.006976
# 5 0.001957 0.000321 0.004213 0.001561 0.023570 0.003027
# 6 0.000219 -0.000514 0.001794 0.006976 0.003027 0.019780
#
#
# Mechanical properties :
#
#
# Convention : Reuss Voigt Hill
#
# Bulk Modulus (GPa) = 73.39584 87.37632 80.38608
# Shear Modulus (GPa) = 42.40391 48.70351 45.55371
#
# Velocity S-wave (km/s) = 3.91882 4.19984 4.06176
# Velocity P-wave (km/s) = 6.85985 7.42716 7.14913
#
# Compressibility (1/GPa) = 0.01362475
#
# Stress axis : x y z
#
# Youngs Moduli (GPa) = 103.16214 109.57522 105.86643
#
# Poissons Ratio (x) = 0.28147 0.11248
# Poissons Ratio (y) = 0.26499 0.39056
# Poissons Ratio (z) = 0.10961 0.40424
#
# Static dielectric constant tensor:
#      x y z
#    x 7.796500 -3.260050 -1.458090 
#    y -3.260050 8.885620 1.741470 
#    z -1.458090 1.741470 6.045550 
# 
# 
# High freq. dielectric constant tensor:
#      x y z
#    x 2.147140 -0.023760 -0.000380 
#    y -0.023760 2.130560 0.005050 
#    z -0.000380 0.005050 2.132170 
# 
# From -- ./inp_files/31460.got.cif
#   From: 2010.06.25/outbox.cif.g09.slc.cpg/sg2_16_cif.got.tgz:31460.got - 2010.06.27 13:26:56.
