data_PCOD8028262
_publ_section_title
;
Structure prediction by ZEFSAII (Michael W. Deem and Ramdas Pophale) SiO2 
 PCOD8028262
Probable space group: P -1
;
_chemical_formula_sum "Si O2"
_cell_formula_units_Z 14
_cell_length_a 8.566232
_cell_length_b 12.069240
_cell_length_c 18.980188
_cell_angle_alpha 143.383188
_cell_angle_beta 52.896827
_cell_angle_gamma 144.643181
_cell_volume 669.760018
_symmetry_space_group_name_H-M "P -1"
_symmetry_group_IT_number 2
_symmetry_cell_setting 'triclinic'
loop_
_space_group_symop_operation_xyz
x,y,z
-x,-y,-z
loop_
_atom_site_type_symbol
_atom_site_label
_atom_site_fract_x
_atom_site_fract_y
_atom_site_fract_z
Si Si1 0.272071 0.715036 0.829364
Si Si2 0.885067 0.735898 0.865017
Si Si3 0.790060 0.543397 0.503105
Si Si4 0.138383 0.741922 0.035804
Si Si5 0.924919 0.206550 0.305857
Si Si6 0.632927 0.663470 0.117159
Si Si7 0.803087 0.719187 0.445060
O O1 0.058718 0.681052 0.820745
O O2 0.258787 0.489200 0.698275
O O3 0.575973 0.996285 0.876194
O O4 0.188039 0.680727 0.915668
O O5 0.889087 0.741606 0.782562
O O6 0.564417 0.511712 0.853840
O O7 0.000000 0.000000 0.000000
O O8 0.841769 0.360328 0.394438
O O9 0.924531 0.720515 0.486428
O O10 0.468131 0.352687 0.496119
O O11 0.919358 0.724012 0.628186
O O12 0.933989 0.779861 0.104972
O O13 0.000000 0.500000 0.000000
O O14 0.655047 0.900822 0.225560
O O15 0.500000 0.500000 0.000000
O O16 0.000000 0.000000 0.500000
#
# Coordination Sequence:
#
# PCOD8028262 Si02
#       7
#     2   2   2   2   2   2   2
#     4  11  24  43  65 100 136 174 226 277 337 406
#     4  12  23  41  69  99 137 175 219 280 342 404
#     4  10  25  45  67  99 129 183 225 280 333 395
#     4  11  25  42  68  99 139 177 220 278 347 406
#     4  11  24  44  69  95 140 171 227 283 333 399
#     4  12  24  40  67 102 131 175 227 271 345 405
#     4  11  25  44  70  96 136 178 233 275 337 400
#
# _framework density 20.903009000000001
#
# number of rings (size 3 to 8) (size 9 to 14) (size 15 to 20)
#    0.000    0.857    4.286    1.714    2.000    8.000 
#    0.000    2.857    0.000    0.000    0.000    0.000 
#    0.000    0.000    0.000    0.000    0.000    0.000 
#
# Total GULP energy -173634.320210 kJ/mol
# GULP energy per Si atom -12402.451444 kJ/mol
# Density = 2.085543 g / cm^3
# Si number density = 20.903009 Si / 1000 Ang^3
#
#
#
# Elastic Constant Matrix: (Units=GPa)
#
#
# Indices 1 2 3 4 5 6 
#
# 1 91.9352 45.8917 37.7787 1.6004 10.8604 -10.2522
# 2 45.8917 172.2806 73.7390 5.2139 2.7545 -19.7120
# 3 37.7787 73.7390 141.9216 1.4249 17.9233 -19.1873
# 4 1.6004 5.2139 1.4249 35.5287 -3.5171 -5.4298
# 5 10.8604 2.7545 17.9233 -3.5171 25.1993 -4.5099
# 6 -10.2522 -19.7120 -19.1873 -5.4298 -4.5099 40.2360
#
#
#
# Elastic Compliance Matrix: (Units=1/GPa)
#
#
# Indices 1 2 3 4 5 6 
#
# 1 0.013490 -0.002784 -0.001477 -0.000448 -0.004375 0.000818
# 2 -0.002784 0.008319 -0.003729 -0.000334 0.003237 0.001906
# 3 -0.001477 -0.003729 0.010417 -0.000080 -0.006004 0.002081
# 4 -0.000448 -0.000334 -0.000080 0.029373 0.005142 0.004224
# 5 -0.004375 0.003237 -0.006004 0.005142 0.046839 0.003552
# 6 0.000818 0.001906 0.002081 0.004224 0.003552 0.027956
#
#
# Mechanical properties :
#
#
# Convention : Reuss Voigt Hill
#
# Bulk Modulus (GPa) = 61.55388 80.10626 70.83007
# Shear Modulus (GPa) = 31.68805 36.77466 34.23136
#
# Velocity S-wave (km/s) = 3.89775 4.19895 4.05115
# Velocity P-wave (km/s) = 7.05464 7.86856 7.47269
#
# Compressibility (1/GPa) = 0.01624593
#
# Stress axis : x y z
#
# Youngs Moduli (GPa) = 74.13061 120.21383 95.99725
#
# Poissons Ratio (x) = 0.33470 0.14175
# Poissons Ratio (y) = 0.20640 0.35796
# Poissons Ratio (z) = 0.10946 0.44825
#
# Static dielectric constant tensor:
#      x y z
#    x 3.941090 -0.101620 0.027750 
#    y -0.101620 3.903850 -0.119070 
#    z 0.027750 -0.119070 4.018750 
# 
# 
# High freq. dielectric constant tensor:
#      x y z
#    x 1.823630 -0.008870 -0.005080 
#    y -0.008870 1.825930 -0.005640 
#    z -0.005080 -0.005640 1.834120 
# 
# From -- ./inp_files/61062.got.cif
#   From: 2010.06.25/outbox.cif.g09.slc.cpg/sg2_31_cif.got.tgz:61062.got - 2010.06.27 13:26:56.
