data_PCOD8028203
_publ_section_title
;
Structure prediction by ZEFSAII (Michael W. Deem and Ramdas Pophale) SiO2 
 PCOD8028203
Probable space group: P -1
;
_chemical_formula_sum "Si O2"
_cell_formula_units_Z 16
_cell_length_a 22.977042
_cell_length_b 7.301103
_cell_length_c 7.150127
_cell_angle_alpha 84.238963
_cell_angle_beta 32.747408
_cell_angle_gamma 83.798818
_cell_volume 644.949574
_symmetry_space_group_name_H-M "P -1"
_symmetry_group_IT_number 2
_symmetry_cell_setting 'triclinic'
loop_
_space_group_symop_operation_xyz
x,y,z
-x,-y,-z
loop_
_atom_site_type_symbol
_atom_site_label
_atom_site_fract_x
_atom_site_fract_y
_atom_site_fract_z
Si Si1 0.523662 0.922666 0.735042
Si Si2 0.061015 0.821001 0.549272
Si Si3 0.020862 0.235779 0.606386
Si Si4 0.700034 0.181701 0.254049
Si Si5 0.138154 0.615277 0.698021
Si Si6 0.410135 0.438483 0.602548
Si Si7 0.709804 0.090692 0.670494
Si Si8 0.787971 0.726708 0.659978
O O1 0.550447 0.702414 0.657167
O O2 0.619932 0.041944 0.380052
O O3 0.410133 0.953098 0.930164
O O4 0.500000 0.000000 0.000000
O O5 0.052626 0.688547 0.763692
O O6 0.989494 0.730850 0.590445
O O7 0.008908 0.021888 0.714146
O O8 0.185833 0.836368 0.153307
O O9 0.918291 0.349889 0.955391
O O10 0.134856 0.301456 0.365004
O O11 0.647277 0.387579 0.365036
O O12 0.715209 0.112145 0.431055
O O13 0.249251 0.722878 0.367183
O O14 0.167664 0.401919 0.614873
O O15 0.500000 0.500000 0.500000
O O16 0.329073 0.329529 0.959929
O O17 0.790538 0.928419 0.543324
#
# Coordination Sequence:
#
# PCOD8028203 Si02
#       8
#     2   2   2   2   2   2   2   2
#     4  10  25  44  71 105 143 186 240 294 360 437
#     4  11  23  45  73 102 139 194 233 298 360 424
#     4  11  25  44  71 104 143 191 242 292 361 430
#     4  11  24  48  72 104 147 190 237 299 361 435
#     4  12  24  46  71 102 148 188 240 298 362 420
#     4  12  26  46  76 109 145 189 241 305 367 432
#     4  11  25  45  71 104 143 188 236 296 356 433
#     4  12  26  43  73 108 141 187 242 296 354 431
#
# _framework density 24.808140999999999
#
# number of rings (size 3 to 8) (size 9 to 14) (size 15 to 20)
#    0.000    0.750    3.750    3.000    0.000    5.500 
#    0.000    0.000    0.000    0.000    0.000    0.000 
#    0.000    0.000    0.000    0.000    0.000    0.000 
#
# Total GULP energy -198379.495748 kJ/mol
# GULP energy per Si atom -12398.718484 kJ/mol
# Density = 2.475168 g / cm^3
# Si number density = 24.808141 Si / 1000 Ang^3
#
#
#
# Elastic Constant Matrix: (Units=GPa)
#
#
# Indices 1 2 3 4 5 6 
#
# 1 90.9860 18.6063 17.4964 1.9929 -11.1045 18.4086
# 2 18.6063 97.6603 13.7563 12.9969 -2.9959 26.6819
# 3 17.4964 13.7563 62.0211 8.7809 -17.1936 15.5275
# 4 1.9929 12.9969 8.7809 34.8335 5.7324 7.1513
# 5 -11.1045 -2.9959 -17.1936 5.7324 38.1724 -2.1321
# 6 18.4086 26.6819 15.5275 7.1513 -2.1321 39.1861
#
#
#
# Elastic Compliance Matrix: (Units=1/GPa)
#
#
# Indices 1 2 3 4 5 6 
#
# 1 0.012733 -0.000916 -0.001578 0.000550 0.002577 -0.004693
# 2 -0.000916 0.013007 0.000027 -0.003347 0.000835 -0.007781
# 3 -0.001578 0.000027 0.021662 -0.005703 0.009806 -0.006286
# 4 0.000550 -0.003347 -0.005703 0.033088 -0.007762 -0.002180
# 5 0.002577 0.000835 0.009806 -0.007762 0.032456 -0.002482
# 6 -0.004693 -0.007781 -0.006286 -0.002180 -0.002482 0.035776
#
#
# Mechanical properties :
#
#
# Convention : Reuss Voigt Hill
#
# Bulk Modulus (GPa) = 23.54624 38.93172 31.23898
# Shear Modulus (GPa) = 29.79518 35.82562 32.81040
#
# Velocity S-wave (km/s) = 3.46934 3.80426 3.64066
# Velocity P-wave (km/s) = 5.05573 5.91809 5.50382
#
# Compressibility (1/GPa) = 0.04246963
#
# Stress axis : x y z
#
# Youngs Moduli (GPa) = 78.53390 76.88100 46.16298
#
# Poissons Ratio (x) = 0.07040 0.07282
# Poissons Ratio (y) = 0.07191 -0.00123
# Poissons Ratio (z) = 0.12389 -0.00204
#
# Static dielectric constant tensor:
#      x y z
#    x 4.756670 0.288290 -0.387760 
#    y 0.288290 4.643520 0.081270 
#    z -0.387760 0.081270 4.566240 
# 
# 
# High freq. dielectric constant tensor:
#      x y z
#    x 1.997460 0.016280 -0.015570 
#    y 0.016280 1.993750 0.005470 
#    z -0.015570 0.005470 1.989910 
# 
# From -- ./inp_files/350708.got.cif
#   From: 2010.06.25/outbox.cif.g09.slc.cpg/sg2_176_cif.got.tgz:350708.got - 2010.06.27 13:26:56.
