data_PCOD8028509
_publ_section_title
;
Structure prediction by ZEFSAII (Michael W. Deem and Ramdas Pophale) SiO2 
 PCOD8028509
Probable space group: P -1
;
_chemical_formula_sum "Si O2"
_cell_formula_units_Z 16
_cell_length_a 5.284124
_cell_length_b 19.870890
_cell_length_c 17.561777
_cell_angle_alpha 149.959381
_cell_angle_beta 72.423355
_cell_angle_gamma 90.044202
_cell_volume 737.191135
_symmetry_space_group_name_H-M "P -1"
_symmetry_group_IT_number 2
_symmetry_cell_setting 'triclinic'
loop_
_space_group_symop_operation_xyz
x,y,z
-x,-y,-z
loop_
_atom_site_type_symbol
_atom_site_label
_atom_site_fract_x
_atom_site_fract_y
_atom_site_fract_z
Si Si1 0.157783 0.248127 0.092080
Si Si2 0.422638 0.159983 0.818689
Si Si3 0.721724 0.620370 0.527332
Si Si4 0.096111 0.737479 0.161738
Si Si5 0.827188 0.797518 0.408309
Si Si6 0.669478 0.411243 0.581188
Si Si7 0.417864 0.736676 0.832525
Si Si8 0.524501 0.384879 0.739102
O O1 0.464863 0.160659 0.034168
O O2 0.926295 0.427559 0.322210
O O3 0.966493 0.160510 0.033639
O O4 0.246498 0.255569 0.004735
O O5 0.637419 0.222717 0.832264
O O6 0.159760 0.189873 0.810884
O O7 0.637439 0.972269 0.634824
O O8 0.448087 0.684671 0.551074
O O9 0.564249 0.685036 0.686030
O O10 0.947996 0.684410 0.550018
O O11 0.913312 0.816086 0.333267
O O12 0.265114 0.546201 0.964391
O O13 0.595293 0.734162 0.365721
O O14 0.140513 0.686985 0.320749
O O15 0.520366 0.586487 0.731212
O O16 0.548254 0.432081 0.697944
#
# Coordination Sequence:
#
# PCOD8028509 Si02
#       8
#     2   2   2   2   2   2   2   2
#     4  10  18  30  49  80 114 146 182 235 301 352
#     4  12  24  41  65  92 124 162 207 258 309 365
#     4  10  17  30  51  86 117 144 190 256 301 335
#     4  12  23  43  67  91 118 160 215 266 300 355
#     4  12  26  43  61  91 127 167 203 250 317 375
#     4  10  18  30  50  79 114 150 186 234 298 353
#     4  10  18  30  52  86 117 144 190 256 302 335
#     4  12  24  41  63  91 127 165 205 253 308 370
#
# _framework density 21.704007000000001
#
# number of rings (size 3 to 8) (size 9 to 14) (size 15 to 20)
#    0.000    1.000    0.000   12.000    0.000    0.000 
#    0.000    0.000    0.000    0.000    0.000   29.750 
#    0.000    0.000    0.000    0.000    0.000    0.000 
#
# Total GULP energy -198388.976031 kJ/mol
# GULP energy per Si atom -12399.311002 kJ/mol
# Density = 2.165461 g / cm^3
# Si number density = 21.704007 Si / 1000 Ang^3
#
#
#
# Elastic Constant Matrix: (Units=GPa)
#
#
# Indices 1 2 3 4 5 6 
#
# 1 188.4579 24.8955 18.3448 -17.1580 -0.2470 -1.4746
# 2 24.8955 48.1394 27.5319 -22.2892 0.6364 -0.6122
# 3 18.3448 27.5319 39.9998 -5.1975 0.7305 -1.0182
# 4 -17.1580 -22.2892 -5.1975 33.8817 -0.2234 -0.0587
# 5 -0.2470 0.6364 0.7305 -0.2234 24.8661 -6.1252
# 6 -1.4746 -0.6122 -1.0182 -0.0587 -6.1252 48.0722
#
#
#
# Elastic Compliance Matrix: (Units=1/GPa)
#
#
# Indices 1 2 3 4 5 6 
#
# 1 0.005794 -0.001226 -0.001568 0.001889 0.000190 0.000155
# 2 -0.001226 0.053893 -0.032655 0.029823 -0.000171 -0.000028
# 3 -0.001568 -0.032655 0.046244 -0.015185 -0.000570 0.000424
# 4 0.001889 0.029823 -0.015185 0.047762 0.000179 0.000197
# 5 0.000190 -0.000171 -0.000570 0.000179 0.041542 0.005285
# 6 0.000155 -0.000028 0.000424 0.000197 0.005285 0.021489
#
#
# Mechanical properties :
#
#
# Convention : Reuss Voigt Hill
#
# Bulk Modulus (GPa) = 28.54379 46.46017 37.50198
# Shear Modulus (GPa) = 16.70568 35.08564 25.89566
#
# Velocity S-wave (km/s) = 2.77737 4.02500 3.45792
# Velocity P-wave (km/s) = 4.84406 6.56152 5.76708
#
# Compressibility (1/GPa) = 0.03503388
#
# Stress axis : x y z
#
# Youngs Moduli (GPa) = 172.58643 18.55517 21.62458
#
# Poissons Ratio (x) = 0.02275 0.03390
# Poissons Ratio (y) = 0.21158 0.70615
# Poissons Ratio (z) = 0.27055 0.60592
#
# Static dielectric constant tensor:
#      x y z
#    x 6.767510 -0.012150 -0.030910 
#    y -0.012150 3.679950 -0.309510 
#    z -0.030910 -0.309510 3.679740 
# 
# 
# High freq. dielectric constant tensor:
#      x y z
#    x 1.897390 -0.000690 -0.000700 
#    y -0.000690 1.837110 -0.037690 
#    z -0.000700 -0.037690 1.823130 
# 
# From -- ./inp_files/142405.got.cif
#   From: 2010.06.25/outbox.cif.g09.slc.cpg/sg2_72_cif.got.tgz:142405.got - 2010.06.27 13:26:56.
