data_PCOD8028588
_publ_section_title
;
Structure prediction by ZEFSAII (Michael W. Deem and Ramdas Pophale) SiO2 
 PCOD8028588
Probable space group: P -1
;
_chemical_formula_sum "Si O2"
_cell_formula_units_Z 12
_cell_length_a 19.292039
_cell_length_b 5.055683
_cell_length_c 16.842741
_cell_angle_alpha 115.460419
_cell_angle_beta 159.135361
_cell_angle_gamma 73.178910
_cell_volume 494.993846
_symmetry_space_group_name_H-M "P -1"
_symmetry_group_IT_number 2
_symmetry_cell_setting 'triclinic'
loop_
_space_group_symop_operation_xyz
x,y,z
-x,-y,-z
loop_
_atom_site_type_symbol
_atom_site_label
_atom_site_fract_x
_atom_site_fract_y
_atom_site_fract_z
Si Si1 0.538262 0.769116 0.189492
Si Si2 0.693502 0.986272 0.800347
Si Si3 0.162718 0.286976 0.383429
Si Si4 0.157624 0.866234 0.554475
Si Si5 0.734643 0.910519 0.134106
Si Si6 0.562228 0.611598 0.456689
O O1 0.709295 0.906742 0.460587
O O2 0.666511 0.818963 0.250307
O O3 0.411947 0.410472 0.026137
O O4 0.381814 0.963517 0.042028
O O5 0.686097 0.868319 0.687058
O O6 0.538315 0.725526 0.655946
O O7 0.620023 0.285843 0.764260
O O8 0.925932 0.070139 0.091257
O O9 0.183952 0.573684 0.501295
O O10 0.270196 0.410103 0.430442
O O11 0.930155 0.873719 0.293909
O O12 0.189198 0.842380 0.679879
#
# Coordination Sequence:
#
# PCOD8028588 Si02
#       6
#     2   2   2   2   2   2
#     4  12  27  45  70 103 139 186 231 292 346 403
#     4  10  25  48  73 101 142 182 226 278 352 422
#     4  12  28  41  75 109 139 177 238 290 342 406
#     4  11  28  46  71 103 136 191 236 286 344 406
#     4  11  28  48  70  94 147 189 235 280 349 413
#     4  10  25  48  72 102 140 185 222 283 351 414
#
# _framework density 24.242725
#
# number of rings (size 3 to 8) (size 9 to 14) (size 15 to 20)
#    0.000    1.000    1.667    1.500   11.667    1.333 
#    0.000    5.000    0.000    0.000    0.000    0.000 
#    0.000    0.000    0.000    0.000    0.000    0.000 
#
# Total GULP energy -148829.439505 kJ/mol
# GULP energy per Si atom -12402.453292 kJ/mol
# Density = 2.418755 g / cm^3
# Si number density = 24.242725 Si / 1000 Ang^3
#
#
#
# Elastic Constant Matrix: (Units=GPa)
#
#
# Indices 1 2 3 4 5 6 
#
# 1 -19.1430 15.1461 -44.0189 5.4655 87.9869 22.4825
# 2 15.1461 108.9985 34.8499 -17.9366 -2.9713 8.3597
# 3 -44.0189 34.8499 104.0033 -18.2534 51.2382 12.5039
# 4 5.4655 -17.9366 -18.2534 32.1847 -5.1334 -4.3629
# 5 87.9869 -2.9713 51.2382 -5.1334 -28.2075 -37.6359
# 6 22.4825 8.3597 12.5039 -4.3629 -37.6359 7.5773
#
#
#
# Elastic Compliance Matrix: (Units=1/GPa)
#
#
# Indices 1 2 3 4 5 6 
#
# 1 0.010928 -0.002207 -0.001195 0.000030 0.009113 0.017261
# 2 -0.002207 0.011464 -0.002222 0.004099 -0.001675 -0.008393
# 3 -0.001195 -0.002222 0.008753 0.005235 0.002452 0.006747
# 4 0.000030 0.004099 0.005235 0.036516 -0.001029 0.002664
# 5 0.009113 -0.001675 0.002452 -0.001029 0.004929 -0.005349
# 6 0.017261 -0.008393 0.006747 0.002664 -0.005349 0.053849
#
#
# Mechanical properties :
#
#
# Convention : Reuss Voigt Hill
#
# Bulk Modulus (GPa) = 50.25649 22.86813 36.56231
# Shear Modulus (GPa) = 34.64576 14.83633 24.74105
#
# Velocity S-wave (km/s) = 3.78447 2.47653 3.19808
# Velocity P-wave (km/s) = 6.31442 4.19894 5.36204
#
# Compressibility (1/GPa) = 0.01989793
#
# Stress axis : x y z
#
# Youngs Moduli (GPa) = 91.50978 87.22929 114.24312
#
# Poissons Ratio (x) = 0.19252 0.13649
# Poissons Ratio (y) = 0.20197 0.25383
# Poissons Ratio (z) = 0.10933 0.19381
#
# Static dielectric constant tensor:
#      x y z
#    x 4.453770 0.126970 -0.006150 
#    y 0.126970 4.305700 -0.284190 
#    z -0.006150 -0.284190 4.655790 
# 
# 
# High freq. dielectric constant tensor:
#      x y z
#    x 1.971020 0.005590 0.005520 
#    y 0.005590 1.958060 -0.012180 
#    z 0.005520 -0.012180 1.975560 
# 
# From -- ./inp_files/576502.got.cif
#   From: 2010.06.25/outbox.cif.g09.slc.cpg/sg2_289_cif.got.tgz:576502.got - 2010.06.27 13:26:56.
