data_PCOD8028478
_publ_section_title
;
Structure prediction by ZEFSAII (Michael W. Deem and Ramdas Pophale) SiO2 
 PCOD8028478
Probable space group: P -1
;
_chemical_formula_sum "Si O2"
_cell_formula_units_Z 16
_cell_length_a 8.940391
_cell_length_b 21.215659
_cell_length_c 5.483234
_cell_angle_alpha 49.638146
_cell_angle_beta 100.400127
_cell_angle_gamma 123.542612
_cell_volume 634.242557
_symmetry_space_group_name_H-M "P -1"
_symmetry_group_IT_number 2
_symmetry_cell_setting 'triclinic'
loop_
_space_group_symop_operation_xyz
x,y,z
-x,-y,-z
loop_
_atom_site_type_symbol
_atom_site_label
_atom_site_fract_x
_atom_site_fract_y
_atom_site_fract_z
Si Si1 0.604510 0.446370 0.665770
Si Si2 0.336691 0.241430 0.356975
Si Si3 0.015256 0.267472 0.262147
Si Si4 0.106196 0.019643 0.732188
Si Si5 0.659309 0.334256 0.598035
Si Si6 0.962685 0.623643 0.515094
Si Si7 0.634365 0.156772 0.240633
Si Si8 0.657089 0.045181 0.129257
O O1 0.500000 0.500000 0.500000
O O2 0.679288 0.433992 0.460261
O O3 0.780214 0.505920 0.751946
O O4 0.449352 0.330690 0.975299
O O5 0.287397 0.136617 0.492234
O O6 0.470219 0.268176 0.556643
O O7 0.143288 0.226523 0.404626
O O8 0.791555 0.174265 0.439567
O O9 0.065018 0.331145 0.364403
O O10 0.046290 0.329350 0.864637
O O11 0.156383 0.938158 0.958285
O O12 0.000000 0.000000 0.500000
O O13 0.000000 0.000000 0.000000
O O14 0.850497 0.372754 0.414231
O O15 0.632684 0.255659 0.997876
O O16 0.707870 0.148117 0.015562
O O17 0.431013 0.050983 0.467137
O O18 0.500000 0.000000 0.000000
#
# Coordination Sequence:
#
# PCOD8028478 Si02
#       8
#     2   2   2   2   2   2   2   2
#     4  12  26  49  76 111 156 200 257 311 382 454
#     4  12  28  46  81 107 154 205 252 315 383 457
#     4  11  26  47  75 107 150 199 251 304 379 447
#     4  12  31  50  77 115 158 197 255 316 386 455
#     4  11  27  46  77 109 150 198 256 310 380 448
#     4  11  27  48  76 109 151 198 250 317 368 446
#     4  10  25  46  74 107 145 194 257 315 374 457
#     4  11  25  45  77 104 146 197 252 318 386 443
#
# _framework density 25.226939000000002
#
# number of rings (size 3 to 8) (size 9 to 14) (size 15 to 20)
#    0.000    0.750    1.250    3.375   19.250    1.500 
#    0.000    0.000    0.000    0.000    0.000    0.000 
#    0.000    0.000    0.000    0.000    0.000    0.000 
#
# Total GULP energy -198304.771075 kJ/mol
# GULP energy per Si atom -12394.048192 kJ/mol
# Density = 2.516952 g / cm^3
# Si number density = 25.226939 Si / 1000 Ang^3
#
#
#
# Elastic Constant Matrix: (Units=GPa)
#
#
# Indices 1 2 3 4 5 6 
#
# 1 132.2250 29.3429 10.5665 9.7592 30.9112 -1.0699
# 2 29.3429 163.8934 10.3919 15.8710 13.2507 -0.3724
# 3 10.5665 10.3919 50.6733 10.9141 4.5672 -4.5674
# 4 9.7592 15.8710 10.9141 46.2443 6.0339 1.4093
# 5 30.9112 13.2507 4.5672 6.0339 42.7649 -2.4708
# 6 -1.0699 -0.3724 -4.5674 1.4093 -2.4708 60.0578
#
#
#
# Elastic Compliance Matrix: (Units=1/GPa)
#
#
# Indices 1 2 3 4 5 6 
#
# 1 0.009389 -0.001053 -0.001074 -0.000542 -0.006279 -0.000167
# 2 -0.001053 0.006580 -0.000668 -0.001752 -0.000961 -0.000027
# 3 -0.001074 -0.000668 0.021275 -0.004544 -0.000550 0.001679
# 4 -0.000542 -0.001752 -0.004544 0.023702 -0.001982 -0.001004
# 5 -0.006279 -0.000961 -0.000550 -0.001982 0.028620 0.001064
# 6 -0.000167 -0.000027 0.001679 -0.001004 0.001064 0.016842
#
#
# Mechanical properties :
#
#
# Convention : Reuss Voigt Hill
#
# Bulk Modulus (GPa) = 31.59312 49.71048 40.65180
# Shear Modulus (GPa) = 40.79995 49.57942 45.18968
#
# Velocity S-wave (km/s) = 4.02595 4.43802 4.23700
# Velocity P-wave (km/s) = 5.84481 6.78303 6.33132
#
# Compressibility (1/GPa) = 0.03165246
#
# Stress axis : x y z
#
# Youngs Moduli (GPa) = 106.50926 151.98257 47.00358
#
# Poissons Ratio (x) = 0.16005 0.05049
# Poissons Ratio (y) = 0.11216 0.03141
# Poissons Ratio (z) = 0.11441 0.10157
#
# Static dielectric constant tensor:
#      x y z
#    x 6.328540 -0.019390 -0.583660 
#    y -0.019390 4.958690 -0.705790 
#    z -0.583660 -0.705790 5.618140 
# 
# 
# High freq. dielectric constant tensor:
#      x y z
#    x 2.026080 -0.000600 -0.004840 
#    y -0.000600 2.020700 -0.007310 
#    z -0.004840 -0.007310 2.002610 
# 
# From -- ./inp_files/52245.got.cif
#   From: 2010.06.25/outbox.cif.g09.slc.cpg/sg2_27_cif.got.tgz:52245.got - 2010.06.27 13:26:56.
