data_PCOD8028237
_publ_section_title
;
Structure prediction by ZEFSAII (Michael W. Deem and Ramdas Pophale) SiO2 
 PCOD8028237
Probable space group: P -1
;
_chemical_formula_sum "Si O2"
_cell_formula_units_Z 16
_cell_length_a 14.082007
_cell_length_b 13.436297
_cell_length_c 13.672847
_cell_angle_alpha 47.261392
_cell_angle_beta 48.155480
_cell_angle_gamma 20.416010
_cell_volume 657.911936
_symmetry_space_group_name_H-M "P -1"
_symmetry_group_IT_number 2
_symmetry_cell_setting 'triclinic'
loop_
_space_group_symop_operation_xyz
x,y,z
-x,-y,-z
loop_
_atom_site_type_symbol
_atom_site_label
_atom_site_fract_x
_atom_site_fract_y
_atom_site_fract_z
Si Si1 0.407900 0.494319 0.477954
Si Si2 0.853280 0.850757 0.616731
Si Si3 0.874552 0.340506 0.023629
Si Si4 0.508638 0.071500 0.550311
Si Si5 0.281128 0.485700 0.295616
Si Si6 0.206654 0.111484 0.763535
Si Si7 0.324740 0.725378 0.184666
Si Si8 0.237577 0.269490 0.066579
O O1 0.500000 0.500000 0.500000
O O2 0.401075 0.605675 0.319815
O O3 0.125502 0.678775 0.560790
O O4 0.621706 0.175015 0.534333
O O5 0.794433 0.821762 0.773906
O O6 0.803993 0.804389 0.582258
O O7 0.599876 0.513801 0.082303
O O8 0.090304 0.061520 0.132976
O O9 0.036159 0.198226 0.906127
O O10 0.763410 0.588200 0.971461
O O11 0.371212 0.346018 0.435195
O O12 0.308173 0.166294 0.692611
O O13 0.500000 0.000000 0.500000
O O14 0.212609 0.708338 0.206514
O O15 0.996574 0.683259 0.326793
O O16 0.524978 0.229682 0.220886
O O17 0.000000 0.500000 0.000000
O O18 0.500000 0.000000 0.000000
#
# Coordination Sequence:
#
# PCOD8028237 Si02
#       8
#     2   2   2   2   2   2   2   2
#     4  12  29  50  79 111 150 195 256 319 379 450
#     4  12  28  50  83 112 148 199 258 314 388 453
#     4  12  29  47  75 107 149 203 252 310 375 457
#     4  10  25  44  78 114 154 196 247 322 381 451
#     4  11  24  45  72 109 154 200 249 309 378 444
#     4  11  26  44  73 109 154 199 251 307 376 453
#     4  12  27  47  76 106 153 198 256 307 377 451
#     4  12  30  51  78 110 150 194 253 318 381 450
#
# _framework density 24.319364
#
# number of rings (size 3 to 8) (size 9 to 14) (size 15 to 20)
#    0.000    0.500    1.250    4.500   17.500    3.000 
#    0.000    0.000    0.000    0.000    0.000    0.000 
#    0.000    0.000    0.000    0.000    0.000    0.000 
#
# Total GULP energy -198290.834691 kJ/mol
# GULP energy per Si atom -12393.177168 kJ/mol
# Density = 2.426401 g / cm^3
# Si number density = 24.319364 Si / 1000 Ang^3
#
#
#
# Elastic Constant Matrix: (Units=GPa)
#
#
# Indices 1 2 3 4 5 6 
#
# 1 131.0847 34.1777 42.5988 15.3473 -5.3578 -31.1599
# 2 34.1777 135.4780 29.3486 -0.7238 -12.1967 -14.6286
# 3 42.5988 29.3486 124.1597 -4.2539 -13.1018 -5.3157
# 4 15.3473 -0.7238 -4.2539 42.3790 -9.9973 -3.2896
# 5 -5.3578 -12.1967 -13.1018 -9.9973 35.3393 3.9540
# 6 -31.1599 -14.6286 -5.3157 -3.2896 3.9540 51.8225
#
#
#
# Elastic Compliance Matrix: (Units=1/GPa)
#
#
# Indices 1 2 3 4 5 6 
#
# 1 0.010962 -0.001604 -0.003509 -0.004399 -0.002070 0.005657
# 2 -0.001604 0.008377 -0.001072 0.001294 0.002484 0.001182
# 3 -0.003509 -0.001072 0.009954 0.003036 0.003814 -0.001490
# 4 -0.004399 0.001294 0.003036 0.027521 0.008790 -0.000892
# 5 -0.002070 0.002484 0.003814 0.008790 0.032977 -0.002110
# 6 0.005657 0.001182 -0.001490 -0.000892 -0.002110 0.022984
#
#
# Mechanical properties :
#
#
# Convention : Reuss Voigt Hill
#
# Bulk Modulus (GPa) = 59.09566 66.99698 63.04632
# Shear Modulus (GPa) = 38.23002 44.88132 41.55567
#
# Velocity S-wave (km/s) = 3.96915 4.30059 4.13819
# Velocity P-wave (km/s) = 6.73484 7.22971 6.98666
#
# Compressibility (1/GPa) = 0.01692172
#
# Stress axis : x y z
#
# Youngs Moduli (GPa) = 91.22034 119.38057 100.46009
#
# Poissons Ratio (x) = 0.19154 0.35250
# Poissons Ratio (y) = 0.14635 0.10774
# Poissons Ratio (z) = 0.32008 0.12803
#
# Static dielectric constant tensor:
#      x y z
#    x 5.106100 -0.092230 -0.566730 
#    y -0.092230 4.498260 0.016470 
#    z -0.566730 0.016470 5.078580 
# 
# 
# High freq. dielectric constant tensor:
#      x y z
#    x 1.975470 -0.012580 -0.008460 
#    y -0.012580 1.978390 -0.005350 
#    z -0.008460 -0.005350 1.981770 
# 
# From -- ./inp_files/534248.got.cif
#   From: 2010.06.25/outbox.cif.g09.slc.cpg/sg2_268_cif.got.tgz:534248.got - 2010.06.27 13:26:56.
