data_PCOD8028578
_publ_section_title
;
Structure prediction by ZEFSAII (Michael W. Deem and Ramdas Pophale) SiO2 
 PCOD8028578
Probable space group: P -1
;
_chemical_formula_sum "Si O2"
_cell_formula_units_Z 12
_cell_length_a 12.277733
_cell_length_b 15.154145
_cell_length_c 8.968976
_cell_angle_alpha 44.127805
_cell_angle_beta 123.904001
_cell_angle_gamma 152.783355
_cell_volume 514.131111
_symmetry_space_group_name_H-M "P -1"
_symmetry_group_IT_number 2
_symmetry_cell_setting 'triclinic'
loop_
_space_group_symop_operation_xyz
x,y,z
-x,-y,-z
loop_
_atom_site_type_symbol
_atom_site_label
_atom_site_fract_x
_atom_site_fract_y
_atom_site_fract_z
Si Si1 0.210512 0.130525 0.116659
Si Si2 0.927242 0.220965 0.153887
Si Si3 0.074021 0.734941 0.571948
Si Si4 0.684383 0.644682 0.779784
Si Si5 0.558982 0.298579 0.547100
Si Si6 0.179408 0.596287 0.645280
O O1 0.204619 0.224510 0.134554
O O2 0.484415 0.366627 0.970703
O O3 0.170738 0.954266 0.350069
O O4 0.000000 0.000000 0.000000
O O5 0.941825 0.310324 0.210421
O O6 0.084146 0.219208 0.302600
O O7 0.036671 0.380749 0.901642
O O8 0.641911 0.957934 0.221248
O O9 0.803941 0.490683 0.596084
O O10 0.258603 0.783018 0.578486
O O11 0.548554 0.648472 0.589876
O O12 0.596938 0.289742 0.411098
O O13 0.000000 0.500000 0.500000
#
# Coordination Sequence:
#
# PCOD8028578 Si02
#       6
#     2   2   2   2   2   2
#     4  11  22  41  71 100 139 180 225 278 334 407
#     4  12  26  45  70 101 140 178 224 287 333 407
#     4  11  25  44  69 106 132 180 235 271 338 406
#     4  11  24  43  67 104 139 174 223 278 345 392
#     4  11  24  48  71  99 141 178 223 283 338 401
#     4  10  25  48  69  98 136 183 229 277 339 400
#
# _framework density 23.340350999999998
#
# number of rings (size 3 to 8) (size 9 to 14) (size 15 to 20)
#    0.000    1.000    3.333    3.000    2.333    5.333 
#    3.000    0.000    0.000    0.000    0.000    0.000 
#    0.000    0.000    0.000    0.000    0.000    0.000 
#
# Total GULP energy -148770.473123 kJ/mol
# GULP energy per Si atom -12397.539427 kJ/mol
# Density = 2.328723 g / cm^3
# Si number density = 23.340351 Si / 1000 Ang^3
#
#
#
# Elastic Constant Matrix: (Units=GPa)
#
#
# Indices 1 2 3 4 5 6 
#
# 1 105.5690 27.9646 31.0759 -29.4499 6.1701 -9.3595
# 2 27.9646 130.7378 26.8116 -24.0118 -2.9834 -2.3098
# 3 31.0759 26.8116 111.5380 -22.1408 0.5446 4.1482
# 4 -29.4499 -24.0118 -22.1408 34.8843 3.2065 -6.5956
# 5 6.1701 -2.9834 0.5446 3.2065 28.6329 -0.7585
# 6 -9.3595 -2.3098 4.1482 -6.5956 -0.7585 25.2357
#
#
#
# Elastic Compliance Matrix: (Units=1/GPa)
#
#
# Indices 1 2 3 4 5 6 
#
# 1 0.014865 -0.000309 -0.001730 0.013374 -0.004458 0.009131
# 2 -0.000309 0.009029 -0.001044 0.005701 0.000452 0.002387
# 3 -0.001730 -0.001044 0.010613 0.004342 -0.000460 -0.001361
# 4 0.013374 0.005701 0.004342 0.050698 -0.007577 0.017791
# 5 -0.004458 0.000452 -0.000460 -0.007577 0.036726 -0.002413
# 6 0.009131 0.002387 -0.001361 0.017791 -0.002413 0.048032
#
#
# Mechanical properties :
#
#
# Convention : Reuss Voigt Hill
#
# Bulk Modulus (GPa) = 35.28377 57.72766 46.50572
# Shear Modulus (GPa) = 26.94333 35.21674 31.08003
#
# Velocity S-wave (km/s) = 3.40128 3.88859 3.65307
# Velocity P-wave (km/s) = 5.52945 6.70434 6.14504
#
# Compressibility (1/GPa) = 0.02834164
#
# Stress axis : x y z
#
# Youngs Moduli (GPa) = 67.27374 110.75951 94.22182
#
# Poissons Ratio (x) = 0.03419 0.16302
# Poissons Ratio (y) = 0.02077 0.09832
# Poissons Ratio (z) = 0.11640 0.11558
#
# Static dielectric constant tensor:
#      x y z
#    x 4.856250 0.012980 0.000330 
#    y 0.012980 4.299150 -0.085630 
#    z 0.000330 -0.085630 4.110160 
# 
# 
# High freq. dielectric constant tensor:
#      x y z
#    x 1.933440 0.004010 0.005540 
#    y 0.004010 1.933620 -0.006300 
#    z 0.005540 -0.006300 1.919680 
# 
# From -- ./inp_files/264365.got.cif
#   From: 2010.06.25/outbox.cif.g09.slc.cpg/sg2_133_cif.got.tgz:264365.got - 2010.06.27 13:26:56.
