data_PCOD8028746
_publ_section_title
;
Structure prediction by ZEFSAII (Michael W. Deem and Ramdas Pophale) SiO2 
 PCOD8028746
Probable space group: P -1
;
_chemical_formula_sum "Si O2"
_cell_formula_units_Z 12
_cell_length_a 5.116773
_cell_length_b 11.709857
_cell_length_c 8.690094
_cell_angle_alpha 80.339662
_cell_angle_beta 107.122913
_cell_angle_gamma 115.911279
_cell_volume 447.114994
_symmetry_space_group_name_H-M "P -1"
_symmetry_group_IT_number 2
_symmetry_cell_setting 'triclinic'
loop_
_space_group_symop_operation_xyz
x,y,z
-x,-y,-z
loop_
_atom_site_type_symbol
_atom_site_label
_atom_site_fract_x
_atom_site_fract_y
_atom_site_fract_z
Si Si1 0.507953 0.667987 0.029786
Si Si2 0.456792 0.015591 0.241918
Si Si3 0.183684 0.484405 0.758088
Si Si4 0.142195 0.832014 0.970207
Si Si5 0.707277 0.886329 0.530873
Si Si6 0.596251 0.386331 0.530861
O O1 0.624397 0.603341 0.203352
O O2 0.370256 0.762662 0.048835
O O3 0.796094 0.737338 0.951160
O O4 0.250325 0.554742 0.917549
O O5 0.343372 0.109757 0.294253
O O6 0.223314 0.945257 0.082439
O O7 0.447857 0.909635 0.386737
O O8 0.785659 0.103340 0.203364
O O9 0.241857 0.590361 0.613271
O O10 0.829593 0.390236 0.705741
O O11 0.685887 0.749999 0.500007
O O12 0.000000 0.000000 0.500000
O O13 0.500000 0.500000 0.500000
#
# Coordination Sequence:
#
# PCOD8028746 Si02
#       6
#     2   2   2   2   2   2
#     4  11  26  45  79 111 157 197 263 323 398 462
#     4  10  26  46  71 112 151 209 254 324 390 470
#     4  10  26  46  71 112 151 209 254 324 390 470
#     4  11  26  45  79 111 157 197 263 323 398 462
#     4  11  26  46  77 110 158 205 265 317 391 466
#     4  11  26  46  77 110 158 205 265 317 391 466
#
# _framework density 26.838733000000001
#
# number of rings (size 3 to 8) (size 9 to 14) (size 15 to 20)
#    0.000    1.333    0.000    2.000   14.000    8.000 
#    0.000    0.000    0.000    0.000    0.000    0.000 
#    0.000    0.000    0.000    0.000    0.000    0.000 
#
# Total GULP energy -148761.971044 kJ/mol
# GULP energy per Si atom -12396.830920 kJ/mol
# Density = 2.677765 g / cm^3
# Si number density = 26.838733 Si / 1000 Ang^3
#
#
#
# Elastic Constant Matrix: (Units=GPa)
#
#
# Indices 1 2 3 4 5 6 
#
# 1 116.2082 48.3690 40.8940 19.4762 0.0797 0.0022
# 2 48.3690 178.1235 56.8142 28.5590 -0.0244 -0.1214
# 3 40.8940 56.8142 122.7760 13.9315 -0.1123 -0.1384
# 4 19.4762 28.5590 13.9315 51.1173 -0.0104 -0.0063
# 5 0.0797 -0.0244 -0.1123 -0.0104 27.5438 -9.6666
# 6 0.0022 -0.1214 -0.1384 -0.0063 -9.6666 48.7044
#
#
#
# Elastic Compliance Matrix: (Units=1/GPa)
#
#
# Indices 1 2 3 4 5 6 
#
# 1 0.010585 -0.001702 -0.002465 -0.002411 -0.000051 -0.000022
# 2 -0.001702 0.007318 -0.002507 -0.002757 0.000004 0.000012
# 3 -0.002465 -0.002507 0.010175 -0.000434 0.000058 0.000034
# 4 -0.002411 -0.002757 -0.000434 0.022140 0.000010 -0.000003
# 5 -0.000051 0.000004 0.000058 0.000010 0.039024 0.007746
# 6 -0.000022 0.000012 0.000034 -0.000003 0.007746 0.022069
#
#
# Mechanical properties :
#
#
# Convention : Reuss Voigt Hill
#
# Bulk Modulus (GPa) = 67.88098 78.80691 73.34394
# Shear Modulus (GPa) = 38.58982 43.54180 41.06581
#
# Velocity S-wave (km/s) = 3.79600 4.03221 3.91589
# Velocity P-wave (km/s) = 6.67532 7.14879 6.91611
#
# Compressibility (1/GPa) = 0.01473167
#
# Stress axis : x y z
#
# Youngs Moduli (GPa) = 94.47413 136.65495 98.27945
#
# Poissons Ratio (x) = 0.23255 0.24223
# Poissons Ratio (y) = 0.16077 0.24635
# Poissons Ratio (z) = 0.23285 0.34254
#
# Static dielectric constant tensor:
#      x y z
#    x 4.665480 0.004120 -0.005420 
#    y 0.004120 5.374110 -0.885930 
#    z -0.005420 -0.885930 5.867900 
# 
# 
# High freq. dielectric constant tensor:
#      x y z
#    x 2.067040 0.000060 -0.000110 
#    y 0.000060 2.084540 -0.013200 
#    z -0.000110 -0.013200 2.091240 
# 
# From -- ./inp_files/131688.got.cif
#   From: 2010.06.25/outbox.cif.g09.slc.cpg/sg2_66_cif.got.tgz:131688.got - 2010.06.27 13:26:56.
