data_PCOD8028933
_publ_section_title
;
Structure prediction by ZEFSAII (Michael W. Deem and Ramdas Pophale) SiO2 
 PCOD8028933
Probable space group: P -1
;
_chemical_formula_sum "Si O2"
_cell_formula_units_Z 12
_cell_length_a 8.084390
_cell_length_b 9.313313
_cell_length_c 14.245458
_cell_angle_alpha 140.986717
_cell_angle_beta 45.387952
_cell_angle_gamma 129.843160
_cell_volume 469.726531
_symmetry_space_group_name_H-M "P -1"
_symmetry_group_IT_number 2
_symmetry_cell_setting 'triclinic'
loop_
_space_group_symop_operation_xyz
x,y,z
-x,-y,-z
loop_
_atom_site_type_symbol
_atom_site_label
_atom_site_fract_x
_atom_site_fract_y
_atom_site_fract_z
Si Si1 0.634681 0.043773 0.566341
Si Si2 0.074505 0.425416 0.532699
Si Si3 0.631360 0.956706 0.811574
Si Si4 0.067408 0.293359 0.762941
Si Si5 0.071747 0.805076 0.031658
Si Si6 0.241933 0.921296 0.807537
O O1 0.156761 0.725598 0.401038
O O2 0.751289 0.820497 0.427181
O O3 0.454652 0.058857 0.728811
O O4 0.500000 0.000000 0.500000
O O5 0.163289 0.653531 0.674861
O O6 0.000000 0.500000 0.500000
O O7 0.283543 0.284409 0.363412
O O8 0.793863 0.158871 0.784280
O O9 0.683640 0.036871 0.940979
O O10 0.353650 0.930391 0.874680
O O11 0.115283 0.254480 0.836642
O O12 0.117956 0.561910 0.849985
O O13 0.968297 0.934850 0.051741
#
# Coordination Sequence:
#
# PCOD8028933 Si02
#       6
#     2   2   2   2   2   2
#     4  11  19  34  59  86 106 144 183 222 277 321
#     4  11  19  35  53  81 118 138 176 234 267 319
#     4   9  19  33  54  83 107 145 182 220 275 322
#     4   8  17  34  51  79 116 136 185 226 258 328
#     4   9  17  35  54  79 113 143 182 225 261 330
#     4  12  21  34  61  82 110 145 179 225 278 319
#
# _framework density 25.546779999999998
#
# number of rings (size 3 to 8) (size 9 to 14) (size 15 to 20)
#    1.000    1.000    5.000    0.500    0.000    3.333 
#    0.000    0.000    0.000    8.000    0.000    8.167 
#    0.000    0.000    0.000    0.000    0.000    0.000 
#
# Total GULP energy -148766.733229 kJ/mol
# GULP energy per Si atom -12397.227769 kJ/mol
# Density = 2.548863 g / cm^3
# Si number density = 25.546780 Si / 1000 Ang^3
#
#
#
# Elastic Constant Matrix: (Units=GPa)
#
#
# Indices 1 2 3 4 5 6 
#
# 1 204.1663 75.0887 89.7073 15.9374 -11.2439 -11.6877
# 2 75.0887 129.6732 66.3565 10.2189 -1.4801 -7.7888
# 3 89.7073 66.3565 114.5591 49.7812 -4.0197 -10.1468
# 4 15.9374 10.2189 49.7812 46.1242 2.2699 6.7058
# 5 -11.2439 -1.4801 -4.0197 2.2699 41.7433 -7.3514
# 6 -11.6877 -7.7888 -10.1468 6.7058 -7.3514 38.7291
#
#
#
# Elastic Compliance Matrix: (Units=1/GPa)
#
#
# Indices 1 2 3 4 5 6 
#
# 1 0.009056 -0.000560 -0.010660 0.008695 0.000646 -0.001556
# 2 -0.000560 0.013385 -0.012629 0.011418 -0.002069 -0.003155
# 3 -0.010660 -0.012629 0.045644 -0.045302 0.006221 0.015226
# 4 0.008695 0.011418 -0.045302 0.068461 -0.008948 -0.020501
# 5 0.000646 -0.002069 0.006221 -0.008948 0.026551 0.007998
# 6 -0.001556 -0.003155 0.015226 -0.020501 0.007998 0.033773
#
#
# Mechanical properties :
#
#
# Convention : Reuss Voigt Hill
#
# Bulk Modulus (GPa) = 49.04952 101.18928 75.11940
# Shear Modulus (GPa) = 19.89154 39.80240 29.84697
#
# Velocity S-wave (km/s) = 2.79343 3.95146 3.42179
# Velocity P-wave (km/s) = 5.44480 7.77908 6.71416
#
# Compressibility (1/GPa) = 0.02038756
#
# Stress axis : x y z
#
# Youngs Moduli (GPa) = 110.42836 74.70881 21.90860
#
# Poissons Ratio (x) = 0.04184 0.23355
# Poissons Ratio (y) = 0.06184 0.27668
# Poissons Ratio (z) = 1.17719 0.94347
#
# Static dielectric constant tensor:
#      x y z
#    x 4.687180 -0.013810 -0.125970 
#    y -0.013810 4.791540 -0.072150 
#    z -0.125970 -0.072150 4.299470 
# 
# 
# High freq. dielectric constant tensor:
#      x y z
#    x 2.033130 0.005020 -0.003670 
#    y 0.005020 2.049180 -0.022160 
#    z -0.003670 -0.022160 2.024530 
# 
# From -- ./inp_files/494051.got.cif
#   From: 2010.06.25/outbox.cif.g09.slc.cpg/sg2_248_cif.got.tgz:494051.got - 2010.06.27 13:26:56.
