data_PCOD8028684
_publ_section_title
;
Structure prediction by ZEFSAII (Michael W. Deem and Ramdas Pophale) SiO2 
 PCOD8028684
Probable space group: P -1
;
_chemical_formula_sum "Si O2"
_cell_formula_units_Z 16
_cell_length_a 9.374878
_cell_length_b 8.997522
_cell_length_c 11.711917
_cell_angle_alpha 132.137074
_cell_angle_beta 80.750588
_cell_angle_gamma 96.999353
_cell_volume 722.917564
_symmetry_space_group_name_H-M "P -1"
_symmetry_group_IT_number 2
_symmetry_cell_setting 'triclinic'
loop_
_space_group_symop_operation_xyz
x,y,z
-x,-y,-z
loop_
_atom_site_type_symbol
_atom_site_label
_atom_site_fract_x
_atom_site_fract_y
_atom_site_fract_z
Si Si1 0.241740 0.053316 0.716524
Si Si2 0.604943 0.563036 0.646122
Si Si3 0.622521 0.999954 0.893210
Si Si4 0.065298 0.217647 0.634486
Si Si5 0.845559 0.079386 0.088511
Si Si6 0.284358 0.503162 0.640895
Si Si7 0.232073 0.690498 0.351130
Si Si8 0.464274 0.726282 0.151968
O O1 0.129912 0.208536 0.750338
O O2 0.399148 0.155165 0.752438
O O3 0.200521 0.011984 0.831043
O O4 0.238328 0.854450 0.536419
O O5 0.443315 0.496600 0.676454
O O6 0.670257 0.447648 0.469966
O O7 0.711752 0.520252 0.715535
O O8 0.609411 0.791285 0.719575
O O9 0.601054 0.184632 0.908778
O O10 0.768365 0.997975 0.943776
O O11 0.500000 0.000000 0.000000
O O12 0.193775 0.297475 0.573838
O O13 0.926290 0.357491 0.707337
O O14 0.000000 0.000000 0.500000
O O15 0.819164 0.318239 0.214009
O O16 0.000000 0.000000 0.000000
O O17 0.337079 0.760497 0.274354
O O18 0.500000 0.500000 0.000000
#
# Coordination Sequence:
#
# PCOD8028684 Si02
#       8
#     2   2   2   2   2   2   2   2
#     4  11  24  49  69 103 144 189 245 299 360 431
#     4  11  24  43  78 105 141 183 251 303 357 421
#     4  12  25  46  69 107 148 185 249 294 360 433
#     4  10  26  44  68 103 148 184 241 291 367 429
#     4  12  28  47  74 104 148 194 238 302 371 431
#     4  11  24  46  73 107 136 193 242 301 356 438
#     4  11  25  45  71 107 140 190 242 297 371 425
#     4  12  27  44  73 104 147 192 240 297 361 435
#
# _framework density 22.132538
#
# number of rings (size 3 to 8) (size 9 to 14) (size 15 to 20)
#    0.000    0.750    3.750    1.875   10.500    1.500 
#    0.000    1.250    0.000    0.000    0.000    0.000 
#    0.000    0.000    0.000    0.000    0.000    0.000 
#
# Total GULP energy -198227.326794 kJ/mol
# GULP energy per Si atom -12389.207925 kJ/mol
# Density = 2.208216 g / cm^3
# Si number density = 22.132538 Si / 1000 Ang^3
#
#
#
# Elastic Constant Matrix: (Units=GPa)
#
#
# Indices 1 2 3 4 5 6 
#
# 1 186.4496 77.1192 44.3992 -6.2295 2.2975 -14.7330
# 2 77.1192 137.7277 28.8753 -8.5594 0.7503 -10.2012
# 3 44.3992 28.8753 73.6547 -3.8530 -6.3031 2.6878
# 4 -6.2295 -8.5594 -3.8530 30.8244 -5.8607 9.6884
# 5 2.2975 0.7503 -6.3031 -5.8607 37.1387 -3.5117
# 6 -14.7330 -10.2012 2.6878 9.6884 -3.5117 46.3225
#
#
#
# Elastic Compliance Matrix: (Units=1/GPa)
#
#
# Indices 1 2 3 4 5 6 
#
# 1 0.007801 -0.003521 -0.003506 -0.000634 -0.000920 0.001972
# 2 -0.003521 0.009730 -0.001635 0.001547 0.000063 0.000799
# 3 -0.003506 -0.001635 0.016832 0.002408 0.003230 -0.002710
# 4 -0.000634 0.001547 0.002408 0.036344 0.005472 -0.007187
# 5 -0.000920 0.000063 0.003230 0.005472 0.028445 0.000546
# 6 0.001972 0.000799 -0.002710 -0.007187 0.000546 0.024093
#
#
# Mechanical properties :
#
#
# Convention : Reuss Voigt Hill
#
# Bulk Modulus (GPa) = 58.68649 77.62437 68.15543
# Shear Modulus (GPa) = 34.18862 39.35299 36.77081
#
# Velocity S-wave (km/s) = 3.93456 4.22128 4.08044
# Velocity P-wave (km/s) = 6.87128 7.67513 7.28430
#
# Compressibility (1/GPa) = 0.01703970
#
# Stress axis : x y z
#
# Youngs Moduli (GPa) = 128.19547 102.77406 59.40983
#
# Poissons Ratio (x) = 0.36189 0.20827
# Poissons Ratio (y) = 0.45141 0.09712
# Poissons Ratio (z) = 0.44941 0.16801
#
# Static dielectric constant tensor:
#      x y z
#    x 4.523840 -0.289830 -0.034840 
#    y -0.289830 4.224510 -0.017180 
#    z -0.034840 -0.017180 3.803190 
# 
# 
# High freq. dielectric constant tensor:
#      x y z
#    x 1.889100 -0.015150 -0.000720 
#    y -0.015150 1.882600 -0.003300 
#    z -0.000720 -0.003300 1.859450 
# 
# From -- ./inp_files/336832.got.cif
#   From: 2010.06.25/outbox.cif.g09.slc.cpg/sg2_169_cif.got.tgz:336832.got - 2010.06.27 13:26:56.
