data_PCOD8028433
_publ_section_title
;
Structure prediction by ZEFSAII (Michael W. Deem and Ramdas Pophale) SiO2 
 PCOD8028433
Probable space group: P -1
;
_chemical_formula_sum "Si O2"
_cell_formula_units_Z 16
_cell_length_a 13.202158
_cell_length_b 14.232016
_cell_length_c 8.971954
_cell_angle_alpha 70.889701
_cell_angle_beta 119.285923
_cell_angle_gamma 55.446993
_cell_volume 653.310079
_symmetry_space_group_name_H-M "P -1"
_symmetry_group_IT_number 2
_symmetry_cell_setting 'triclinic'
loop_
_space_group_symop_operation_xyz
x,y,z
-x,-y,-z
loop_
_atom_site_type_symbol
_atom_site_label
_atom_site_fract_x
_atom_site_fract_y
_atom_site_fract_z
Si Si1 0.578560 0.239699 0.325647
Si Si2 0.974021 0.324385 0.661734
Si Si3 0.177653 0.240031 0.550789
Si Si4 0.705528 0.931456 0.708232
Si Si5 0.842755 0.483658 0.936964
Si Si6 0.231188 0.709742 0.622872
Si Si7 0.595291 0.741534 0.348390
Si Si8 0.753904 0.033784 0.262456
O O1 0.313087 0.472017 0.085546
O O2 0.770924 0.184003 0.526720
O O3 0.631524 0.093612 0.508960
O O4 0.584114 0.224631 0.155535
O O5 0.824458 0.337305 0.507223
O O6 0.819603 0.514035 0.553231
O O7 0.035479 0.339817 0.550860
O O8 0.231663 0.104960 0.049977
O O9 0.408443 0.140927 0.774317
O O10 0.250203 0.077119 0.623382
O O11 0.000641 0.429047 0.198882
O O12 0.500000 0.000000 0.500000
O O13 0.968899 0.713765 0.932503
O O14 0.636836 0.700960 0.578580
O O15 0.032218 0.863794 0.534892
O O16 0.500000 0.500000 0.000000
O O17 0.345188 0.885675 0.022620
#
# Coordination Sequence:
#
# PCOD8028433 Si02
#       8
#     2   2   2   2   2   2   2   2
#     4  12  26  44  79  98 148 197 239 295 376 409
#     4  10  25  46  70 106 144 189 249 300 357 437
#     4  11  22  40  71 100 150 187 241 294 370 441
#     4  11  28  47  72 112 153 188 241 303 366 443
#     4  11  26  45  66 112 143 189 242 295 362 438
#     4  11  25  48  75 103 145 190 257 305 348 438
#     4  11  24  41  67 105 147 186 235 308 373 429
#     4  11  24  44  70 109 135 190 254 291 366 444
#
# _framework density 24.490666999999998
#
# number of rings (size 3 to 8) (size 9 to 14) (size 15 to 20)
#    0.000    1.000    1.250    4.500   10.500    0.500 
#    0.000    1.250    0.000    0.000    0.000    0.000 
#    0.000    0.000    0.000    0.000    0.000    0.000 
#
# Total GULP energy -198214.986699 kJ/mol
# GULP energy per Si atom -12388.436669 kJ/mol
# Density = 2.443492 g / cm^3
# Si number density = 24.490667 Si / 1000 Ang^3
#
#
#
# Elastic Constant Matrix: (Units=GPa)
#
#
# Indices 1 2 3 4 5 6 
#
# 1 132.5074 65.4145 28.9989 5.9372 17.8809 -1.1107
# 2 65.4145 79.3675 24.6876 15.3588 12.1872 -13.4278
# 3 28.9989 24.6876 119.9267 20.8057 -6.6234 -14.3098
# 4 5.9372 15.3588 20.8057 39.1536 -6.0238 -1.1489
# 5 17.8809 12.1872 -6.6234 -6.0238 41.1887 -0.5925
# 6 -1.1107 -13.4278 -14.3098 -1.1489 -0.5925 39.2271
#
#
#
# Elastic Compliance Matrix: (Units=1/GPa)
#
#
# Indices 1 2 3 4 5 6 
#
# 1 0.014042 -0.011866 -0.002166 0.003157 -0.002535 -0.004400
# 2 -0.011866 0.026088 -0.000229 -0.008649 -0.003752 0.008201
# 3 -0.002166 -0.000229 0.010237 -0.004607 0.002031 0.003490
# 4 0.003157 -0.008649 -0.004607 0.031570 0.005014 -0.003551
# 5 -0.002535 -0.003752 0.002031 0.005014 0.027548 -0.000052
# 6 -0.004400 0.008201 0.003490 -0.003551 -0.000052 0.029344
#
#
# Mechanical properties :
#
#
# Convention : Reuss Voigt Hill
#
# Bulk Modulus (GPa) = 45.77569 63.33371 54.55470
# Shear Modulus (GPa) = 28.63154 38.09393 33.36274
#
# Velocity S-wave (km/s) = 3.42289 3.94819 3.69489
# Velocity P-wave (km/s) = 5.86116 6.83380 6.36608
#
# Compressibility (1/GPa) = 0.02184566
#
# Stress axis : x y z
#
# Youngs Moduli (GPa) = 71.21334 38.33147 97.68402
#
# Poissons Ratio (x) = 0.45485 0.21154
# Poissons Ratio (y) = 0.84503 0.02240
# Poissons Ratio (z) = 0.15421 0.00879
#
# Static dielectric constant tensor:
#      x y z
#    x 4.733120 -0.193200 0.001470 
#    y -0.193200 4.733340 -0.049870 
#    z 0.001470 -0.049870 4.991980 
# 
# 
# High freq. dielectric constant tensor:
#      x y z
#    x 1.970910 -0.017160 -0.002210 
#    y -0.017160 1.988900 -0.008080 
#    z -0.002210 -0.008080 1.985630 
# 
# From -- ./inp_files/272679.got.cif
#   From: 2010.06.25/outbox.cif.g09.slc.cpg/sg2_137_cif.got.tgz:272679.got - 2010.06.27 13:26:56.
