data_PCOD8028260
_publ_section_title
;
Structure prediction by ZEFSAII (Michael W. Deem and Ramdas Pophale) SiO2 
 PCOD8028260
Probable space group: P -1
;
_chemical_formula_sum "Si O2"
_cell_formula_units_Z 16
_cell_length_a 9.207440
_cell_length_b 8.833079
_cell_length_c 11.984724
_cell_angle_alpha 107.089768
_cell_angle_beta 107.179625
_cell_angle_gamma 116.535602
_cell_volume 722.379229
_symmetry_space_group_name_H-M "P -1"
_symmetry_group_IT_number 2
_symmetry_cell_setting 'triclinic'
loop_
_space_group_symop_operation_xyz
x,y,z
-x,-y,-z
loop_
_atom_site_type_symbol
_atom_site_label
_atom_site_fract_x
_atom_site_fract_y
_atom_site_fract_z
Si Si1 0.094776 0.344412 0.310786
Si Si2 0.542359 0.910513 0.836511
Si Si3 0.714821 0.600537 0.050461
Si Si4 0.807199 0.791160 0.893788
Si Si5 0.903204 0.965936 0.315503
Si Si6 0.767742 0.295892 0.098481
Si Si7 0.604134 0.231076 0.472502
Si Si8 0.730578 0.966390 0.492200
O O1 0.208456 0.284901 0.251522
O O2 0.237244 0.539213 0.455760
O O3 0.974429 0.366771 0.196198
O O4 0.969872 0.180421 0.339314
O O5 0.637776 0.808340 0.876444
O O6 0.353489 0.809713 0.841741
O O7 0.495355 0.877879 0.688435
O O8 0.682026 0.142932 0.942953
O O9 0.814538 0.820975 0.161454
O O10 0.782548 0.486617 0.106187
O O11 0.500000 0.500000 0.000000
O O12 0.773652 0.628205 0.939664
O O13 0.000000 0.000000 0.000000
O O14 0.073600 0.960351 0.392257
O O15 0.740546 0.894689 0.355665
O O16 0.710629 0.143578 0.526435
O O17 0.448262 0.206951 0.517173
#
# Coordination Sequence:
#
# PCOD8028260 Si02
#       8
#     2   2   2   2   2   2   2   2
#     4  12  26  45  71 102 138 181 228 278 349 406
#     4  11  24  45  71  99 139 182 227 282 341 405
#     4  12  26  42  72 103 134 180 231 285 337 407
#     4  12  24  46  68 101 140 178 222 284 344 400
#     4  11  24  45  69  96 138 181 224 282 342 409
#     4  11  25  44  71 101 136 181 230 279 341 410
#     4  11  26  43  70 102 136 179 226 288 336 405
#     4  10  25  45  67  96 141 176 228 278 343 402
#
# _framework density 22.149031000000001
#
# number of rings (size 3 to 8) (size 9 to 14) (size 15 to 20)
#    0.000    0.750    3.750    2.250    5.250    7.500 
#    0.000    0.000    0.000    0.000    0.000    0.000 
#    0.000    0.000    0.000    0.000    0.000    0.000 
#
# Total GULP energy -198440.239370 kJ/mol
# GULP energy per Si atom -12402.514961 kJ/mol
# Density = 2.209862 g / cm^3
# Si number density = 22.149031 Si / 1000 Ang^3
#
#
#
# Elastic Constant Matrix: (Units=GPa)
#
#
# Indices 1 2 3 4 5 6 
#
# 1 108.3139 30.0481 32.6444 -3.0086 -3.5760 1.8958
# 2 30.0481 107.6458 43.3238 -2.8816 -0.7849 7.5527
# 3 32.6444 43.3238 113.7183 5.9936 -8.0876 9.7108
# 4 -3.0086 -2.8816 5.9936 37.3232 1.9691 -2.4061
# 5 -3.5760 -0.7849 -8.0876 1.9691 23.6832 -2.4831
# 6 1.8958 7.5527 9.7108 -2.4061 -2.4831 29.7466
#
#
#
# Elastic Compliance Matrix: (Units=1/GPa)
#
#
# Indices 1 2 3 4 5 6 
#
# 1 0.010534 -0.002024 -0.002322 0.001076 0.000719 0.000748
# 2 -0.002024 0.011543 -0.003861 0.001327 -0.001516 -0.001560
# 3 -0.002322 -0.003861 0.011535 -0.002683 0.003414 -0.002569
# 4 0.001076 0.001327 -0.002683 0.027718 -0.002754 0.002483
# 5 0.000719 -0.001516 0.003414 -0.002754 0.043957 0.002671
# 6 0.000748 -0.001560 -0.002569 0.002483 0.002671 0.035228
#
#
# Mechanical properties :
#
#
# Convention : Reuss Voigt Hill
#
# Bulk Modulus (GPa) = 58.14949 60.19007 59.16978
# Shear Modulus (GPa) = 30.73833 33.06137 31.89985
#
# Velocity S-wave (km/s) = 3.72935 3.86771 3.79916
# Velocity P-wave (km/s) = 6.69738 6.86874 6.78360
#
# Compressibility (1/GPa) = 0.01719706
#
# Stress axis : x y z
#
# Youngs Moduli (GPa) = 94.92656 86.63540 86.69410
#
# Poissons Ratio (x) = 0.17538 0.20132
# Poissons Ratio (y) = 0.19217 0.33471
# Poissons Ratio (z) = 0.22044 0.33448
#
# Static dielectric constant tensor:
#      x y z
#    x 4.192300 -0.075330 -0.388010 
#    y -0.075330 4.035890 -0.117180 
#    z -0.388010 -0.117180 1.921920 
# 
# 
# High freq. dielectric constant tensor:
#      x y z
#    x 1.887540 -0.001110 -0.000020 
#    y -0.001110 1.870750 -0.007840 
#    z -0.000020 -0.007840 1.870290 
# 
# From -- ./inp_files/245596.got.cif
#   From: 2010.06.25/outbox.cif.g09.slc.cpg/sg2_123_cif.got.tgz:245596.got - 2010.06.27 13:26:56.
