data_PCOD8028296
_publ_section_title
;
Structure prediction by ZEFSAII (Michael W. Deem and Ramdas Pophale) SiO2 
 PCOD8028296
Probable space group: P -1
;
_chemical_formula_sum "Si O2"
_cell_formula_units_Z 16
_cell_length_a 13.950679
_cell_length_b 25.348327
_cell_length_c 17.162987
_cell_angle_alpha 158.021019
_cell_angle_beta 149.476390
_cell_angle_gamma 20.326415
_cell_volume 787.502479
_symmetry_space_group_name_H-M "P -1"
_symmetry_group_IT_number 2
_symmetry_cell_setting 'triclinic'
loop_
_space_group_symop_operation_xyz
x,y,z
-x,-y,-z
loop_
_atom_site_type_symbol
_atom_site_label
_atom_site_fract_x
_atom_site_fract_y
_atom_site_fract_z
Si Si1 0.777348 0.296509 0.508407
Si Si2 0.272537 0.024725 0.594101
Si Si3 0.945184 0.365772 0.272299
Si Si4 0.809798 0.870395 0.140450
Si Si5 0.797204 0.926404 0.807334
Si Si6 0.384337 0.650894 0.193985
Si Si7 0.216517 0.746014 0.720069
Si Si8 0.333350 0.956166 0.883105
O O1 0.491304 0.525510 0.646864
O O2 0.848149 0.289874 0.458412
O O3 0.759760 0.138999 0.278777
O O4 0.010538 0.221190 0.629378
O O5 0.526121 0.978747 0.677085
O O6 0.302330 0.841183 0.354417
O O7 0.251900 0.049453 0.706086
O O8 0.617756 0.535662 0.264399
O O9 0.000000 0.500000 0.500000
O O10 0.998443 0.263607 0.251601
O O11 0.130736 0.191036 0.095249
O O12 0.680491 0.043737 0.220782
O O13 0.137983 0.695214 0.120714
O O14 0.652900 0.807401 0.929818
O O15 0.947836 0.859570 0.738698
O O16 0.722887 0.119453 0.055586
O O17 0.500000 0.500000 0.000000
#
# Coordination Sequence:
#
# PCOD8028296 Si02
#       8
#     2   2   2   2   2   2   2   2
#     4  11  23  44  69  93 125 171 222 273 321 371
#     4  12  24  41  65  96 133 166 215 275 315 385
#     4  12  22  40  66  96 133 172 204 261 331 390
#     4  11  23  39  62  96 134 173 205 256 331 389
#     4  11  24  46  66  94 130 167 224 268 319 385
#     4  12  24  38  58  99 134 168 211 254 322 390
#     4  10  25  45  69  90 121 180 222 268 324 378
#     4  11  22  41  65  92 139 171 210 262 320 397
#
# _framework density 20.317395999999999
#
# number of rings (size 3 to 8) (size 9 to 14) (size 15 to 20)
#    0.000    0.750    6.250    0.375    1.750    4.000 
#    0.000    0.000    0.000    0.000    0.000    0.000 
#    0.000    0.000    0.000    0.000    0.000    0.000 
#
# Total GULP energy -198309.557353 kJ/mol
# GULP energy per Si atom -12394.347335 kJ/mol
# Density = 2.027115 g / cm^3
# Si number density = 20.317396 Si / 1000 Ang^3
#
#
#
# Elastic Constant Matrix: (Units=GPa)
#
#
# Indices 1 2 3 4 5 6 
#
# 1 92.2127 42.1011 31.2222 -8.3555 -6.6651 -6.1043
# 2 42.1011 166.6612 42.5737 -16.7101 3.8413 -5.1544
# 3 31.2222 42.5737 77.4082 4.3089 -3.2319 2.5361
# 4 -8.3555 -16.7101 4.3089 28.9016 2.3367 3.0448
# 5 -6.6651 3.8413 -3.2319 2.3367 24.5094 -4.1714
# 6 -6.1043 -5.1544 2.5361 3.0448 -4.1714 43.6312
#
#
#
# Elastic Compliance Matrix: (Units=1/GPa)
#
#
# Indices 1 2 3 4 5 6 
#
# 1 0.014028 -0.002083 -0.004599 0.003022 0.003607 0.002118
# 2 -0.002083 0.008117 -0.004022 0.004884 -0.002785 0.000294
# 3 -0.004599 -0.004022 0.017468 -0.006264 0.002024 -0.001503
# 4 0.003022 0.004884 -0.006264 0.039825 -0.004887 -0.001883
# 5 0.003607 -0.002785 0.002024 -0.004887 0.043730 0.004580
# 6 0.002118 0.000294 -0.001503 -0.001883 0.004580 0.023907
#
#
# Mechanical properties :
#
#
# Convention : Reuss Voigt Hill
#
# Bulk Modulus (GPa) = 54.93279 63.11957 59.02618
# Shear Modulus (GPa) = 28.64490 34.10077 31.37283
#
# Velocity S-wave (km/s) = 3.75890 4.10128 3.93381
# Velocity P-wave (km/s) = 6.77754 7.31857 7.05325
#
# Compressibility (1/GPa) = 0.01820406
#
# Stress axis : x y z
#
# Youngs Moduli (GPa) = 71.28789 123.20089 57.24796
#
# Poissons Ratio (x) = 0.25668 0.26329
# Poissons Ratio (y) = 0.14852 0.23023
# Poissons Ratio (z) = 0.32786 0.49547
#
# Static dielectric constant tensor:
#      x y z
#    x 3.699240 0.017700 0.021550 
#    y 0.017700 3.758440 -0.143830 
#    z 0.021550 -0.143830 3.702230 
# 
# 
# High freq. dielectric constant tensor:
#      x y z
#    x 1.799900 -0.001530 -0.004460 
#    y -0.001530 1.803960 -0.011170 
#    z -0.004460 -0.011170 1.788850 
# 
# From -- ./inp_files/447551.got.cif
#   From: 2010.06.25/outbox.cif.g09.slc.cpg/sg2_224_cif.got.tgz:447551.got - 2010.06.27 13:26:56.
