data_PCOD8028271
_publ_section_title
;
Structure prediction by ZEFSAII (Michael W. Deem and Ramdas Pophale) SiO2 
 PCOD8028271
Probable space group: P -1
;
_chemical_formula_sum "Si O2"
_cell_formula_units_Z 12
_cell_length_a 5.400763
_cell_length_b 8.367258
_cell_length_c 12.232257
_cell_angle_alpha 85.214754
_cell_angle_beta 112.416186
_cell_angle_gamma 109.742344
_cell_volume 480.311295
_symmetry_space_group_name_H-M "P -1"
_symmetry_group_IT_number 2
_symmetry_cell_setting 'triclinic'
loop_
_space_group_symop_operation_xyz
x,y,z
-x,-y,-z
loop_
_atom_site_type_symbol
_atom_site_label
_atom_site_fract_x
_atom_site_fract_y
_atom_site_fract_z
Si Si1 0.367581 0.982259 0.595225
Si Si2 0.835469 0.713929 0.491635
Si Si3 0.731902 0.844946 0.073080
Si Si4 0.580469 0.559799 0.683579
Si Si5 0.156756 0.636706 0.109806
Si Si6 0.280215 0.114522 0.175502
O O1 0.589477 0.008545 0.729171
O O2 0.166599 0.783036 0.573172
O O3 0.500000 0.000000 0.500000
O O4 0.219757 0.122743 0.580765
O O5 0.679746 0.657483 0.582427
O O6 0.740078 0.567154 0.391090
O O7 0.460281 0.760543 0.107708
O O8 0.939288 0.732773 0.100993
O O9 0.623184 0.880046 0.934015
O O10 0.937113 0.031004 0.139587
O O11 0.776561 0.451405 0.764061
O O12 0.592185 0.692852 0.772540
O O13 0.000000 0.500000 0.000000
#
# Coordination Sequence:
#
# PCOD8028271 Si02
#       6
#     2   2   2   2   2   2
#     4  11  23  43  70  96 138 183 234 288 359 419
#     4  10  25  45  68 102 136 186 237 293 357 426
#     4  11  28  48  74 108 145 191 241 287 368 423
#     4  11  24  44  71 103 141 182 240 297 356 419
#     4  12  26  48  75 106 146 190 237 297 358 426
#     4  11  25  45  73 103 141 188 235 304 348 434
#
# _framework density 24.983796999999999
#
# number of rings (size 3 to 8) (size 9 to 14) (size 15 to 20)
#    0.000    1.000    3.333    1.500    4.667    4.667 
#    0.000    0.000    0.000    0.000    0.000    0.000 
#    0.000    0.000    0.000    0.000    0.000    0.000 
#
# Total GULP energy -148718.500615 kJ/mol
# GULP energy per Si atom -12393.208385 kJ/mol
# Density = 2.492693 g / cm^3
# Si number density = 24.983797 Si / 1000 Ang^3
#
#
#
# Elastic Constant Matrix: (Units=GPa)
#
#
# Indices 1 2 3 4 5 6 
#
# 1 72.8227 24.3968 11.0083 0.7186 5.5207 14.9222
# 2 24.3968 134.0222 47.0845 22.5062 0.3063 22.9276
# 3 11.0083 47.0845 147.0088 3.5664 27.8120 4.9645
# 4 0.7186 22.5062 3.5664 56.8854 -6.0031 12.4473
# 5 5.5207 0.3063 27.8120 -6.0031 20.8413 2.1852
# 6 14.9222 22.9276 4.9645 12.4473 2.1852 35.5663
#
#
#
# Elastic Compliance Matrix: (Units=1/GPa)
#
#
# Indices 1 2 3 4 5 6 
#
# 1 0.015844 -0.002332 0.000409 0.001511 -0.003696 -0.005503
# 2 -0.002332 0.010489 -0.004056 -0.002211 0.005742 -0.004797
# 3 0.000409 -0.004056 0.010891 -0.001179 -0.015159 0.002267
# 4 0.001511 -0.002211 -0.001179 0.020838 0.007923 -0.006824
# 5 -0.003696 0.005742 -0.015159 0.007923 0.072147 -0.007240
# 6 -0.005503 -0.004797 0.002267 -0.006824 -0.007240 0.036034
#
#
# Mechanical properties :
#
#
# Convention : Reuss Voigt Hill
#
# Bulk Modulus (GPa) = 39.57674 57.64809 48.61242
# Shear Modulus (GPa) = 26.79204 40.74956 33.77080
#
# Velocity S-wave (km/s) = 3.27827 4.04299 3.68055
# Velocity P-wave (km/s) = 5.49588 6.70214 6.12876
#
# Compressibility (1/GPa) = 0.02526736
#
# Stress axis : x y z
#
# Youngs Moduli (GPa) = 63.11414 95.33426 91.82244
#
# Poissons Ratio (x) = 0.22228 -0.03753
# Poissons Ratio (y) = 0.14716 0.37240
# Poissons Ratio (z) = -0.02580 0.38664
#
# Static dielectric constant tensor:
#      x y z
#    x 4.186690 0.052000 0.513450 
#    y 0.052000 5.926420 0.056970 
#    z 0.513450 0.056970 4.953480 
# 
# 
# High freq. dielectric constant tensor:
#      x y z
#    x 1.965440 0.004860 0.023440 
#    y 0.004860 2.022120 0.003550 
#    z 0.023440 0.003550 2.020370 
# 
# From -- ./inp_files/34384.got.cif
#   From: 2010.06.25/outbox.cif.g09.slc.cpg/sg2_18_cif.got.tgz:34384.got - 2010.06.27 13:26:56.
