data_PCOD8028227
_publ_section_title
;
Structure prediction by ZEFSAII (Michael W. Deem and Ramdas Pophale) SiO2 
 PCOD8028227
Probable space group: P -1
;
_chemical_formula_sum "Si O2"
_cell_formula_units_Z 14
_cell_length_a 9.740773
_cell_length_b 9.598171
_cell_length_c 9.371245
_cell_angle_alpha 70.380697
_cell_angle_beta 68.387584
_cell_angle_gamma 113.822330
_cell_volume 612.401305
_symmetry_space_group_name_H-M "P -1"
_symmetry_group_IT_number 2
_symmetry_cell_setting 'triclinic'
loop_
_space_group_symop_operation_xyz
x,y,z
-x,-y,-z
loop_
_atom_site_type_symbol
_atom_site_label
_atom_site_fract_x
_atom_site_fract_y
_atom_site_fract_z
Si Si1 0.811267 0.407829 0.021218
Si Si2 0.656436 0.028242 0.332397
Si Si3 0.848527 0.355572 0.717899
Si Si4 0.118929 0.288478 0.702405
Si Si5 0.964924 0.026609 0.342674
Si Si6 0.444306 0.686437 0.329743
Si Si7 0.736064 0.670929 0.071243
O O1 0.702012 0.188414 0.151728
O O2 0.697487 0.478329 0.104190
O O3 0.847876 0.460507 0.821590
O O4 0.000000 0.500000 0.000000
O O5 0.500000 0.000000 0.500000
O O6 0.830601 0.087376 0.346810
O O7 0.586195 0.845363 0.331095
O O8 0.000000 0.500000 0.500000
O O9 0.912084 0.229939 0.781700
O O10 0.649213 0.242056 0.756415
O O11 0.142841 0.171442 0.623229
O O12 0.287014 0.504875 0.540722
O O13 0.122810 0.237511 0.881261
O O14 0.000000 0.000000 0.500000
O O15 0.165430 0.180129 0.144984
O O16 0.545146 0.632623 0.203330
#
# Coordination Sequence:
#
# PCOD8028227 Si02
#       7
#     2   2   2   2   2   2   2
#     4  12  25  46  76 104 141 193 238 289 358 424
#     4  12  28  46  73 107 147 186 242 296 353 426
#     4  10  25  44  74 102 142 187 241 288 355 422
#     4  11  23  47  76  99 146 195 235 285 361 433
#     4  12  29  45  73 108 145 187 239 297 362 421
#     4  11  27  45  74 108 144 188 239 293 361 417
#     4  12  25  47  74 104 145 186 241 288 359 429
#
# _framework density 22.860827
#
# number of rings (size 3 to 8) (size 9 to 14) (size 15 to 20)
#    0.000    0.571    4.286    1.714   12.000    2.286 
#    0.000    0.000    0.000    0.000    0.000    0.000 
#    0.000    0.000    0.000    0.000    0.000    0.000 
#
# Total GULP energy -173587.070712 kJ/mol
# GULP energy per Si atom -12399.076479 kJ/mol
# Density = 2.280879 g / cm^3
# Si number density = 22.860827 Si / 1000 Ang^3
#
#
#
# Elastic Constant Matrix: (Units=GPa)
#
#
# Indices 1 2 3 4 5 6 
#
# 1 144.7061 21.1166 42.8620 17.1351 5.5948 -12.8437
# 2 21.1166 120.5504 48.1277 7.0399 3.4892 -8.9418
# 3 42.8620 48.1277 122.4990 19.5667 13.7836 -3.0195
# 4 17.1351 7.0399 19.5667 44.3589 0.5797 -2.7594
# 5 5.5948 3.4892 13.7836 0.5797 40.4710 13.6545
# 6 -12.8437 -8.9418 -3.0195 -2.7594 13.6545 35.2874
#
#
#
# Elastic Compliance Matrix: (Units=1/GPa)
#
#
# Indices 1 2 3 4 5 6 
#
# 1 0.008158 -0.000143 -0.002260 -0.001920 -0.001371 0.003120
# 2 -0.000143 0.010016 -0.003842 0.000308 -0.000317 0.002304
# 3 -0.002260 -0.003842 0.011389 -0.003489 -0.003239 0.000159
# 4 -0.001920 0.000308 -0.003489 0.024807 0.000836 0.000697
# 5 -0.001371 -0.000317 -0.003239 0.000836 0.030231 -0.012489
# 6 0.003120 0.002304 0.000159 0.000697 -0.012489 0.034959
#
#
# Mechanical properties :
#
#
# Convention : Reuss Voigt Hill
#
# Bulk Modulus (GPa) = 58.57382 67.99644 63.28513
# Shear Modulus (GPa) = 36.29966 42.40006 39.34986
#
# Velocity S-wave (km/s) = 3.98911 4.31130 4.15333
# Velocity P-wave (km/s) = 6.84798 7.38859 7.12342
#
# Compressibility (1/GPa) = 0.01707247
#
# Stress axis : x y z
#
# Youngs Moduli (GPa) = 122.57537 99.83777 87.80255
#
# Poissons Ratio (x) = 0.01432 0.19847
# Poissons Ratio (y) = 0.01758 0.33731
# Poissons Ratio (z) = 0.27707 0.38355
#
# Static dielectric constant tensor:
#      x y z
#    x 2.388520 -1.214850 2.098910 
#    y -1.214850 4.077600 0.500330 
#    z 2.098910 0.500330 3.131380 
# 
# 
# High freq. dielectric constant tensor:
#      x y z
#    x 1.911810 -0.013870 0.004420 
#    y -0.013870 1.896840 0.012820 
#    z 0.004420 0.012820 1.908720 
# 
# From -- ./inp_files/242906.got.cif
#   From: 2010.06.25/outbox.cif.g09.slc.cpg/sg2_122_cif.got.tgz:242906.got - 2010.06.27 13:26:56.
