data_PCOD8028767
_publ_section_title
;
Structure prediction by ZEFSAII (Michael W. Deem and Ramdas Pophale) SiO2 
 PCOD8028767
Probable space group: P -1
;
_chemical_formula_sum "Si O2"
_cell_formula_units_Z 14
_cell_length_a 8.858565
_cell_length_b 5.326823
_cell_length_c 12.007594
_cell_angle_alpha 82.912115
_cell_angle_beta 82.174940
_cell_angle_gamma 104.367616
_cell_volume 536.439337
_symmetry_space_group_name_H-M "P -1"
_symmetry_group_IT_number 2
_symmetry_cell_setting 'triclinic'
loop_
_space_group_symop_operation_xyz
x,y,z
-x,-y,-z
loop_
_atom_site_type_symbol
_atom_site_label
_atom_site_fract_x
_atom_site_fract_y
_atom_site_fract_z
Si Si1 0.390520 0.794884 0.661919
Si Si2 0.736164 0.955461 0.530961
Si Si3 0.865941 0.673482 0.999279
Si Si4 0.071577 0.819162 0.160118
Si Si5 0.649032 0.741155 0.198913
Si Si6 0.036521 0.284764 0.587617
Si Si7 0.381833 0.748968 0.079696
O O1 0.294902 0.812000 0.556291
O O2 0.316439 0.500000 0.724576
O O3 0.575795 0.824735 0.619210
O O4 0.366036 0.013802 0.738516
O O5 0.883611 0.036302 0.596683
O O6 0.791013 0.752450 0.455173
O O7 0.795763 0.838747 0.092798
O O8 0.011483 0.622604 0.066575
O O9 0.711356 0.443291 0.996371
O O10 0.932319 0.880553 0.881991
O O11 0.252554 0.828548 0.165925
O O12 0.963360 0.680218 0.280981
O O13 0.483906 0.617010 0.156970
O O14 0.000000 0.500000 0.500000
O O15 0.500000 0.000000 0.000000
#
# Coordination Sequence:
#
# PCOD8028767 Si02
#       7
#     2   2   2   2   2   2   2
#     4  11  27  46  78 111 151 199 252 322 383 456
#     4  10  26  47  70 108 148 197 258 312 384 450
#     4  11  26  46  74 107 155 200 251 312 386 469
#     4  11  26  47  72 108 153 198 256 311 392 457
#     4  12  26  45  78 112 151 199 255 315 392 457
#     4  11  26  46  76 107 147 200 257 314 384 456
#     4  12  25  45  72 111 152 201 255 315 385 461
#
# _framework density 26.098011
#
# number of rings (size 3 to 8) (size 9 to 14) (size 15 to 20)
#    0.000    0.857    1.429    3.429   12.000    2.286 
#    0.000    0.000    0.000    0.000    0.000    0.000 
#    0.000    0.000    0.000    0.000    0.000    0.000 
#
# Total GULP energy -173514.591400 kJ/mol
# GULP energy per Si atom -12393.899386 kJ/mol
# Density = 2.603861 g / cm^3
# Si number density = 26.098011 Si / 1000 Ang^3
#
#
#
# Elastic Constant Matrix: (Units=GPa)
#
#
# Indices 1 2 3 4 5 6 
#
# 1 98.7502 9.1622 7.4614 -8.2499 -0.4521 10.4699
# 2 9.1622 105.1116 37.2219 -10.6528 3.2253 6.8301
# 3 7.4614 37.2219 124.0895 -13.8375 -5.6741 -1.6888
# 4 -8.2499 -10.6528 -13.8375 34.9050 -4.9628 13.4251
# 5 -0.4521 3.2253 -5.6741 -4.9628 44.4778 7.2546
# 6 10.4699 6.8301 -1.6888 13.4251 7.2546 37.8316
#
#
#
# Elastic Compliance Matrix: (Units=1/GPa)
#
#
# Indices 1 2 3 4 5 6 
#
# 1 0.011070 -0.000184 -0.000096 0.004632 0.001439 -0.004954
# 2 -0.000184 0.011159 -0.003018 0.003370 -0.000292 -0.003238
# 3 -0.000096 -0.003018 0.009411 0.003253 0.001866 -0.000521
# 4 0.004632 0.003370 0.003253 0.039777 0.007477 -0.017294
# 5 0.001439 -0.000292 0.001866 0.007477 0.024844 -0.007679
# 6 -0.004954 -0.003238 -0.000521 -0.017294 -0.007679 0.035975
#
#
# Mechanical properties :
#
#
# Convention : Reuss Voigt Hill
#
# Bulk Modulus (GPa) = 39.92781 48.40468 44.16624
# Shear Modulus (GPa) = 33.97234 41.71660 37.84447
#
# Velocity S-wave (km/s) = 3.61185 4.00241 3.81214
# Velocity P-wave (km/s) = 5.72070 6.32033 6.02797
#
# Compressibility (1/GPa) = 0.02504520
#
# Stress axis : x y z
#
# Youngs Moduli (GPa) = 90.33655 89.61095 106.26232
#
# Poissons Ratio (x) = 0.01647 0.01015
# Poissons Ratio (y) = 0.01660 0.32069
# Poissons Ratio (z) = 0.00863 0.27044
#
# Static dielectric constant tensor:
#      x y z
#    x 5.620650 -0.067620 0.163220 
#    y -0.067620 4.445910 0.364700 
#    z 0.163220 0.364700 4.945640 
# 
# 
# High freq. dielectric constant tensor:
#      x y z
#    x 2.092040 0.002110 0.002480 
#    y 0.002110 2.032260 0.009940 
#    z 0.002480 0.009940 2.046280 
# 
# From -- ./inp_files/37658.got.cif
#   From: 2010.06.25/outbox.cif.g09.slc.cpg/sg2_19_cif.got.tgz:37658.got - 2010.06.27 13:26:56.
