data_PCOD8028246
_publ_section_title
;
Structure prediction by ZEFSAII (Michael W. Deem and Ramdas Pophale) SiO2 
 PCOD8028246
Probable space group: P -1
;
_chemical_formula_sum "Si O2"
_cell_formula_units_Z 16
_cell_length_a 12.258839
_cell_length_b 9.208775
_cell_length_c 14.995020
_cell_angle_alpha 138.715528
_cell_angle_beta 40.170964
_cell_angle_gamma 111.960942
_cell_volume 635.772470
_symmetry_space_group_name_H-M "P -1"
_symmetry_group_IT_number 2
_symmetry_cell_setting 'triclinic'
loop_
_space_group_symop_operation_xyz
x,y,z
-x,-y,-z
loop_
_atom_site_type_symbol
_atom_site_label
_atom_site_fract_x
_atom_site_fract_y
_atom_site_fract_z
Si Si1 0.490533 0.187118 0.907926
Si Si2 0.152874 0.516017 0.786224
Si Si3 0.234550 0.753834 0.358894
Si Si4 0.815270 0.942949 0.727938
Si Si5 0.261029 0.267721 0.783964
Si Si6 0.794971 0.012995 0.982017
Si Si7 0.830926 0.473765 0.420952
Si Si8 0.611189 0.281771 0.568783
O O1 0.636921 0.127961 0.706823
O O2 0.619981 0.146274 0.896935
O O3 0.317556 0.468664 0.142076
O O4 0.397504 0.001361 0.875697
O O5 0.255050 0.296292 0.692812
O O6 0.196228 0.418441 0.612696
O O7 0.932066 0.598887 0.979923
O O8 0.212731 0.733162 0.861609
O O9 0.240533 0.756032 0.463009
O O10 0.010079 0.923375 0.552752
O O11 0.806315 0.009286 0.867021
O O12 0.834107 0.669283 0.579479
O O13 0.392255 0.395109 0.793817
O O14 0.348559 0.979426 0.621377
O O15 0.979335 0.789105 0.809100
O O16 0.641949 0.444795 0.548467
#
# Coordination Sequence:
#
# PCOD8028246 Si02
#       8
#     2   2   2   2   2   2   2   2
#     4  11  27  41  71 107 137 188 237 287 347 424
#     4  11  26  45  71 103 136 183 237 283 346 416
#     4  11  24  47  68 104 143 185 232 293 351 415
#     4  12  25  47  73 102 143 184 236 289 351 415
#     4  10  25  45  66 100 138 185 230 288 342 421
#     4  12  24  47  70 102 141 184 234 290 350 416
#     4  12  25  44  72 102 139 187 228 291 350 412
#     4  11  24  43  71  95 142 185 227 286 357 405
#
# _framework density 25.166236999999999
#
# number of rings (size 3 to 8) (size 9 to 14) (size 15 to 20)
#    0.000    0.750    3.750    2.250    7.000    1.500 
#    2.250    0.000    0.000    0.000    0.000    0.000 
#    0.000    0.000    0.000    0.000    0.000    0.000 
#
# Total GULP energy -198379.314761 kJ/mol
# GULP energy per Si atom -12398.707173 kJ/mol
# Density = 2.510896 g / cm^3
# Si number density = 25.166237 Si / 1000 Ang^3
#
#
#
# Elastic Constant Matrix: (Units=GPa)
#
#
# Indices 1 2 3 4 5 6 
#
# 1 74.1656 14.0448 9.4167 -16.3024 -9.1126 6.4926
# 2 14.0448 108.9801 25.8058 -34.6868 -11.0183 6.8017
# 3 9.4167 25.8058 40.0831 -13.2861 -21.8313 12.8076
# 4 -16.3024 -34.6868 -13.2861 21.0264 14.3283 -3.0474
# 5 -9.1126 -11.0183 -21.8313 14.3283 38.1020 -15.6998
# 6 6.4926 6.8017 12.8076 -3.0474 -15.6998 38.6857
#
#
#
# Elastic Compliance Matrix: (Units=1/GPa)
#
#
# Indices 1 2 3 4 5 6 
#
# 1 0.018086 0.006444 -0.001613 0.027730 -0.006917 -0.004257
# 2 0.006444 0.026452 -0.008626 0.055317 -0.019145 -0.006289
# 3 -0.001613 -0.008626 0.042482 -0.003662 0.021206 -0.003959
# 4 0.027730 0.055317 -0.003662 0.197895 -0.063511 -0.023353
# 5 -0.006917 -0.019145 0.021206 -0.063511 0.062441 0.017844
# 6 -0.004257 -0.006289 -0.003959 -0.023353 0.017844 0.034382
#
#
# Mechanical properties :
#
#
# Convention : Reuss Voigt Hill
#
# Bulk Modulus (GPa) = 12.58995 35.75147 24.17071
# Shear Modulus (GPa) = 12.02486 31.16024 21.59255
#
# Velocity S-wave (km/s) = 2.18827 3.52259 2.93234
# Velocity P-wave (km/s) = 3.37614 5.54814 4.59239
#
# Compressibility (1/GPa) = 0.07942842
#
# Stress axis : x y z
#
# Youngs Moduli (GPa) = 55.29124 37.80489 23.53944
#
# Poissons Ratio (x) = -0.24360 0.03797
# Poissons Ratio (y) = -0.35627 0.20305
# Poissons Ratio (z) = 0.08919 0.32610
#
# Static dielectric constant tensor:
#      x y z
#    x 4.591320 0.054020 -0.478040 
#    y 0.054020 4.745550 -0.178780 
#    z -0.478040 -0.178780 4.458680 
# 
# 
# High freq. dielectric constant tensor:
#      x y z
#    x 2.000190 0.007890 -0.019730 
#    y 0.007890 2.017210 -0.010930 
#    z -0.019730 -0.010930 1.999100 
# 
# From -- ./inp_files/186906.got.cif
#   From: 2010.06.25/outbox.cif.g09.slc.cpg/sg2_94_cif.got.tgz:186906.got - 2010.06.27 13:26:56.
