data_PCOD8028346
_publ_section_title
;
Structure prediction by ZEFSAII (Michael W. Deem and Ramdas Pophale) SiO2 
 PCOD8028346
Probable space group: P -1
;
_chemical_formula_sum "Si O2"
_cell_formula_units_Z 16
_cell_length_a 13.227855
_cell_length_b 6.895887
_cell_length_c 12.328175
_cell_angle_alpha 68.173351
_cell_angle_beta 46.155605
_cell_angle_gamma 86.083982
_cell_volume 722.204216
_symmetry_space_group_name_H-M "P -1"
_symmetry_group_IT_number 2
_symmetry_cell_setting 'triclinic'
loop_
_space_group_symop_operation_xyz
x,y,z
-x,-y,-z
loop_
_atom_site_type_symbol
_atom_site_label
_atom_site_fract_x
_atom_site_fract_y
_atom_site_fract_z
Si Si1 0.246890 0.446936 0.690421
Si Si2 0.033905 0.644812 0.219968
Si Si3 0.391270 0.404125 0.371292
Si Si4 0.618338 0.198356 0.321044
Si Si5 0.263092 0.036741 0.893882
Si Si6 0.855014 0.755342 0.763978
Si Si7 0.900647 0.819578 0.464629
Si Si8 0.441102 0.169254 0.938981
O O1 0.362945 0.458720 0.505592
O O2 0.289235 0.672286 0.675679
O O3 0.245012 0.262786 0.818548
O O4 0.088039 0.418372 0.767600
O O5 0.135350 0.484478 0.161660
O O6 0.964372 0.639085 0.393804
O O7 0.119578 0.898478 0.091091
O O8 0.541050 0.338725 0.274482
O O9 0.257223 0.205518 0.468761
O O10 0.423427 0.612768 0.222974
O O11 0.500000 0.000000 0.500000
O O12 0.724879 0.111425 0.185467
O O13 0.397776 0.077267 0.869436
O O14 0.871949 0.763808 0.621625
O O15 0.699058 0.783963 0.908557
O O16 0.990128 0.937479 0.679946
O O17 0.500000 0.000000 0.000000
#
# Coordination Sequence:
#
# PCOD8028346 Si02
#       8
#     2   2   2   2   2   2   2   2
#     4  11  25  46  69 105 141 183 235 293 353 419
#     4  11  25  43  74 102 140 185 236 293 355 419
#     4  11  24  46  72 105 142 186 236 293 352 422
#     4  12  24  41  71 100 140 185 233 289 353 416
#     4  12  25  46  68 102 147 182 235 295 352 418
#     4  11  25  48  71 103 141 189 238 290 350 426
#     4  10  25  45  73 101 144 182 239 288 352 417
#     4  12  28  47  73 105 147 186 237 294 353 420
#
# _framework density 22.154399000000002
#
# number of rings (size 3 to 8) (size 9 to 14) (size 15 to 20)
#    0.000    0.750    3.750    2.625    5.250    5.000 
#    0.000    0.000    0.000    0.000    0.000    0.000 
#    0.000    0.000    0.000    0.000    0.000    0.000 
#
# Total GULP energy -198387.815541 kJ/mol
# GULP energy per Si atom -12399.238471 kJ/mol
# Density = 2.210397 g / cm^3
# Si number density = 22.154399 Si / 1000 Ang^3
#
#
#
# Elastic Constant Matrix: (Units=GPa)
#
#
# Indices 1 2 3 4 5 6 
#
# 1 94.8443 52.5251 41.0344 6.4105 3.6397 17.2654
# 2 52.5251 101.2056 38.0536 -1.9641 7.4674 16.8895
# 3 41.0344 38.0536 109.6279 -14.1061 3.1554 2.8082
# 4 6.4105 -1.9641 -14.1061 36.5871 -1.3320 3.2934
# 5 3.6397 7.4674 3.1554 -1.3320 37.0473 -4.2278
# 6 17.2654 16.8895 2.8082 3.2934 -4.2278 45.5677
#
#
#
# Elastic Compliance Matrix: (Units=1/GPa)
#
#
# Indices 1 2 3 4 5 6 
#
# 1 0.017235 -0.006670 -0.004660 -0.004881 -0.000523 -0.003466
# 2 -0.006670 0.014982 -0.002390 0.001249 -0.002481 -0.003199
# 3 -0.004660 -0.002390 0.012333 0.005315 0.000255 0.001531
# 4 -0.004881 0.001249 0.005315 0.030427 0.000747 -0.001071
# 5 -0.000523 -0.002481 0.000255 0.000747 0.027965 0.003643
# 6 -0.003466 -0.003199 0.001531 -0.001071 0.003643 0.024766
#
#
# Mechanical properties :
#
#
# Convention : Reuss Voigt Hill
#
# Bulk Modulus (GPa) = 58.44549 63.21156 60.82853
# Shear Modulus (GPa) = 31.08465 35.44472 33.26468
#
# Velocity S-wave (km/s) = 3.74985 4.00421 3.87911
# Velocity P-wave (km/s) = 6.72211 7.06912 6.89780
#
# Compressibility (1/GPa) = 0.01710996
#
# Stress axis : x y z
#
# Youngs Moduli (GPa) = 58.02215 66.74456 81.08411
#
# Poissons Ratio (x) = 0.44520 0.37785
# Poissons Ratio (y) = 0.38702 0.19378
# Poissons Ratio (z) = 0.27038 0.15951
#
# Static dielectric constant tensor:
#      x y z
#    x 4.003650 0.138790 0.041470 
#    y 0.138790 4.085780 -0.185990 
#    z 0.041470 -0.185990 3.940010 
# 
# 
# High freq. dielectric constant tensor:
#      x y z
#    x 1.871200 0.016220 -0.000330 
#    y 0.016220 1.877160 0.001150 
#    z -0.000330 0.001150 1.886430 
# 
# From -- ./inp_files/441720.got.cif
#   From: 2010.06.25/outbox.cif.g09.slc.cpg/sg2_221_cif.got.tgz:441720.got - 2010.06.27 13:26:56.
