data_PCOD8028199
_publ_section_title
;
Structure prediction by ZEFSAII (Michael W. Deem and Ramdas Pophale) SiO2 
 PCOD8028199
Probable space group: P -1
;
_chemical_formula_sum "Si O2"
_cell_formula_units_Z 16
_cell_length_a 23.443048
_cell_length_b 6.270014
_cell_length_c 8.780376
_cell_angle_alpha 124.433024
_cell_angle_beta 129.821881
_cell_angle_gamma 88.867933
_cell_volume 687.881485
_symmetry_space_group_name_H-M "P -1"
_symmetry_group_IT_number 2
_symmetry_cell_setting 'triclinic'
loop_
_space_group_symop_operation_xyz
x,y,z
-x,-y,-z
loop_
_atom_site_type_symbol
_atom_site_label
_atom_site_fract_x
_atom_site_fract_y
_atom_site_fract_z
Si Si1 0.868799 0.598882 0.215697
Si Si2 0.987808 0.273939 0.679514
Si Si3 0.219177 0.517075 0.676229
Si Si4 0.348438 0.286380 0.869385
Si Si5 0.686442 0.243550 0.604495
Si Si6 0.065461 0.282931 0.122848
Si Si7 0.344522 0.240788 0.199336
Si Si8 0.468768 0.193863 0.610168
O O1 0.859803 0.618928 0.389323
O O2 0.942569 0.527003 0.258118
O O3 0.908030 0.940487 0.351114
O O4 0.773981 0.340650 0.885968
O O5 0.940839 0.430947 0.728396
O O6 0.043945 0.220826 0.882977
O O7 0.279665 0.378961 0.741885
O O8 0.167941 0.398476 0.379164
O O9 0.272309 0.880628 0.936644
O O10 0.314226 0.937442 0.620909
O O11 0.365782 0.335282 0.098326
O O12 0.443559 0.516953 0.045837
O O13 0.687180 0.550416 0.691322
O O14 0.602191 0.008152 0.465370
O O15 0.000000 0.000000 0.000000
O O16 0.430774 0.319559 0.470582
O O17 0.500000 0.000000 0.500000
#
# Coordination Sequence:
#
# PCOD8028199 Si02
#       8
#     2   2   2   2   2   2   2   2
#     4  11  22  48  66  99 142 183 228 291 352 408
#     4  10  25  44  70  99 140 179 235 292 342 428
#     4  12  25  46  72 101 146 185 235 295 352 418
#     4  12  28  46  72 108 144 185 240 293 350 421
#     4  12  27  45  74 106 145 185 238 293 348 427
#     4  11  24  43  70 101 135 182 234 289 355 413
#     4  12  24  47  74 101 138 196 224 295 350 421
#     4  12  23  50  74 103 145 187 233 292 355 417
#
# _framework density 23.259820000000001
#
# number of rings (size 3 to 8) (size 9 to 14) (size 15 to 20)
#    0.000    0.500    6.250    1.500    3.500    2.000 
#    2.250    0.000    0.000    0.000    0.000    0.000 
#    0.000    0.000    0.000    0.000    0.000    0.000 
#
# Total GULP energy -198335.732505 kJ/mol
# GULP energy per Si atom -12395.983282 kJ/mol
# Density = 2.320688 g / cm^3
# Si number density = 23.259820 Si / 1000 Ang^3
#
#
#
# Elastic Constant Matrix: (Units=GPa)
#
#
# Indices 1 2 3 4 5 6 
#
# 1 86.8592 30.7002 32.4338 10.0883 8.9510 -2.6815
# 2 30.7002 92.4656 31.5452 -1.6554 0.3824 -20.6714
# 3 32.4338 31.5452 108.4625 5.3031 2.5151 -12.1421
# 4 10.0883 -1.6554 5.3031 42.2491 -6.1655 0.9834
# 5 8.9510 0.3824 2.5151 -6.1655 38.5247 13.5499
# 6 -2.6815 -20.6714 -12.1421 0.9834 13.5499 28.4659
#
#
#
# Elastic Compliance Matrix: (Units=1/GPa)
#
#
# Indices 1 2 3 4 5 6 
#
# 1 0.014920 -0.004225 -0.003107 -0.003805 -0.003394 -0.001241
# 2 -0.004225 0.015440 -0.001957 0.001185 -0.002822 0.011282
# 3 -0.003107 -0.001957 0.011233 -0.001054 -0.001509 0.003833
# 4 -0.003805 0.001185 -0.001054 0.025787 0.006441 -0.003905
# 5 -0.003394 -0.002822 -0.001509 0.006441 0.034881 -0.019839
# 6 -0.001241 0.011282 0.003833 -0.003905 -0.019839 0.054419
#
#
# Mechanical properties :
#
#
# Convention : Reuss Voigt Hill
#
# Bulk Modulus (GPa) = 43.44766 53.01620 48.23193
# Shear Modulus (GPa) = 27.33281 34.72183 31.02732
#
# Velocity S-wave (km/s) = 3.43170 3.86784 3.65628
# Velocity P-wave (km/s) = 5.86702 6.54137 6.21335
#
# Compressibility (1/GPa) = 0.02301620
#
# Stress axis : x y z
#
# Youngs Moduli (GPa) = 67.02539 64.76536 89.01960
#
# Poissons Ratio (x) = 0.27365 0.27657
# Poissons Ratio (y) = 0.28320 0.17418
# Poissons Ratio (z) = 0.20824 0.12672
#
# Static dielectric constant tensor:
#      x y z
#    x 4.512620 -0.047270 0.115210 
#    y -0.047270 4.324650 0.025050 
#    z 0.115210 0.025050 4.670100 
# 
# 
# High freq. dielectric constant tensor:
#      x y z
#    x 1.921880 -0.002310 0.006110 
#    y -0.002310 1.909320 0.011090 
#    z 0.006110 0.011090 1.938720 
# 
# From -- ./inp_files/141570.got.cif
#   From: 2010.06.25/outbox.cif.g09.slc.cpg/sg2_71_cif.got.tgz:141570.got - 2010.06.27 13:26:56.
