data_PCOD8028408
_publ_section_title
;
Structure prediction by ZEFSAII (Michael W. Deem and Ramdas Pophale) SiO2 
 PCOD8028408
Probable space group: P -1
;
_chemical_formula_sum "Si O2"
_cell_formula_units_Z 16
_cell_length_a 14.750376
_cell_length_b 11.854674
_cell_length_c 8.691192
_cell_angle_alpha 38.448109
_cell_angle_beta 116.024660
_cell_angle_gamma 130.180451
_cell_volume 714.869355
_symmetry_space_group_name_H-M "P -1"
_symmetry_group_IT_number 2
_symmetry_cell_setting 'triclinic'
loop_
_space_group_symop_operation_xyz
x,y,z
-x,-y,-z
loop_
_atom_site_type_symbol
_atom_site_label
_atom_site_fract_x
_atom_site_fract_y
_atom_site_fract_z
Si Si1 0.824623 0.934407 0.970544
Si Si2 0.955541 0.722354 0.425704
Si Si3 0.302439 0.557311 0.002228
Si Si4 0.387488 0.480372 0.859301
Si Si5 0.151307 0.735883 0.128765
Si Si6 0.550292 0.629473 0.555440
Si Si7 0.625865 0.087959 0.081989
Si Si8 0.965336 0.757574 0.748353
O O1 0.862843 0.791831 0.244721
O O2 0.707291 0.773932 0.958837
O O3 0.796395 0.063987 0.931272
O O4 0.918926 0.096049 0.743803
O O5 0.912216 0.485280 0.581255
O O6 0.963500 0.681699 0.655446
O O7 0.368975 0.443139 0.229824
O O8 0.161275 0.398737 0.094894
O O9 0.329814 0.587822 0.804835
O O10 0.360845 0.790113 0.877651
O O11 0.435427 0.590631 0.610139
O O12 0.500000 0.500000 0.000000
O O13 0.262646 0.745194 0.118429
O O14 0.062949 0.745217 0.932232
O O15 0.500000 0.500000 0.500000
O O16 0.638798 0.885310 0.330531
O O17 0.500000 0.000000 0.000000
O O18 0.000000 0.000000 0.500000
#
# Coordination Sequence:
#
# PCOD8028408 Si02
#       8
#     2   2   2   2   2   2   2   2
#     4  11  25  47  71 100 143 185 236 287 360 417
#     4  11  25  44  71 104 140 188 231 291 355 419
#     4  11  25  46  68 102 141 176 235 288 349 421
#     4  10  25  46  69 101 141 184 230 289 351 415
#     4  12  26  45  72 106 140 182 238 294 348 428
#     4  11  23  44  72  98 137 184 233 284 344 413
#     4  12  26  42  71 105 134 182 236 284 345 414
#     4  12  23  45  73 102 144 185 233 291 358 415
#
# _framework density 22.381713000000001
#
# number of rings (size 3 to 8) (size 9 to 14) (size 15 to 20)
#    0.000    0.750    3.750    3.000    7.000    1.500 
#    0.000    0.000    0.000    0.000    0.000    0.000 
#    0.000    0.000    0.000    0.000    0.000    0.000 
#
# Total GULP energy -198367.945228 kJ/mol
# GULP energy per Si atom -12397.996577 kJ/mol
# Density = 2.233077 g / cm^3
# Si number density = 22.381713 Si / 1000 Ang^3
#
#
#
# Elastic Constant Matrix: (Units=GPa)
#
#
# Indices 1 2 3 4 5 6 
#
# 1 113.2537 63.1529 20.8872 0.5906 -15.4962 -7.4741
# 2 63.1529 154.4231 32.4627 -20.2873 -8.5475 -13.0700
# 3 20.8872 32.4627 70.3911 -24.6102 3.9853 -9.6559
# 4 0.5906 -20.2873 -24.6102 36.4307 -10.9058 -4.8180
# 5 -15.4962 -8.5475 3.9853 -10.9058 39.1860 -1.7274
# 6 -7.4741 -13.0700 -9.6559 -4.8180 -1.7274 45.0504
#
#
#
# Elastic Compliance Matrix: (Units=1/GPa)
#
#
# Indices 1 2 3 4 5 6 
#
# 1 0.012547 -0.004879 -0.003156 -0.004188 0.003038 -0.000342
# 2 -0.004879 0.009737 -0.000718 0.005969 0.002043 0.002578
# 3 -0.003156 -0.000718 0.021481 0.015154 0.000872 0.005526
# 4 -0.004188 0.005969 0.015154 0.045717 0.011251 0.009606
# 5 0.003038 0.002043 0.000872 0.011251 0.030370 0.003651
# 6 -0.000342 0.002578 0.005526 0.009606 0.003651 0.025240
#
#
# Mechanical properties :
#
#
# Convention : Reuss Voigt Hill
#
# Bulk Modulus (GPa) = 38.08175 63.45261 50.76718
# Shear Modulus (GPa) = 29.17956 38.90443 34.04199
#
# Velocity S-wave (km/s) = 3.61463 4.17372 3.90420
# Velocity P-wave (km/s) = 5.87131 7.18599 6.56166
#
# Compressibility (1/GPa) = 0.02625930
#
# Stress axis : x y z
#
# Youngs Moduli (GPa) = 79.69784 102.69721 46.55264
#
# Poissons Ratio (x) = 0.50104 0.14694
# Poissons Ratio (y) = 0.38883 0.03343
# Poissons Ratio (z) = 0.25156 0.07374
#
# Static dielectric constant tensor:
#      x y z
#    x 4.326990 0.292580 -0.100920 
#    y 0.292580 1.457390 -1.159160 
#    z -0.100920 -1.159160 3.775420 
# 
# 
# High freq. dielectric constant tensor:
#      x y z
#    x 1.892350 -0.005260 -0.008630 
#    y -0.005260 1.898880 -0.011650 
#    z -0.008630 -0.011650 1.877730 
# 
# From -- ./inp_files/306299.got.cif
#   From: 2010.06.25/outbox.cif.g09.slc.cpg/sg2_154_cif.got.tgz:306299.got - 2010.06.27 13:26:56.
