data_PCOD8028064
_publ_section_title
;
Structure prediction by ZEFSAII (Michael W. Deem and Ramdas Pophale) SiO2 
 PCOD8028064
Probable space group: P -1
;
_chemical_formula_sum "Si O2"
_cell_formula_units_Z 14
_cell_length_a 11.532791
_cell_length_b 11.875958
_cell_length_c 8.858701
_cell_angle_alpha 144.839437
_cell_angle_beta 86.523260
_cell_angle_gamma 106.645350
_cell_volume 635.456483
_symmetry_space_group_name_H-M "P -1"
_symmetry_group_IT_number 2
_symmetry_cell_setting 'triclinic'
loop_
_space_group_symop_operation_xyz
x,y,z
-x,-y,-z
loop_
_atom_site_type_symbol
_atom_site_label
_atom_site_fract_x
_atom_site_fract_y
_atom_site_fract_z
Si Si1 0.492915 0.708571 0.299224
Si Si2 0.184871 0.755826 0.752101
Si Si3 0.031499 0.491537 0.733925
Si Si4 0.982198 0.214919 0.703897
Si Si5 0.688788 0.074699 0.504936
Si Si6 0.648714 0.830796 0.926409
Si Si7 0.590593 0.358283 0.443190
O O1 0.364480 0.739983 0.298874
O O2 0.497625 0.680684 0.446630
O O3 0.617092 0.917797 0.475029
O O4 0.500000 0.500000 0.000000
O O5 0.156202 0.656671 0.814475
O O6 0.300117 0.722205 0.626661
O O7 0.063458 0.657906 0.546934
O O8 0.240143 0.015144 0.028253
O O9 0.062988 0.340048 0.686367
O O10 0.971194 0.633617 0.985969
O O11 0.837559 0.180743 0.646862
O O12 0.000000 0.000000 0.500000
O O13 0.666306 0.932645 0.201513
O O14 0.664678 0.609565 0.677488
O O15 0.503349 0.778841 0.832404
#
# Coordination Sequence:
#
# PCOD8028064 Si02
#       7
#     2   2   2   2   2   2   2
#     4  11  23  40  67  99 133 173 218 271 343 399
#     4  11  23  44  69  90 142 169 220 284 325 401
#     4  10  25  43  66 104 122 180 228 270 338 393
#     4  11  25  46  69  95 135 178 230 278 330 393
#     4  11  24  41  66  96 133 176 218 278 333 396
#     4  11  23  41  64  96 130 171 217 270 337 395
#     4  11  24  40  66  99 130 175 218 268 340 406
#
# _framework density 22.031404999999999
#
# number of rings (size 3 to 8) (size 9 to 14) (size 15 to 20)
#    0.000    1.143    4.286    0.429    4.000    4.571 
#    2.571    2.857    0.000    0.000    0.000    0.000 
#    0.000    0.000    0.000    0.000    0.000    0.000 
#
# Total GULP energy -173551.956223 kJ/mol
# GULP energy per Si atom -12396.568302 kJ/mol
# Density = 2.198126 g / cm^3
# Si number density = 22.031405 Si / 1000 Ang^3
#
#
#
# Elastic Constant Matrix: (Units=GPa)
#
#
# Indices 1 2 3 4 5 6 
#
# 1 52.6896 16.8410 18.5946 5.1909 4.3583 -3.2640
# 2 16.8410 183.0519 48.3703 19.8298 -0.2563 12.9710
# 3 18.5946 48.3703 84.0048 16.8194 0.2825 -3.4096
# 4 5.1909 19.8298 16.8194 36.3401 4.1144 -4.8522
# 5 4.3583 -0.2563 0.2825 4.1144 19.2661 6.9084
# 6 -3.2640 12.9710 -3.4096 -4.8522 6.9084 32.6893
#
#
#
# Elastic Compliance Matrix: (Units=1/GPa)
#
#
# Indices 1 2 3 4 5 6 
#
# 1 0.021469 -0.001260 -0.003990 0.000665 -0.006266 0.003650
# 2 -0.001260 0.007110 -0.003398 -0.002996 0.002610 -0.004298
# 3 -0.003990 -0.003398 0.015763 -0.004767 0.001047 0.001665
# 4 0.000665 -0.002996 -0.004767 0.033454 -0.010081 0.007854
# 5 -0.006266 0.002610 0.001047 -0.010081 0.061227 -0.015988
# 6 0.003650 -0.004298 0.001665 0.007854 -0.015988 0.037379
#
#
# Mechanical properties :
#
#
# Convention : Reuss Voigt Hill
#
# Bulk Modulus (GPa) = 36.97705 54.15091 45.56398
# Shear Modulus (GPa) = 24.66528 33.38845 29.02687
#
# Velocity S-wave (km/s) = 3.34960 3.89716 3.63371
# Velocity P-wave (km/s) = 5.63737 6.69946 6.19123
#
# Compressibility (1/GPa) = 0.02704380
#
# Stress axis : x y z
#
# Youngs Moduli (GPa) = 46.57862 140.65594 63.44127
#
# Poissons Ratio (x) = 0.17725 0.25316
# Poissons Ratio (y) = 0.05870 0.21558
# Poissons Ratio (z) = 0.18587 0.47796
#
# Static dielectric constant tensor:
#      x y z
#    x 3.728680 0.023820 0.060820 
#    y 0.023820 4.617170 0.174340 
#    z 0.060820 0.174340 3.992410 
# 
# 
# High freq. dielectric constant tensor:
#      x y z
#    x 1.836240 -0.000680 0.003930 
#    y -0.000680 1.897100 0.012360 
#    z 0.003930 0.012360 1.872310 
# 
# From -- ./inp_files/258370.got.cif
#   From: 2010.06.25/outbox.cif.g09.slc.cpg/sg2_130_cif.got.tgz:258370.got - 2010.06.27 13:26:56.
