data_PCOD8028471
_publ_section_title
;
Structure prediction by ZEFSAII (Michael W. Deem and Ramdas Pophale) SiO2 
 PCOD8028471
Probable space group: P -1
;
_chemical_formula_sum "Si O2"
_cell_formula_units_Z 16
_cell_length_a 12.230201
_cell_length_b 11.481276
_cell_length_c 15.313164
_cell_angle_alpha 77.649516
_cell_angle_beta 76.179574
_cell_angle_gamma 144.128620
_cell_volume 853.998804
_symmetry_space_group_name_H-M "P -1"
_symmetry_group_IT_number 2
_symmetry_cell_setting 'triclinic'
loop_
_space_group_symop_operation_xyz
x,y,z
-x,-y,-z
loop_
_atom_site_type_symbol
_atom_site_label
_atom_site_fract_x
_atom_site_fract_y
_atom_site_fract_z
Si Si1 0.164023 0.330096 0.207880
Si Si2 0.346983 0.148846 0.710426
Si Si3 0.264593 0.699779 0.137722
Si Si4 0.393897 0.965675 0.829455
Si Si5 0.714695 0.676321 0.633134
Si Si6 0.118153 0.175296 0.068148
Si Si7 0.918442 0.524312 0.123827
Si Si8 0.239248 0.369348 0.829806
O O1 0.268024 0.563933 0.132250
O O2 0.268676 0.381066 0.270551
O O3 0.273006 0.350866 0.102953
O O4 0.833374 0.012559 0.317930
O O5 0.613365 0.488117 0.606308
O O6 0.419843 0.081899 0.725402
O O7 0.161684 0.018409 0.847075
O O8 0.990553 0.499145 0.190935
O O9 0.314945 0.759240 0.222705
O O10 0.500000 0.000000 0.000000
O O11 0.319386 0.763094 0.841815
O O12 0.169047 0.794096 0.969436
O O13 0.509944 0.590299 0.692873
O O14 0.000000 0.000000 0.500000
O O15 0.287791 0.383306 0.920017
O O16 0.028077 0.951050 0.107930
O O17 0.803605 0.531585 0.190105
#
# Coordination Sequence:
#
# PCOD8028471 Si02
#       8
#     2   2   2   2   2   2   2   2
#     4  10  19  37  57  84 109 145 186 226 279 332
#     4   9  17  35  56  78 108 140 179 228 277 323
#     4  10  20  27  52  88 114 143 178 216 272 344
#     4  10  17  30  51  82 112 149 170 216 273 342
#     4  11  24  39  57  79 107 151 199 234 266 317
#     4   8  18  32  54  82 107 147 175 214 298 332
#     4  10  18  31  50  78 120 142 175 209 283 340
#     4  10  19  35  54  79 118 148 174 232 278 335
#
# _framework density 18.735389000000001
#
# number of rings (size 3 to 8) (size 9 to 14) (size 15 to 20)
#    0.750    1.500    3.750    0.000    3.500    1.000 
#    2.250    0.000    0.000    1.500    0.000    0.000 
#    0.000    0.000    0.000    0.000    0.000    0.000 
#
# Total GULP energy -198225.729168 kJ/mol
# GULP energy per Si atom -12389.108073 kJ/mol
# Density = 1.869275 g / cm^3
# Si number density = 18.735389 Si / 1000 Ang^3
#
#
#
# Elastic Constant Matrix: (Units=GPa)
#
#
# Indices 1 2 3 4 5 6 
#
# 1 96.4579 32.3490 7.8709 1.8553 3.5051 -21.8119
# 2 32.3490 110.6806 0.7904 -10.9042 1.6380 -10.4483
# 3 7.8709 0.7904 33.5039 -11.6635 -1.3822 -13.2848
# 4 1.8553 -10.9042 -11.6635 19.2072 -1.4847 6.0304
# 5 3.5051 1.6380 -1.3822 -1.4847 10.6809 -2.5557
# 6 -21.8119 -10.4483 -13.2848 6.0304 -2.5557 30.9864
#
#
#
# Elastic Compliance Matrix: (Units=1/GPa)
#
#
# Indices 1 2 3 4 5 6 
#
# 1 0.014251 -0.004098 -0.002861 -0.008468 -0.003494 0.008783
# 2 -0.004098 0.011191 0.004432 0.009219 0.001756 0.001140
# 3 -0.002861 0.004432 0.046541 0.027328 0.013729 0.015248
# 4 -0.008468 0.009219 0.027328 0.077400 0.014463 -0.005006
# 5 -0.003494 0.001756 0.013729 0.014463 0.100562 0.009499
# 6 0.008783 0.001140 0.015248 -0.005006 0.009499 0.047134
#
#
# Mechanical properties :
#
#
# Convention : Reuss Voigt Hill
#
# Bulk Modulus (GPa) = 14.94102 35.85144 25.39623
# Shear Modulus (GPa) = 15.41107 25.48371 20.44739
#
# Velocity S-wave (km/s) = 2.87115 3.69208 3.30719
# Velocity P-wave (km/s) = 4.35700 6.11167 5.30735
#
# Compressibility (1/GPa) = 0.06692985
#
# Stress axis : x y z
#
# Youngs Moduli (GPa) = 70.17070 89.35786 21.48648
#
# Poissons Ratio (x) = 0.36620 0.06147
# Poissons Ratio (y) = 0.28757 -0.09524
# Poissons Ratio (z) = 0.20074 -0.39607
#
# Static dielectric constant tensor:
#      x y z
#    x 3.467260 0.136270 0.082250 
#    y 0.136270 3.764990 -0.132090 
#    z 0.082250 -0.132090 2.783890 
# 
# 
# High freq. dielectric constant tensor:
#      x y z
#    x 1.724430 -0.000500 0.015790 
#    y -0.000500 1.748460 -0.018680 
#    z 0.015790 -0.018680 1.650790 
# 
# From -- ./inp_files/568016.got.cif
#   From: 2010.06.25/outbox.cif.g09.slc.cpg/sg2_285_cif.got.tgz:568016.got - 2010.06.27 13:26:56.
