data_PCOD8028688
_publ_section_title
;
Structure prediction by ZEFSAII (Michael W. Deem and Ramdas Pophale) SiO2 
 PCOD8028688
Probable space group: P -1
;
_chemical_formula_sum "Si O2"
_cell_formula_units_Z 16
_cell_length_a 11.200585
_cell_length_b 8.571467
_cell_length_c 12.630148
_cell_angle_alpha 133.256513
_cell_angle_beta 119.132630
_cell_angle_gamma 84.542956
_cell_volume 715.117030
_symmetry_space_group_name_H-M "P -1"
_symmetry_group_IT_number 2
_symmetry_cell_setting 'triclinic'
loop_
_space_group_symop_operation_xyz
x,y,z
-x,-y,-z
loop_
_atom_site_type_symbol
_atom_site_label
_atom_site_fract_x
_atom_site_fract_y
_atom_site_fract_z
Si Si1 0.698248 0.587825 0.193601
Si Si2 0.998446 0.598849 0.659717
Si Si3 0.513011 0.673025 0.682735
Si Si4 0.428449 0.118683 0.851817
Si Si5 0.927451 0.161335 0.827260
Si Si6 0.250212 0.320860 0.511719
Si Si7 0.946440 0.525140 0.158496
Si Si8 0.776948 0.934270 0.058761
O O1 0.638681 0.792608 0.237242
O O2 0.795007 0.649302 0.372364
O O3 0.799361 0.581142 0.134265
O O4 0.574767 0.336247 0.044196
O O5 0.854277 0.660388 0.619984
O O6 0.000000 0.500000 0.500000
O O7 0.973864 0.432946 0.673088
O O8 0.154890 0.809252 0.842414
O O9 0.500000 0.500000 0.500000
O O10 0.413090 0.506420 0.652772
O O11 0.462505 0.888092 0.732824
O O12 0.677081 0.768313 0.847190
O O13 0.318996 0.060873 0.877794
O O14 0.937623 0.323205 0.806295
O O15 0.081796 0.123982 0.876568
O O16 0.775180 0.946944 0.638575
O O17 0.901619 0.263432 0.975444
#
# Coordination Sequence:
#
# PCOD8028688 Si02
#       8
#     2   2   2   2   2   2   2   2
#     4  11  23  44  73 102 138 185 235 286 344 423
#     4  11  23  38  72 104 134 175 235 289 347 407
#     4  12  28  45  69 102 143 185 232 288 355 415
#     4  11  24  45  71 101 138 187 229 284 351 420
#     4  10  26  44  70 102 143 182 232 289 357 413
#     4  11  25  43  65 108 135 180 237 288 346 418
#     4  11  23  45  69 101 143 185 228 289 355 413
#     4  11  23  46  68 100 140 181 227 290 347 420
#
# _framework density 22.373958999999999
#
# number of rings (size 3 to 8) (size 9 to 14) (size 15 to 20)
#    0.000    1.000    3.750    1.875    5.250    3.500 
#    2.250    0.625    0.000    0.000    0.000    0.000 
#    0.000    0.000    0.000    0.000    0.000    0.000 
#
# Total GULP energy -198218.698696 kJ/mol
# GULP energy per Si atom -12388.668668 kJ/mol
# Density = 2.232303 g / cm^3
# Si number density = 22.373959 Si / 1000 Ang^3
#
#
#
# Elastic Constant Matrix: (Units=GPa)
#
#
# Indices 1 2 3 4 5 6 
#
# 1 59.2148 31.8889 35.0249 -1.1410 -15.1565 -4.9914
# 2 31.8889 105.0457 57.3006 -3.1665 -7.3789 -3.0316
# 3 35.0249 57.3006 135.1690 1.3741 -3.0569 -3.5737
# 4 -1.1410 -3.1665 1.3741 40.2801 1.3693 -5.8239
# 5 -15.1565 -7.3789 -3.0569 1.3693 44.5428 3.7200
# 6 -4.9914 -3.0316 -3.5737 -5.8239 3.7200 25.5053
#
#
#
# Elastic Compliance Matrix: (Units=1/GPa)
#
#
# Indices 1 2 3 4 5 6 
#
# 1 0.023619 -0.004394 -0.004039 0.000619 0.006788 0.002685
# 2 -0.004394 0.013394 -0.004535 0.001115 0.000353 0.000300
# 3 -0.004039 -0.004535 0.010347 -0.000754 -0.001405 0.000153
# 4 0.000619 0.001115 -0.000754 0.025886 -0.000970 0.006200
# 5 0.006788 0.000353 -0.001405 -0.000970 0.024977 -0.002691
# 6 0.002685 0.000300 0.000153 0.006200 -0.002691 0.041598
#
#
# Mechanical properties :
#
#
# Convention : Reuss Voigt Hill
#
# Bulk Modulus (GPa) = 46.67582 60.87315 53.77449
# Shear Modulus (GPa) = 28.91855 33.74665 31.33260
#
# Velocity S-wave (km/s) = 3.59905 3.88790 3.74626
# Velocity P-wave (km/s) = 6.17882 6.88626 6.54211
#
# Compressibility (1/GPa) = 0.02142437
#
# Stress axis : x y z
#
# Youngs Moduli (GPa) = 42.33919 74.65871 96.64419
#
# Poissons Ratio (x) = 0.32802 0.39038
# Poissons Ratio (y) = 0.18602 0.43828
# Poissons Ratio (z) = 0.17102 0.33858
#
# Static dielectric constant tensor:
#      x y z
#    x 3.443640 0.487600 -0.214490 
#    y 0.487600 3.840550 0.345860 
#    z -0.214490 0.345860 4.000770 
# 
# 
# High freq. dielectric constant tensor:
#      x y z
#    x 1.873170 0.006660 -0.000690 
#    y 0.006660 1.891480 0.002510 
#    z -0.000690 0.002510 1.884410 
# 
# From -- ./inp_files/420108.got.cif
#   From: 2010.06.25/outbox.cif.g09.slc.cpg/sg2_211_cif.got.tgz:420108.got - 2010.06.27 13:26:56.
