data_PCOD8028843
_publ_section_title
;
Structure prediction by ZEFSAII (Michael W. Deem and Ramdas Pophale) SiO2 
 PCOD8028843
Probable space group: P -1
;
_chemical_formula_sum "Si O2"
_cell_formula_units_Z 16
_cell_length_a 12.629785
_cell_length_b 15.239320
_cell_length_c 20.819746
_cell_angle_alpha 28.572779
_cell_angle_beta 153.141314
_cell_angle_gamma 142.276873
_cell_volume 865.347177
_symmetry_space_group_name_H-M "P -1"
_symmetry_group_IT_number 2
_symmetry_cell_setting 'triclinic'
loop_
_space_group_symop_operation_xyz
x,y,z
-x,-y,-z
loop_
_atom_site_type_symbol
_atom_site_label
_atom_site_fract_x
_atom_site_fract_y
_atom_site_fract_z
Si Si1 0.064034 0.423050 0.374965
Si Si2 0.092054 0.445453 0.153393
Si Si3 0.833644 0.143322 0.283497
Si Si4 0.822919 0.983339 0.853064
Si Si5 0.601025 0.303537 0.171641
Si Si6 0.928075 0.293217 0.909966
Si Si7 0.553776 0.807329 0.329503
Si Si8 0.600571 0.338579 0.523413
O O1 0.990134 0.596878 0.180459
O O2 0.218429 0.308789 0.483195
O O3 0.212987 0.491377 0.473332
O O4 0.827481 0.304068 0.343231
O O5 0.010077 0.602826 0.057319
O O6 0.371774 0.420305 0.314488
O O7 0.975181 0.249949 0.235858
O O8 0.000000 0.500000 0.000000
O O9 0.723605 0.290723 0.176647
O O10 0.617101 0.022062 0.214204
O O11 0.000000 0.000000 0.500000
O O12 0.587061 0.860465 0.817277
O O13 0.734257 0.183763 0.654839
O O14 0.949726 0.901616 0.910937
O O15 0.000000 0.000000 0.000000
O O16 0.500000 0.500000 0.000000
O O17 0.648277 0.258617 0.786189
O O18 0.468811 0.767704 0.380747
#
# Coordination Sequence:
#
# PCOD8028843 Si02
#       8
#     2   2   2   2   2   2   2   2
#     4  11  18  30  55  84 117 143 185 240 298 326
#     4  12  24  39  57  81 118 165 198 227 284 354
#     4  12  19  34  56  85 111 140 192 247 283 325
#     4  12  20  31  55  94 120 143 184 245 302 342
#     4  12  19  29  49  85 121 143 176 234 299 348
#     4  11  19  36  53  83 120 150 185 240 292 341
#     4  11  18  31  60  83 113 139 189 245 296 322
#     4  11  19  34  54  84 114 147 186 238 286 346
#
# _framework density 18.489688999999998
#
# number of rings (size 3 to 8) (size 9 to 14) (size 15 to 20)
#    0.000    0.500   11.250    0.750    0.000    0.000 
#    0.000    1.250    0.000    0.000    0.000    7.000 
#    0.000    0.000    0.000    0.000    0.000    0.000 
#
# Total GULP energy -198251.245941 kJ/mol
# GULP energy per Si atom -12390.702871 kJ/mol
# Density = 1.844761 g / cm^3
# Si number density = 18.489689 Si / 1000 Ang^3
#
#
#
# Elastic Constant Matrix: (Units=GPa)
#
#
# Indices 1 2 3 4 5 6 
#
# 1 49.5223 29.8173 42.2655 2.6073 4.5190 -7.7305
# 2 29.8173 146.7001 40.5022 18.4648 -1.8713 7.1351
# 3 42.2655 40.5022 83.7346 3.9061 13.5719 -9.6251
# 4 2.6073 18.4648 3.9061 33.5618 -4.9197 13.8537
# 5 4.5190 -1.8713 13.5719 -4.9197 33.4065 -1.7351
# 6 -7.7305 7.1351 -9.6251 13.8537 -1.7351 28.6961
#
#
#
# Elastic Compliance Matrix: (Units=1/GPa)
#
#
# Indices 1 2 3 4 5 6 
#
# 1 0.037251 -0.002989 -0.016889 -0.001477 0.001746 0.005932
# 2 -0.002989 0.008817 -0.003171 -0.002968 0.001618 -0.002530
# 3 -0.016889 -0.003171 0.024024 -0.003079 -0.007831 0.005310
# 4 -0.001477 -0.002968 -0.003079 0.041155 0.006297 -0.020180
# 5 0.001746 0.001618 -0.007831 0.006297 0.033713 -0.003560
# 6 0.005932 -0.002530 0.005310 -0.020180 -0.003560 0.048383
#
#
# Mechanical properties :
#
#
# Convention : Reuss Voigt Hill
#
# Bulk Modulus (GPa) = 41.67566 56.12522 48.90044
# Shear Modulus (GPa) = 20.20696 30.29101 25.24899
#
# Velocity S-wave (km/s) = 3.30946 4.05194 3.69937
# Velocity P-wave (km/s) = 6.09854 7.23268 6.68969
#
# Compressibility (1/GPa) = 0.02399482
#
# Stress axis : x y z
#
# Youngs Moduli (GPa) = 26.84464 113.42026 41.62447
#
# Poissons Ratio (x) = 0.33900 0.70301
# Poissons Ratio (y) = 0.08024 0.13197
# Poissons Ratio (z) = 0.45339 0.35961
#
# Static dielectric constant tensor:
#      x y z
#    x 2.995960 0.067910 0.567140 
#    y 0.067910 4.325220 0.049310 
#    z 0.567140 0.049310 3.487830 
# 
# 
# High freq. dielectric constant tensor:
#      x y z
#    x 1.656900 -0.004580 0.063450 
#    y -0.004580 1.756230 0.002130 
#    z 0.063450 0.002130 1.695950 
# 
# From -- ./inp_files/270461.got.cif
#   From: 2010.06.25/outbox.cif.g09.slc.cpg/sg2_136_cif.got.tgz:270461.got - 2010.06.27 13:26:56.
