data_PCOD8028190
_publ_section_title
;
Structure prediction by ZEFSAII (Michael W. Deem and Ramdas Pophale) SiO2 
 PCOD8028190
Probable space group: P -1
;
_chemical_formula_sum "Si O2"
_cell_formula_units_Z 14
_cell_length_a 6.144997
_cell_length_b 6.180542
_cell_length_c 18.493427
_cell_angle_alpha 120.072761
_cell_angle_beta 107.118903
_cell_angle_gamma 80.841544
_cell_volume 580.836543
_symmetry_space_group_name_H-M "P -1"
_symmetry_group_IT_number 2
_symmetry_cell_setting 'triclinic'
loop_
_space_group_symop_operation_xyz
x,y,z
-x,-y,-z
loop_
_atom_site_type_symbol
_atom_site_label
_atom_site_fract_x
_atom_site_fract_y
_atom_site_fract_z
Si Si1 0.712661 0.351840 0.878953
Si Si2 0.388834 0.960012 0.835976
Si Si3 0.986512 0.357676 0.314079
Si Si4 0.666311 0.769908 0.407086
Si Si5 0.124804 0.133276 0.968267
Si Si6 0.698898 0.524614 0.754707
Si Si7 0.606532 0.766611 0.562557
O O1 0.724748 0.323987 0.788207
O O2 0.934988 0.211593 0.905421
O O3 0.476937 0.232482 0.864851
O O4 0.723481 0.638694 0.951825
O O5 0.604907 0.775582 0.824935
O O6 0.205570 0.853053 0.743238
O O7 0.298359 0.960090 0.909822
O O8 0.062803 0.410253 0.247979
O O9 0.189380 0.239376 0.361442
O O10 0.895511 0.629280 0.378728
O O11 0.460295 0.577690 0.342345
O O12 0.707428 0.839562 0.506368
O O13 0.591723 0.028079 0.401369
O O14 0.000000 0.000000 0.000000
O O15 0.500000 0.500000 0.500000
#
# Coordination Sequence:
#
# PCOD8028190 Si02
#       7
#     2   2   2   2   2   2   2
#     4  11  25  43  70 102 141 185 238 289 357 427
#     4  11  25  44  69 102 142 187 233 295 354 428
#     4  11  24  47  73 104 147 195 238 299 364 419
#     4  10  25  44  70 106 142 190 241 300 358 429
#     4  11  25  46  72 102 140 188 236 293 355 427
#     4  11  25  46  66 106 142 181 243 295 350 432
#     4  11  23  47  72 103 147 188 245 298 355 431
#
# _framework density 24.103166000000002
#
# number of rings (size 3 to 8) (size 9 to 14) (size 15 to 20)
#    0.000    1.143    1.429    3.429    4.000    7.429 
#    2.571    0.000    0.000    0.000    0.000    0.000 
#    0.000    0.000    0.000    0.000    0.000    0.000 
#
# Total GULP energy -173558.382666 kJ/mol
# GULP energy per Si atom -12397.027333 kJ/mol
# Density = 2.404831 g / cm^3
# Si number density = 24.103166 Si / 1000 Ang^3
#
#
#
# Elastic Constant Matrix: (Units=GPa)
#
#
# Indices 1 2 3 4 5 6 
#
# 1 118.5134 64.8324 49.0619 0.0250 -18.7921 7.9359
# 2 64.8324 134.7320 55.0722 1.7447 -4.7537 -0.7302
# 3 49.0619 55.0722 97.8052 -5.4086 -5.7153 7.1339
# 4 0.0250 1.7447 -5.4086 53.6771 0.9718 -0.9159
# 5 -18.7921 -4.7537 -5.7153 0.9718 48.5226 7.2090
# 6 7.9359 -0.7302 7.1339 -0.9159 7.2090 45.2721
#
#
#
# Elastic Compliance Matrix: (Units=1/GPa)
#
#
# Indices 1 2 3 4 5 6 
#
# 1 0.013521 -0.004885 -0.003581 -0.000339 0.004736 -0.002646
# 2 -0.004885 0.011494 -0.004295 -0.000743 -0.001547 0.001950
# 3 -0.003581 -0.004295 0.014663 0.001586 0.000147 -0.001743
# 4 -0.000339 -0.000743 0.001586 0.018826 -0.000431 0.000247
# 5 0.004736 -0.001547 0.000147 -0.000431 0.022993 -0.004548
# 6 -0.002646 0.001950 -0.001743 0.000247 -0.004548 0.023588
#
#
# Mechanical properties :
#
#
# Convention : Reuss Voigt Hill
#
# Bulk Modulus (GPa) = 70.64537 76.55374 73.59956
# Shear Modulus (GPa) = 36.94781 41.63329 39.29055
#
# Velocity S-wave (km/s) = 3.91948 4.16058 4.04183
# Velocity P-wave (km/s) = 7.06090 7.41016 7.23763
#
# Compressibility (1/GPa) = 0.01415521
#
# Stress axis : x y z
#
# Youngs Moduli (GPa) = 73.95937 86.99964 68.20096
#
# Poissons Ratio (x) = 0.42503 0.24420
# Poissons Ratio (y) = 0.36133 0.29294
# Poissons Ratio (z) = 0.26482 0.37368
#
# Static dielectric constant tensor:
#      x y z
#    x 4.282660 -0.043020 -0.029400 
#    y -0.043020 4.461450 -0.031890 
#    z -0.029400 -0.031890 4.596000 
# 
# 
# High freq. dielectric constant tensor:
#      x y z
#    x 1.948430 -0.004680 0.000940 
#    y -0.004680 1.953610 0.003250 
#    z 0.000940 0.003250 1.976320 
# 
# From -- ./inp_files/7740.got.cif
#   From: 2010.06.25/outbox.cif.g09.slc.cpg/sg2_4_cif.got.tgz:7740.got - 2010.06.27 13:26:56.
