data_PCOD8028196
_publ_section_title
;
Structure prediction by ZEFSAII (Michael W. Deem and Ramdas Pophale) SiO2 
 PCOD8028196
Probable space group: P -1
;
_chemical_formula_sum "Si O2"
_cell_formula_units_Z 16
_cell_length_a 21.246112
_cell_length_b 11.792291
_cell_length_c 18.117115
_cell_angle_alpha 147.783207
_cell_angle_beta 162.077662
_cell_angle_gamma 33.583903
_cell_volume 733.666137
_symmetry_space_group_name_H-M "P -1"
_symmetry_group_IT_number 2
_symmetry_cell_setting 'triclinic'
loop_
_space_group_symop_operation_xyz
x,y,z
-x,-y,-z
loop_
_atom_site_type_symbol
_atom_site_label
_atom_site_fract_x
_atom_site_fract_y
_atom_site_fract_z
Si Si1 0.100787 0.400775 0.206267
Si Si2 0.625308 0.275182 0.044178
Si Si3 0.454565 0.050331 0.341905
Si Si4 0.000182 0.517766 0.422216
Si Si5 0.407100 0.183730 0.895952
Si Si6 0.135949 0.180061 0.270980
Si Si7 0.624773 0.261339 0.328700
Si Si8 0.632121 0.424107 0.677157
O O1 0.262544 0.193328 0.246832
O O2 0.089513 0.376286 0.268629
O O3 0.175363 0.620927 0.386061
O O4 0.875572 0.408657 0.922761
O O5 0.849863 0.316303 0.343031
O O6 0.500000 0.500000 0.000000
O O7 0.519510 0.171710 0.936411
O O8 0.648598 0.109841 0.911811
O O9 0.590111 0.188494 0.520898
O O10 0.618512 0.918364 0.509765
O O11 0.072382 0.281797 0.336619
O O12 0.000000 0.500000 0.500000
O O13 0.773727 0.610678 0.190298
O O14 0.317267 0.961975 0.684826
O O15 0.568077 0.213717 0.155779
O O16 0.000000 0.000000 0.000000
O O17 0.431978 0.411184 0.236121
O O18 0.500000 0.500000 0.500000
#
# Coordination Sequence:
#
# PCOD8028196 Si02
#       8
#     2   2   2   2   2   2   2   2
#     4  11  25  43  70 101 135 182 231 282 355 409
#     4  12  24  43  66 100 139 180 227 281 345 407
#     4  11  25  42  67 104 135 184 228 282 350 412
#     4  12  26  42  71 103 141 183 231 282 348 414
#     4  11  24  45  68  99 138 179 231 283 344 412
#     4  12  24  43  71 103 142 182 226 290 348 413
#     4  10  25  44  70  98 134 182 229 285 343 411
#     4  11  24  45  67  97 138 174 233 290 338 412
#
# _framework density 21.808285000000001
#
# number of rings (size 3 to 8) (size 9 to 14) (size 15 to 20)
#    0.000    0.750    3.750    2.625    3.500    6.000 
#    0.000    3.125    0.000    0.000    0.000    0.000 
#    0.000    0.000    0.000    0.000    0.000    0.000 
#
# Total GULP energy -198477.104626 kJ/mol
# GULP energy per Si atom -12404.819039 kJ/mol
# Density = 2.175865 g / cm^3
# Si number density = 21.808285 Si / 1000 Ang^3
#
#
#
# Elastic Constant Matrix: (Units=GPa)
#
#
# Indices 1 2 3 4 5 6 
#
# 1 112.3596 39.1074 42.2785 3.1297 -2.4204 5.6368
# 2 39.1074 94.5501 42.9448 3.6649 -0.7027 0.1493
# 3 42.2785 42.9448 127.1273 -3.3297 4.3770 -6.5767
# 4 3.1297 3.6649 -3.3297 49.0212 -4.0014 -4.8984
# 5 -2.4204 -0.7027 4.3770 -4.0014 35.4044 2.0439
# 6 5.6368 0.1493 -6.5767 -4.8984 2.0439 41.5118
#
#
#
# Elastic Compliance Matrix: (Units=1/GPa)
#
#
# Indices 1 2 3 4 5 6 
#
# 1 0.011264 -0.003355 -0.002779 -0.000779 0.001080 -0.002103
# 2 -0.003355 0.013615 -0.003539 -0.001043 0.000378 -0.000296
# 3 -0.002779 -0.003539 0.010185 0.001233 -0.001508 0.002223
# 4 -0.000779 -0.001043 0.001233 0.021043 0.001997 0.002690
# 5 0.001080 0.000378 -0.001508 0.001997 0.028829 -0.001571
# 6 -0.002103 -0.000296 0.002223 0.002690 -0.001571 0.025123
#
#
# Mechanical properties :
#
#
# Convention : Reuss Voigt Hill
#
# Bulk Modulus (GPa) = 63.62242 64.74426 64.18334
# Shear Modulus (GPa) = 37.13461 39.16790 38.15125
#
# Velocity S-wave (km/s) = 4.13095 4.24253 4.18711
# Velocity P-wave (km/s) = 7.21040 7.33152 7.27121
#
# Compressibility (1/GPa) = 0.01571773
#
# Stress axis : x y z
#
# Youngs Moduli (GPa) = 88.77903 73.44647 98.18201
#
# Poissons Ratio (x) = 0.24643 0.27285
# Poissons Ratio (y) = 0.29787 0.34748
# Poissons Ratio (z) = 0.24672 0.25994
#
# Static dielectric constant tensor:
#      x y z
#    x 4.005080 -0.162100 -0.286440 
#    y -0.162100 3.642440 -0.811780 
#    z -0.286440 -0.811780 2.169080 
# 
# 
# High freq. dielectric constant tensor:
#      x y z
#    x 1.864060 0.000430 -0.000180 
#    y 0.000430 1.859670 0.005630 
#    z -0.000180 0.005630 1.864880 
# 
# From -- ./inp_files/578053.got.cif
#   From: 2010.06.25/outbox.cif.g09.slc.cpg/sg2_290_cif.got.tgz:578053.got - 2010.06.27 13:26:56.
