data_PCOD8028007
_publ_section_title
;
Structure prediction by ZEFSAII (Michael W. Deem and Ramdas Pophale) SiO2 
 PCOD8028007
Probable space group: P -1
;
_chemical_formula_sum "Si O2"
_cell_formula_units_Z 16
_cell_length_a 11.486330
_cell_length_b 8.374103
_cell_length_c 13.580572
_cell_angle_alpha 43.425014
_cell_angle_beta 63.806913
_cell_angle_gamma 88.084082
_cell_volume 713.105630
_symmetry_space_group_name_H-M "P -1"
_symmetry_group_IT_number 2
_symmetry_cell_setting 'triclinic'
loop_
_space_group_symop_operation_xyz
x,y,z
-x,-y,-z
loop_
_atom_site_type_symbol
_atom_site_label
_atom_site_fract_x
_atom_site_fract_y
_atom_site_fract_z
Si Si1 0.506420 0.263472 0.921635
Si Si2 0.903749 0.596782 0.174201
Si Si3 0.158876 0.105884 0.764639
Si Si4 0.385576 0.608677 0.739312
Si Si5 0.200252 0.438637 0.414303
Si Si6 0.958021 0.220192 0.448018
Si Si7 0.440263 0.064062 0.646616
Si Si8 0.662034 0.088795 0.700876
O O1 0.387440 0.334482 0.882766
O O2 0.668266 0.510635 0.735485
O O3 0.500000 0.000000 0.000000
O O4 0.455578 0.194682 0.084868
O O5 0.844626 0.679888 0.255943
O O6 0.767419 0.430690 0.229496
O O7 0.979071 0.420517 0.261075
O O8 0.016346 0.833424 0.959841
O O9 0.160368 0.192362 0.612058
O O10 0.301701 0.069035 0.748158
O O11 0.517953 0.762350 0.545104
O O12 0.409838 0.771288 0.758720
O O13 0.254920 0.702125 0.338391
O O14 0.055996 0.385310 0.430035
O O15 0.786229 0.058443 0.608419
O O16 0.000000 0.000000 0.500000
O O17 0.573575 0.189983 0.617881
#
# Coordination Sequence:
#
# PCOD8028007 Si02
#       8
#     2   2   2   2   2   2   2   2
#     4  10  25  41  71 103 133 179 231 279 341 404
#     4  11  27  45  69 105 138 179 233 280 334 415
#     4  11  25  43  74 100 135 181 235 277 340 403
#     4  11  24  45  69 100 144 174 229 287 337 409
#     4  11  24  46  69  97 136 183 226 282 339 405
#     4  12  28  45  69  99 147 182 223 280 349 407
#     4  11  25  43  75 100 135 181 227 285 349 397
#     4  11  25  46  68 104 135 179 232 279 342 409
#
# _framework density 22.437066999999999
#
# number of rings (size 3 to 8) (size 9 to 14) (size 15 to 20)
#    0.000    1.000    3.750    0.375   10.500    5.000 
#    0.000    0.000    0.000    0.000    0.000    0.000 
#    0.000    0.000    0.000    0.000    0.000    0.000 
#
# Total GULP energy -198403.653676 kJ/mol
# GULP energy per Si atom -12400.228355 kJ/mol
# Density = 2.238600 g / cm^3
# Si number density = 22.437067 Si / 1000 Ang^3
#
#
#
# Elastic Constant Matrix: (Units=GPa)
#
#
# Indices 1 2 3 4 5 6 
#
# 1 130.6751 30.1882 36.0508 -5.7629 6.2455 -11.0126
# 2 30.1882 66.2924 26.0538 -16.9674 5.7600 -13.9458
# 3 36.0508 26.0538 144.8731 10.0785 6.0767 -11.5000
# 4 -5.7629 -16.9674 10.0785 31.6630 -10.4181 -0.1949
# 5 6.2455 5.7600 6.0767 -10.4181 40.5727 -2.3398
# 6 -11.0126 -13.9458 -11.5000 -0.1949 -2.3398 36.6032
#
#
#
# Elastic Compliance Matrix: (Units=1/GPa)
#
#
# Indices 1 2 3 4 5 6 
#
# 1 0.008930 -0.003124 -0.001579 0.000273 -0.000569 0.000966
# 2 -0.003124 0.022673 -0.003767 0.013362 0.001643 0.006691
# 3 -0.001579 -0.003767 0.008493 -0.005633 -0.001906 0.000606
# 4 0.000273 0.013362 -0.005633 0.044056 0.010465 0.004307
# 5 -0.000569 0.001643 -0.001906 0.010465 0.027571 0.001674
# 6 0.000966 0.006691 0.000606 0.004307 0.001674 0.030480
#
#
# Mechanical properties :
#
#
# Convention : Reuss Voigt Hill
#
# Bulk Modulus (GPa) = 43.18601 58.49178 50.83890
# Shear Modulus (GPa) = 29.96494 38.40429 34.18462
#
# Velocity S-wave (km/s) = 3.65843 4.14169 3.90754
# Velocity P-wave (km/s) = 6.09384 6.99981 6.56248
#
# Compressibility (1/GPa) = 0.02315565
#
# Stress axis : x y z
#
# Youngs Moduli (GPa) = 111.97670 44.10589 117.74473
#
# Poissons Ratio (x) = 0.13778 0.18591
# Poissons Ratio (y) = 0.34979 0.44360
# Poissons Ratio (z) = 0.17681 0.16617
#
# Static dielectric constant tensor:
#      x y z
#    x 3.997640 -0.122980 -0.109830 
#    y -0.122980 3.875550 0.338570 
#    z -0.109830 0.338570 4.742350 
# 
# 
# High freq. dielectric constant tensor:
#      x y z
#    x 1.887740 -0.010120 -0.000770 
#    y -0.010120 1.868900 0.007520 
#    z -0.000770 0.007520 1.898510 
# 
# From -- ./inp_files/514899.got.cif
#   From: 2010.06.25/outbox.cif.g09.slc.cpg/sg2_258_cif.got.tgz:514899.got - 2010.06.27 13:26:56.
