data_PCOD8028789
_publ_section_title
;
Structure prediction by ZEFSAII (Michael W. Deem and Ramdas Pophale) SiO2 
 PCOD8028789
Probable space group: P -1
;
_chemical_formula_sum "Si O2"
_cell_formula_units_Z 16
_cell_length_a 13.212567
_cell_length_b 8.146908
_cell_length_c 8.901348
_cell_angle_alpha 111.093084
_cell_angle_beta 72.895639
_cell_angle_gamma 66.811489
_cell_volume 707.725769
_symmetry_space_group_name_H-M "P -1"
_symmetry_group_IT_number 2
_symmetry_cell_setting 'triclinic'
loop_
_space_group_symop_operation_xyz
x,y,z
-x,-y,-z
loop_
_atom_site_type_symbol
_atom_site_label
_atom_site_fract_x
_atom_site_fract_y
_atom_site_fract_z
Si Si1 0.055396 0.913118 0.114282
Si Si2 0.394923 0.451246 0.519817
Si Si3 0.398963 0.211257 0.703225
Si Si4 0.811206 0.221448 0.491910
Si Si5 0.799769 0.995188 0.687976
Si Si6 0.564731 0.957298 0.799082
Si Si7 0.872983 0.536261 0.005600
Si Si8 0.048725 0.592028 0.390426
O O1 0.133781 0.660055 0.005370
O O2 0.152020 0.971942 0.160562
O O3 0.936936 0.002895 0.308849
O O4 0.000000 0.000000 0.000000
O O5 0.500000 0.500000 0.500000
O O6 0.370794 0.415533 0.690818
O O7 0.279766 0.671984 0.575890
O O8 0.425219 0.248007 0.342492
O O9 0.500000 0.000000 0.500000
O O10 0.468920 0.174847 0.819549
O O11 0.258796 0.251641 0.806076
O O12 0.842787 0.390263 0.578733
O O13 0.744882 0.190096 0.656558
O O14 0.701589 0.927633 0.739618
O O15 0.921301 0.817682 0.478863
O O16 0.500000 0.000000 0.000000
O O17 0.882986 0.559364 0.831281
O O18 0.000000 0.500000 0.000000
O O19 0.000000 0.500000 0.500000
#
# Coordination Sequence:
#
# PCOD8028789 Si02
#       8
#     2   2   2   2   2   2   2   2
#     4  11  24  42  67 106 143 180 231 292 359 426
#     4  11  25  46  71 101 141 194 237 297 368 427
#     4  10  26  48  68 101 148 189 239 294 357 426
#     4  11  22  45  72  98 142 185 229 293 361 425
#     4  11  23  46  71  97 143 189 230 299 353 421
#     4  11  27  45  73 102 139 191 250 295 350 431
#     4  12  27  42  71 108 141 186 239 294 356 427
#     4  11  24  41  71 105 143 180 234 288 359 424
#
# _framework density 22.607626
#
# number of rings (size 3 to 8) (size 9 to 14) (size 15 to 20)
#    0.000    1.000    2.500    3.000   12.250    4.000 
#    0.000    1.875    0.000    0.000    0.000    0.000 
#    0.000    0.000    0.000    0.000    0.000    0.000 
#
# Total GULP energy -198209.607372 kJ/mol
# GULP energy per Si atom -12388.100461 kJ/mol
# Density = 2.255617 g / cm^3
# Si number density = 22.607626 Si / 1000 Ang^3
#
#
#
# Elastic Constant Matrix: (Units=GPa)
#
#
# Indices 1 2 3 4 5 6 
#
# 1 177.3103 45.4655 60.1392 -3.7278 -12.2951 2.3771
# 2 45.4655 106.7418 43.9990 -27.8470 2.7092 -4.2985
# 3 60.1392 43.9990 131.1477 -16.1917 -11.7748 -1.0178
# 4 -3.7278 -27.8470 -16.1917 47.0150 -6.6758 -0.0519
# 5 -12.2951 2.7092 -11.7748 -6.6758 33.1865 -1.7485
# 6 2.3771 -4.2985 -1.0178 -0.0519 -1.7485 45.8123
#
#
#
# Elastic Compliance Matrix: (Units=1/GPa)
#
#
# Indices 1 2 3 4 5 6 
#
# 1 0.007228 -0.002510 -0.002521 -0.001549 0.001645 -0.000606
# 2 -0.002510 0.013330 -0.002642 0.006565 -0.001568 0.001270
# 3 -0.002521 -0.002642 0.010250 0.002246 0.003383 0.000242
# 4 -0.001549 0.006565 0.002246 0.026531 0.005075 0.000970
# 5 0.001645 -0.001568 0.003383 0.005075 0.033150 0.001114
# 6 -0.000606 0.001270 0.000242 0.000970 0.001114 0.022028
#
#
# Mechanical properties :
#
#
# Convention : Reuss Voigt Hill
#
# Bulk Modulus (GPa) = 64.66615 79.37856 72.02236
# Shear Modulus (GPa) = 37.58959 42.90918 40.24939
#
# Velocity S-wave (km/s) = 4.08204 4.36133 4.22399
# Velocity P-wave (km/s) = 7.13324 7.78134 7.46433
#
# Compressibility (1/GPa) = 0.01546404
#
# Stress axis : x y z
#
# Youngs Moduli (GPa) = 138.35178 75.01880 97.56063
#
# Poissons Ratio (x) = 0.18828 0.24592
# Poissons Ratio (y) = 0.34724 0.25771
# Poissons Ratio (z) = 0.34874 0.19816
#
# Static dielectric constant tensor:
#      x y z
#    x 4.306450 -0.507100 0.081930 
#    y -0.507100 6.722610 0.146670 
#    z 0.081930 0.146670 4.208530 
# 
# 
# High freq. dielectric constant tensor:
#      x y z
#    x 1.892510 -0.012140 -0.003500 
#    y -0.012140 1.904210 -0.016930 
#    z -0.003500 -0.016930 1.888150 
# 
# From -- ./inp_files/244980.got.cif
#   From: 2010.06.25/outbox.cif.g09.slc.cpg/sg2_123_cif.got.tgz:244980.got - 2010.06.27 13:26:56.
