data_PCOD8028912
_publ_section_title
;
Structure prediction by ZEFSAII (Michael W. Deem and Ramdas Pophale) SiO2 
 PCOD8028912
Probable space group: P -1
;
_chemical_formula_sum "Si O2"
_cell_formula_units_Z 16
_cell_length_a 13.120906
_cell_length_b 11.268780
_cell_length_c 11.586812
_cell_angle_alpha 74.550407
_cell_angle_beta 46.480472
_cell_angle_gamma 108.997544
_cell_volume 820.664473
_symmetry_space_group_name_H-M "P -1"
_symmetry_group_IT_number 2
_symmetry_cell_setting 'triclinic'
loop_
_space_group_symop_operation_xyz
x,y,z
-x,-y,-z
loop_
_atom_site_type_symbol
_atom_site_label
_atom_site_fract_x
_atom_site_fract_y
_atom_site_fract_z
Si Si1 0.010100 0.981519 0.630837
Si Si2 0.626626 0.674707 0.605702
Si Si3 0.616243 0.705849 0.147103
Si Si4 0.151955 0.211351 0.829755
Si Si5 0.722379 0.382555 0.167821
Si Si6 0.117054 0.787217 0.690114
Si Si7 0.585957 0.224588 0.564704
Si Si8 0.795287 0.152470 0.142468
O O1 0.178474 0.179506 0.503231
O O2 0.069441 0.876863 0.629652
O O3 0.000000 0.000000 0.500000
O O4 0.790838 0.875501 0.885241
O O5 0.511739 0.474841 0.781785
O O6 0.683689 0.696580 0.421906
O O7 0.473347 0.692436 0.730429
O O8 0.729384 0.707138 0.162930
O O9 0.456973 0.706361 0.317449
O O10 0.021911 0.252893 0.903058
O O11 0.000000 0.000000 0.000000
O O12 0.683683 0.351828 0.343238
O O13 0.777417 0.285449 0.096909
O O14 0.909687 0.593074 0.946303
O O15 0.256465 0.779774 0.510854
O O16 0.245461 0.904586 0.675382
O O17 0.367848 0.026693 0.756886
#
# Coordination Sequence:
#
# PCOD8028912 Si02
#       8
#     2   2   2   2   2   2   2   2
#     4  12  26  47  66  85 117 165 220 266 297 349
#     4  12  23  39  65  91 129 159 198 254 313 370
#     4  12  24  39  61  97 123 161 205 248 315 374
#     4  12  19  35  60  94 136 160 188 244 313 381
#     4  11  21  34  57  95 128 164 194 238 312 382
#     4  11  22  38  55  88 129 161 208 250 294 365
#     4  11  21  34  58  92 130 162 190 242 315 381
#     4  11  19  32  58  89 131 165 194 229 314 379
#
# _framework density 19.496396000000001
#
# number of rings (size 3 to 8) (size 9 to 14) (size 15 to 20)
#    0.000    0.500    6.250    4.875    3.500    0.500 
#    0.000    0.625    0.000    0.750    0.000    0.000 
#    0.000    0.000    0.000    0.000    0.000    0.000 
#
# Total GULP energy -198448.287235 kJ/mol
# GULP energy per Si atom -12403.017952 kJ/mol
# Density = 1.945202 g / cm^3
# Si number density = 19.496396 Si / 1000 Ang^3
#
#
#
# Elastic Constant Matrix: (Units=GPa)
#
#
# Indices 1 2 3 4 5 6 
#
# 1 60.8762 46.7198 39.1229 2.0847 4.4710 -7.9861
# 2 46.7198 113.1846 47.8025 -3.0810 -7.0506 -17.3098
# 3 39.1229 47.8025 86.8165 1.4423 -15.3714 1.9504
# 4 2.0847 -3.0810 1.4423 36.7802 -4.7191 -12.9871
# 5 4.4710 -7.0506 -15.3714 -4.7191 25.1589 9.9150
# 6 -7.9861 -17.3098 1.9504 -12.9871 9.9150 33.4205
#
#
#
# Elastic Compliance Matrix: (Units=1/GPa)
#
#
# Indices 1 2 3 4 5 6 
#
# 1 0.036424 -0.007523 -0.016784 -0.000645 -0.023937 0.012638
# 2 -0.007523 0.015755 -0.005589 0.005012 -0.000143 0.008679
# 3 -0.016784 -0.005589 0.026809 -0.003475 0.023797 -0.016880
# 4 -0.000645 0.005012 -0.003475 0.033266 -0.000567 0.015740
# 5 -0.023937 -0.000143 0.023797 -0.000567 0.069429 -0.028001
# 6 0.012638 0.008679 -0.016880 0.015740 -0.028001 0.052845
#
#
# Mechanical properties :
#
#
# Convention : Reuss Voigt Hill
#
# Bulk Modulus (GPa) = 52.08477 58.68531 55.38504
# Shear Modulus (GPa) = 16.62683 27.55406 22.09044
#
# Velocity S-wave (km/s) = 2.92347 3.76345 3.36974
# Velocity P-wave (km/s) = 6.17808 7.00362 6.60376
#
# Compressibility (1/GPa) = 0.01919947
#
# Stress axis : x y z
#
# Youngs Moduli (GPa) = 27.45424 63.47036 37.30034
#
# Poissons Ratio (x) = 0.47746 0.62603
# Poissons Ratio (y) = 0.20653 0.20846
# Poissons Ratio (z) = 0.46078 0.35471
#
# Static dielectric constant tensor:
#      x y z
#    x 3.326490 -0.334490 -0.450530 
#    y -0.334490 3.808070 -0.001630 
#    z -0.450530 -0.001630 4.078040 
# 
# 
# High freq. dielectric constant tensor:
#      x y z
#    x 1.712410 -0.024700 -0.042010 
#    y -0.024700 1.770970 -0.012110 
#    z -0.042010 -0.012110 1.764910 
# 
# From -- ./inp_files/427737.got.cif
#   From: 2010.06.25/outbox.cif.g09.slc.cpg/sg2_214_cif.got.tgz:427737.got - 2010.06.27 13:26:56.
