data_PCOD8028976
_publ_section_title
;
Structure prediction by ZEFSAII (Michael W. Deem and Ramdas Pophale) SiO2 
 PCOD8028976
Probable space group: P -1
;
_chemical_formula_sum "Si O2"
_cell_formula_units_Z 14
_cell_length_a 21.720070
_cell_length_b 9.805369
_cell_length_c 11.644823
_cell_angle_alpha 117.389071
_cell_angle_beta 32.592513
_cell_angle_gamma 141.846343
_cell_volume 654.899964
_symmetry_space_group_name_H-M "P -1"
_symmetry_group_IT_number 2
_symmetry_cell_setting 'triclinic'
loop_
_space_group_symop_operation_xyz
x,y,z
-x,-y,-z
loop_
_atom_site_type_symbol
_atom_site_label
_atom_site_fract_x
_atom_site_fract_y
_atom_site_fract_z
Si Si1 0.890498 0.832279 0.726740
Si Si2 0.917175 0.141066 0.962762
Si Si3 0.309679 0.686595 0.441651
Si Si4 0.091432 0.736171 0.738754
Si Si5 0.468528 0.616167 0.020000
Si Si6 0.664944 0.092666 0.204155
Si Si7 0.907430 0.229699 0.510236
O O1 0.640815 0.557506 0.994552
O O2 0.952435 0.731604 0.626549
O O3 0.944427 0.001453 0.815809
O O4 0.000000 0.000000 0.500000
O O5 0.132722 0.474871 0.735462
O O6 0.729220 0.011019 0.139184
O O7 0.871967 0.095270 0.153159
O O8 0.289412 0.525701 0.320577
O O9 0.273991 0.812759 0.488684
O O10 0.542511 0.919635 0.212578
O O11 0.095432 0.814806 0.637518
O O12 0.866890 0.412139 0.979292
O O13 0.500000 0.500000 0.000000
O O14 0.672634 0.945588 0.810613
O O15 0.500000 0.000000 0.500000
O O16 0.000000 0.500000 0.500000
#
# Coordination Sequence:
#
# PCOD8028976 Si02
#       7
#     2   2   2   2   2   2   2
#     4  12  25  46  70  99 138 184 231 283 337 411
#     4  11  22  40  65  99 136 177 226 281 336 410
#     4  11  20  37  66  97 137 176 229 279 330 408
#     4  11  24  40  62 101 141 174 223 287 349 394
#     4  12  24  44  72 100 133 187 234 271 342 415
#     4  11  19  36  66 101 132 179 229 271 336 413
#     4  12  28  47  69 105 142 178 228 291 346 401
#
# _framework density 21.377309
#
# number of rings (size 3 to 8) (size 9 to 14) (size 15 to 20)
#    0.000    0.571    5.714    3.429    2.000    4.000 
#    0.000    0.714    0.000    0.000    0.000    0.000 
#    0.000    0.000    0.000    0.000    0.000    0.000 
#
# Total GULP energy -173540.796904 kJ/mol
# GULP energy per Si atom -12395.771207 kJ/mol
# Density = 2.132865 g / cm^3
# Si number density = 21.377309 Si / 1000 Ang^3
#
#
#
# Elastic Constant Matrix: (Units=GPa)
#
#
# Indices 1 2 3 4 5 6 
#
# 1 153.1088 58.3097 48.5235 3.2404 -4.9507 5.8976
# 2 58.3097 116.3830 42.8274 5.3258 -1.4951 2.9480
# 3 48.5235 42.8274 93.5979 2.5905 -6.4404 0.3300
# 4 3.2404 5.3258 2.5905 41.4494 11.1816 -5.0717
# 5 -4.9507 -1.4951 -6.4404 11.1816 41.9033 -0.5574
# 6 5.8976 2.9480 0.3300 -5.0717 -0.5574 36.7475
#
#
#
# Elastic Compliance Matrix: (Units=1/GPa)
#
#
# Indices 1 2 3 4 5 6 
#
# 1 0.008794 -0.003239 -0.003025 -0.000371 0.000542 -0.001167
# 2 -0.003239 0.011602 -0.003618 -0.001004 -0.000264 -0.000521
# 3 -0.003025 -0.003618 0.014049 -0.000601 0.001841 0.000595
# 4 -0.000371 -0.001004 -0.000601 0.026735 -0.007256 0.003725
# 5 0.000542 -0.000264 0.001841 -0.007256 0.026129 -0.000688
# 6 -0.001167 -0.000521 0.000595 0.003725 -0.000688 0.027940
#
#
# Mechanical properties :
#
#
# Convention : Reuss Voigt Hill
#
# Bulk Modulus (GPa) = 68.11791 73.60121 70.85956
# Shear Modulus (GPa) = 35.73773 38.24864 36.99318
#
# Velocity S-wave (km/s) = 4.09315 4.23450 4.16443
# Velocity P-wave (km/s) = 7.36697 7.64280 7.50615
#
# Compressibility (1/GPa) = 0.01468043
#
# Stress axis : x y z
#
# Youngs Moduli (GPa) = 113.71375 86.18925 71.17904
#
# Poissons Ratio (x) = 0.27918 0.21533
# Poissons Ratio (y) = 0.36834 0.25754
# Poissons Ratio (z) = 0.34401 0.31184
#
# Static dielectric constant tensor:
#      x y z
#    x 4.294670 0.581950 -0.304550 
#    y 0.581950 4.051840 -0.114750 
#    z -0.304550 -0.114750 4.023260 
# 
# 
# High freq. dielectric constant tensor:
#      x y z
#    x 1.838860 0.026000 -0.015570 
#    y 0.026000 1.836550 0.007440 
#    z -0.015570 0.007440 1.842720 
# 
# From -- ./inp_files/70963.got.cif
#   From: 2010.06.25/outbox.cif.g09.slc.cpg/sg2_36_cif.got.tgz:70963.got - 2010.06.27 13:26:56.
