data_PCOD8028792
_publ_section_title
;
Structure prediction by ZEFSAII (Michael W. Deem and Ramdas Pophale) SiO2 
 PCOD8028792
Probable space group: P -1
;
_chemical_formula_sum "Si O2"
_cell_formula_units_Z 16
_cell_length_a 18.817618
_cell_length_b 10.499765
_cell_length_c 11.744696
_cell_angle_alpha 117.138026
_cell_angle_beta 50.578243
_cell_angle_gamma 156.186784
_cell_volume 663.276810
_symmetry_space_group_name_H-M "P -1"
_symmetry_group_IT_number 2
_symmetry_cell_setting 'triclinic'
loop_
_space_group_symop_operation_xyz
x,y,z
-x,-y,-z
loop_
_atom_site_type_symbol
_atom_site_label
_atom_site_fract_x
_atom_site_fract_y
_atom_site_fract_z
Si Si1 0.823502 0.249077 0.177900
Si Si2 0.390564 0.702674 0.282637
Si Si3 0.734895 0.760574 0.370612
Si Si4 0.026607 0.287984 0.643849
Si Si5 0.289705 0.295753 0.096950
Si Si6 0.936516 0.112309 0.073916
Si Si7 0.825865 0.142726 0.583494
Si Si8 0.405300 0.710203 0.755661
O O1 0.879312 0.198361 0.185279
O O2 0.820975 0.395411 0.304541
O O3 0.581026 0.882368 0.224799
O O4 0.000000 0.500000 0.000000
O O5 0.337173 0.533963 0.154796
O O6 0.178343 0.405999 0.457828
O O7 0.465509 0.970030 0.290339
O O8 0.500000 0.500000 0.500000
O O9 0.692459 0.530262 0.346527
O O10 0.856308 0.918644 0.189172
O O11 0.870432 0.049891 0.439233
O O12 0.868182 0.170389 0.684128
O O13 0.891433 0.992023 0.740415
O O14 0.500000 0.500000 0.000000
O O15 0.196227 0.132438 0.000600
O O16 0.201238 0.472228 0.943568
O O17 0.000000 0.500000 0.500000
O O18 0.578286 0.855294 0.708572
#
# Coordination Sequence:
#
# PCOD8028792 Si02
#       8
#     2   2   2   2   2   2   2   2
#     4  12  23  47  72 107 144 191 234 298 370 434
#     4  12  25  47  74 109 147 188 244 301 361 438
#     4  10  26  48  71 103 143 198 241 293 360 430
#     4  12  26  47  75 105 151 186 246 300 360 436
#     4  12  27  48  74 110 146 192 240 305 371 420
#     4  12  25  48  75 103 151 187 244 296 364 437
#     4  11  24  49  73 108 145 191 246 297 358 423
#     4  11  25  46  73 105 141 197 240 294 360 430
#
# _framework density 24.122658999999999
#
# number of rings (size 3 to 8) (size 9 to 14) (size 15 to 20)
#    0.000    0.500    5.000    1.875    7.000    0.000 
#    2.250    3.125    0.000    0.000    0.000    0.000 
#    0.000    0.000    0.000    0.000    0.000    0.000 
#
# Total GULP energy -198344.241570 kJ/mol
# GULP energy per Si atom -12396.515098 kJ/mol
# Density = 2.406776 g / cm^3
# Si number density = 24.122659 Si / 1000 Ang^3
#
#
#
# Elastic Constant Matrix: (Units=GPa)
#
#
# Indices 1 2 3 4 5 6 
#
# 1 65.0388 22.8567 11.5555 0.4480 -10.6104 -7.6965
# 2 22.8567 121.3059 38.5501 12.3673 -1.2176 -23.1109
# 3 11.5555 38.5501 110.2499 -4.9432 -11.9601 6.3774
# 4 0.4480 12.3673 -4.9432 41.7561 4.6493 -14.5654
# 5 -10.6104 -1.2176 -11.9601 4.6493 42.0516 0.8354
# 6 -7.6965 -23.1109 6.3774 -14.5654 0.8354 54.8200
#
#
#
# Elastic Compliance Matrix: (Units=1/GPa)
#
#
# Indices 1 2 3 4 5 6 
#
# 1 0.017284 -0.002892 -0.000410 0.000646 0.004062 0.001365
# 2 -0.002892 0.011080 -0.004062 -0.002109 -0.001414 0.004199
# 3 -0.000410 -0.004062 0.011058 0.001233 0.002843 -0.002772
# 4 0.000646 -0.002109 0.001233 0.027219 -0.002682 0.006331
# 5 0.004062 -0.001414 0.002843 -0.002682 0.025898 -0.001464
# 6 0.001365 0.004199 -0.002772 0.006331 -0.001464 0.022230
#
#
# Mechanical properties :
#
#
# Convention : Reuss Voigt Hill
#
# Bulk Modulus (GPa) = 40.49390 49.16880 44.83135
# Shear Modulus (GPa) = 36.30317 42.63435 39.46876
#
# Velocity S-wave (km/s) = 3.88356 4.20860 4.04935
# Velocity P-wave (km/s) = 6.07722 6.63653 6.36302
#
# Compressibility (1/GPa) = 0.02469508
#
# Stress axis : x y z
#
# Youngs Moduli (GPa) = 57.85613 90.25113 90.43509
#
# Poissons Ratio (x) = 0.26096 0.03706
# Poissons Ratio (y) = 0.16729 0.36736
# Poissons Ratio (z) = 0.02371 0.36661
#
# Static dielectric constant tensor:
#      x y z
#    x 4.466910 -0.159410 -0.366020 
#    y -0.159410 4.953990 0.015840 
#    z -0.366020 0.015840 4.394770 
# 
# 
# High freq. dielectric constant tensor:
#      x y z
#    x 1.951720 -0.009740 -0.025950 
#    y -0.009740 1.979750 -0.003060 
#    z -0.025950 -0.003060 1.961090 
# 
# From -- ./inp_files/471208.got.cif
#   From: 2010.06.25/outbox.cif.g09.slc.cpg/sg2_236_cif.got.tgz:471208.got - 2010.06.27 13:26:56.
