data_PCOD8028899
_publ_section_title
;
Structure prediction by ZEFSAII (Michael W. Deem and Ramdas Pophale) SiO2 
 PCOD8028899
Probable space group: P -1
;
_chemical_formula_sum "Si O2"
_cell_formula_units_Z 16
_cell_length_a 15.522863
_cell_length_b 8.181157
_cell_length_c 14.678999
_cell_angle_alpha 137.725164
_cell_angle_beta 40.183032
_cell_angle_gamma 140.185207
_cell_volume 715.343084
_symmetry_space_group_name_H-M "P -1"
_symmetry_group_IT_number 2
_symmetry_cell_setting 'triclinic'
loop_
_space_group_symop_operation_xyz
x,y,z
-x,-y,-z
loop_
_atom_site_type_symbol
_atom_site_label
_atom_site_fract_x
_atom_site_fract_y
_atom_site_fract_z
Si Si1 0.193970 0.153222 0.143836
Si Si2 0.627745 0.440294 0.684676
Si Si3 0.442206 0.006817 0.223068
Si Si4 0.430319 0.123701 0.477592
Si Si5 0.281248 0.330950 0.473806
Si Si6 0.666618 0.540122 0.017989
Si Si7 0.752678 0.348701 0.042535
Si Si8 0.860113 0.794794 0.284847
O O1 0.290910 0.445054 0.236882
O O2 0.239728 0.200560 0.018822
O O3 0.017316 0.069079 0.258991
O O4 0.218336 0.914908 0.076789
O O5 0.750443 0.643839 0.595704
O O6 0.461373 0.419619 0.807714
O O7 0.608613 0.146462 0.543525
O O8 0.491240 0.041942 0.303122
O O9 0.294230 0.049573 0.353059
O O10 0.576291 0.247733 0.158377
O O11 0.417341 0.719198 0.086704
O O12 0.556235 0.409976 0.530291
O O13 0.278318 0.145701 0.597252
O O14 0.156845 0.315493 0.641466
O O15 0.776705 0.488142 0.979293
O O16 0.858147 0.570548 0.122950
#
# Coordination Sequence:
#
# PCOD8028899 Si02
#       8
#     2   2   2   2   2   2   2   2
#     4  12  27  43  64  97 135 170 213 261 320 390
#     4  12  23  40  66 100 125 165 218 271 319 374
#     4  11  18  39  67  93 121 161 210 273 320 358
#     4  11  21  40  67  93 127 167 215 267 319 373
#     4  11  22  40  68  94 125 166 219 266 317 376
#     4  12  24  42  70  99 128 163 217 275 319 371
#     4  12  22  44  70  94 128 167 217 268 321 376
#     4  11  25  45  61  93 133 176 209 257 322 387
#
# _framework density 22.366889
#
# number of rings (size 3 to 8) (size 9 to 14) (size 15 to 20)
#    0.000    0.500    6.250    3.750    0.000    1.500 
#    2.250    0.000    0.000    0.000    0.000    0.000 
#    0.000    0.000    0.000    0.000    0.000    0.000 
#
# Total GULP energy -198248.435601 kJ/mol
# GULP energy per Si atom -12390.527225 kJ/mol
# Density = 2.231598 g / cm^3
# Si number density = 22.366889 Si / 1000 Ang^3
#
#
#
# Elastic Constant Matrix: (Units=GPa)
#
#
# Indices 1 2 3 4 5 6 
#
# 1 56.8336 24.6317 16.1600 -14.4101 10.7635 -16.2117
# 2 24.6317 85.6700 28.4134 -13.5927 -5.7104 -4.8362
# 3 16.1600 28.4134 67.4404 -0.6598 12.1864 2.2087
# 4 -14.4101 -13.5927 -0.6598 41.5822 -13.9697 1.6972
# 5 10.7635 -5.7104 12.1864 -13.9697 25.5308 -5.8119
# 6 -16.2117 -4.8362 2.2087 1.6972 -5.8119 32.1006
#
#
#
# Elastic Compliance Matrix: (Units=1/GPa)
#
#
# Indices 1 2 3 4 5 6 
#
# 1 0.026511 -0.005348 -0.003479 0.005144 -0.005257 0.011598
# 2 -0.005348 0.019676 -0.010292 0.010333 0.018063 0.003696
# 3 -0.003479 -0.010292 0.023716 -0.010489 -0.019705 -0.007952
# 4 0.005144 0.010333 -0.010489 0.038048 0.027764 0.007892
# 5 -0.005257 0.018063 -0.019705 0.027764 0.073022 0.013175
# 6 0.011598 0.003696 -0.007952 0.007892 0.013175 0.040082
#
#
# Mechanical properties :
#
#
# Convention : Reuss Voigt Hill
#
# Bulk Modulus (GPa) = 31.58080 38.70602 35.14341
# Shear Modulus (GPa) = 18.52901 29.22532 23.87716
#
# Velocity S-wave (km/s) = 2.88134 3.61866 3.27084
# Velocity P-wave (km/s) = 5.02191 5.89934 5.47822
#
# Compressibility (1/GPa) = 0.03166481
#
# Stress axis : x y z
#
# Youngs Moduli (GPa) = 37.72089 50.82348 42.16515
#
# Poissons Ratio (x) = 0.27180 0.14669
# Poissons Ratio (y) = 0.20173 0.43397
# Poissons Ratio (z) = 0.13122 0.52309
#
# Static dielectric constant tensor:
#      x y z
#    x 3.979680 -0.313570 0.309030 
#    y -0.313570 4.026670 -0.111040 
#    z 0.309030 -0.111040 4.110800 
# 
# 
# High freq. dielectric constant tensor:
#      x y z
#    x 1.866090 -0.024660 0.018740 
#    y -0.024660 1.870860 0.006560 
#    z 0.018740 0.006560 1.886310 
# 
# From -- ./inp_files/262011.got.cif
#   From: 2010.06.25/outbox.cif.g09.slc.cpg/sg2_132_cif.got.tgz:262011.got - 2010.06.27 13:26:56.
