data_PCOD8028355
_publ_section_title
;
Structure prediction by ZEFSAII (Michael W. Deem and Ramdas Pophale) SiO2 
 PCOD8028355
Probable space group: P -1
;
_chemical_formula_sum "Si O2"
_cell_formula_units_Z 16
_cell_length_a 15.104162
_cell_length_b 9.132092
_cell_length_c 9.344369
_cell_angle_alpha 133.710882
_cell_angle_beta 65.756002
_cell_angle_gamma 87.315748
_cell_volume 734.906464
_symmetry_space_group_name_H-M "P -1"
_symmetry_group_IT_number 2
_symmetry_cell_setting 'triclinic'
loop_
_space_group_symop_operation_xyz
x,y,z
-x,-y,-z
loop_
_atom_site_type_symbol
_atom_site_label
_atom_site_fract_x
_atom_site_fract_y
_atom_site_fract_z
Si Si1 0.386419 0.541117 0.036656
Si Si2 0.690953 0.528985 0.677920
Si Si3 0.038808 0.228512 0.269637
Si Si4 0.509762 0.268492 0.274399
Si Si5 0.422867 0.180620 0.553830
Si Si6 0.236877 0.077739 0.518263
Si Si7 0.119592 0.965571 0.751690
Si Si8 0.241996 0.125916 0.232535
O O1 0.337712 0.429819 0.106775
O O2 0.308325 0.810768 0.245802
O O3 0.500000 0.500000 0.000000
O O4 0.397642 0.431996 0.798486
O O5 0.578741 0.658438 0.745475
O O6 0.760370 0.247214 0.413724
O O7 0.768790 0.638813 0.667872
O O8 0.156414 0.070735 0.167333
O O9 0.000000 0.500000 0.500000
O O10 0.951271 0.154107 0.338833
O O11 0.055483 0.160676 0.045877
O O12 0.500000 0.500000 0.500000
O O13 0.481161 0.135792 0.329182
O O14 0.632022 0.092210 0.011543
O O15 0.308744 0.172969 0.615632
O O16 0.500000 0.000000 0.500000
O O17 0.196304 0.202994 0.476824
O O18 0.136315 0.108219 0.707626
#
# Coordination Sequence:
#
# PCOD8028355 Si02
#       8
#     2   2   2   2   2   2   2   2
#     4  11  22  38  59  90 132 177 218 259 315 387
#     4  11  22  41  65  96 135 170 217 264 323 396
#     4  11  24  47  74  97 124 171 224 274 329 383
#     4  12  25  39  61 100 137 178 214 261 324 396
#     4  12  24  37  60  91 135 178 216 260 320 384
#     4  11  25  42  61  98 131 169 216 270 326 385
#     4  10  25  45  73  99 126 169 225 271 324 393
#     4  12  24  42  67  94 136 176 215 269 328 386
#
# _framework density 21.771478999999999
#
# number of rings (size 3 to 8) (size 9 to 14) (size 15 to 20)
#    0.000    0.750    3.750    4.125    5.250    0.500 
#    0.000    0.625    0.000    0.000    0.000    0.000 
#    0.000    0.000    0.000    0.000    0.000    0.000 
#
# Total GULP energy -198401.241416 kJ/mol
# GULP energy per Si atom -12400.077589 kJ/mol
# Density = 2.172193 g / cm^3
# Si number density = 21.771479 Si / 1000 Ang^3
#
#
#
# Elastic Constant Matrix: (Units=GPa)
#
#
# Indices 1 2 3 4 5 6 
#
# 1 136.4357 33.8143 29.7478 -13.4970 5.5258 12.8035
# 2 33.8143 102.7071 22.4695 -24.5414 -5.7062 14.9436
# 3 29.7478 22.4695 86.7303 -10.2692 7.6105 7.7639
# 4 -13.4970 -24.5414 -10.2692 35.3777 5.0289 -4.0355
# 5 5.5258 -5.7062 7.6105 5.0289 36.4809 -0.6961
# 6 12.8035 14.9436 7.7639 -4.0355 -0.6961 34.2571
#
#
#
# Elastic Compliance Matrix: (Units=1/GPa)
#
#
# Indices 1 2 3 4 5 6 
#
# 1 0.008596 -0.001873 -0.002014 0.001389 -0.001401 -0.001804
# 2 -0.001873 0.013082 -0.001700 0.007210 0.001619 -0.003739
# 3 -0.002014 -0.001700 0.013310 0.002200 -0.003066 -0.001325
# 4 0.001389 0.007210 0.002200 0.035044 -0.004375 -0.000124
# 5 -0.001401 0.001619 -0.003066 -0.004375 0.029131 0.000589
# 6 -0.001804 -0.003739 -0.001325 -0.000124 0.000589 0.031794
#
#
# Mechanical properties :
#
#
# Convention : Reuss Voigt Hill
#
# Bulk Modulus (GPa) = 41.99529 55.32624 48.66077
# Shear Modulus (GPa) = 33.31783 37.21257 35.26520
#
# Velocity S-wave (km/s) = 3.91620 4.13877 4.02903
# Velocity P-wave (km/s) = 6.30713 6.95030 6.63651
#
# Compressibility (1/GPa) = 0.02381219
#
# Stress axis : x y z
#
# Youngs Moduli (GPa) = 116.32933 76.44196 75.13380
#
# Poissons Ratio (x) = 0.14317 0.15135
# Poissons Ratio (y) = 0.21787 0.12776
# Poissons Ratio (z) = 0.23433 0.12999
#
# Static dielectric constant tensor:
#      x y z
#    x 4.676840 0.141280 -0.038110 
#    y 0.141280 4.177610 -0.145990 
#    z -0.038110 -0.145990 4.133730 
# 
# 
# High freq. dielectric constant tensor:
#      x y z
#    x 1.854200 0.013060 0.007080 
#    y 0.013060 1.866170 -0.007730 
#    z 0.007080 -0.007730 1.852920 
# 
# From -- ./inp_files/203354.got.cif
#   From: 2010.06.25/outbox.cif.g09.slc.cpg/sg2_102_cif.got.tgz:203354.got - 2010.06.27 13:26:56.
