data_PCOD8028175
_publ_section_title
;
Structure prediction by ZEFSAII (Michael W. Deem and Ramdas Pophale) SiO2 
 PCOD8028175
Probable space group: P -1
;
_chemical_formula_sum "Si O2"
_cell_formula_units_Z 12
_cell_length_a 15.251946
_cell_length_b 14.416886
_cell_length_c 4.846367
_cell_angle_alpha 64.657626
_cell_angle_beta 68.300458
_cell_angle_gamma 28.825385
_cell_volume 464.314715
_symmetry_space_group_name_H-M "P -1"
_symmetry_group_IT_number 2
_symmetry_cell_setting 'triclinic'
loop_
_space_group_symop_operation_xyz
x,y,z
-x,-y,-z
loop_
_atom_site_type_symbol
_atom_site_label
_atom_site_fract_x
_atom_site_fract_y
_atom_site_fract_z
Si Si1 0.310273 0.582193 0.060390
Si Si2 0.411568 0.781127 0.464900
Si Si3 0.795249 0.196853 0.595641
Si Si4 0.837916 0.805574 0.771874
Si Si5 0.290701 0.192972 0.571387
Si Si6 0.221824 0.471140 0.576065
O O1 0.519691 0.365227 0.194546
O O2 0.213339 0.760362 0.132538
O O3 0.195103 0.584348 0.229920
O O4 0.309930 0.617634 0.697978
O O5 0.307870 0.816089 0.299725
O O6 0.591787 0.676484 0.281253
O O7 0.271013 0.995233 0.478584
O O8 0.000000 0.000000 0.500000
O O9 0.819263 0.727210 0.682818
O O10 0.051300 0.632344 0.776696
O O11 0.752413 0.857432 0.099215
O O12 0.228921 0.357924 0.553135
O O13 0.500000 0.000000 0.500000
#
# Coordination Sequence:
#
# PCOD8028175 Si02
#       6
#     2   2   2   2   2   2
#     4  10  25  44  69 100 146 179 240 289 359 413
#     4  10  25  46  73 104 147 187 241 295 359 421
#     4  12  24  45  72 105 140 190 236 295 354 430
#     4  12  26  47  71 106 142 192 240 293 358 429
#     4  12  25  47  73 103 146 189 238 296 358 424
#     4  10  25  46  72 107 144 190 239 298 356 424
#
# _framework density 25.844539000000001
#
# number of rings (size 3 to 8) (size 9 to 14) (size 15 to 20)
#    1.000    0.000    1.667    4.000    0.000    8.000 
#    0.000    0.000    0.000    0.000    0.000    0.000 
#    0.000    0.000    0.000    0.000    0.000    0.000 
#
# Total GULP energy -148779.629117 kJ/mol
# GULP energy per Si atom -12398.302426 kJ/mol
# Density = 2.578572 g / cm^3
# Si number density = 25.844539 Si / 1000 Ang^3
#
#
#
# Elastic Constant Matrix: (Units=GPa)
#
#
# Indices 1 2 3 4 5 6 
#
# 1 94.5410 47.1203 8.4597 -1.5025 -17.3593 -7.6025
# 2 47.1203 164.6042 15.9914 16.6871 -19.1722 -14.6111
# 3 8.4597 15.9914 69.1173 20.7639 3.1177 -2.1823
# 4 -1.5025 16.6871 20.7639 28.5608 -1.8487 -9.8469
# 5 -17.3593 -19.1722 3.1177 -1.8487 27.3112 -0.9560
# 6 -7.6025 -14.6111 -2.1823 -9.8469 -0.9560 44.8935
#
#
#
# Elastic Compliance Matrix: (Units=1/GPa)
#
#
# Indices 1 2 3 4 5 6 
#
# 1 0.014219 -0.003280 -0.003163 0.006407 0.007627 0.002754
# 2 -0.003280 0.007940 -0.000374 -0.003904 0.003311 0.001225
# 3 -0.003163 -0.000374 0.019875 -0.015907 -0.005734 -0.003302
# 4 0.006407 -0.003904 -0.015907 0.053420 0.007146 0.010911
# 5 0.007627 0.003311 -0.005734 0.007146 0.045087 0.004618
# 6 0.002754 0.001225 -0.003302 0.010911 0.004618 0.025471
#
#
# Mechanical properties :
#
#
# Convention : Reuss Voigt Hill
#
# Bulk Modulus (GPa) = 35.21076 52.37837 43.79457
# Shear Modulus (GPa) = 26.43935 37.26583 31.85259
#
# Velocity S-wave (km/s) = 3.20193 3.80139 3.51446
# Velocity P-wave (km/s) = 5.22718 6.29111 5.78366
#
# Compressibility (1/GPa) = 0.02840041
#
# Stress axis : x y z
#
# Youngs Moduli (GPa) = 70.32912 125.93728 50.31469
#
# Poissons Ratio (x) = 0.41305 0.15917
# Poissons Ratio (y) = 0.23066 0.01880
# Poissons Ratio (z) = 0.22248 0.04706
#
# Static dielectric constant tensor:
#      x y z
#    x 4.886560 -0.048860 -0.312470 
#    y -0.048860 4.720320 -0.008460 
#    z -0.312470 -0.008460 4.349650 
# 
# 
# High freq. dielectric constant tensor:
#      x y z
#    x 2.046470 0.002870 -0.020600 
#    y 0.002870 2.043950 0.006550 
#    z -0.020600 0.006550 2.008960 
# 
# From -- ./inp_files/96764.got.cif
#   From: 2010.06.25/outbox.cif.g09.slc.cpg/sg2_49_cif.got.tgz:96764.got - 2010.06.27 13:26:56.
