data_PCOD8028923
_publ_section_title
;
Structure prediction by ZEFSAII (Michael W. Deem and Ramdas Pophale) SiO2 
 PCOD8028923
Probable space group: P -1
;
_chemical_formula_sum "Si O2"
_cell_formula_units_Z 14
_cell_length_a 8.971128
_cell_length_b 11.929498
_cell_length_c 11.742198
_cell_angle_alpha 59.593292
_cell_angle_beta 140.990692
_cell_angle_gamma 117.614569
_cell_volume 676.469873
_symmetry_space_group_name_H-M "P -1"
_symmetry_group_IT_number 2
_symmetry_cell_setting 'triclinic'
loop_
_space_group_symop_operation_xyz
x,y,z
-x,-y,-z
loop_
_atom_site_type_symbol
_atom_site_label
_atom_site_fract_x
_atom_site_fract_y
_atom_site_fract_z
Si Si1 0.541706 0.621870 0.315377
Si Si2 0.839540 0.811067 0.250122
Si Si3 0.239663 0.987277 0.714843
Si Si4 0.313721 0.890568 0.391075
Si Si5 0.876720 0.223187 0.072695
Si Si6 0.748182 0.005548 0.928263
Si Si7 0.612060 0.675231 0.585774
O O1 0.726126 0.666732 0.297738
O O2 0.652536 0.679986 0.470998
O O3 0.515316 0.466151 0.379681
O O4 0.283517 0.668015 0.118783
O O5 0.129348 0.828781 0.411205
O O6 0.724534 0.906008 0.219330
O O7 0.765037 0.856003 0.056591
O O8 0.228814 0.843497 0.838487
O O9 0.464499 0.019007 0.748981
O O10 0.000000 0.000000 0.500000
O O11 0.167846 0.963306 0.168971
O O12 0.433372 0.776429 0.462079
O O13 0.500000 0.000000 0.500000
O O14 0.141608 0.294012 0.216390
O O15 0.891056 0.111468 0.043613
#
# Coordination Sequence:
#
# PCOD8028923 Si02
#       7
#     2   2   2   2   2   2   2
#     4  11  22  44  64  91 124 162 213 252 298 361
#     4  11  21  36  59  89 123 162 194 253 312 359
#     4  11  19  33  62  93 122 156 205 258 303 357
#     4  12  24  40  60  91 128 160 200 252 315 369
#     4  11  19  38  66  90 123 154 209 260 303 349
#     4  11  20  38  61  91 123 157 207 255 305 364
#     4  11  25  40  66  91 122 168 208 251 300 368
#
# _framework density 20.695671999999998
#
# number of rings (size 3 to 8) (size 9 to 14) (size 15 to 20)
#    0.000    0.857    4.286    6.000    0.000    0.571 
#    0.000    0.000    0.000    1.714    0.000    0.000 
#    0.000    0.000    0.000    0.000    0.000    0.000 
#
# Total GULP energy -173602.783510 kJ/mol
# GULP energy per Si atom -12400.198822 kJ/mol
# Density = 2.064857 g / cm^3
# Si number density = 20.695672 Si / 1000 Ang^3
#
#
#
# Elastic Constant Matrix: (Units=GPa)
#
#
# Indices 1 2 3 4 5 6 
#
# 1 104.5611 47.4123 18.8920 -2.0589 -6.7324 30.8231
# 2 47.4123 107.9884 42.8783 -5.4011 -7.5418 12.9835
# 3 18.8920 42.8783 109.4686 4.2910 -12.4747 13.2205
# 4 -2.0589 -5.4011 4.2910 35.4719 8.9635 2.1650
# 5 -6.7324 -7.5418 -12.4747 8.9635 27.0756 0.8431
# 6 30.8231 12.9835 13.2205 2.1650 0.8431 30.6950
#
#
#
# Elastic Compliance Matrix: (Units=1/GPa)
#
#
# Indices 1 2 3 4 5 6 
#
# 1 0.016591 -0.005901 0.001697 -0.000184 0.003791 -0.014987
# 2 -0.005901 0.013538 -0.004708 0.002339 -0.000705 0.002081
# 3 0.001697 -0.004708 0.012073 -0.003276 0.005909 -0.004844
# 4 -0.000184 0.002339 -0.003276 0.031901 -0.011423 -0.001330
# 5 0.003791 -0.000705 0.005909 -0.011423 0.044385 -0.006467
# 6 -0.014987 0.002081 -0.004844 -0.001330 -0.006467 0.049105
#
#
# Mechanical properties :
#
#
# Convention : Reuss Voigt Hill
#
# Bulk Modulus (GPa) = 41.01838 60.04260 50.53049
# Shear Modulus (GPa) = 25.83415 32.83753 29.33584
#
# Velocity S-wave (km/s) = 3.53694 3.98764 3.76904
# Velocity P-wave (km/s) = 6.04506 7.09062 6.58861
#
# Compressibility (1/GPa) = 0.02437931
#
# Stress axis : x y z
#
# Youngs Moduli (GPa) = 60.27317 73.86707 82.83033
#
# Poissons Ratio (x) = 0.43588 -0.14058
# Poissons Ratio (y) = 0.35566 0.38994
# Poissons Ratio (z) = -0.10230 0.34774
#
# Static dielectric constant tensor:
#      x y z
#    x 4.021890 0.264710 -0.145550 
#    y 0.264710 3.673180 -0.118180 
#    z -0.145550 -0.118180 4.014000 
# 
# 
# High freq. dielectric constant tensor:
#      x y z
#    x 1.813070 0.024400 0.004130 
#    y 0.024400 1.788760 -0.003320 
#    z 0.004130 -0.003320 1.828510 
# 
# From -- ./inp_files/252748.got.cif
#   From: 2010.06.25/outbox.cif.g09.slc.cpg/sg2_127_cif.got.tgz:252748.got - 2010.06.27 13:26:56.
