data_PCOD8028065
_publ_section_title
;
Structure prediction by ZEFSAII (Michael W. Deem and Ramdas Pophale) SiO2 
 PCOD8028065
Probable space group: P -1
;
_chemical_formula_sum "Si O2"
_cell_formula_units_Z 12
_cell_length_a 12.782991
_cell_length_b 9.246822
_cell_length_c 4.929365
_cell_angle_alpha 111.450962
_cell_angle_beta 67.409204
_cell_angle_gamma 109.022143
_cell_volume 488.892370
_symmetry_space_group_name_H-M "P -1"
_symmetry_group_IT_number 2
_symmetry_cell_setting 'triclinic'
loop_
_space_group_symop_operation_xyz
x,y,z
-x,-y,-z
loop_
_atom_site_type_symbol
_atom_site_label
_atom_site_fract_x
_atom_site_fract_y
_atom_site_fract_z
Si Si1 0.477067 0.749341 0.227366
Si Si2 0.847127 0.731356 0.242989
Si Si3 0.368422 0.938340 0.864180
Si Si4 0.987012 0.675635 0.566862
Si Si5 0.785117 0.058712 0.482416
Si Si6 0.391010 0.465060 0.780465
O O1 0.416213 0.789465 0.594276
O O2 0.587206 0.672053 0.129647
O O3 0.524247 0.907967 0.109143
O O4 0.382579 0.624162 0.063566
O O5 0.942280 0.684668 0.312608
O O6 0.727834 0.599896 0.306312
O O7 0.829017 0.907081 0.449171
O O8 0.893676 0.729436 0.890673
O O9 0.276720 0.983042 0.772742
O O10 0.307693 0.894406 0.183727
O O11 0.000000 0.500000 0.500000
O O12 0.110645 0.792016 0.557238
O O13 0.500000 0.500000 0.500000
#
# Coordination Sequence:
#
# PCOD8028065 Si02
#       6
#     2   2   2   2   2   2
#     4  10  25  43  66 111 145 188 233 292 349 430
#     4  12  26  49  75 105 147 189 239 295 361 431
#     4  11  25  44  75 105 146 185 241 289 353 423
#     4  12  29  49  74 108 142 184 246 305 363 419
#     4  12  25  48  76 105 140 195 240 294 359 428
#     4  11  25  42  73 103 148 190 235 282 366 425
#
# _framework density 24.545282
#
# number of rings (size 3 to 8) (size 9 to 14) (size 15 to 20)
#    0.000    0.667    1.667    4.500    9.333    1.333 
#    0.000    0.000    0.000    0.000    0.000    0.000 
#    0.000    0.000    0.000    0.000    0.000    0.000 
#
# Total GULP energy -148913.843972 kJ/mol
# GULP energy per Si atom -12409.486998 kJ/mol
# Density = 2.448942 g / cm^3
# Si number density = 24.545282 Si / 1000 Ang^3
#
#
#
# Elastic Constant Matrix: (Units=GPa)
#
#
# Indices 1 2 3 4 5 6 
#
# 1 75.7132 42.6144 -3.9817 8.1715 -10.0180 12.0369
# 2 42.6144 153.2816 47.2272 26.4814 -12.2994 28.2470
# 3 -3.9817 47.2272 120.5923 5.0655 -19.4463 23.5063
# 4 8.1715 26.4814 5.0655 48.5376 1.4871 -5.8116
# 5 -10.0180 -12.2994 -19.4463 1.4871 37.2543 -6.5188
# 6 12.0369 28.2470 23.5063 -5.8116 -6.5188 43.6809
#
#
#
# Elastic Compliance Matrix: (Units=1/GPa)
#
#
# Indices 1 2 3 4 5 6 
#
# 1 0.017404 -0.004870 0.003901 -0.001207 0.004593 -0.003221
# 2 -0.004870 0.010577 -0.003231 -0.005145 -0.000078 -0.004455
# 3 0.003901 -0.003231 0.011427 -0.000780 0.005197 -0.004463
# 4 -0.001207 -0.005145 -0.000780 0.024602 -0.002183 0.007027
# 5 0.004593 -0.000078 0.005197 -0.002183 0.030906 0.000310
# 6 -0.003221 -0.004455 -0.004463 0.007027 0.000310 0.030045
#
#
# Mechanical properties :
#
#
# Convention : Reuss Voigt Hill
#
# Bulk Modulus (GPa) = 32.24943 57.92300 45.08621
# Shear Modulus (GPa) = 34.79536 43.47637 39.13587
#
# Velocity S-wave (km/s) = 3.76919 4.21321 3.99737
# Velocity P-wave (km/s) = 5.66654 6.87880 6.30188
#
# Compressibility (1/GPa) = 0.03100830
#
# Stress axis : x y z
#
# Youngs Moduli (GPa) = 57.45846 94.54615 87.50839
#
# Poissons Ratio (x) = 0.46043 -0.34137
# Poissons Ratio (y) = 0.27981 0.28275
# Poissons Ratio (z) = -0.22415 0.30549
#
# Static dielectric constant tensor:
#      x y z
#    x 4.527490 -0.065740 0.041410 
#    y -0.065740 4.532500 0.147560 
#    z 0.041410 0.147560 4.425100 
# 
# 
# High freq. dielectric constant tensor:
#      x y z
#    x 1.986760 -0.004160 0.003320 
#    y -0.004160 1.988260 0.008330 
#    z 0.003320 0.008330 1.979310 
# 
# From -- ./inp_files/28582.got.cif
#   From: 2010.06.25/outbox.cif.g09.slc.cpg/sg2_15_cif.got.tgz:28582.got - 2010.06.27 13:26:56.
