data_PCOD8028088
_publ_section_title
;
Structure prediction by ZEFSAII (Michael W. Deem and Ramdas Pophale) SiO2 
 PCOD8028088
Probable space group: P -1
;
_chemical_formula_sum "Si O2"
_cell_formula_units_Z 16
_cell_length_a 14.773313
_cell_length_b 9.605878
_cell_length_c 13.993851
_cell_angle_alpha 97.384845
_cell_angle_beta 150.969738
_cell_angle_gamma 102.098198
_cell_volume 710.298865
_symmetry_space_group_name_H-M "P -1"
_symmetry_group_IT_number 2
_symmetry_cell_setting 'triclinic'
loop_
_space_group_symop_operation_xyz
x,y,z
-x,-y,-z
loop_
_atom_site_type_symbol
_atom_site_label
_atom_site_fract_x
_atom_site_fract_y
_atom_site_fract_z
Si Si1 0.715486 0.856464 0.328949
Si Si2 0.923334 0.369872 0.145515
Si Si3 0.598855 0.286213 0.458183
Si Si4 0.293301 0.180182 0.894119
Si Si5 0.354380 0.504617 0.084148
Si Si6 0.455548 0.007989 0.150326
Si Si7 0.242714 0.787176 0.227168
Si Si8 0.716512 0.635504 0.788355
O O1 0.610939 0.752564 0.120133
O O2 0.612042 0.704905 0.303867
O O3 0.645270 0.984409 0.288043
O O4 0.010198 0.985663 0.616426
O O5 0.223551 0.515874 0.420968
O O6 0.863565 0.493855 0.145789
O O7 0.823325 0.199052 0.109919
O O8 0.768879 0.275534 0.895927
O O9 0.746131 0.338652 0.699658
O O10 0.325730 0.221179 0.210053
O O11 0.561378 0.117632 0.358823
O O12 0.317195 0.336235 0.986638
O O13 0.454130 0.137282 0.087550
O O14 0.341983 0.489407 0.185413
O O15 0.500000 0.000000 0.500000
O O16 0.998536 0.760230 0.021337
O O17 0.500000 0.500000 0.500000
#
# Coordination Sequence:
#
# PCOD8028088 Si02
#       8
#     2   2   2   2   2   2   2   2
#     4  10  25  43  68  98 133 174 221 280 346 410
#     4  11  23  43  66  96 135 182 225 277 336 400
#     4  12  23  42  66  95 133 179 229 278 332 402
#     4  11  23  44  68  99 133 170 223 284 343 407
#     4  11  23  43  70  96 134 180 222 279 340 406
#     4  11  24  41  67  99 131 173 223 278 341 405
#     4  12  25  44  65  97 142 184 228 283 340 399
#     4  12  25  41  69 100 136 184 231 280 334 403
#
# _framework density 22.525728999999998
#
# number of rings (size 3 to 8) (size 9 to 14) (size 15 to 20)
#    0.000    0.750    5.000    2.625    1.750    0.500 
#    0.000    0.000    0.000    8.250    0.000    0.000 
#    0.000    0.000    0.000    0.000    0.000    0.000 
#
# Total GULP energy -198368.872813 kJ/mol
# GULP energy per Si atom -12398.054551 kJ/mol
# Density = 2.247446 g / cm^3
# Si number density = 22.525729 Si / 1000 Ang^3
#
#
#
# Elastic Constant Matrix: (Units=GPa)
#
#
# Indices 1 2 3 4 5 6 
#
# 1 89.0594 24.0286 18.7831 2.2154 1.0311 -4.7060
# 2 24.0286 76.5924 20.2736 4.2928 -7.1580 -3.1000
# 3 18.7831 20.2736 68.7846 -3.0716 10.1721 -2.3508
# 4 2.2154 4.2928 -3.0716 30.2068 -4.2316 2.7491
# 5 1.0311 -7.1580 10.1721 -4.2316 37.2717 2.1341
# 6 -4.7060 -3.1000 -2.3508 2.7491 2.1341 30.1667
#
#
#
# Elastic Compliance Matrix: (Units=1/GPa)
#
#
# Indices 1 2 3 4 5 6 
#
# 1 0.012739 -0.003288 -0.002420 -0.000930 -0.000520 0.001582
# 2 -0.003288 0.015772 -0.004417 -0.001939 0.004068 0.000653
# 3 -0.002420 -0.004417 0.017399 0.001754 -0.005373 0.000745
# 4 -0.000930 -0.001939 0.001754 0.034413 0.003286 -0.003576
# 5 -0.000520 0.004068 -0.005373 0.003286 0.029607 -0.002476
# 6 0.001582 0.000653 0.000745 -0.003576 -0.002476 0.034022
#
#
# Mechanical properties :
#
#
# Convention : Reuss Voigt Hill
#
# Bulk Modulus (GPa) = 38.97080 40.06743 39.51911
# Shear Modulus (GPa) = 28.94270 30.95245 29.94757
#
# Velocity S-wave (km/s) = 3.58840 3.71090 3.65016
# Velocity P-wave (km/s) = 5.87426 6.01557 5.94533
#
# Compressibility (1/GPa) = 0.02566024
#
# Stress axis : x y z
#
# Youngs Moduli (GPa) = 78.50033 63.40350 57.47420
#
# Poissons Ratio (x) = 0.20849 0.13909
# Poissons Ratio (y) = 0.25813 0.25384
# Poissons Ratio (z) = 0.18997 0.28003
#
# Static dielectric constant tensor:
#      x y z
#    x 4.457180 -0.078840 0.017940 
#    y -0.078840 4.214290 -0.046620 
#    z 0.017940 -0.046620 3.825470 
# 
# 
# High freq. dielectric constant tensor:
#      x y z
#    x 1.899900 -0.007360 0.004380 
#    y -0.007360 1.895930 0.001070 
#    z 0.004380 0.001070 1.871780 
# 
# From -- ./inp_files/530036.got.cif
#   From: 2010.06.25/outbox.cif.g09.slc.cpg/sg2_266_cif.got.tgz:530036.got - 2010.06.27 13:26:56.
