data_PCOD8028432
_publ_section_title
;
Structure prediction by ZEFSAII (Michael W. Deem and Ramdas Pophale) SiO2 
 PCOD8028432
Probable space group: P -1
;
_chemical_formula_sum "Si O2"
_cell_formula_units_Z 14
_cell_length_a 7.209997
_cell_length_b 8.321819
_cell_length_c 20.851376
_cell_angle_alpha 141.195560
_cell_angle_beta 125.723538
_cell_angle_gamma 52.093699
_cell_volume 604.462224
_symmetry_space_group_name_H-M "P -1"
_symmetry_group_IT_number 2
_symmetry_cell_setting 'triclinic'
loop_
_space_group_symop_operation_xyz
x,y,z
-x,-y,-z
loop_
_atom_site_type_symbol
_atom_site_label
_atom_site_fract_x
_atom_site_fract_y
_atom_site_fract_z
Si Si1 0.875011 0.406537 0.006030
Si Si2 0.501528 0.151404 0.367436
Si Si3 0.734859 0.090075 0.070785
Si Si4 0.106368 0.742608 0.583055
Si Si5 0.292274 0.102410 0.540125
Si Si6 0.610519 0.647870 0.146384
Si Si7 0.933551 0.272577 0.291945
O O1 0.763863 0.638057 0.108843
O O2 0.669729 0.286195 0.903410
O O3 0.000000 0.500000 0.000000
O O4 0.072122 0.157978 0.003149
O O5 0.609738 0.092578 0.441444
O O6 0.636290 0.881699 0.269855
O O7 0.620652 0.365004 0.424819
O O8 0.214845 0.253087 0.334974
O O9 0.701806 0.359358 0.109117
O O10 0.841338 0.112932 0.169761
O O11 0.500000 0.000000 0.000000
O O12 0.098470 0.873749 0.692916
O O13 0.000000 0.500000 0.500000
O O14 0.941342 0.937731 0.555760
O O15 0.234191 0.415763 0.646063
O O16 0.500000 0.000000 0.500000
#
# Coordination Sequence:
#
# PCOD8028432 Si02
#       7
#     2   2   2   2   2   2   2
#     4  11  24  44  71  98 144 186 237 292 353 408
#     4  12  24  45  75  98 147 187 239 294 357 424
#     4  12  24  45  72 104 148 188 234 295 350 422
#     4  10  25  46  70 105 139 182 235 295 362 419
#     4  11  23  47  73 104 141 184 237 296 357 430
#     4  11  25  43  68 104 136 191 239 288 350 425
#     4  11  25  46  70 105 146 185 241 293 354 423
#
# _framework density 23.161082
#
# number of rings (size 3 to 8) (size 9 to 14) (size 15 to 20)
#    0.000    0.857    5.714    0.857    2.000    2.286 
#   10.286    0.000    0.000    0.000    0.000    0.000 
#    0.000    0.000    0.000    0.000    0.000    0.000 
#
# Total GULP energy -173470.135407 kJ/mol
# GULP energy per Si atom -12390.723958 kJ/mol
# Density = 2.310837 g / cm^3
# Si number density = 23.161082 Si / 1000 Ang^3
#
#
#
# Elastic Constant Matrix: (Units=GPa)
#
#
# Indices 1 2 3 4 5 6 
#
# 1 192.1805 47.4027 50.8625 -17.9587 -8.9504 -10.7846
# 2 47.4027 100.5303 28.0622 -5.8778 5.5389 -15.9112
# 3 50.8625 28.0622 79.2592 -28.8307 0.8439 3.1679
# 4 -17.9587 -5.8778 -28.8307 38.7381 -6.3183 -0.2513
# 5 -8.9504 5.5389 0.8439 -6.3183 28.6864 -4.9443
# 6 -10.7846 -15.9112 3.1679 -0.2513 -4.9443 40.4038
#
#
#
# Elastic Compliance Matrix: (Units=1/GPa)
#
#
# Indices 1 2 3 4 5 6 
#
# 1 0.006990 -0.002175 -0.003518 0.000821 0.003174 0.001678
# 2 -0.002175 0.012876 -0.004287 -0.002683 -0.002861 0.004459
# 3 -0.003518 -0.004287 0.021647 0.014046 0.001488 -0.004055
# 4 0.000821 -0.002683 0.014046 0.037630 0.008535 -0.000660
# 5 0.003174 -0.002861 0.001488 0.008535 0.039002 0.004430
# 6 0.001678 0.004459 -0.004055 -0.000660 0.004430 0.027810
#
#
# Mechanical properties :
#
#
# Convention : Reuss Voigt Hill
#
# Bulk Modulus (GPa) = 46.39396 69.40277 57.89836
# Shear Modulus (GPa) = 28.88525 37.94182 33.41353
#
# Velocity S-wave (km/s) = 3.53533 4.05182 3.80236
# Velocity P-wave (km/s) = 6.06129 7.20555 6.65805
#
# Compressibility (1/GPa) = 0.02155453
#
# Stress axis : x y z
#
# Youngs Moduli (GPa) = 143.06821 77.66357 46.19498
#
# Poissons Ratio (x) = 0.16893 0.16249
# Poissons Ratio (y) = 0.31120 0.19802
# Poissons Ratio (z) = 0.50325 0.33291
#
# Static dielectric constant tensor:
#      x y z
#    x 4.497780 -0.172570 -0.340080 
#    y -0.172570 4.367030 -0.391960 
#    z -0.340080 -0.391960 4.653670 
# 
# 
# High freq. dielectric constant tensor:
#      x y z
#    x 1.933690 -0.010660 -0.012620 
#    y -0.010660 1.916520 -0.008780 
#    z -0.012620 -0.008780 1.920970 
# 
# From -- ./inp_files/582081.got.cif
#   From: 2010.06.25/outbox.cif.g09.slc.cpg/sg2_292_cif.got.tgz:582081.got - 2010.06.27 13:26:56.
