data_PCOD8028342
_publ_section_title
;
Structure prediction by ZEFSAII (Michael W. Deem and Ramdas Pophale) SiO2 
 PCOD8028342
Probable space group: P -1
;
_chemical_formula_sum "Si O2"
_cell_formula_units_Z 16
_cell_length_a 12.666322
_cell_length_b 11.761054
_cell_length_c 16.229542
_cell_angle_alpha 25.550762
_cell_angle_beta 126.354660
_cell_angle_gamma 110.394298
_cell_volume 708.766025
_symmetry_space_group_name_H-M "P -1"
_symmetry_group_IT_number 2
_symmetry_cell_setting 'triclinic'
loop_
_space_group_symop_operation_xyz
x,y,z
-x,-y,-z
loop_
_atom_site_type_symbol
_atom_site_label
_atom_site_fract_x
_atom_site_fract_y
_atom_site_fract_z
Si Si1 0.167148 0.092010 0.142657
Si Si2 0.151852 0.803444 0.071456
Si Si3 0.375235 0.850420 0.242173
Si Si4 0.669232 0.205289 0.277577
Si Si5 0.679306 0.834793 0.676662
Si Si6 0.055841 0.759551 0.608892
Si Si7 0.343973 0.113397 0.673986
Si Si8 0.790322 0.172199 0.104662
O O1 0.238814 0.067981 0.281243
O O2 0.312578 0.880543 0.287131
O O3 0.056557 0.452717 0.831123
O O4 0.037276 0.996781 0.144052
O O5 0.220512 0.000727 0.014542
O O6 0.233754 0.487978 0.371352
O O7 0.213496 0.727840 0.056247
O O8 0.500000 0.500000 0.500000
O O9 0.472333 0.018879 0.167499
O O10 0.767228 0.352618 0.253415
O O11 0.701298 0.939266 0.530246
O O12 0.720294 0.024709 0.332664
O O13 0.500000 0.500000 0.000000
O O14 0.500000 0.000000 0.500000
O O15 0.746791 0.467513 0.949166
O O16 0.000000 0.000000 0.500000
O O17 0.961868 0.901486 0.388394
O O18 0.321840 0.964878 0.844819
#
# Coordination Sequence:
#
# PCOD8028342 Si02
#       8
#     2   2   2   2   2   2   2   2
#     4  12  23  44  72 100 143 181 229 289 347 413
#     4  11  24  44  70  98 132 185 235 283 341 409
#     4  10  25  45  72  95 132 188 240 292 344 393
#     4  12  23  40  63 100 146 181 218 278 346 418
#     4  12  25  38  66 109 141 178 228 275 349 434
#     4  12  22  39  66 104 138 180 216 272 352 415
#     4  11  21  43  67  96 138 181 225 286 340 399
#     4  12  24  41  71 106 142 181 229 278 355 425
#
# _framework density 22.574445999999998
#
# number of rings (size 3 to 8) (size 9 to 14) (size 15 to 20)
#    0.000    0.500    5.000    4.125    1.750    1.500 
#    0.000    0.625    5.500    0.000    0.000    0.000 
#    0.000    0.000    0.000    0.000    0.000    0.000 
#
# Total GULP energy -198295.054791 kJ/mol
# GULP energy per Si atom -12393.440924 kJ/mol
# Density = 2.252307 g / cm^3
# Si number density = 22.574446 Si / 1000 Ang^3
#
#
#
# Elastic Constant Matrix: (Units=GPa)
#
#
# Indices 1 2 3 4 5 6 
#
# 1 149.3525 35.3815 26.0767 14.0981 14.1395 20.5426
# 2 35.3815 76.9892 17.1337 15.4717 3.8160 9.0573
# 3 26.0767 17.1337 85.3099 9.1868 0.8717 3.4421
# 4 14.0981 15.4717 9.1868 28.3954 4.4858 20.0208
# 5 14.1395 3.8160 0.8717 4.4858 37.0831 11.1545
# 6 20.5426 9.0573 3.4421 20.0208 11.1545 44.8511
#
#
#
# Elastic Compliance Matrix: (Units=1/GPa)
#
#
# Indices 1 2 3 4 5 6 
#
# 1 0.008264 -0.003048 -0.001824 0.000363 -0.002030 -0.002686
# 2 -0.003048 0.016137 -0.001511 -0.008113 -0.000049 0.001887
# 3 -0.001824 -0.001511 0.012910 -0.003714 0.000490 0.001686
# 4 0.000363 -0.008113 -0.003714 0.057553 0.001104 -0.024208
# 5 -0.002030 -0.000049 0.000490 0.001104 0.029699 -0.006977
# 6 -0.002686 0.001887 0.001686 -0.024208 -0.006977 0.035557
#
#
# Mechanical properties :
#
#
# Convention : Reuss Voigt Hill
#
# Bulk Modulus (GPa) = 40.74277 52.09284 46.41780
# Shear Modulus (GPa) = 27.61421 37.60324 32.60872
#
# Velocity S-wave (km/s) = 3.50129 4.08578 3.80478
# Velocity P-wave (km/s) = 5.86794 6.73678 6.31732
#
# Compressibility (1/GPa) = 0.02454423
#
# Stress axis : x y z
#
# Youngs Moduli (GPa) = 121.01408 61.97059 77.46034
#
# Poissons Ratio (x) = 0.18889 0.14126
# Poissons Ratio (y) = 0.36885 0.11706
# Poissons Ratio (z) = 0.22069 0.09365
#
# Static dielectric constant tensor:
#      x y z
#    x 4.592430 0.394030 0.033270 
#    y 0.394030 4.671100 0.195830 
#    z 0.033270 0.195830 4.008680 
# 
# 
# High freq. dielectric constant tensor:
#      x y z
#    x 1.908050 0.015740 0.012640 
#    y 0.015740 1.885930 0.011560 
#    z 0.012640 0.011560 1.874500 
# 
# From -- ./inp_files/272855.got.cif
#   From: 2010.06.25/outbox.cif.g09.slc.cpg/sg2_137_cif.got.tgz:272855.got - 2010.06.27 13:26:56.
