data_PCOD8028277
_publ_section_title
;
Structure prediction by ZEFSAII (Michael W. Deem and Ramdas Pophale) SiO2 
 PCOD8028277
Probable space group: P -1
;
_chemical_formula_sum "Si O2"
_cell_formula_units_Z 16
_cell_length_a 9.777170
_cell_length_b 9.510407
_cell_length_c 14.790605
_cell_angle_alpha 86.741657
_cell_angle_beta 115.263838
_cell_angle_gamma 44.906370
_cell_volume 725.954216
_symmetry_space_group_name_H-M "P -1"
_symmetry_group_IT_number 2
_symmetry_cell_setting 'triclinic'
loop_
_space_group_symop_operation_xyz
x,y,z
-x,-y,-z
loop_
_atom_site_type_symbol
_atom_site_label
_atom_site_fract_x
_atom_site_fract_y
_atom_site_fract_z
Si Si1 0.414580 0.673902 0.397870
Si Si2 0.319010 0.855080 0.100800
Si Si3 0.345502 0.935028 0.673773
Si Si4 0.133598 0.673316 0.585882
Si Si5 0.381966 0.236613 0.428788
Si Si6 0.807342 0.654377 0.304721
Si Si7 0.954484 0.042567 0.137311
Si Si8 0.359143 0.653447 0.803013
O O1 0.500000 0.500000 0.500000
O O2 0.574546 0.525658 0.357149
O O3 0.477514 0.776196 0.455289
O O4 0.122000 0.862971 0.277460
O O5 0.577344 0.754767 0.177398
O O6 0.132961 0.017879 0.130251
O O7 0.388405 0.635505 0.124350
O O8 0.151963 0.003241 0.955914
O O9 0.545737 0.779631 0.653044
O O10 0.421518 0.763130 0.777508
O O11 0.327135 0.105071 0.703439
O O12 0.065240 0.107479 0.547802
O O13 0.091814 0.535549 0.585755
O O14 0.120158 0.762921 0.675156
O O15 0.069724 0.490054 0.329933
O O16 0.500000 0.000000 0.500000
O O17 0.712999 0.294147 0.112830
#
# Coordination Sequence:
#
# PCOD8028277 Si02
#       8
#     2   2   2   2   2   2   2   2
#     4  12  23  39  68 100 129 163 209 268 325 376
#     4  10  25  45  68  92 124 172 223 263 299 389
#     4  12  23  38  61  95 135 168 206 266 326 379
#     4  11  20  39  59  92 135 164 207 260 318 383
#     4  12  25  38  64  95 132 177 207 256 331 386
#     4  11  23  41  60  90 132 171 211 260 309 390
#     4  11  23  43  71  93 125 170 218 262 321 368
#     4  11  23  39  64  94 127 162 218 269 314 372
#
# _framework density 22.039957999999999
#
# number of rings (size 3 to 8) (size 9 to 14) (size 15 to 20)
#    0.000    0.750    5.000    4.125    1.750    0.000 
#    0.000    0.625    0.000    3.750    0.000    0.000 
#    0.000    0.000    0.000    0.000    0.000    0.000 
#
# Total GULP energy -198231.869841 kJ/mol
# GULP energy per Si atom -12389.491865 kJ/mol
# Density = 2.198979 g / cm^3
# Si number density = 22.039958 Si / 1000 Ang^3
#
#
#
# Elastic Constant Matrix: (Units=GPa)
#
#
# Indices 1 2 3 4 5 6 
#
# 1 81.1534 45.5721 37.2953 3.4804 -1.2220 -10.4129
# 2 45.5721 77.9218 35.8889 18.6843 -14.2215 -22.2280
# 3 37.2953 35.8889 109.8127 12.2353 17.7323 -0.7456
# 4 3.4804 18.6843 12.2353 27.8919 -3.4329 -3.7396
# 5 -1.2220 -14.2215 17.7323 -3.4329 35.8591 -2.4984
# 6 -10.4129 -22.2280 -0.7456 -3.7396 -2.4984 36.9094
#
#
#
# Elastic Compliance Matrix: (Units=1/GPa)
#
#
# Indices 1 2 3 4 5 6 
#
# 1 0.020649 -0.013324 -0.003064 0.007157 -0.002499 -0.001704
# 2 -0.013324 0.036360 -0.008556 -0.014341 0.018060 0.017735
# 3 -0.003064 -0.008556 0.015109 -0.002867 -0.011717 -0.006796
# 4 0.007157 -0.014341 -0.002867 0.045574 0.000195 -0.002045
# 5 -0.002499 0.018060 -0.011717 0.000195 0.041667 0.012775
# 6 -0.001704 0.017735 -0.006796 -0.002045 0.012775 0.037814
#
#
# Mechanical properties :
#
#
# Convention : Reuss Voigt Hill
#
# Bulk Modulus (GPa) = 44.98338 56.26671 50.62505
# Shear Modulus (GPa) = 19.64864 30.14087 24.89475
#
# Velocity S-wave (km/s) = 2.98904 3.70206 3.36449
# Velocity P-wave (km/s) = 5.68918 6.62257 6.17354
#
# Compressibility (1/GPa) = 0.02223043
#
# Stress axis : x y z
#
# Youngs Moduli (GPa) = 48.42816 27.50247 66.18689
#
# Poissons Ratio (x) = 0.36643 0.20280
# Poissons Ratio (y) = 0.64523 0.56631
# Poissons Ratio (z) = 0.14839 0.23532
#
# Static dielectric constant tensor:
#      x y z
#    x 3.572890 -0.136120 0.154770 
#    y -0.136120 4.113120 0.003720 
#    z 0.154770 0.003720 3.863210 
# 
# 
# High freq. dielectric constant tensor:
#      x y z
#    x 1.851630 -0.019320 0.008410 
#    y -0.019320 1.877990 0.006670 
#    z 0.008410 0.006670 1.862260 
# 
# From -- ./inp_files/451818.got.cif
#   From: 2010.06.25/outbox.cif.g09.slc.cpg/sg2_226_cif.got.tgz:451818.got - 2010.06.27 13:26:56.
