data_PCOD8028844
_publ_section_title
;
Structure prediction by ZEFSAII (Michael W. Deem and Ramdas Pophale) SiO2 
 PCOD8028844
Probable space group: P -1
;
_chemical_formula_sum "Si O2"
_cell_formula_units_Z 16
_cell_length_a 20.200958
_cell_length_b 8.351905
_cell_length_c 20.827768
_cell_angle_alpha 38.160243
_cell_angle_beta 19.756033
_cell_angle_gamma 37.899467
_cell_volume 713.330647
_symmetry_space_group_name_H-M "P -1"
_symmetry_group_IT_number 2
_symmetry_cell_setting 'triclinic'
loop_
_space_group_symop_operation_xyz
x,y,z
-x,-y,-z
loop_
_atom_site_type_symbol
_atom_site_label
_atom_site_fract_x
_atom_site_fract_y
_atom_site_fract_z
Si Si1 0.645670 0.413411 0.773680
Si Si2 0.149463 0.985610 0.193688
Si Si3 0.796944 0.436789 0.827938
Si Si4 0.618752 0.735631 0.181371
Si Si5 0.617585 0.711783 0.466573
Si Si6 0.761421 0.833219 0.629752
Si Si7 0.444730 0.221213 0.632335
Si Si8 0.215541 0.302580 0.549424
O O1 0.735209 0.112938 0.813303
O O2 0.748686 0.609989 0.659456
O O3 0.712882 0.453401 0.627095
O O4 0.404196 0.479669 0.972641
O O5 0.247216 0.769366 0.118912
O O6 0.912107 0.008877 0.410535
O O7 0.188409 0.263564 0.041421
O O8 0.838739 0.692906 0.670964
O O9 0.984835 0.306311 0.742698
O O10 0.552019 0.460208 0.326030
O O11 0.657649 0.823457 0.192081
O O12 0.448748 0.964170 0.231625
O O13 0.705780 0.735140 0.306341
O O14 0.783681 0.626492 0.397530
O O15 0.500000 0.000000 0.500000
O O16 0.500000 0.500000 0.500000
O O17 0.639929 0.979405 0.516107
#
# Coordination Sequence:
#
# PCOD8028844 Si02
#       8
#     2   2   2   2   2   2   2   2
#     4  11  18  31  55  89 125 156 182 228 283 351
#     4  11  18  30  55  92 125 147 190 235 278 347
#     4  11  18  30  55  89 127 154 187 225 281 356
#     4  11  19  36  62  89 115 151 187 245 296 323
#     4   9  22  40  63  81 111 157 198 243 294 338
#     4  11  18  31  55  92 123 149 187 234 280 345
#     4   9  18  36  63  84 105 146 201 255 285 318
#     4  11  19  36  58  86 118 163 183 226 303 342
#
# _framework density 22.429991999999999
#
# number of rings (size 3 to 8) (size 9 to 14) (size 15 to 20)
#    0.000    1.500    6.250    1.500    0.000    0.000 
#    0.000    2.500    0.000   60.000    0.000    0.000 
#    0.000    0.000    0.000    0.000    0.000    0.000 
#
# Total GULP energy -198217.775262 kJ/mol
# GULP energy per Si atom -12388.610954 kJ/mol
# Density = 2.237894 g / cm^3
# Si number density = 22.429992 Si / 1000 Ang^3
#
#
#
# Elastic Constant Matrix: (Units=GPa)
#
#
# Indices 1 2 3 4 5 6 
#
# 1 154.5003 40.0959 37.1310 -1.3207 7.6064 -28.0139
# 2 40.0959 36.4290 18.9253 -22.0631 8.1342 -6.4026
# 3 37.1310 18.9253 107.2738 -6.5124 -6.1002 -18.9510
# 4 -1.3207 -22.0631 -6.5124 22.4734 -4.3560 1.9065
# 5 7.6064 8.1342 -6.1002 -4.3560 17.7591 -4.9613
# 6 -28.0139 -6.4026 -18.9510 1.9065 -4.9613 26.0268
#
#
#
# Elastic Compliance Matrix: (Units=1/GPa)
#
#
# Indices 1 2 3 4 5 6 
#
# 1 0.025551 -0.066612 0.003308 -0.062515 0.011013 0.020202
# 2 -0.066612 0.257747 -0.019789 0.237551 -0.052029 -0.050020
# 3 0.003308 -0.019789 0.013637 -0.013921 0.012263 0.011979
# 4 -0.062515 0.237551 -0.013921 0.267265 -0.033831 -0.045014
# 5 0.011013 -0.052029 0.012263 -0.033831 0.078437 0.025414
# 6 0.020202 -0.050020 0.011979 -0.045014 0.025414 0.064726
#
#
# Mechanical properties :
#
#
# Convention : Reuss Voigt Hill
#
# Bulk Modulus (GPa) = 7.64830 54.50083 31.07457
# Shear Modulus (GPa) = 5.45177 26.72192 16.08685
#
# Velocity S-wave (km/s) = 1.56072 3.45534 2.68097
# Velocity P-wave (km/s) = 2.58168 6.34587 4.84433
#
# Compressibility (1/GPa) = 0.13074798
#
# Stress axis : x y z
#
# Youngs Moduli (GPa) = 39.13699 3.87977 73.33163
#
# Poissons Ratio (x) = 0.25844 -0.24255
# Poissons Ratio (y) = 2.60700 1.45117
# Poissons Ratio (z) = -0.12945 0.07678
#
# Static dielectric constant tensor:
#      x y z
#    x 8.607480 -0.772030 1.387620 
#    y -0.772030 3.959180 -0.460860 
#    z 1.387620 -0.460860 4.310550 
# 
# 
# High freq. dielectric constant tensor:
#      x y z
#    x 1.881470 -0.024590 0.015610 
#    y -0.024590 1.861460 -0.016600 
#    z 0.015610 -0.016600 1.868700 
# 
# From -- ./inp_files/455358.got.cif
#   From: 2010.06.25/outbox.cif.g09.slc.cpg/sg2_228_cif.got.tgz:455358.got - 2010.06.27 13:26:56.
