data_PCOD8028738
_publ_section_title
;
Structure prediction by ZEFSAII (Michael W. Deem and Ramdas Pophale) SiO2 
 PCOD8028738
Probable space group: P -1
;
_chemical_formula_sum "Si O2"
_cell_formula_units_Z 16
_cell_length_a 18.473291
_cell_length_b 11.804083
_cell_length_c 9.561324
_cell_angle_alpha 48.831774
_cell_angle_beta 132.065279
_cell_angle_gamma 153.531659
_cell_volume 678.995006
_symmetry_space_group_name_H-M "P -1"
_symmetry_group_IT_number 2
_symmetry_cell_setting 'triclinic'
loop_
_space_group_symop_operation_xyz
x,y,z
-x,-y,-z
loop_
_atom_site_type_symbol
_atom_site_label
_atom_site_fract_x
_atom_site_fract_y
_atom_site_fract_z
Si Si1 0.828702 0.626944 0.134922
Si Si2 0.187193 0.672750 0.805247
Si Si3 0.251243 0.393691 0.455465
Si Si4 0.313154 0.321428 0.889714
Si Si5 0.175057 0.631731 0.132339
Si Si6 0.802143 0.131665 0.795571
Si Si7 0.628302 0.864399 0.506329
Si Si8 0.152663 0.119514 0.282723
O O1 0.749900 0.369681 0.194044
O O2 0.698198 0.556553 0.114833
O O3 0.872672 0.762407 0.935889
O O4 0.997822 0.814518 0.292844
O O5 0.985444 0.417073 0.754212
O O6 0.264665 0.926239 0.649405
O O7 0.260318 0.736057 0.004538
O O8 0.267828 0.322760 0.676949
O O9 0.161628 0.442636 0.322702
O O10 0.431702 0.644400 0.412045
O O11 0.142744 0.154631 0.403930
O O12 0.500000 0.500000 0.000000
O O13 0.187572 0.027680 0.005552
O O14 0.275627 0.855739 0.195820
O O15 0.000000 0.500000 0.000000
O O16 0.677086 0.988128 0.620897
O O17 0.674386 0.745601 0.646851
#
# Coordination Sequence:
#
# PCOD8028738 Si02
#       8
#     2   2   2   2   2   2   2   2
#     4  11  22  43  75  95 138 192 239 296 344 416
#     4  11  24  46  71 102 135 187 242 291 350 418
#     4  12  27  46  69 108 146 189 239 287 365 427
#     4  12  26  46  71 105 146 188 233 297 360 419
#     4  10  26  46  70 102 147 185 234 295 353 423
#     4  11  23  47  70  99 146 186 234 294 354 421
#     4  12  25  43  73 104 142 187 235 295 355 420
#     4  11  23  45  71 103 140 180 249 292 348 423
#
# _framework density 23.564239000000001
#
# number of rings (size 3 to 8) (size 9 to 14) (size 15 to 20)
#    0.000    0.750    5.000    1.500    5.250    3.500 
#    0.000    0.000    0.000    0.000    0.000    0.000 
#    0.000    0.000    0.000    0.000    0.000    0.000 
#
# Total GULP energy -198398.879447 kJ/mol
# GULP energy per Si atom -12399.929965 kJ/mol
# Density = 2.351061 g / cm^3
# Si number density = 23.564239 Si / 1000 Ang^3
#
#
#
# Elastic Constant Matrix: (Units=GPa)
#
#
# Indices 1 2 3 4 5 6 
#
# 1 146.2501 21.0426 31.1332 16.0600 -6.0173 -23.9288
# 2 21.0426 51.8396 26.0313 -11.2978 -0.1123 2.4316
# 3 31.1332 26.0313 132.2384 3.9031 -16.6568 -6.8979
# 4 16.0600 -11.2978 3.9031 31.2343 -1.1470 -7.0158
# 5 -6.0173 -0.1123 -16.6568 -1.1470 45.3865 13.9958
# 6 -23.9288 2.4316 -6.8979 -7.0158 13.9958 44.3462
#
#
#
# Elastic Compliance Matrix: (Units=1/GPa)
#
#
# Indices 1 2 3 4 5 6 
#
# 1 0.008922 -0.004486 -0.000920 -0.005153 -0.000621 0.004298
# 2 -0.004486 0.026157 -0.004719 0.011788 -0.001245 -0.002331
# 3 -0.000920 -0.004719 0.009173 -0.002306 0.003235 -0.000196
# 4 -0.005153 0.011788 -0.002306 0.039831 -0.001406 0.002960
# 5 -0.000621 -0.001245 0.003235 -0.001406 0.025585 -0.008061
# 6 0.004298 -0.002331 -0.000196 0.002960 -0.008061 0.027979
#
#
# Mechanical properties :
#
#
# Convention : Reuss Voigt Hill
#
# Bulk Modulus (GPa) = 41.66222 54.08247 47.87235
# Shear Modulus (GPa) = 30.13929 41.00149 35.57039
#
# Velocity S-wave (km/s) = 3.58023 4.17584 3.88945
# Velocity P-wave (km/s) = 5.89995 6.80082 6.36634
#
# Compressibility (1/GPa) = 0.02400256
#
# Stress axis : x y z
#
# Youngs Moduli (GPa) = 112.07869 38.23118 109.01708
#
# Poissons Ratio (x) = 0.17150 0.10024
# Poissons Ratio (y) = 0.50278 0.51447
# Poissons Ratio (z) = 0.10306 0.18042
#
# Static dielectric constant tensor:
#      x y z
#    x 4.628810 -0.387160 -0.174350 
#    y -0.387160 4.151890 0.141290 
#    z -0.174350 0.141290 4.313660 
# 
# 
# High freq. dielectric constant tensor:
#      x y z
#    x 1.948000 -0.015860 -0.006080 
#    y -0.015860 1.907530 0.009450 
#    z -0.006080 0.009450 1.938590 
# 
# From -- ./inp_files/332951.got.cif
#   From: 2010.06.25/outbox.cif.g09.slc.cpg/sg2_167_cif.got.tgz:332951.got - 2010.06.27 13:26:56.
