data_PCOD8028667
_publ_section_title
;
Structure prediction by ZEFSAII (Michael W. Deem and Ramdas Pophale) SiO2 
 PCOD8028667
Probable space group: P -1
;
_chemical_formula_sum "Si O2"
_cell_formula_units_Z 14
_cell_length_a 9.109459
_cell_length_b 11.100341
_cell_length_c 16.052007
_cell_angle_alpha 133.676026
_cell_angle_beta 33.052787
_cell_angle_gamma 119.792970
_cell_volume 626.316078
_symmetry_space_group_name_H-M "P -1"
_symmetry_group_IT_number 2
_symmetry_cell_setting 'triclinic'
loop_
_space_group_symop_operation_xyz
x,y,z
-x,-y,-z
loop_
_atom_site_type_symbol
_atom_site_label
_atom_site_fract_x
_atom_site_fract_y
_atom_site_fract_z
Si Si1 0.616375 0.025804 0.045965
Si Si2 0.990974 0.277735 0.223298
Si Si3 0.635586 0.664745 0.420667
Si Si4 0.847464 0.437697 0.623277
Si Si5 0.939268 0.282846 0.069020
Si Si6 0.277908 0.358295 0.809232
Si Si7 0.153431 0.124322 0.435446
O O1 0.397587 0.003382 0.210503
O O2 0.693574 0.209856 0.108439
O O3 0.500000 0.000000 0.000000
O O4 0.896991 0.884851 0.850534
O O5 0.673674 0.355408 0.428347
O O6 0.155967 0.426015 0.235990
O O7 0.041740 0.201075 0.069561
O O8 0.662086 0.748552 0.356728
O O9 0.725175 0.769020 0.502497
O O10 0.827958 0.479532 0.237310
O O11 0.534396 0.443300 0.749146
O O12 0.000000 0.500000 0.500000
O O13 0.978585 0.250481 0.509447
O O14 0.210235 0.241816 0.861433
O O15 0.000000 0.500000 0.000000
O O16 0.000000 0.000000 0.500000
#
# Coordination Sequence:
#
# PCOD8028667 Si02
#       7
#     2   2   2   2   2   2   2
#     4  12  29  44  68 111 153 194 244 313 374 433
#     4  12  24  43  77 100 146 195 253 296 370 451
#     4  11  23  48  73 107 140 201 246 300 372 450
#     4  12  25  48  79 111 143 201 253 299 371 452
#     4  11  24  47  72 105 146 189 246 304 375 437
#     4  10  26  42  75 109 145 185 250 312 362 435
#     4  12  29  48  76 109 155 193 251 313 371 441
#
# _framework density 22.352930000000001
#
# number of rings (size 3 to 8) (size 9 to 14) (size 15 to 20)
#    0.000    0.571    4.286    2.571   10.000    1.714 
#    0.000    1.429    0.000    0.000    0.000    0.000 
#    0.000    0.000    0.000    0.000    0.000    0.000 
#
# Total GULP energy -173535.517461 kJ/mol
# GULP energy per Si atom -12395.394104 kJ/mol
# Density = 2.230205 g / cm^3
# Si number density = 22.352930 Si / 1000 Ang^3
#
#
#
# Elastic Constant Matrix: (Units=GPa)
#
#
# Indices 1 2 3 4 5 6 
#
# 1 177.6824 60.0078 52.0332 -15.8019 18.3402 10.5469
# 2 60.0078 108.2462 43.8098 -20.6448 6.4218 -1.1625
# 3 52.0332 43.8098 70.1983 -21.5228 3.6599 5.1992
# 4 -15.8019 -20.6448 -21.5228 47.5214 -4.3143 3.6527
# 5 18.3402 6.4218 3.6599 -4.3143 46.2828 -2.1941
# 6 10.5469 -1.1625 5.1992 3.6527 -2.1941 44.1217
#
#
#
# Elastic Compliance Matrix: (Units=1/GPa)
#
#
# Indices 1 2 3 4 5 6 
#
# 1 0.008107 -0.002758 -0.004190 -0.000515 -0.002622 -0.001605
# 2 -0.002758 0.013581 -0.005866 0.002205 -0.000050 0.001523
# 3 -0.004190 -0.005866 0.023236 0.006873 0.001164 -0.002402
# 4 -0.000515 0.002205 0.006873 0.025290 0.001587 -0.002643
# 5 -0.002622 -0.000050 0.001164 0.001587 0.022779 0.001490
# 6 -0.001605 0.001523 -0.002402 -0.002643 0.001490 0.023664
#
#
# Mechanical properties :
#
#
# Convention : Reuss Voigt Hill
#
# Bulk Modulus (GPa) = 51.82289 74.20316 63.01302
# Shear Modulus (GPa) = 33.62119 40.93692 37.27905
#
# Velocity S-wave (km/s) = 3.88249 4.28412 4.08824
# Velocity P-wave (km/s) = 6.58275 7.59867 7.10888
#
# Compressibility (1/GPa) = 0.01929649
#
# Stress axis : x y z
#
# Youngs Moduli (GPa) = 123.35590 73.63266 43.03653
#
# Poissons Ratio (x) = 0.20309 0.18032
# Poissons Ratio (y) = 0.34023 0.25243
# Poissons Ratio (z) = 0.51685 0.43189
#
# Static dielectric constant tensor:
#      x y z
#    x 5.939360 -1.201450 1.184790 
#    y -1.201450 4.906250 -0.997690 
#    z 1.184790 -0.997690 4.794900 
# 
# 
# High freq. dielectric constant tensor:
#      x y z
#    x 1.911380 -0.000920 0.009790 
#    y -0.000920 1.867680 -0.009880 
#    z 0.009790 -0.009880 1.880130 
# 
# From -- ./inp_files/155698.got.cif
#   From: 2010.06.25/outbox.cif.g09.slc.cpg/sg2_78_cif.got.tgz:155698.got - 2010.06.27 13:26:56.
