data_PCOD8028701
_publ_section_title
;
Structure prediction by ZEFSAII (Michael W. Deem and Ramdas Pophale) SiO2 
 PCOD8028701
Probable space group: P -1
;
_chemical_formula_sum "Si O2"
_cell_formula_units_Z 16
_cell_length_a 9.279724
_cell_length_b 23.532781
_cell_length_c 9.256017
_cell_angle_alpha 51.216551
_cell_angle_beta 119.808273
_cell_angle_gamma 151.830696
_cell_volume 735.447554
_symmetry_space_group_name_H-M "P -1"
_symmetry_group_IT_number 2
_symmetry_cell_setting 'triclinic'
loop_
_space_group_symop_operation_xyz
x,y,z
-x,-y,-z
loop_
_atom_site_type_symbol
_atom_site_label
_atom_site_fract_x
_atom_site_fract_y
_atom_site_fract_z
Si Si1 0.782440 0.405443 0.205418
Si Si2 0.077978 0.140424 0.763873
Si Si3 0.985341 0.641745 0.019433
Si Si4 0.391348 0.115596 0.884982
Si Si5 0.532274 0.359025 0.876251
Si Si6 0.991399 0.729709 0.587247
Si Si7 0.737641 0.251301 0.568996
Si Si8 0.322872 0.432205 0.736007
O O1 0.624776 0.293712 0.421538
O O2 0.109938 0.484927 0.215682
O O3 0.558493 0.315660 0.097716
O O4 0.843019 0.511296 0.109883
O O5 0.159460 0.098698 0.778411
O O6 0.383388 0.265534 0.813649
O O7 0.984584 0.173180 0.561053
O O8 0.784417 0.016567 0.917662
O O9 0.044885 0.717272 0.793352
O O10 0.310243 0.750821 0.086129
O O11 0.730616 0.581712 0.095913
O O12 0.493354 0.126164 0.759131
O O13 0.309032 0.342725 0.830582
O O14 0.642932 0.583881 0.598738
O O15 0.237054 0.786587 0.505194
O O16 0.066528 0.380776 0.603993
#
# Coordination Sequence:
#
# PCOD8028701 Si02
#       8
#     2   2   2   2   2   2   2   2
#     4  11  21  36  63  93 126 152 192 251 316 358
#     4  11  24  43  66  82 122 167 211 245 297 356
#     4  11  24  39  62  94 130 155 195 254 306 360
#     4  10  26  45  60  87 121 165 211 250 292 356
#     4  11  20  39  62  92 123 159 191 255 308 357
#     4  12  22  38  65  91 124 160 197 252 305 364
#     4  11  23  38  62  93 123 159 205 246 303 365
#     4  11  22  37  59  99 127 151 199 248 312 365
#
# _framework density 21.755462000000001
#
# number of rings (size 3 to 8) (size 9 to 14) (size 15 to 20)
#    0.000    1.000    5.000    2.250    1.750    2.000 
#    0.000    0.625    0.000    0.000    0.000    0.000 
#    0.000    0.000    0.000    0.000    0.000    0.000 
#
# Total GULP energy -198308.124341 kJ/mol
# GULP energy per Si atom -12394.257771 kJ/mol
# Density = 2.170595 g / cm^3
# Si number density = 21.755462 Si / 1000 Ang^3
#
#
#
# Elastic Constant Matrix: (Units=GPa)
#
#
# Indices 1 2 3 4 5 6 
#
# 1 102.4896 -2.4161 55.9303 -6.6002 -4.6909 1.3201
# 2 -2.4161 17.2304 4.2023 -0.2589 3.1123 4.2251
# 3 55.9303 4.2023 133.3150 -1.1119 7.6172 5.3196
# 4 -6.6002 -0.2589 -1.1119 28.3438 1.1717 -7.5472
# 5 -4.6909 3.1123 7.6172 1.1717 40.4006 -1.4063
# 6 1.3201 4.2251 5.3196 -7.5472 -1.4063 17.9877
#
#
#
# Elastic Compliance Matrix: (Units=1/GPa)
#
#
# Indices 1 2 3 4 5 6 
#
# 1 0.013299 0.002478 -0.005837 0.003248 0.002419 0.001720
# 2 0.002478 0.063668 -0.002161 -0.003029 -0.004683 -0.016135
# 3 -0.005837 -0.002161 0.010267 -0.001671 -0.002503 -0.002997
# 4 0.003248 -0.003029 -0.001671 0.040746 0.000374 0.018092
# 5 0.002419 -0.004683 -0.002503 0.000374 0.025989 0.003851
# 6 0.001720 -0.016135 -0.002997 0.018092 0.003851 0.068036
#
#
# Mechanical properties :
#
#
# Convention : Reuss Voigt Hill
#
# Bulk Modulus (GPa) = 13.12423 40.94088 27.03256
# Shear Modulus (GPa) = 19.34672 30.36766 24.85719
#
# Velocity S-wave (km/s) = 2.98532 3.74018 3.38386
# Velocity P-wave (km/s) = 4.23421 6.12466 5.26498
#
# Compressibility (1/GPa) = 0.07619493
#
# Stress axis : x y z
#
# Youngs Moduli (GPa) = 75.19506 15.70644 97.40221
#
# Poissons Ratio (x) = -0.03893 0.56856
# Poissons Ratio (y) = -0.18636 0.21044
# Poissons Ratio (z) = 0.43893 0.03393
#
# Static dielectric constant tensor:
#      x y z
#    x 4.000220 0.165200 -0.096860 
#    y 0.165200 3.568220 0.114730 
#    z -0.096860 0.114730 4.146070 
# 
# 
# High freq. dielectric constant tensor:
#      x y z
#    x 1.858600 0.011640 0.002040 
#    y 0.011640 1.817280 0.012850 
#    z 0.002040 0.012850 1.869840 
# 
# From -- ./inp_files/226178.got.cif
#   From: 2010.06.25/outbox.cif.g09.slc.cpg/sg2_114_cif.got.tgz:226178.got - 2010.06.27 13:26:56.
