data_PCOD8028096
_publ_section_title
;
Structure prediction by ZEFSAII (Michael W. Deem and Ramdas Pophale) SiO2 
 PCOD8028096
Probable space group: P -1
;
_chemical_formula_sum "Si O2"
_cell_formula_units_Z 12
_cell_length_a 7.658218
_cell_length_b 12.287477
_cell_length_c 4.645270
_cell_angle_alpha 102.227061
_cell_angle_beta 91.030029
_cell_angle_gamma 99.408831
_cell_volume 420.830258
_symmetry_space_group_name_H-M "P -1"
_symmetry_group_IT_number 2
_symmetry_cell_setting 'triclinic'
loop_
_space_group_symop_operation_xyz
x,y,z
-x,-y,-z
loop_
_atom_site_type_symbol
_atom_site_label
_atom_site_fract_x
_atom_site_fract_y
_atom_site_fract_z
Si Si1 0.890956 0.782807 0.598012
Si Si2 0.224936 0.876395 0.992174
Si Si3 0.139536 0.454298 0.779735
Si Si4 0.254332 0.030466 0.576990
Si Si5 0.492479 0.214895 0.389093
Si Si6 0.645922 0.455003 0.665598
O O1 0.694057 0.754807 0.723989
O O2 0.038892 0.799600 0.858901
O O3 0.917700 0.679823 0.335012
O O4 0.901331 0.897605 0.468783
O O5 0.249341 0.999271 0.897057
O O6 0.386704 0.812067 0.886787
O O7 0.226209 0.907424 0.346377
O O8 0.828152 0.482655 0.493366
O O9 0.000000 0.500000 0.000000
O O10 0.323046 0.482955 0.989246
O O11 0.445073 0.105722 0.538932
O O12 0.595920 0.320107 0.633673
O O13 0.500000 0.500000 0.500000
#
# Coordination Sequence:
#
# PCOD8028096 Si02
#       6
#     2   2   2   2   2   2
#     4  10  25  44  70 103 133 187 229 283 351 416
#     4  12  23  47  64 103 138 179 228 290 338 413
#     4  12  27  48  73 106 143 184 238 296 353 424
#     4  10  25  43  69  97 141 178 230 283 345 409
#     4  10  25  43  72 101 136 184 231 282 350 416
#     4  12  25  48  72 103 142 185 235 293 355 420
#
# _framework density 28.515060999999999
#
# number of rings (size 3 to 8) (size 9 to 14) (size 15 to 20)
#    1.000    0.000    1.667    4.000    0.000    8.000 
#    0.000    0.000    0.000    0.000    0.000    0.000 
#    0.000    0.000    0.000    0.000    0.000    0.000 
#
# Total GULP energy -148829.177015 kJ/mol
# GULP energy per Si atom -12402.431418 kJ/mol
# Density = 2.845016 g / cm^3
# Si number density = 28.515061 Si / 1000 Ang^3
#
#
#
# Elastic Constant Matrix: (Units=GPa)
#
#
# Indices 1 2 3 4 5 6 
#
# 1 115.2895 5.5622 6.5935 17.2316 2.1970 -5.6743
# 2 5.5622 89.0930 49.1909 43.7281 -3.8691 4.2301
# 3 6.5935 49.1909 110.2976 25.6148 5.4686 8.0892
# 4 17.2316 43.7281 25.6148 56.4578 5.6672 -3.5498
# 5 2.1970 -3.8691 5.4686 5.6672 32.9193 11.4408
# 6 -5.6743 4.2301 8.0892 -3.5498 11.4408 39.2758
#
#
#
# Elastic Compliance Matrix: (Units=1/GPa)
#
#
# Indices 1 2 3 4 5 6 
#
# 1 0.009222 0.001367 -0.000384 -0.003628 -0.000102 0.000966
# 2 0.001367 0.023828 -0.006832 -0.016937 0.008485 -0.004964
# 3 -0.000384 -0.006832 0.012347 -0.000023 -0.002422 -0.001159
# 4 -0.003628 -0.016937 -0.000023 0.033408 -0.010013 0.007241
# 5 -0.000102 0.008485 -0.002422 -0.010013 0.037798 -0.012345
# 6 0.000966 -0.004964 -0.001159 0.007241 -0.012345 0.030625
#
#
# Mechanical properties :
#
#
# Convention : Reuss Voigt Hill
#
# Bulk Modulus (GPa) = 29.67586 48.59704 39.13645
# Shear Modulus (GPa) = 29.38440 42.61947 36.00194
#
# Velocity S-wave (km/s) = 3.21360 3.87024 3.55710
# Velocity P-wave (km/s) = 4.91928 6.08697 5.53401
#
# Compressibility (1/GPa) = 0.03369742
#
# Stress axis : x y z
#
# Youngs Moduli (GPa) = 108.44151 41.96723 80.99373
#
# Poissons Ratio (x) = -0.05735 0.03110
# Poissons Ratio (y) = -0.14819 0.55335
# Poissons Ratio (z) = 0.04164 0.28672
#
# Static dielectric constant tensor:
#      x y z
#    x 6.314580 0.924890 0.874230 
#    y 0.924890 5.627730 0.814090 
#    z 0.874230 0.814090 5.683470 
# 
# 
# High freq. dielectric constant tensor:
#      x y z
#    x 2.182810 0.003360 0.007700 
#    y 0.003360 2.136120 0.017600 
#    z 0.007700 0.017600 2.152210 
# 
# From -- ./inp_files/40352.got.cif
#   From: 2010.06.25/outbox.cif.g09.slc.cpg/sg2_21_cif.got.tgz:40352.got - 2010.06.27 13:26:56.
