data_PCOD8028631
_publ_section_title
;
Structure prediction by ZEFSAII (Michael W. Deem and Ramdas Pophale) SiO2 
 PCOD8028631
Probable space group: P -1
;
_chemical_formula_sum "Si O2"
_cell_formula_units_Z 12
_cell_length_a 20.136665
_cell_length_b 5.056350
_cell_length_c 11.195866
_cell_angle_alpha 122.786323
_cell_angle_beta 30.090593
_cell_angle_gamma 111.789143
_cell_volume 467.495674
_symmetry_space_group_name_H-M "P -1"
_symmetry_group_IT_number 2
_symmetry_cell_setting 'triclinic'
loop_
_space_group_symop_operation_xyz
x,y,z
-x,-y,-z
loop_
_atom_site_type_symbol
_atom_site_label
_atom_site_fract_x
_atom_site_fract_y
_atom_site_fract_z
Si Si1 0.614572 0.756722 0.835307
Si Si2 0.107406 0.193053 0.711263
Si Si3 0.706688 0.092240 0.455924
Si Si4 0.360843 0.598436 0.606544
Si Si5 0.063109 0.802573 0.467806
Si Si6 0.348634 0.754530 0.924468
O O1 0.595958 0.382415 0.768470
O O2 0.759137 0.715655 0.530806
O O3 0.500000 0.000000 0.000000
O O4 0.624303 0.902236 0.987532
O O5 0.846730 0.036052 0.299741
O O6 0.032000 0.013388 0.688362
O O7 0.000000 0.500000 0.000000
O O8 0.724070 0.198704 0.318564
O O9 0.656626 0.765061 0.450541
O O10 0.310326 0.793081 0.853607
O O11 0.524093 0.551809 0.327029
O O12 0.000000 0.500000 0.500000
O O13 0.225269 0.675697 0.171664
O O14 0.000000 0.000000 0.500000
#
# Coordination Sequence:
#
# PCOD8028631 Si02
#       6
#     2   2   2   2   2   2
#     4  11  23  50  75 115 149 198 248 320 378 455
#     4  11  28  50  77 111 151 202 258 315 379 457
#     4  12  25  49  76 114 153 200 249 314 384 457
#     4  11  26  47  76 117 153 195 248 317 386 458
#     4  11  29  51  75 106 149 204 256 311 371 451
#     4  10  25  49  75 114 152 200 251 312 384 451
#
# _framework density 25.668686999999998
#
# number of rings (size 3 to 8) (size 9 to 14) (size 15 to 20)
#    0.000    1.000    3.333    0.000    7.000   10.000 
#    3.000    0.000    0.000    0.000    0.000    0.000 
#    0.000    0.000    0.000    0.000    0.000    0.000 
#
# Total GULP energy -148803.230310 kJ/mol
# GULP energy per Si atom -12400.269193 kJ/mol
# Density = 2.561026 g / cm^3
# Si number density = 25.668687 Si / 1000 Ang^3
#
#
#
# Elastic Constant Matrix: (Units=GPa)
#
#
# Indices 1 2 3 4 5 6 
#
# 1 245.9436 90.5478 66.0188 37.6019 33.3171 1.4043
# 2 90.5478 145.9532 41.2146 25.4515 8.0428 2.3770
# 3 66.0188 41.2146 137.6089 31.3966 18.0494 7.3619
# 4 37.6019 25.4515 31.3966 26.3233 4.3411 -2.6168
# 5 33.3171 8.0428 18.0494 4.3411 47.1280 11.8417
# 6 1.4043 2.3770 7.3619 -2.6168 11.8417 51.7900
#
#
#
# Elastic Compliance Matrix: (Units=1/GPa)
#
#
# Indices 1 2 3 4 5 6 
#
# 1 0.006546 -0.002773 -0.000688 -0.005202 -0.003562 0.000599
# 2 -0.002773 0.009521 -0.000514 -0.004907 0.001188 -0.000808
# 3 -0.000688 -0.000514 0.010615 -0.010990 -0.002091 -0.001544
# 4 -0.005202 -0.004907 -0.010990 0.063468 0.001684 0.004750
# 5 -0.003562 0.001188 -0.002091 0.001684 0.025541 -0.005415
# 6 0.000599 -0.000808 -0.001544 0.004750 -0.005415 0.021027
#
#
# Mechanical properties :
#
#
# Convention : Reuss Voigt Hill
#
# Bulk Modulus (GPa) = 53.38480 102.78534 78.08507
# Shear Modulus (GPa) = 33.13191 47.16322 40.14757
#
# Velocity S-wave (km/s) = 3.59660 4.29112 3.95912
# Velocity P-wave (km/s) = 6.17172 8.04249 7.16840
#
# Compressibility (1/GPa) = 0.01873192
#
# Stress axis : x y z
#
# Youngs Moduli (GPa) = 152.76245 105.03629 94.20332
#
# Poissons Ratio (x) = 0.29129 0.06480
# Poissons Ratio (y) = 0.42364 0.04842
# Poissons Ratio (z) = 0.10508 0.05398
#
# Static dielectric constant tensor:
#      x y z
#    x 5.363120 0.630520 0.208010 
#    y 0.630520 5.228730 0.143720 
#    z 0.208010 0.143720 4.967470 
# 
# 
# High freq. dielectric constant tensor:
#      x y z
#    x 2.043860 0.018010 0.006930 
#    y 0.018010 2.019430 0.008870 
#    z 0.006930 0.008870 2.038960 
# 
# From -- ./inp_files/468211.got.cif
#   From: 2010.06.25/outbox.cif.g09.slc.cpg/sg2_235_cif.got.tgz:468211.got - 2010.06.27 13:26:56.
