data_PCOD8028945
_publ_section_title
;
Structure prediction by ZEFSAII (Michael W. Deem and Ramdas Pophale) SiO2 
 PCOD8028945
Probable space group: P -1
;
_chemical_formula_sum "Si O2"
_cell_formula_units_Z 16
_cell_length_a 13.168249
_cell_length_b 11.286245
_cell_length_c 14.029837
_cell_angle_alpha 66.895807
_cell_angle_beta 145.768018
_cell_angle_gamma 137.416764
_cell_volume 653.054111
_symmetry_space_group_name_H-M "P -1"
_symmetry_group_IT_number 2
_symmetry_cell_setting 'triclinic'
loop_
_space_group_symop_operation_xyz
x,y,z
-x,-y,-z
loop_
_atom_site_type_symbol
_atom_site_label
_atom_site_fract_x
_atom_site_fract_y
_atom_site_fract_z
Si Si1 0.013436 0.316910 0.071504
Si Si2 0.992752 0.423068 0.667986
Si Si3 0.361535 0.985793 0.582283
Si Si4 0.138160 0.980854 0.687455
Si Si5 0.883195 0.643401 0.477050
Si Si6 0.522750 0.625178 0.904818
Si Si7 0.927495 0.932351 0.740146
Si Si8 0.796869 0.390784 0.023101
O O1 0.153030 0.253394 0.219196
O O2 0.245603 0.523953 0.118413
O O3 0.989205 0.380894 0.132385
O O4 0.695921 0.139716 0.824579
O O5 0.838653 0.468169 0.510798
O O6 0.275434 0.585134 0.763951
O O7 0.757275 0.175605 0.542383
O O8 0.065026 0.461203 0.824217
O O9 0.151156 0.848218 0.553933
O O10 0.342286 0.122872 0.480728
O O11 0.481853 0.149481 0.880061
O O12 0.942409 0.739519 0.596013
O O13 0.122268 0.019495 0.769953
O O14 0.000000 0.000000 0.500000
O O15 0.566652 0.493800 0.227560
O O16 0.500000 0.500000 0.000000
O O17 0.851227 0.871991 0.074932
#
# Coordination Sequence:
#
# PCOD8028945 Si02
#       8
#     2   2   2   2   2   2   2   2
#     4  11  25  46  64  88 131 174 212 251 317 381
#     4  11  22  37  62  92 125 162 208 259 319 371
#     4  11  22  41  64  95 131 161 210 261 313 379
#     4  12  22  39  64  98 127 156 215 269 307 367
#     4  11  21  35  60  95 125 162 200 261 322 366
#     4  11  19  35  59  95 129 153 196 265 321 363
#     4  12  22  40  71  95 125 169 207 260 323 369
#     4  11  25  43  63  90 129 169 209 266 309 368
#
# _framework density 24.500267999999998
#
# number of rings (size 3 to 8) (size 9 to 14) (size 15 to 20)
#    0.000    0.750    6.250    3.750    0.000    1.500 
#    0.000    7.500    0.000    0.000    0.000    0.000 
#    0.000    0.000    0.000    0.000    0.000    0.000 
#
# Total GULP energy -198239.172980 kJ/mol
# GULP energy per Si atom -12389.948311 kJ/mol
# Density = 2.444450 g / cm^3
# Si number density = 24.500268 Si / 1000 Ang^3
#
#
#
# Elastic Constant Matrix: (Units=GPa)
#
#
# Indices 1 2 3 4 5 6 
#
# 1 59.4697 15.2361 23.4778 14.4331 -25.8555 -15.4536
# 2 15.2361 107.8872 19.5388 -27.9375 -2.2465 -27.7918
# 3 23.4778 19.5388 80.0292 -4.9089 -16.8097 -7.4373
# 4 14.4331 -27.9375 -4.9089 44.8481 -15.5296 -1.6751
# 5 -25.8555 -2.2465 -16.8097 -15.5296 31.6357 -1.4356
# 6 -15.4536 -27.7918 -7.4373 -1.6751 -1.4356 30.6650
#
#
#
# Elastic Compliance Matrix: (Units=1/GPa)
#
#
# Indices 1 2 3 4 5 6 
#
# 1 0.034720 0.000815 -0.002958 -0.000835 0.027303 0.018751
# 2 0.000815 0.017878 0.000142 0.015107 0.010242 0.017953
# 3 -0.002958 0.000142 0.015938 0.006093 0.009201 0.003267
# 4 -0.000835 0.015107 0.006093 0.042007 0.025075 0.018217
# 5 0.027303 0.010242 0.009201 0.025075 0.073214 0.030071
# 6 0.018751 0.017953 0.003267 0.018217 0.030071 0.061526
#
#
# Mechanical properties :
#
#
# Convention : Reuss Voigt Hill
#
# Bulk Modulus (GPa) = 15.49556 40.43239 27.96398
# Shear Modulus (GPa) = 18.46393 34.03864 26.25129
#
# Velocity S-wave (km/s) = 2.74820 3.73140 3.27688
# Velocity P-wave (km/s) = 4.05074 5.92479 5.07502
#
# Compressibility (1/GPa) = 0.06453463
#
# Stress axis : x y z
#
# Youngs Moduli (GPa) = 28.80165 55.93463 62.74118
#
# Poissons Ratio (x) = -0.04559 0.18562
# Poissons Ratio (y) = -0.02347 -0.00893
# Poissons Ratio (z) = 0.08521 -0.00796
#
# Static dielectric constant tensor:
#      x y z
#    x 5.057910 -0.801100 -0.879150 
#    y -0.801100 4.761820 0.206500 
#    z -0.879150 0.206500 4.803580 
# 
# 
# High freq. dielectric constant tensor:
#      x y z
#    x 1.954690 -0.027770 -0.027470 
#    y -0.027770 1.972190 -0.007230 
#    z -0.027470 -0.007230 1.978870 
# 
# From -- ./inp_files/532506.got.cif
#   From: 2010.06.25/outbox.cif.g09.slc.cpg/sg2_267_cif.got.tgz:532506.got - 2010.06.27 13:26:56.
