data_PCOD8028788
_publ_section_title
;
Structure prediction by ZEFSAII (Michael W. Deem and Ramdas Pophale) SiO2 
 PCOD8028788
Probable space group: P -1
;
_chemical_formula_sum "Si O2"
_cell_formula_units_Z 14
_cell_length_a 8.722884
_cell_length_b 6.213427
_cell_length_c 16.738865
_cell_angle_alpha 58.525195
_cell_angle_beta 56.325836
_cell_angle_gamma 88.095921
_cell_volume 600.477166
_symmetry_space_group_name_H-M "P -1"
_symmetry_group_IT_number 2
_symmetry_cell_setting 'triclinic'
loop_
_space_group_symop_operation_xyz
x,y,z
-x,-y,-z
loop_
_atom_site_type_symbol
_atom_site_label
_atom_site_fract_x
_atom_site_fract_y
_atom_site_fract_z
Si Si1 0.406753 0.681974 0.094987
Si Si2 0.471675 0.763837 0.653396
Si Si3 0.690336 0.529528 0.389730
Si Si4 0.166244 0.751628 0.478266
Si Si5 0.825398 0.120714 0.169770
Si Si6 0.250048 0.523831 0.000750
Si Si7 0.258433 0.533096 0.336632
O O1 0.265957 0.560238 0.084005
O O2 0.271758 0.629678 0.222875
O O3 0.566253 0.534541 0.080412
O O4 0.500000 0.000000 0.000000
O O5 0.382947 0.736223 0.594949
O O6 0.290619 0.753617 0.761795
O O7 0.536873 0.505541 0.695622
O O8 0.673227 0.009198 0.567059
O O9 0.500000 0.500000 0.500000
O O10 0.849073 0.515812 0.412806
O O11 0.771925 0.802459 0.260779
O O12 0.237493 0.746897 0.366851
O O13 0.940025 0.741714 0.545113
O O14 0.057740 0.264223 0.087686
O O15 0.765808 0.198766 0.084334
#
# Coordination Sequence:
#
# PCOD8028788 Si02
#       7
#     2   2   2   2   2   2   2
#     4  11  26  44  74  98 134 177 230 281 335 397
#     4  12  23  43  69  96 136 181 214 281 341 398
#     4  12  25  41  69 103 135 177 223 281 340 399
#     4  11  26  44  67 102 138 177 226 275 338 410
#     4  11  25  45  70  96 142 171 230 279 330 411
#     4  10  26  48  67 103 130 185 226 279 337 393
#     4  11  25  45  67  99 135 183 222 278 339 400
#
# _framework density 23.314793999999999
#
# number of rings (size 3 to 8) (size 9 to 14) (size 15 to 20)
#    0.000    0.857    4.286    0.857    8.000    0.000 
#    2.571    2.857    0.000    0.000    0.000    0.000 
#    0.000    0.000    0.000    0.000    0.000    0.000 
#
# Total GULP energy -173485.564302 kJ/mol
# GULP energy per Si atom -12391.826022 kJ/mol
# Density = 2.326173 g / cm^3
# Si number density = 23.314794 Si / 1000 Ang^3
#
#
#
# Elastic Constant Matrix: (Units=GPa)
#
#
# Indices 1 2 3 4 5 6 
#
# 1 121.3226 29.1589 44.0248 14.3592 12.3285 15.3557
# 2 29.1589 62.3993 43.1880 5.3766 11.3718 20.4860
# 3 44.0248 43.1880 112.1605 12.0224 10.5081 15.0937
# 4 14.3592 5.3766 12.0224 45.0711 0.9141 4.2304
# 5 12.3285 11.3718 10.5081 0.9141 32.9285 7.0753
# 6 15.3557 20.4860 15.0937 4.2304 7.0753 35.9392
#
#
#
# Elastic Compliance Matrix: (Units=1/GPa)
#
#
# Indices 1 2 3 4 5 6 
#
# 1 0.010330 -0.001909 -0.002696 -0.002159 -0.001954 -0.001555
# 2 -0.001909 0.026226 -0.007684 0.000566 -0.003705 -0.010244
# 3 -0.002696 -0.007684 0.013127 -0.001746 -0.000549 0.000333
# 4 -0.002159 0.000566 -0.001746 0.023405 0.000862 -0.001592
# 5 -0.001954 -0.003705 -0.000549 0.000862 0.033278 -0.003476
# 6 -0.001555 -0.010244 0.000333 -0.001592 -0.003476 0.035060
#
#
# Mechanical properties :
#
#
# Convention : Reuss Voigt Hill
#
# Bulk Modulus (GPa) = 39.83334 58.73621 49.28478
# Shear Modulus (GPa) = 28.67433 34.75514 31.71474
#
# Velocity S-wave (km/s) = 3.51077 3.86513 3.69220
# Velocity P-wave (km/s) = 5.79276 6.72059 6.27385
#
# Compressibility (1/GPa) = 0.02510460
#
# Stress axis : x y z
#
# Youngs Moduli (GPa) = 96.80099 38.13077 76.18060
#
# Poissons Ratio (x) = 0.07278 0.20540
# Poissons Ratio (y) = 0.18477 0.58538
# Poissons Ratio (z) = 0.26100 0.29300
#
# Static dielectric constant tensor:
#      x y z
#    x 5.499300 -0.108220 0.369210 
#    y -0.108220 3.538950 0.292870 
#    z 0.369210 0.292870 4.232420 
# 
# 
# High freq. dielectric constant tensor:
#      x y z
#    x 1.946680 0.004380 0.002370 
#    y 0.004380 1.912310 0.010040 
#    z 0.002370 0.010040 1.920390 
# 
# From -- ./inp_files/37509.got.cif
#   From: 2010.06.25/outbox.cif.g09.slc.cpg/sg2_19_cif.got.tgz:37509.got - 2010.06.27 13:26:56.
