data_PCOD8028420
_publ_section_title
;
Structure prediction by ZEFSAII (Michael W. Deem and Ramdas Pophale) SiO2 
 PCOD8028420
Probable space group: P -1
;
_chemical_formula_sum "Si O2"
_cell_formula_units_Z 14
_cell_length_a 15.324601
_cell_length_b 8.362248
_cell_length_c 9.171109
_cell_angle_alpha 148.080383
_cell_angle_beta 108.604148
_cell_angle_gamma 83.120020
_cell_volume 561.549698
_symmetry_space_group_name_H-M "P -1"
_symmetry_group_IT_number 2
_symmetry_cell_setting 'triclinic'
loop_
_space_group_symop_operation_xyz
x,y,z
-x,-y,-z
loop_
_atom_site_type_symbol
_atom_site_label
_atom_site_fract_x
_atom_site_fract_y
_atom_site_fract_z
Si Si1 0.104144 0.372807 0.598805
Si Si2 0.779595 0.450015 0.685119
Si Si3 0.205902 0.842243 0.230629
Si Si4 0.115338 0.823050 0.686996
Si Si5 0.626183 0.872116 0.676654
Si Si6 0.387771 0.988850 0.909054
Si Si7 0.492638 0.682667 0.995265
O O1 0.136303 0.631927 0.688639
O O2 0.993711 0.159745 0.354308
O O3 0.173850 0.154916 0.472945
O O4 0.115839 0.558130 0.902008
O O5 0.755824 0.269772 0.687170
O O6 0.869090 0.358335 0.590325
O O7 0.687993 0.340754 0.440592
O O8 0.809101 0.827488 0.007992
O O9 0.288532 0.903339 0.199451
O O10 0.592854 0.518576 0.315981
O O11 0.653987 0.877431 0.868111
O O12 0.534854 0.008460 0.727713
O O13 0.500000 0.000000 0.000000
O O14 0.403413 0.230278 0.965520
O O15 0.500000 0.500000 0.000000
#
# Coordination Sequence:
#
# PCOD8028420 Si02
#       7
#     2   2   2   2   2   2   2
#     4  11  25  47  72 102 141 186 235 283 354 426
#     4  12  26  44  70 105 141 181 236 295 357 414
#     4  12  25  43  71 106 145 185 230 294 356 420
#     4  11  26  47  73 103 139 186 236 290 345 430
#     4  11  24  43  66  97 134 180 230 280 348 418
#     4  10  25  46  69  97 135 182 233 286 345 417
#     4  11  23  42  68  98 135 176 228 290 351 412
#
# _framework density 24.931009
#
# number of rings (size 3 to 8) (size 9 to 14) (size 15 to 20)
#    0.000    0.857    0.000    6.000    0.000   16.000 
#    0.000    0.000    0.000    0.000    0.000    0.000 
#    0.000    0.000    0.000    0.000    0.000    0.000 
#
# Total GULP energy -173555.283517 kJ/mol
# GULP energy per Si atom -12396.805965 kJ/mol
# Density = 2.487427 g / cm^3
# Si number density = 24.931009 Si / 1000 Ang^3
#
#
#
# Elastic Constant Matrix: (Units=GPa)
#
#
# Indices 1 2 3 4 5 6 
#
# 1 76.6858 40.0040 3.8658 -4.9480 3.0373 8.8586
# 2 40.0040 102.5130 15.0870 -10.7499 6.4245 22.3685
# 3 3.8658 15.0870 103.3639 -5.6409 5.1709 -8.5143
# 4 -4.9480 -10.7499 -5.6409 37.1993 0.1043 -10.1146
# 5 3.0373 6.4245 5.1709 0.1043 43.8397 -0.9010
# 6 8.8586 22.3685 -8.5143 -10.1146 -0.9010 30.7172
#
#
#
# Elastic Compliance Matrix: (Units=1/GPa)
#
#
# Indices 1 2 3 4 5 6 
#
# 1 0.016393 -0.006436 0.000378 0.000433 -0.000234 0.000200
# 2 -0.006436 0.014900 -0.002621 0.000440 -0.001627 -0.009624
# 3 0.000378 -0.002621 0.010670 0.002417 -0.000793 0.005530
# 4 0.000433 0.000440 0.002417 0.030197 -0.000243 0.010161
# 5 -0.000234 -0.001627 -0.000793 -0.000243 0.023193 0.001633
# 6 0.000200 -0.009624 0.005530 0.010161 0.001633 0.044432
#
#
# Mechanical properties :
#
#
# Convention : Reuss Voigt Hill
#
# Bulk Modulus (GPa) = 40.64347 44.49736 42.57042
# Shear Modulus (GPa) = 30.23977 37.25830 33.74904
#
# Velocity S-wave (km/s) = 3.48650 3.87001 3.68325
# Velocity P-wave (km/s) = 5.70486 6.15275 5.93303
#
# Compressibility (1/GPa) = 0.02460420
#
# Stress axis : x y z
#
# Youngs Moduli (GPa) = 61.00233 67.11246 93.71991
#
# Poissons Ratio (x) = 0.43195 -0.03544
# Poissons Ratio (y) = 0.39262 0.24568
# Poissons Ratio (z) = -0.02307 0.17593
#
# Static dielectric constant tensor:
#      x y z
#    x 4.515760 0.388660 0.063390 
#    y 0.388660 5.080110 -0.178280 
#    z 0.063390 -0.178280 4.591030 
# 
# 
# High freq. dielectric constant tensor:
#      x y z
#    x 1.994000 0.009830 0.000820 
#    y 0.009830 2.008280 -0.002150 
#    z 0.000820 -0.002150 2.003160 
# 
# From -- ./inp_files/297192.got.cif
#   From: 2010.06.25/outbox.cif.g09.slc.cpg/sg2_149_cif.got.tgz:297192.got - 2010.06.27 13:26:56.
