data_PCOD8028836
_publ_section_title
;
Structure prediction by ZEFSAII (Michael W. Deem and Ramdas Pophale) SiO2 
 PCOD8028836
Probable space group: P -1
;
_chemical_formula_sum "Si O2"
_cell_formula_units_Z 16
_cell_length_a 10.908116
_cell_length_b 21.399044
_cell_length_c 16.943840
_cell_angle_alpha 160.162034
_cell_angle_beta 148.768591
_cell_angle_gamma 32.168998
_cell_volume 675.669657
_symmetry_space_group_name_H-M "P -1"
_symmetry_group_IT_number 2
_symmetry_cell_setting 'triclinic'
loop_
_space_group_symop_operation_xyz
x,y,z
-x,-y,-z
loop_
_atom_site_type_symbol
_atom_site_label
_atom_site_fract_x
_atom_site_fract_y
_atom_site_fract_z
Si Si1 0.383709 0.038636 0.362742
Si Si2 0.563009 0.855278 0.791844
Si Si3 0.011715 0.605660 0.796145
Si Si4 0.597835 0.922552 0.188654
Si Si5 0.515958 0.677239 0.116194
Si Si6 0.987343 0.381670 0.008578
Si Si7 0.136989 0.785874 0.735842
Si Si8 0.315721 0.639666 0.506897
O O1 0.384341 0.225877 0.637989
O O2 0.112515 0.054581 0.196032
O O3 0.579564 0.033977 0.394105
O O4 0.459698 0.839110 0.211996
O O5 0.439827 0.689231 0.555237
O O6 0.852161 0.762963 0.836546
O O7 0.461394 0.930257 0.740616
O O8 0.500000 0.000000 0.000000
O O9 0.959696 0.682414 0.947899
O O10 0.928139 0.410464 0.508996
O O11 0.289906 0.590981 0.911177
O O12 0.384768 0.805624 0.939066
O O13 0.876513 0.797521 0.183270
O O14 0.704219 0.484040 0.960319
O O15 0.112408 0.547641 0.250571
O O16 0.188777 0.810519 0.699256
O O17 0.500000 0.500000 0.500000
#
# Coordination Sequence:
#
# PCOD8028836 Si02
#       8
#     2   2   2   2   2   2   2   2
#     4  11  26  43  63  96 133 171 214 275 321 378
#     4  12  20  34  67 102 128 162 209 270 333 386
#     4  11  21  39  70  97 122 173 227 253 309 404
#     4  12  24  41  65 103 134 159 210 283 335 366
#     4  11  25  45  69  88 123 190 227 246 316 397
#     4  11  21  40  69  90 127 171 219 266 307 389
#     4  11  20  40  68  94 133 162 207 278 328 376
#     4  11  17  36  64  98 122 167 216 255 315 384
#
# _framework density 23.680211
#
# number of rings (size 3 to 8) (size 9 to 14) (size 15 to 20)
#    0.000    0.750    8.750    1.500    0.000    0.500 
#    0.000    4.375    0.000    0.000    0.000    0.000 
#    0.000    0.000    0.000    0.000    0.000    0.000 
#
# Total GULP energy -198228.643524 kJ/mol
# GULP energy per Si atom -12389.290220 kJ/mol
# Density = 2.362631 g / cm^3
# Si number density = 23.680211 Si / 1000 Ang^3
#
#
#
# Elastic Constant Matrix: (Units=GPa)
#
#
# Indices 1 2 3 4 5 6 
#
# 1 135.9952 60.0849 30.2517 12.4802 5.1855 -20.2713
# 2 60.0849 129.1430 29.4697 18.8115 0.6048 -32.4903
# 3 30.2517 29.4697 43.9077 0.4033 15.1764 -4.0462
# 4 12.4802 18.8115 0.4033 22.5515 -9.8761 2.0305
# 5 5.1855 0.6048 15.1764 -9.8761 34.7335 0.9996
# 6 -20.2713 -32.4903 -4.0462 2.0305 0.9996 48.6309
#
#
#
# Elastic Compliance Matrix: (Units=1/GPa)
#
#
# Indices 1 2 3 4 5 6 
#
# 1 0.010300 -0.002456 -0.005012 -0.004004 -0.000513 0.002414
# 2 -0.002456 0.014194 -0.006846 -0.011257 -0.000331 0.008367
# 3 -0.005012 -0.006846 0.035261 0.002112 -0.013837 -0.003533
# 4 -0.004004 -0.011257 0.002112 0.065221 0.018764 -0.012123
# 5 -0.000513 -0.000331 -0.013837 0.018764 0.040346 -0.003199
# 6 0.002414 0.008367 -0.003533 -0.012123 -0.003199 0.027437
#
#
# Mechanical properties :
#
#
# Convention : Reuss Voigt Hill
#
# Bulk Modulus (GPa) = 32.12559 60.96207 46.54383
# Shear Modulus (GPa) = 21.57385 33.79915 27.68650
#
# Velocity S-wave (km/s) = 3.02163 3.78208 3.42304
# Velocity P-wave (km/s) = 5.07638 6.69865 5.94313
#
# Compressibility (1/GPa) = 0.03112783
#
# Stress axis : x y z
#
# Youngs Moduli (GPa) = 97.09026 70.45018 28.36011
#
# Poissons Ratio (x) = 0.17299 0.14213
# Poissons Ratio (y) = 0.23841 0.19416
# Poissons Ratio (z) = 0.48659 0.48233
#
# Static dielectric constant tensor:
#      x y z
#    x 5.284680 -0.549090 0.354510 
#    y -0.549090 4.527220 0.187360 
#    z 0.354510 0.187360 4.242680 
# 
# 
# High freq. dielectric constant tensor:
#      x y z
#    x 1.941550 -0.023440 0.019900 
#    y -0.023440 1.938220 0.014980 
#    z 0.019900 0.014980 1.916600 
# 
# From -- ./inp_files/570817.got.cif
#   From: 2010.06.25/outbox.cif.g09.slc.cpg/sg2_286_cif.got.tgz:570817.got - 2010.06.27 13:26:56.
