data_PCOD8028469
_publ_section_title
;
Structure prediction by ZEFSAII (Michael W. Deem and Ramdas Pophale) SiO2 
 PCOD8028469
Probable space group: P -1
;
_chemical_formula_sum "Si O2"
_cell_formula_units_Z 10
_cell_length_a 8.667089
_cell_length_b 14.466434
_cell_length_c 7.895607
_cell_angle_alpha 122.582402
_cell_angle_beta 77.261781
_cell_angle_gamma 146.070108
_cell_volume 408.162917
_symmetry_space_group_name_H-M "P -1"
_symmetry_group_IT_number 2
_symmetry_cell_setting 'triclinic'
loop_
_space_group_symop_operation_xyz
x,y,z
-x,-y,-z
loop_
_atom_site_type_symbol
_atom_site_label
_atom_site_fract_x
_atom_site_fract_y
_atom_site_fract_z
Si Si1 0.771340 0.948079 0.420714
Si Si2 0.872808 0.639990 0.423929
Si Si3 0.870825 0.198587 0.098120
Si Si4 0.883865 0.435634 0.657290
Si Si5 0.215355 0.197561 0.019317
O O1 0.490098 0.807189 0.478474
O O2 0.637529 0.801433 0.146155
O O3 0.000000 0.000000 0.500000
O O4 0.946878 0.165538 0.545507
O O5 0.496368 0.427127 0.280398
O O6 0.983193 0.720698 0.669406
O O7 0.954729 0.564062 0.272352
O O8 0.019630 0.384255 0.128300
O O9 0.985493 0.151980 0.941344
O O10 0.500000 0.000000 0.000000
O O11 0.000000 0.500000 0.500000
O O12 0.000000 0.000000 0.000000
#
# Coordination Sequence:
#
# PCOD8028469 Si02
#       5
#     2   2   2   2   2
#     4  12  28  46  76 111 148 194 251 302 366 435
#     4  11  25  48  76 106 152 191 246 303 366 435
#     4  11  24  45  78 108 145 197 244 296 374 440
#     4  10  25  46  73 104 149 192 240 299 364 431
#     4  12  26  46  77 108 152 193 245 306 369 433
#
# _framework density 24.500022999999999
#
# number of rings (size 3 to 8) (size 9 to 14) (size 15 to 20)
#    0.000    0.800    2.000    3.600   11.200    4.000 
#    0.000    0.000    0.000    0.000    0.000    0.000 
#    0.000    0.000    0.000    0.000    0.000    0.000 
#
# Total GULP energy -123948.583340 kJ/mol
# GULP energy per Si atom -12394.858334 kJ/mol
# Density = 2.444426 g / cm^3
# Si number density = 24.500023 Si / 1000 Ang^3
#
#
#
# Elastic Constant Matrix: (Units=GPa)
#
#
# Indices 1 2 3 4 5 6 
#
# 1 216.1285 71.6969 32.6375 36.1478 -13.1308 -16.7750
# 2 71.6969 165.9614 49.8933 42.7234 -1.7420 -6.1388
# 3 32.6375 49.8933 86.9014 32.8586 10.4000 -1.1882
# 4 36.1478 42.7234 32.8586 46.4823 0.9761 -5.4576
# 5 -13.1308 -1.7420 10.4000 0.9761 47.4367 17.1085
# 6 -16.7750 -6.1388 -1.1882 -5.4576 17.1085 53.9459
#
#
#
# Elastic Compliance Matrix: (Units=1/GPa)
#
#
# Indices 1 2 3 4 5 6 
#
# 1 0.005838 -0.001678 -0.000377 -0.002653 0.001361 0.000916
# 2 -0.001678 0.008822 -0.002627 -0.004993 0.000641 -0.000284
# 3 -0.000377 -0.002627 0.017137 -0.009297 -0.003854 0.000243
# 4 -0.002653 -0.004993 -0.009297 0.034985 -0.000338 0.002049
# 5 0.001361 0.000641 -0.003854 -0.000338 0.025064 -0.007572
# 6 0.000916 -0.000284 0.000243 0.002049 -0.007572 0.021404
#
#
# Mechanical properties :
#
#
# Convention : Reuss Voigt Hill
#
# Bulk Modulus (GPa) = 44.57686 86.38297 65.47992
# Shear Modulus (GPa) = 38.43474 50.55724 44.49599
#
# Velocity S-wave (km/s) = 3.96506 4.54757 4.26627
# Velocity P-wave (km/s) = 6.26070 7.93150 7.14511
#
# Compressibility (1/GPa) = 0.02243316
#
# Stress axis : x y z
#
# Youngs Moduli (GPa) = 171.29902 113.35596 58.35277
#
# Poissons Ratio (x) = 0.19018 0.02198
# Poissons Ratio (y) = 0.28739 0.15332
# Poissons Ratio (z) = 0.06452 0.29783
#
# Static dielectric constant tensor:
#      x y z
#    x 5.568040 -0.012030 -0.597200 
#    y -0.012030 4.727130 -0.151070 
#    z -0.597200 -0.151070 4.742490 
# 
# 
# High freq. dielectric constant tensor:
#      x y z
#    x 2.007900 0.000010 -0.012170 
#    y 0.000010 1.969170 0.016210 
#    z -0.012170 0.016210 1.966260 
# 
# From -- ./inp_files/17897.got.cif
#   From: 2010.06.25/outbox.cif.g09.slc.cpg/sg2_9_cif.got.tgz:17897.got - 2010.06.27 13:26:56.
