data_PCOD8028024
_publ_section_title
;
Structure prediction by ZEFSAII (Michael W. Deem and Ramdas Pophale) SiO2 
 PCOD8028024
Probable space group: P -1
;
_chemical_formula_sum "Si O2"
_cell_formula_units_Z 16
_cell_length_a 9.967507
_cell_length_b 9.354799
_cell_length_c 12.264928
_cell_angle_alpha 115.122995
_cell_angle_beta 54.071784
_cell_angle_gamma 130.033197
_cell_volume 707.005177
_symmetry_space_group_name_H-M "P -1"
_symmetry_group_IT_number 2
_symmetry_cell_setting 'triclinic'
loop_
_space_group_symop_operation_xyz
x,y,z
-x,-y,-z
loop_
_atom_site_type_symbol
_atom_site_label
_atom_site_fract_x
_atom_site_fract_y
_atom_site_fract_z
Si Si1 0.930488 0.240722 0.589723
Si Si2 0.534614 0.681772 0.267126
Si Si3 0.358775 0.385352 0.430822
Si Si4 0.357609 0.724291 0.800696
Si Si5 0.442774 0.855916 0.171986
Si Si6 0.718413 0.039263 0.407511
Si Si7 0.059352 0.615655 0.732704
Si Si8 0.294047 0.536603 0.986932
O O1 0.767625 0.159095 0.738049
O O2 0.828032 0.110532 0.492461
O O3 0.129337 0.246498 0.527508
O O4 0.989333 0.457233 0.621645
O O5 0.369369 0.523129 0.374172
O O6 0.450471 0.779331 0.263470
O O7 0.698925 0.844586 0.320907
O O8 0.623949 0.594587 0.118394
O O9 0.500000 0.500000 0.500000
O O10 0.433751 0.257863 0.304150
O O11 0.229057 0.615564 0.721087
O O12 0.386438 0.928635 0.859883
O O13 0.240145 0.600164 0.921762
O O14 0.457849 0.728953 0.031489
O O15 0.855978 0.186243 0.298739
O O16 0.500000 0.000000 0.500000
O O17 0.890051 0.582489 0.885381
#
# Coordination Sequence:
#
# PCOD8028024 Si02
#       8
#     2   2   2   2   2   2   2   2
#     4  11  24  39  67 104 132 173 221 270 338 404
#     4  11  24  44  67  96 136 180 218 281 336 386
#     4  11  25  42  66  97 143 174 216 276 341 397
#     4  11  22  45  65  96 134 184 217 279 338 390
#     4  11  23  43  70  96 131 177 228 276 329 401
#     4  12  23  41  68 103 136 170 220 278 330 400
#     4  11  22  41  70  95 136 177 225 270 332 401
#     4  10  25  42  66  98 135 176 229 275 334 393
#
# _framework density 22.630668
#
# number of rings (size 3 to 8) (size 9 to 14) (size 15 to 20)
#    0.000    1.000    3.750    2.250    5.250    1.000 
#    0.000    0.000    0.000    0.000    0.000    0.000 
#    0.000    0.000    0.000    0.000    0.000    0.000 
#
# Total GULP energy -198316.236691 kJ/mol
# GULP energy per Si atom -12394.764793 kJ/mol
# Density = 2.257916 g / cm^3
# Si number density = 22.630668 Si / 1000 Ang^3
#
#
#
# Elastic Constant Matrix: (Units=GPa)
#
#
# Indices 1 2 3 4 5 6 
#
# 1 73.6838 12.5387 22.1417 11.7331 -1.0366 20.0835
# 2 12.5387 94.8388 28.3059 21.9866 -0.6053 9.1905
# 3 22.1417 28.3059 108.7236 21.1231 -6.4129 13.0516
# 4 11.7331 21.9866 21.1231 39.4109 8.8101 10.7344
# 5 -1.0366 -0.6053 -6.4129 8.8101 32.3358 -0.4920
# 6 20.0835 9.1905 13.0516 10.7344 -0.4920 37.4563
#
#
#
# Elastic Compliance Matrix: (Units=1/GPa)
#
#
# Indices 1 2 3 4 5 6 
#
# 1 0.016594 -0.000479 -0.001997 -0.001631 0.000456 -0.007610
# 2 -0.000479 0.012635 -0.001861 -0.006135 0.001517 -0.000417
# 3 -0.001997 -0.001861 0.011380 -0.004987 0.003502 -0.000963
# 4 -0.001631 -0.006135 -0.004987 0.036181 -0.011111 -0.006397
# 5 0.000456 0.001517 0.003502 -0.011111 0.034718 0.001803
# 6 -0.007610 -0.000417 -0.000963 -0.006397 0.001803 0.033073
#
#
# Mechanical properties :
#
#
# Convention : Reuss Voigt Hill
#
# Bulk Modulus (GPa) = 31.31373 44.80208 38.05791
# Shear Modulus (GPa) = 30.50649 36.12458 33.31554
#
# Velocity S-wave (km/s) = 3.67552 3.99967 3.84101
# Velocity P-wave (km/s) = 5.64619 6.41637 6.04356
#
# Compressibility (1/GPa) = 0.03193487
#
# Stress axis : x y z
#
# Youngs Moduli (GPa) = 60.26403 79.14423 87.87462
#
# Poissons Ratio (x) = 0.03792 0.17550
# Poissons Ratio (y) = 0.02888 0.16349
# Poissons Ratio (z) = 0.12036 0.14725
#
# Static dielectric constant tensor:
#      x y z
#    x 3.971770 0.196930 0.134630 
#    y 0.196930 4.210810 0.144710 
#    z 0.134630 0.144710 4.171890 
# 
# 
# High freq. dielectric constant tensor:
#      x y z
#    x 1.872570 0.008960 0.008700 
#    y 0.008960 1.899530 0.010810 
#    z 0.008700 0.010810 1.899230 
# 
# From -- ./inp_files/382858.got.cif
#   From: 2010.06.25/outbox.cif.g09.slc.cpg/sg2_192_cif.got.tgz:382858.got - 2010.06.27 13:26:56.
