data_PCOD8028636
_publ_section_title
;
Structure prediction by ZEFSAII (Michael W. Deem and Ramdas Pophale) SiO2 
 PCOD8028636
Probable space group: P -1
;
_chemical_formula_sum "Si O2"
_cell_formula_units_Z 16
_cell_length_a 26.851758
_cell_length_b 5.293870
_cell_length_c 12.191234
_cell_angle_alpha 56.740959
_cell_angle_beta 28.983621
_cell_angle_gamma 64.922536
_cell_volume 695.470249
_symmetry_space_group_name_H-M "P -1"
_symmetry_group_IT_number 2
_symmetry_cell_setting 'triclinic'
loop_
_space_group_symop_operation_xyz
x,y,z
-x,-y,-z
loop_
_atom_site_type_symbol
_atom_site_label
_atom_site_fract_x
_atom_site_fract_y
_atom_site_fract_z
Si Si1 0.886256 0.540490 0.487484
Si Si2 0.783786 0.916594 0.427025
Si Si3 0.545177 0.693085 0.973899
Si Si4 0.209151 0.351102 0.754401
Si Si5 0.426319 0.246141 0.452489
Si Si6 0.798503 0.837640 0.789965
Si Si7 0.571106 0.807454 0.289275
Si Si8 0.075221 0.273293 0.233440
O O1 0.867514 0.795667 0.374703
O O2 0.831487 0.625753 0.682114
O O3 0.009373 0.553967 0.273529
O O4 0.845996 0.194579 0.606873
O O5 0.669859 0.745291 0.716419
O O6 0.821231 0.811600 0.262484
O O7 0.787860 0.281833 0.341058
O O8 0.500000 0.500000 0.000000
O O9 0.504794 0.551981 0.203287
O O10 0.500000 0.000000 0.000000
O O11 0.320415 0.255814 0.590453
O O12 0.123180 0.197089 0.042449
O O13 0.400462 0.127297 0.653480
O O14 0.498494 0.015048 0.316916
O O15 0.828174 0.660918 0.884852
O O16 0.675875 0.816460 0.017654
O O17 0.500000 0.500000 0.500000
O O18 0.000000 0.000000 0.500000
#
# Coordination Sequence:
#
# PCOD8028636 Si02
#       8
#     2   2   2   2   2   2   2   2
#     4  11  26  46  73 103 140 180 242 294 350 413
#     4  12  26  45  69 106 139 192 231 288 344 415
#     4  12  24  42  68  96 139 188 231 271 339 416
#     4  12  26  46  73 100 145 183 236 288 350 425
#     4  11  25  44  63 104 140 186 232 286 346 421
#     4  11  24  46  72 103 142 183 232 295 355 424
#     4  11  27  40  70 101 143 187 230 293 355 415
#     4  10  25  49  77 105 136 186 233 300 364 415
#
# _framework density 23.006014
#
# number of rings (size 3 to 8) (size 9 to 14) (size 15 to 20)
#    0.000    0.750    3.750    1.875    8.750    5.000 
#    0.000    0.000    0.000    0.000    0.000    0.000 
#    0.000    0.000    0.000    0.000    0.000    0.000 
#
# Total GULP energy -198212.727081 kJ/mol
# GULP energy per Si atom -12388.295443 kJ/mol
# Density = 2.295365 g / cm^3
# Si number density = 23.006014 Si / 1000 Ang^3
#
#
#
# Elastic Constant Matrix: (Units=GPa)
#
#
# Indices 1 2 3 4 5 6 
#
# 1 91.3608 67.1721 13.4660 20.1537 7.1940 -26.9691
# 2 67.1721 145.9906 37.6236 19.4454 -8.8823 -26.6227
# 3 13.4660 37.6236 107.2558 27.9753 6.6248 -14.8253
# 4 20.1537 19.4454 27.9753 42.8435 3.9566 -2.1171
# 5 7.1940 -8.8823 6.6248 3.9566 34.1376 5.0888
# 6 -26.9691 -26.6227 -14.8253 -2.1171 5.0888 51.4078
#
#
#
# Elastic Compliance Matrix: (Units=1/GPa)
#
#
# Indices 1 2 3 4 5 6 
#
# 1 0.021785 -0.009013 0.004090 -0.007664 -0.008098 0.008427
# 2 -0.009013 0.012212 -0.003649 0.000552 0.005721 0.000000
# 3 0.004090 -0.003649 0.013043 -0.008214 -0.003998 0.004075
# 4 -0.007664 0.000552 -0.008214 0.031784 0.000389 -0.004833
# 5 -0.008098 0.005721 -0.003998 0.000389 0.034083 -0.005796
# 6 0.008427 0.000000 0.004075 -0.004833 -0.005796 0.025423
#
#
# Mechanical properties :
#
#
# Convention : Reuss Voigt Hill
#
# Bulk Modulus (GPa) = 33.45002 64.57008 49.01005
# Shear Modulus (GPa) = 30.22276 40.76747 35.49512
#
# Velocity S-wave (km/s) = 3.62842 4.21412 3.93219
# Velocity P-wave (km/s) = 5.66790 7.19764 6.47808
#
# Compressibility (1/GPa) = 0.02989535
#
# Stress axis : x y z
#
# Youngs Moduli (GPa) = 45.90297 81.88822 76.67186
#
# Poissons Ratio (x) = 0.73805 -0.31361
# Poissons Ratio (y) = 0.41372 0.27981
# Poissons Ratio (z) = -0.18776 0.29884
#
# Static dielectric constant tensor:
#      x y z
#    x 4.025610 -0.335210 -0.046800 
#    y -0.335210 4.356280 0.196930 
#    z -0.046800 0.196930 4.037710 
# 
# 
# High freq. dielectric constant tensor:
#      x y z
#    x 1.909990 -0.019540 0.006880 
#    y -0.019540 1.923970 0.013390 
#    z 0.006880 0.013390 1.915710 
# 
# From -- ./inp_files/459504.got.cif
#   From: 2010.06.25/outbox.cif.g09.slc.cpg/sg2_230_cif.got.tgz:459504.got - 2010.06.27 13:26:56.
