data_PCOD8028748
_publ_section_title
;
Structure prediction by ZEFSAII (Michael W. Deem and Ramdas Pophale) SiO2 
 PCOD8028748
Probable space group: P -1
;
_chemical_formula_sum "Si O2"
_cell_formula_units_Z 14
_cell_length_a 11.677477
_cell_length_b 4.999389
_cell_length_c 12.220084
_cell_angle_alpha 125.470017
_cell_angle_beta 92.767014
_cell_angle_gamma 98.346538
_cell_volume 567.036227
_symmetry_space_group_name_H-M "P -1"
_symmetry_group_IT_number 2
_symmetry_cell_setting 'triclinic'
loop_
_space_group_symop_operation_xyz
x,y,z
-x,-y,-z
loop_
_atom_site_type_symbol
_atom_site_label
_atom_site_fract_x
_atom_site_fract_y
_atom_site_fract_z
Si Si1 0.439349 0.175856 0.357377
Si Si2 0.476484 0.473589 0.199540
Si Si3 0.096591 0.512271 0.235402
Si Si4 0.735189 0.568624 0.158435
Si Si5 0.814654 0.750350 0.618015
Si Si6 0.902068 0.676285 0.382221
Si Si7 0.764663 0.847974 0.996294
O O1 0.500000 0.500000 0.500000
O O2 0.464997 0.219897 0.240125
O O3 0.303902 0.119066 0.364828
O O4 0.487096 0.858900 0.328914
O O5 0.594981 0.454378 0.137045
O O6 0.361496 0.377480 0.095932
O O7 0.187137 0.485590 0.332300
O O8 0.125961 0.284436 0.083754
O O9 0.966798 0.403056 0.260718
O O10 0.095292 0.888238 0.282485
O O11 0.800116 0.744994 0.312294
O O12 0.771178 0.830662 0.123829
O O13 0.779225 0.230417 0.049933
O O14 0.838712 0.540524 0.461644
O O15 0.000000 0.000000 0.500000
#
# Coordination Sequence:
#
# PCOD8028748 Si02
#       7
#     2   2   2   2   2   2   2
#     4  12  23  38  68 102 138 178 222 278 341 411
#     4  12  24  45  66 103 142 178 225 279 342 405
#     4  11  23  43  71  96 131 178 227 275 342 400
#     4  12  27  44  70 103 138 183 234 277 336 413
#     4  11  21  43  66  98 133 173 225 274 346 402
#     4  10  26  46  71  99 137 181 227 290 343 397
#     4  12  24  45  71  99 142 182 228 277 342 407
#
# _framework density 24.689781
#
# number of rings (size 3 to 8) (size 9 to 14) (size 15 to 20)
#    0.000    0.571    2.857    5.143    0.000    8.000 
#    0.000    0.000    0.000    0.000    0.000    0.000 
#    0.000    0.000    0.000    0.000    0.000    0.000 
#
# Total GULP energy -173561.695359 kJ/mol
# GULP energy per Si atom -12397.263954 kJ/mol
# Density = 2.463359 g / cm^3
# Si number density = 24.689781 Si / 1000 Ang^3
#
#
#
# Elastic Constant Matrix: (Units=GPa)
#
#
# Indices 1 2 3 4 5 6 
#
# 1 90.4612 9.4191 18.0543 -10.6199 -32.0212 -2.0198
# 2 9.4191 76.0455 7.4139 -5.1740 -1.6004 -1.3136
# 3 18.0543 7.4139 72.4101 -15.6808 -7.2865 5.8493
# 4 -10.6199 -5.1740 -15.6808 39.5903 1.9102 -12.3799
# 5 -32.0212 -1.6004 -7.2865 1.9102 51.0109 -7.5761
# 6 -2.0198 -1.3136 5.8493 -12.3799 -7.5761 26.1124
#
#
#
# Elastic Compliance Matrix: (Units=1/GPa)
#
#
# Indices 1 2 3 4 5 6 
#
# 1 0.016151 -0.001084 -0.002343 0.004993 0.010648 0.007176
# 2 -0.001084 0.013502 -0.000911 0.001589 -0.000226 0.001487
# 3 -0.002343 -0.000911 0.015724 0.005077 0.000373 -0.001234
# 4 0.004993 0.001589 0.005077 0.033842 0.005147 0.016867
# 5 0.010648 -0.000226 0.000373 0.005147 0.027811 0.011238
# 6 0.007176 0.001487 -0.001234 0.016867 0.011238 0.050459
#
#
# Mechanical properties :
#
#
# Convention : Reuss Voigt Hill
#
# Bulk Modulus (GPa) = 27.24708 34.29904 30.77306
# Shear Modulus (GPa) = 28.02705 36.94468 32.48587
#
# Velocity S-wave (km/s) = 3.37288 3.87247 3.63128
# Velocity P-wave (km/s) = 5.12134 5.82382 5.48384
#
# Compressibility (1/GPa) = 0.03670118
#
# Stress axis : x y z
#
# Youngs Moduli (GPa) = 61.91709 74.06213 63.59599
#
# Poissons Ratio (x) = 0.08030 0.14899
# Poissons Ratio (y) = 0.06713 0.05793
# Poissons Ratio (z) = 0.14506 0.06746
#
# Static dielectric constant tensor:
#      x y z
#    x 4.649270 -0.079270 -0.203020 
#    y -0.079270 4.186010 -0.208320 
#    z -0.203020 -0.208320 4.438850 
# 
# 
# High freq. dielectric constant tensor:
#      x y z
#    x 1.993160 0.001370 -0.015410 
#    y 0.001370 1.978990 -0.009020 
#    z -0.015410 -0.009020 1.978460 
# 
# From -- ./inp_files/364534.got.cif
#   From: 2010.06.25/outbox.cif.g09.slc.cpg/sg2_183_cif.got.tgz:364534.got - 2010.06.27 13:26:56.
