data_PCOD8028071
_publ_section_title
;
Structure prediction by ZEFSAII (Michael W. Deem and Ramdas Pophale) SiO2 
 PCOD8028071
Probable space group: P -1
;
_chemical_formula_sum "Si O2"
_cell_formula_units_Z 16
_cell_length_a 14.255863
_cell_length_b 9.220309
_cell_length_c 9.222655
_cell_angle_alpha 112.826066
_cell_angle_beta 47.708790
_cell_angle_gamma 83.168859
_cell_volume 686.257189
_symmetry_space_group_name_H-M "P -1"
_symmetry_group_IT_number 2
_symmetry_cell_setting 'triclinic'
loop_
_space_group_symop_operation_xyz
x,y,z
-x,-y,-z
loop_
_atom_site_type_symbol
_atom_site_label
_atom_site_fract_x
_atom_site_fract_y
_atom_site_fract_z
Si Si1 0.964739 0.903343 0.730701
Si Si2 0.034751 0.659920 0.833302
Si Si3 0.851205 0.914232 0.383110
Si Si4 0.369446 0.227027 0.034181
Si Si5 0.924323 0.671063 0.480723
Si Si6 0.387879 0.431942 0.353865
Si Si7 0.388318 0.870246 0.791479
Si Si8 0.426910 0.764638 0.381335
O O1 0.025182 0.726381 0.488065
O O2 0.999636 0.831887 0.832418
O O3 0.051003 0.002084 0.640290
O O4 0.784160 0.052981 0.954533
O O5 0.974635 0.538003 0.776456
O O6 0.215345 0.522934 0.621948
O O7 0.948132 0.741661 0.104686
O O8 0.825523 0.828672 0.520683
O O9 0.690125 0.073634 0.546414
O O10 0.187769 0.335707 0.288494
O O11 0.439360 0.269738 0.116705
O O12 0.406175 0.305524 0.882741
O O13 0.439671 0.004617 0.850890
O O14 0.499702 0.337520 0.337957
O O15 0.403434 0.595081 0.336851
O O16 0.403787 0.856234 0.597385
#
# Coordination Sequence:
#
# PCOD8028071 Si02
#       8
#     2   2   2   2   2   2   2   2
#     4  11  22  45  68  98 133 172 219 270 337 390
#     4  11  22  45  68  98 133 172 219 270 337 390
#     4  12  24  42  69  99 134 176 217 271 336 390
#     4  10  25  45  65  95 135 181 214 269 330 389
#     4  10  25  43  66  99 132 176 222 274 319 393
#     4  11  24  44  70 100 133 172 221 274 327 391
#     4  11  24  44  70 100 133 172 221 274 327 391
#     4  12  24  42  68 100 135 174 221 269 331 393
#
# _framework density 23.314874
#
# number of rings (size 3 to 8) (size 9 to 14) (size 15 to 20)
#    0.000    1.000    2.500    3.750    7.000    0.000 
#    0.000    5.000    0.000    0.000    0.000    0.000 
#    0.000    0.000    0.000    0.000    0.000    0.000 
#
# Total GULP energy -198436.922928 kJ/mol
# GULP energy per Si atom -12402.307683 kJ/mol
# Density = 2.326181 g / cm^3
# Si number density = 23.314874 Si / 1000 Ang^3
#
#
#
# Elastic Constant Matrix: (Units=GPa)
#
#
# Indices 1 2 3 4 5 6 
#
# 1 83.2948 24.8954 42.0805 10.6460 13.2481 14.2193
# 2 24.8954 61.5010 33.0716 0.0447 12.5492 5.1034
# 3 42.0805 33.0716 84.1704 -1.0191 9.9921 31.7748
# 4 10.6460 0.0447 -1.0191 31.2859 0.6498 -2.7780
# 5 13.2481 12.5492 9.9921 0.6498 30.6520 15.8792
# 6 14.2193 5.1034 31.7748 -2.7780 15.8792 39.8120
#
#
#
# Elastic Compliance Matrix: (Units=1/GPa)
#
#
# Indices 1 2 3 4 5 6 
#
# 1 0.018182 -0.001736 -0.008768 -0.006138 -0.005438 0.002467
# 2 -0.001736 0.024723 -0.011840 0.001441 -0.011557 0.011611
# 3 -0.008768 -0.011840 0.027881 0.001750 0.010798 -0.021788
# 4 -0.006138 0.001441 0.001750 0.034431 -0.001006 0.003415
# 5 -0.005438 -0.011557 0.010798 -0.001006 0.049075 -0.024839
# 6 0.002467 0.011611 -0.021788 0.003415 -0.024839 0.050283
#
#
# Mechanical properties :
#
#
# Convention : Reuss Voigt Hill
#
# Bulk Modulus (GPa) = 38.31706 47.67348 42.99527
# Shear Modulus (GPa) = 19.38267 28.94456 24.16362
#
# Velocity S-wave (km/s) = 2.88643 3.52726 3.22281
# Velocity P-wave (km/s) = 5.25156 6.08940 5.68594
#
# Compressibility (1/GPa) = 0.02609804
#
# Stress axis : x y z
#
# Youngs Moduli (GPa) = 54.99851 40.44803 35.86731
#
# Poissons Ratio (x) = 0.07021 0.31449
# Poissons Ratio (y) = 0.09547 0.42466
# Poissons Ratio (z) = 0.48224 0.47890
#
# Static dielectric constant tensor:
#      x y z
#    x 4.209230 0.213070 0.266870 
#    y 0.213070 4.198600 0.027020 
#    z 0.266870 0.027020 4.194910 
# 
# 
# High freq. dielectric constant tensor:
#      x y z
#    x 1.923180 0.010000 0.018600 
#    y 0.010000 1.926770 0.001820 
#    z 0.018600 0.001820 1.919000 
# 
# From -- ./inp_files/299101.got.cif
#   From: 2010.06.25/outbox.cif.g09.slc.cpg/sg2_150_cif.got.tgz:299101.got - 2010.06.27 13:26:56.
