data_PCOD8028868
_publ_section_title
;
Structure prediction by ZEFSAII (Michael W. Deem and Ramdas Pophale) SiO2 
 PCOD8028868
Probable space group: P -1
;
_chemical_formula_sum "Si O2"
_cell_formula_units_Z 12
_cell_length_a 12.506112
_cell_length_b 9.081044
_cell_length_c 12.191008
_cell_angle_alpha 141.226892
_cell_angle_beta 125.996713
_cell_angle_gamma 72.873076
_cell_volume 663.838414
_symmetry_space_group_name_H-M "P -1"
_symmetry_group_IT_number 2
_symmetry_cell_setting 'triclinic'
loop_
_space_group_symop_operation_xyz
x,y,z
-x,-y,-z
loop_
_atom_site_type_symbol
_atom_site_label
_atom_site_fract_x
_atom_site_fract_y
_atom_site_fract_z
Si Si1 0.634826 0.803815 0.927837
Si Si2 0.692289 0.976593 0.672904
Si Si3 0.370240 0.733360 0.384959
Si Si4 0.356411 0.813763 0.672762
Si Si5 0.161993 0.929149 0.971625
Si Si6 0.138561 0.334812 0.338278
O O1 0.685687 0.565411 0.829418
O O2 0.486888 0.720832 0.727083
O O3 0.621251 0.914891 0.103992
O O4 0.746116 0.023333 0.054784
O O5 0.718365 0.161992 0.693313
O O6 0.530842 0.825086 0.501695
O O7 0.774261 0.776174 0.586659
O O8 0.750620 0.134574 0.911104
O O9 0.345307 0.831426 0.545955
O O10 0.215839 0.622410 0.527310
O O11 0.017790 0.703823 0.733552
O O12 0.126685 0.181409 0.127426
#
# Coordination Sequence:
#
# PCOD8028868 Si02
#       6
#     2   2   2   2   2   2
#     4  11  20  33  55  78 102 136 176 212 248 302
#     4   9  18  31  56  79 102 139 164 212 267 293
#     4  11  18  34  54  78 110 128 169 218 257 305
#     4  11  20  33  55  78 102 136 176 212 248 302
#     4   9  17  34  55  78 100 135 177 205 251 306
#     4   9  17  34  55  78 100 135 177 205 251 306
#
# _framework density 18.076688000000001
#
# number of rings (size 3 to 8) (size 9 to 14) (size 15 to 20)
#    1.000    1.000    5.000    0.500    0.000    0.667 
#    0.000    8.333    0.000    2.000    0.000    0.000 
#    0.000    0.000    0.000    0.000    0.000    0.000 
#
# Total GULP energy -148734.839144 kJ/mol
# GULP energy per Si atom -12394.569929 kJ/mol
# Density = 1.803555 g / cm^3
# Si number density = 18.076688 Si / 1000 Ang^3
#
#
#
# Elastic Constant Matrix: (Units=GPa)
#
#
# Indices 1 2 3 4 5 6 
#
# 1 54.4503 28.8825 32.0032 -4.8873 8.1144 17.3933
# 2 28.8825 114.1483 36.6585 -12.9991 -6.9945 20.6250
# 3 32.0032 36.6585 58.8703 -0.8446 2.7047 10.6615
# 4 -4.8873 -12.9991 -0.8446 12.5522 3.2405 3.7841
# 5 8.1144 -6.9945 2.7047 3.2405 41.7389 -1.3450
# 6 17.3933 20.6250 10.6615 3.7841 -1.3450 18.5448
#
#
#
# Elastic Compliance Matrix: (Units=1/GPa)
#
#
# Indices 1 2 3 4 5 6 
#
# 1 0.049546 0.008582 -0.021260 0.046193 -0.012146 -0.054098
# 2 0.008582 0.018738 -0.010527 0.031180 -0.001211 -0.029288
# 3 -0.021260 -0.010527 0.031258 -0.023413 0.002763 0.018655
# 4 0.046193 0.031180 -0.023413 0.162909 -0.018079 -0.099095
# 5 -0.012146 -0.001211 0.002763 -0.018079 0.027885 0.016862
# 6 -0.054098 -0.029288 0.018655 -0.099095 0.016862 0.147953
#
#
# Mechanical properties :
#
#
# Convention : Reuss Voigt Hill
#
# Bulk Modulus (GPa) = 18.82108 46.95082 32.88595
# Shear Modulus (GPa) = 9.95206 23.22883 16.59045
#
# Velocity S-wave (km/s) = 2.34892 3.58860 3.03278
# Velocity P-wave (km/s) = 4.21793 6.57269 5.52228
#
# Compressibility (1/GPa) = 0.05313191
#
# Stress axis : x y z
#
# Youngs Moduli (GPa) = 20.18340 53.36737 31.99214
#
# Poissons Ratio (x) = -0.45801 0.68016
# Poissons Ratio (y) = -0.17322 0.33677
# Poissons Ratio (z) = 0.42911 0.56178
#
# Static dielectric constant tensor:
#      x y z
#    x 3.186590 0.081500 0.161020 
#    y 0.081500 3.207350 -0.087970 
#    z 0.161020 -0.087970 3.137190 
# 
# 
# High freq. dielectric constant tensor:
#      x y z
#    x 1.690430 0.012240 0.013150 
#    y 0.012240 1.672450 -0.001710 
#    z 0.013150 -0.001710 1.689550 
# 
# From -- ./inp_files/145944.got.cif
#   From: 2010.06.25/outbox.cif.g09.slc.cpg/sg2_73_cif.got.tgz:145944.got - 2010.06.27 13:26:56.
