data_PCOD8028540
_publ_section_title
;
Structure prediction by ZEFSAII (Michael W. Deem and Ramdas Pophale) SiO2 
 PCOD8028540
Probable space group: P -1
;
_chemical_formula_sum "Si O2"
_cell_formula_units_Z 14
_cell_length_a 14.380365
_cell_length_b 9.657017
_cell_length_c 5.263951
_cell_angle_alpha 71.731236
_cell_angle_beta 64.696689
_cell_angle_gamma 101.503381
_cell_volume 578.306337
_symmetry_space_group_name_H-M "P -1"
_symmetry_group_IT_number 2
_symmetry_cell_setting 'triclinic'
loop_
_space_group_symop_operation_xyz
x,y,z
-x,-y,-z
loop_
_atom_site_type_symbol
_atom_site_label
_atom_site_fract_x
_atom_site_fract_y
_atom_site_fract_z
Si Si1 0.375256 0.677880 0.358030
Si Si2 0.918460 0.241996 0.853233
Si Si3 0.913219 0.866958 0.506099
Si Si4 0.243466 0.080953 0.674837
Si Si5 0.799052 0.641625 0.178997
Si Si6 0.498119 0.170923 0.381941
Si Si7 0.863233 0.371543 0.345914
O O1 0.328788 0.488851 0.577575
O O2 0.466739 0.755509 0.422957
O O3 0.270744 0.734368 0.462689
O O4 0.424781 0.721815 0.992194
O O5 0.924065 0.342825 0.537552
O O6 0.017415 0.174786 0.779378
O O7 0.923332 0.344300 0.039814
O O8 0.799499 0.091455 0.049172
O O9 0.822381 0.943689 0.502157
O O10 0.842406 0.696256 0.813121
O O11 0.000000 0.000000 0.500000
O O12 0.193199 0.200533 0.783336
O O13 0.375500 0.159152 0.462112
O O14 0.878137 0.556064 0.248308
O O15 0.500000 0.000000 0.500000
#
# Coordination Sequence:
#
# PCOD8028540 Si02
#       7
#     2   2   2   2   2   2   2
#     4  10  25  48  71 111 153 189 248 315 376 443
#     4  12  25  47  78 106 151 203 254 312 375 441
#     4  12  27  49  76 112 155 204 259 313 379 454
#     4  12  28  46  78 111 153 198 262 312 379 462
#     4  10  28  47  76 108 164 192 256 312 390 441
#     4  12  26  47  82 110 148 201 254 307 387 452
#     4  10  25  47  73 109 155 191 250 315 374 444
#
# _framework density 24.208625000000001
#
# number of rings (size 3 to 8) (size 9 to 14) (size 15 to 20)
#    0.857    0.000    1.429    4.286    8.000    2.286 
#    0.000    0.000    0.000    0.000    0.000    0.000 
#    0.000    0.000    0.000    0.000    0.000    0.000 
#
# Total GULP energy -173468.678230 kJ/mol
# GULP energy per Si atom -12390.619874 kJ/mol
# Density = 2.415352 g / cm^3
# Si number density = 24.208625 Si / 1000 Ang^3
#
#
#
# Elastic Constant Matrix: (Units=GPa)
#
#
# Indices 1 2 3 4 5 6 
#
# 1 129.8041 -6.8962 10.0513 16.6666 9.2729 -16.1112
# 2 -6.8962 107.1774 11.6964 6.3317 19.2165 -7.8426
# 3 10.0513 11.6964 116.9324 4.5558 6.4590 -7.0241
# 4 16.6666 6.3317 4.5558 41.8386 1.4952 -3.1642
# 5 9.2729 19.2165 6.4590 1.4952 38.9720 7.4789
# 6 -16.1112 -7.8426 -7.0241 -3.1642 7.4789 32.0343
#
#
#
# Elastic Compliance Matrix: (Units=1/GPa)
#
#
# Indices 1 2 3 4 5 6 
#
# 1 0.009267 0.001980 -0.000294 -0.003381 -0.004097 0.005703
# 2 0.001980 0.011212 -0.000543 -0.001803 -0.006806 0.005033
# 3 -0.000294 -0.000543 0.008853 -0.000564 -0.001482 0.001951
# 4 -0.003381 -0.001803 -0.000564 0.025560 0.000792 0.000074
# 5 -0.004097 -0.006806 -0.001482 0.000792 0.032421 -0.011543
# 6 0.005703 0.005033 0.001951 0.000074 -0.011543 0.038447
#
#
# Mechanical properties :
#
#
# Convention : Reuss Voigt Hill
#
# Bulk Modulus (GPa) = 31.62848 42.62410 37.12629
# Shear Modulus (GPa) = 37.31004 45.17313 41.24158
#
# Velocity S-wave (km/s) = 3.93006 4.32440 4.13194
# Velocity P-wave (km/s) = 5.80406 6.52527 6.17520
#
# Compressibility (1/GPa) = 0.03161707
#
# Stress axis : x y z
#
# Youngs Moduli (GPa) = 107.91406 89.18943 112.96158
#
# Poissons Ratio (x) = -0.17660 0.03320
# Poissons Ratio (y) = -0.21368 0.06136
# Poissons Ratio (z) = 0.03172 0.04845
#
# Static dielectric constant tensor:
#      x y z
#    x 4.994520 -0.093480 -0.231660 
#    y -0.093480 4.375740 -0.187780 
#    z -0.231660 -0.187780 4.655300 
# 
# 
# High freq. dielectric constant tensor:
#      x y z
#    x 1.967520 0.002530 -0.006730 
#    y 0.002530 1.964600 -0.012030 
#    z -0.006730 -0.012030 1.969310 
# 
# From -- ./inp_files/94384.got.cif
#   From: 2010.06.25/outbox.cif.g09.slc.cpg/sg2_48_cif.got.tgz:94384.got - 2010.06.27 13:26:56.
