data_PCOD8028510
_publ_section_title
;
Structure prediction by ZEFSAII (Michael W. Deem and Ramdas Pophale) SiO2 
 PCOD8028510
Probable space group: P -1
;
_chemical_formula_sum "Si O2"
_cell_formula_units_Z 16
_cell_length_a 9.117596
_cell_length_b 13.555908
_cell_length_c 6.364192
_cell_angle_alpha 77.160586
_cell_angle_beta 77.482521
_cell_angle_gamma 108.887479
_cell_volume 689.192212
_symmetry_space_group_name_H-M "P -1"
_symmetry_group_IT_number 2
_symmetry_cell_setting 'triclinic'
loop_
_space_group_symop_operation_xyz
x,y,z
-x,-y,-z
loop_
_atom_site_type_symbol
_atom_site_label
_atom_site_fract_x
_atom_site_fract_y
_atom_site_fract_z
Si Si1 0.806591 0.788247 0.416186
Si Si2 0.167499 0.999523 0.527961
Si Si3 0.367123 0.554446 0.148012
Si Si4 0.057748 0.336689 0.265431
Si Si5 0.658480 0.093885 0.808478
Si Si6 0.506561 0.408055 0.351621
Si Si7 0.931629 0.181870 0.010960
Si Si8 0.729885 0.322578 0.558602
O O1 0.736993 0.878225 0.469271
O O2 0.910785 0.762150 0.581888
O O3 0.649682 0.683543 0.449720
O O4 0.918192 0.828241 0.156099
O O5 0.265149 0.974439 0.321450
O O6 0.146117 0.918045 0.761976
O O7 0.000000 0.000000 0.500000
O O8 0.220144 0.446009 0.158076
O O9 0.472263 0.522424 0.318390
O O10 0.293916 0.639466 0.217339
O O11 0.491066 0.610326 0.893859
O O12 0.994346 0.296617 0.067507
O O13 0.919532 0.358228 0.430660
O O14 0.628373 0.189023 0.635465
O O15 0.785098 0.171198 0.904322
O O16 0.500000 0.000000 0.000000
O O17 0.668973 0.397149 0.390575
#
# Coordination Sequence:
#
# PCOD8028510 Si02
#       8
#     2   2   2   2   2   2   2   2
#     4  11  24  43  71 101 139 184 230 290 337 414
#     4  12  23  44  68 103 135 180 244 280 335 424
#     4  10  25  47  70 101 137 179 230 293 347 408
#     4  11  24  45  70 103 137 175 239 285 338 421
#     4  12  30  45  67 107 148 180 230 292 349 415
#     4  10  26  44  69 104 136 177 233 287 349 416
#     4  12  23  44  70  96 141 181 233 281 347 400
#     4  12  24  46  69 100 139 185 228 283 348 420
#
# _framework density 23.215584
#
# number of rings (size 3 to 8) (size 9 to 14) (size 15 to 20)
#    0.000    0.750    5.000    1.125    5.250    6.000 
#    0.000    0.000    0.000    0.000    0.000    0.000 
#    0.000    0.000    0.000    0.000    0.000    0.000 
#
# Total GULP energy -198347.863200 kJ/mol
# GULP energy per Si atom -12396.741450 kJ/mol
# Density = 2.316274 g / cm^3
# Si number density = 23.215584 Si / 1000 Ang^3
#
#
#
# Elastic Constant Matrix: (Units=GPa)
#
#
# Indices 1 2 3 4 5 6 
#
# 1 101.4751 46.0905 34.9417 1.3601 -18.0631 -11.6228
# 2 46.0905 107.5509 23.5871 10.8483 -17.7068 -16.5932
# 3 34.9417 23.5871 73.7789 -7.7204 -24.3978 -5.1806
# 4 1.3601 10.8483 -7.7204 32.2378 -4.6076 -8.7922
# 5 -18.0631 -17.7068 -24.3978 -4.6076 39.3381 4.0027
# 6 -11.6228 -16.5932 -5.1806 -8.7922 4.0027 39.8479
#
#
#
# Elastic Compliance Matrix: (Units=1/GPa)
#
#
# Indices 1 2 3 4 5 6 
#
# 1 0.013891 -0.004542 -0.004486 0.000496 0.001453 0.001540
# 2 -0.004542 0.012657 -0.001351 -0.003320 0.002097 0.002827
# 3 -0.004486 -0.001351 0.020571 0.007491 0.010829 0.001369
# 4 0.000496 -0.003320 0.007491 0.036861 0.006967 0.007169
# 5 0.001453 0.002097 0.010829 0.006967 0.034485 0.000778
# 6 0.001540 0.002827 0.001369 0.007169 0.000778 0.028403
#
#
# Mechanical properties :
#
#
# Convention : Reuss Voigt Hill
#
# Bulk Modulus (GPa) = 37.93422 54.67148 46.30285
# Shear Modulus (GPa) = 28.34253 34.16383 31.25318
#
# Velocity S-wave (km/s) = 3.49784 3.84029 3.67306
# Velocity P-wave (km/s) = 5.71740 6.57757 6.16251
#
# Compressibility (1/GPa) = 0.02636142
#
# Stress axis : x y z
#
# Youngs Moduli (GPa) = 71.98982 79.00772 48.61115
#
# Poissons Ratio (x) = 0.35887 0.21807
# Poissons Ratio (y) = 0.32699 0.06566
# Poissons Ratio (z) = 0.32295 0.10671
#
# Static dielectric constant tensor:
#      x y z
#    x 4.292570 -0.399760 0.121560 
#    y -0.399760 4.441100 -0.080270 
#    z 0.121560 -0.080270 4.247250 
# 
# 
# High freq. dielectric constant tensor:
#      x y z
#    x 1.917240 -0.013330 -0.006380 
#    y -0.013330 1.921560 0.003620 
#    z -0.006380 0.003620 1.930230 
# 
# From -- ./inp_files/37974.got.cif
#   From: 2010.06.25/outbox.cif.g09.slc.cpg/sg2_19_cif.got.tgz:37974.got - 2010.06.27 13:26:56.
