data_PCOD8028240
_publ_section_title
;
Structure prediction by ZEFSAII (Michael W. Deem and Ramdas Pophale) SiO2 
 PCOD8028240
Probable space group: P -1
;
_chemical_formula_sum "Si O2"
_cell_formula_units_Z 12
_cell_length_a 16.961204
_cell_length_b 12.278554
_cell_length_c 4.965685
_cell_angle_alpha 59.204732
_cell_angle_beta 117.654631
_cell_angle_gamma 148.521736
_cell_volume 462.993652
_symmetry_space_group_name_H-M "P -1"
_symmetry_group_IT_number 2
_symmetry_cell_setting 'triclinic'
loop_
_space_group_symop_operation_xyz
x,y,z
-x,-y,-z
loop_
_atom_site_type_symbol
_atom_site_label
_atom_site_fract_x
_atom_site_fract_y
_atom_site_fract_z
Si Si1 0.616701 0.457845 0.199526
Si Si2 0.186311 0.950891 0.445975
Si Si3 0.149396 0.465791 0.651809
Si Si4 0.482860 0.913303 0.300490
Si Si5 0.162354 0.647929 0.952577
Si Si6 0.673457 0.767190 0.192722
O O1 0.743173 0.532137 0.129280
O O2 0.504270 0.399907 0.891135
O O3 0.523155 0.244363 0.498255
O O4 0.691844 0.641501 0.296150
O O5 0.232332 0.033825 0.107632
O O6 0.240689 0.872011 0.702330
O O7 0.268176 0.147925 0.519517
O O8 0.006718 0.763012 0.432556
O O9 0.239523 0.655719 0.326432
O O10 0.114563 0.502601 0.814959
O O11 0.625589 0.140300 0.047455
O O12 0.500000 0.000000 0.500000
O O13 0.000000 0.500000 0.000000
#
# Coordination Sequence:
#
# PCOD8028240 Si02
#       6
#     2   2   2   2   2   2
#     4  10  25  45  64  96 130 170 212 260 325 372
#     4  12  24  43  66  97 127 171 217 257 318 382
#     4  11  24  41  68  94 130 167 212 270 318 374
#     4  11  21  36  62  91 122 157 203 258 309 370
#     4  11  22  39  64  96 129 165 208 268 324 372
#     4  11  26  43  66  90 133 173 212 262 309 387
#
# _framework density 25.918279999999999
#
# number of rings (size 3 to 8) (size 9 to 14) (size 15 to 20)
#    0.000    1.000    0.000    7.000    0.000   10.667 
#    0.000    0.000    0.000    0.000    0.000    0.000 
#    0.000    0.000    0.000    0.000    0.000    0.000 
#
# Total GULP energy -148764.600977 kJ/mol
# GULP energy per Si atom -12397.050081 kJ/mol
# Density = 2.585929 g / cm^3
# Si number density = 25.918280 Si / 1000 Ang^3
#
#
#
# Elastic Constant Matrix: (Units=GPa)
#
#
# Indices 1 2 3 4 5 6 
#
# 1 161.7506 48.4991 36.1187 9.3723 2.8510 -17.1475
# 2 48.4991 118.5980 15.4264 16.7819 4.3398 -15.5029
# 3 36.1187 15.4264 85.1462 10.0627 -16.9190 -4.7509
# 4 9.3723 16.7819 10.0627 38.6978 -9.5246 -0.7652
# 5 2.8510 4.3398 -16.9190 -9.5246 42.3565 0.4910
# 6 -17.1475 -15.5029 -4.7509 -0.7652 0.4910 49.0080
#
#
#
# Elastic Compliance Matrix: (Units=1/GPa)
#
#
# Indices 1 2 3 4 5 6 
#
# 1 0.007834 -0.002474 -0.003054 -0.000391 -0.001601 0.001672
# 2 -0.002474 0.010520 -0.000649 -0.004280 -0.002160 0.002354
# 3 -0.003054 -0.000649 0.014459 -0.001323 0.005749 0.000050
# 4 -0.000391 -0.004280 -0.001323 0.029746 0.006639 -0.001221
# 5 -0.001601 -0.002160 0.005749 0.006639 0.027738 -0.000860
# 6 0.001672 0.002354 0.000050 -0.001221 -0.000860 0.021729
#
#
# Mechanical properties :
#
#
# Convention : Reuss Voigt Hill
#
# Bulk Modulus (GPa) = 48.87343 62.84258 55.85801
# Shear Modulus (GPa) = 38.11010 43.70918 40.90964
#
# Velocity S-wave (km/s) = 3.83873 4.11106 3.97723
# Velocity P-wave (km/s) = 6.20850 6.84350 6.53372
#
# Compressibility (1/GPa) = 0.02046101
#
# Stress axis : x y z
#
# Youngs Moduli (GPa) = 127.64563 95.05488 69.16146
#
# Poissons Ratio (x) = 0.23516 0.21119
# Poissons Ratio (y) = 0.31578 0.04486
# Poissons Ratio (z) = 0.38977 0.06166
#
# Static dielectric constant tensor:
#      x y z
#    x 5.133350 0.776590 0.188810 
#    y 0.776590 5.240490 -0.251960 
#    z 0.188810 -0.251960 4.760800 
# 
# 
# High freq. dielectric constant tensor:
#      x y z
#    x 2.065990 0.033740 -0.003280 
#    y 0.033740 2.062480 -0.013350 
#    z -0.003280 -0.013350 2.047620 
# 
# From -- ./inp_files/107999.got.cif
#   From: 2010.06.25/outbox.cif.g09.slc.cpg/sg2_54_cif.got.tgz:107999.got - 2010.06.27 13:26:56.
