data_PCOD8028286
_publ_section_title
;
Structure prediction by ZEFSAII (Michael W. Deem and Ramdas Pophale) SiO2 
 PCOD8028286
Probable space group: P -1
;
_chemical_formula_sum "Si O2"
_cell_formula_units_Z 16
_cell_length_a 22.744007
_cell_length_b 5.091794
_cell_length_c 10.014244
_cell_angle_alpha 64.357687
_cell_angle_beta 134.785127
_cell_angle_gamma 96.197099
_cell_volume 706.044725
_symmetry_space_group_name_H-M "P -1"
_symmetry_group_IT_number 2
_symmetry_cell_setting 'triclinic'
loop_
_space_group_symop_operation_xyz
x,y,z
-x,-y,-z
loop_
_atom_site_type_symbol
_atom_site_label
_atom_site_fract_x
_atom_site_fract_y
_atom_site_fract_z
Si Si1 0.384072 0.730692 0.131791
Si Si2 0.445890 0.781479 0.500105
Si Si3 0.878959 0.836359 0.525475
Si Si4 0.304205 0.158546 0.681506
Si Si5 0.786802 0.352223 0.069680
Si Si6 0.016241 0.843303 0.202201
Si Si7 0.172662 0.036548 0.029840
Si Si8 0.683136 0.195738 0.486196
O O1 0.380795 0.798653 0.269511
O O2 0.482115 0.545108 0.287538
O O3 0.309130 0.563358 0.033095
O O4 0.357416 0.029391 0.929942
O O5 0.388703 0.884737 0.518222
O O6 0.500000 0.000000 0.500000
O O7 0.798652 0.741472 0.478255
O O8 0.953098 0.524178 0.677035
O O9 0.852224 0.047459 0.306311
O O10 0.911757 0.035246 0.640372
O O11 0.333695 0.442930 0.619260
O O12 0.327787 0.906774 0.658182
O O13 0.819840 0.642457 0.084586
O O14 0.784020 0.256226 0.931379
O O15 0.927641 0.939919 0.122613
O O16 0.000000 0.000000 0.000000
O O17 0.221314 0.974984 0.264279
#
# Coordination Sequence:
#
# PCOD8028286 Si02
#       8
#     2   2   2   2   2   2   2   2
#     4  10  25  45  69 101 135 180 222 274 345 399
#     4  11  25  45  73  98 138 177 226 276 337 411
#     4  11  24  44  66  96 136 174 226 272 342 391
#     4  11  26  45  70 100 139 179 223 282 333 403
#     4  11  24  43  69  98 130 177 220 279 332 403
#     4  12  25  42  64  95 133 181 219 280 336 397
#     4  12  24  41  68  97 135 172 230 274 335 392
#     4  12  26  45  70 102 136 179 229 277 335 404
#
# _framework density 22.661452000000001
#
# number of rings (size 3 to 8) (size 9 to 14) (size 15 to 20)
#    0.000    0.750    1.250    5.625    5.250    6.000 
#    0.000    0.000    0.000    0.000    0.000    0.000 
#    0.000    0.000    0.000    0.000    0.000    0.000 
#
# Total GULP energy -198449.523920 kJ/mol
# GULP energy per Si atom -12403.095245 kJ/mol
# Density = 2.260987 g / cm^3
# Si number density = 22.661452 Si / 1000 Ang^3
#
#
#
# Elastic Constant Matrix: (Units=GPa)
#
#
# Indices 1 2 3 4 5 6 
#
# 1 99.8545 10.5603 31.7345 -1.3042 3.7266 3.0383
# 2 10.5603 93.7429 17.1999 -1.6283 -1.4469 7.5101
# 3 31.7345 17.1999 120.9155 -4.1562 0.5784 5.2178
# 4 -1.3042 -1.6283 -4.1562 22.4982 2.8382 -4.5335
# 5 3.7266 -1.4469 0.5784 2.8382 22.8034 0.1990
# 6 3.0383 7.5101 5.2178 -4.5335 0.1990 41.9589
#
#
#
# Elastic Compliance Matrix: (Units=1/GPa)
#
#
# Indices 1 2 3 4 5 6 
#
# 1 0.011051 -0.000738 -0.002766 0.000246 -0.001811 -0.000289
# 2 -0.000738 0.011149 -0.001318 0.000053 0.000870 -0.001777
# 3 -0.002766 -0.001318 0.009254 0.001343 -0.000029 -0.000569
# 4 0.000246 0.000053 0.001343 0.046435 -0.005893 0.004851
# 5 -0.001811 0.000870 -0.000029 -0.005893 0.044946 -0.000871
# 6 -0.000289 -0.001777 -0.000569 0.004851 -0.000871 0.024771
#
#
# Mechanical properties :
#
#
# Convention : Reuss Voigt Hill
#
# Bulk Modulus (GPa) = 45.84776 48.16692 47.00734
# Shear Modulus (GPa) = 30.39134 34.45332 32.42233
#
# Velocity S-wave (km/s) = 3.66608 3.90340 3.78660
# Velocity P-wave (km/s) = 6.18027 6.45108 6.31713
#
# Compressibility (1/GPa) = 0.02181132
#
# Stress axis : x y z
#
# Youngs Moduli (GPa) = 90.48779 89.69327 108.05586
#
# Poissons Ratio (x) = 0.06619 0.29886
# Poissons Ratio (y) = 0.06678 0.14241
# Poissons Ratio (z) = 0.25027 0.11821
#
# Static dielectric constant tensor:
#      x y z
#    x 4.428550 0.042750 0.489800 
#    y 0.042750 4.878780 0.388480 
#    z 0.489800 0.388480 4.951840 
# 
# 
# High freq. dielectric constant tensor:
#      x y z
#    x 1.898810 0.006850 0.002260 
#    y 0.006850 1.893400 -0.001100 
#    z 0.002260 -0.001100 1.906700 
# 
# From -- ./inp_files/39901.got.cif
#   From: 2010.06.25/outbox.cif.g09.slc.cpg/sg2_20_cif.got.tgz:39901.got - 2010.06.27 13:26:56.
