data_PCOD8028241
_publ_section_title
;
Structure prediction by ZEFSAII (Michael W. Deem and Ramdas Pophale) SiO2 
 PCOD8028241
Probable space group: P -1
;
_chemical_formula_sum "Si O2"
_cell_formula_units_Z 12
_cell_length_a 9.704282
_cell_length_b 9.920736
_cell_length_c 9.425838
_cell_angle_alpha 63.952753
_cell_angle_beta 89.306476
_cell_angle_gamma 135.955910
_cell_volume 482.502665
_symmetry_space_group_name_H-M "P -1"
_symmetry_group_IT_number 2
_symmetry_cell_setting 'triclinic'
loop_
_space_group_symop_operation_xyz
x,y,z
-x,-y,-z
loop_
_atom_site_type_symbol
_atom_site_label
_atom_site_fract_x
_atom_site_fract_y
_atom_site_fract_z
Si Si1 0.820737 0.506748 0.100403
Si Si2 0.314715 0.669598 0.347939
Si Si3 0.680000 0.071180 0.366999
Si Si4 0.359314 0.247691 0.198601
Si Si5 0.116157 0.294501 0.297918
Si Si6 0.899214 0.217825 0.763893
O O1 0.841837 0.344384 0.171655
O O2 0.553570 0.315038 0.243332
O O3 0.009752 0.740014 0.099321
O O4 0.871857 0.623520 0.895249
O O5 0.116788 0.466639 0.558026
O O6 0.290009 0.814225 0.214783
O O7 0.560595 0.874807 0.331386
O O8 0.693376 0.462405 0.714065
O O9 0.850339 0.106623 0.439360
O O10 0.500000 0.000000 0.500000
O O11 0.175404 0.168627 0.345579
O O12 0.500000 0.500000 0.000000
O O13 0.213304 0.029109 0.185073
#
# Coordination Sequence:
#
# PCOD8028241 Si02
#       6
#     2   2   2   2   2   2
#     4  11  23  43  70  95 131 178 218 270 325 390
#     4  11  23  39  68 102 129 170 221 274 325 384
#     4  12  22  42  69  99 131 172 222 271 326 388
#     4  10  25  45  64  96 139 175 211 273 335 385
#     4  11  26  42  64 103 133 167 224 276 322 383
#     4  11  22  42  70  95 132 177 219 265 331 392
#
# _framework density 24.870327
#
# number of rings (size 3 to 8) (size 9 to 14) (size 15 to 20)
#    0.000    1.000    5.000    1.500    0.000    8.000 
#    0.000    1.667    0.000    0.000    0.000    0.000 
#    0.000    0.000    0.000    0.000    0.000    0.000 
#
# Total GULP energy -148814.088790 kJ/mol
# GULP energy per Si atom -12401.174066 kJ/mol
# Density = 2.481372 g / cm^3
# Si number density = 24.870327 Si / 1000 Ang^3
#
#
#
# Elastic Constant Matrix: (Units=GPa)
#
#
# Indices 1 2 3 4 5 6 
#
# 1 121.7855 49.6837 -8.6184 -7.5631 -0.9650 5.6414
# 2 49.6837 241.0980 -11.8771 -0.5108 5.7993 8.8077
# 3 -8.6184 -11.8771 15.0388 4.9420 -7.3015 8.8864
# 4 -7.5631 -0.5108 4.9420 38.8166 4.0798 3.1782
# 5 -0.9650 5.7993 -7.3015 4.0798 33.5465 -1.7663
# 6 5.6414 8.8077 8.8864 3.1782 -1.7663 30.1449
#
#
#
# Elastic Compliance Matrix: (Units=1/GPa)
#
#
# Indices 1 2 3 4 5 6 
#
# 1 0.009552 -0.001557 0.006665 0.001086 0.001688 -0.003313
# 2 -0.001557 0.004774 0.004512 -0.000628 0.000064 -0.002364
# 3 0.006665 0.004512 0.107562 -0.012122 0.022630 -0.031670
# 4 0.001086 -0.000628 -0.012122 0.028109 -0.005904 0.000244
# 5 0.001688 0.000064 0.022630 -0.005904 0.035263 -0.004317
# 6 -0.003313 -0.002364 -0.031670 0.000244 -0.004317 0.043541
#
#
# Mechanical properties :
#
#
# Convention : Reuss Voigt Hill
#
# Bulk Modulus (GPa) = 7.08577 48.47765 27.78171
# Shear Modulus (GPa) = 19.48510 43.75053 31.61781
#
# Velocity S-wave (km/s) = 2.80209 4.19877 3.56941
# Velocity P-wave (km/s) = 3.65023 6.56054 5.30871
#
# Compressibility (1/GPa) = 0.14112786
#
# Stress axis : x y z
#
# Youngs Moduli (GPa) = 104.68515 209.44986 9.29695
#
# Poissons Ratio (x) = 0.32621 -0.06196
# Poissons Ratio (y) = 0.16304 -0.04195
# Poissons Ratio (z) = -0.69768 -0.94511
#
# Static dielectric constant tensor:
#      x y z
#    x 6.046070 0.163840 -0.620060 
#    y 0.163840 4.858220 -0.252380 
#    z -0.620060 -0.252380 4.761380 
# 
# 
# High freq. dielectric constant tensor:
#      x y z
#    x 1.998640 0.002090 -0.000770 
#    y 0.002090 1.991700 -0.005850 
#    z -0.000770 -0.005850 2.001750 
# 
# From -- ./inp_files/378302.got.cif
#   From: 2010.06.25/outbox.cif.g09.slc.cpg/sg2_190_cif.got.tgz:378302.got - 2010.06.27 13:26:56.
