data_PCOD8028488
_publ_section_title
;
Structure prediction by ZEFSAII (Michael W. Deem and Ramdas Pophale) SiO2 
 PCOD8028488
Probable space group: P -1
;
_chemical_formula_sum "Si O2"
_cell_formula_units_Z 16
_cell_length_a 14.130339
_cell_length_b 11.442312
_cell_length_c 8.644979
_cell_angle_alpha 84.612264
_cell_angle_beta 76.183039
_cell_angle_gamma 30.348330
_cell_volume 667.614284
_symmetry_space_group_name_H-M "P -1"
_symmetry_group_IT_number 2
_symmetry_cell_setting 'triclinic'
loop_
_space_group_symop_operation_xyz
x,y,z
-x,-y,-z
loop_
_atom_site_type_symbol
_atom_site_label
_atom_site_fract_x
_atom_site_fract_y
_atom_site_fract_z
Si Si1 0.909113 0.816497 0.935888
Si Si2 0.418913 0.721114 0.189513
Si Si3 0.800095 0.393907 0.914098
Si Si4 0.178289 0.757340 0.370096
Si Si5 0.507752 0.634315 0.498196
Si Si6 0.035092 0.527975 0.667448
Si Si7 0.320090 0.029648 0.708585
Si Si8 0.740297 0.663478 0.679701
O O1 0.049355 0.578831 0.819324
O O2 0.781282 0.013941 0.830553
O O3 0.050941 0.757420 0.980882
O O4 0.763776 0.903517 0.096785
O O5 0.358146 0.652594 0.261201
O O6 0.492538 0.705082 0.322893
O O7 0.597950 0.539990 0.021088
O O8 0.905836 0.212818 0.756071
O O9 0.753869 0.569302 0.839664
O O10 0.284888 0.553736 0.471680
O O11 0.000000 0.000000 0.500000
O O12 0.500000 0.500000 0.500000
O O13 0.344202 0.877063 0.632794
O O14 0.111218 0.528800 0.495272
O O15 0.808875 0.721655 0.702251
O O16 0.169785 0.269200 0.645180
O O17 0.521294 0.891841 0.667908
#
# Coordination Sequence:
#
# PCOD8028488 Si02
#       8
#     2   2   2   2   2   2   2   2
#     4  12  28  44  74 111 150 188 245 300 367 437
#     4  11  27  47  73 108 151 192 238 298 367 434
#     4  12  26  47  74 105 152 193 239 304 368 437
#     4  11  26  48  78 109 142 194 248 300 361 439
#     4  10  25  46  77 106 145 187 241 297 365 435
#     4  11  28  46  70 108 146 193 251 300 357 438
#     4  12  24  48  73 106 146 193 240 302 365 434
#     4  11  25  46  73  98 146 195 249 294 363 423
#
# _framework density 23.965935000000002
#
# number of rings (size 3 to 8) (size 9 to 14) (size 15 to 20)
#    0.000    0.750    3.750    1.125   12.250    3.000 
#    0.000    0.000    0.000    0.000    0.000    0.000 
#    0.000    0.000    0.000    0.000    0.000    0.000 
#
# Total GULP energy -198259.792407 kJ/mol
# GULP energy per Si atom -12391.237025 kJ/mol
# Density = 2.391139 g / cm^3
# Si number density = 23.965935 Si / 1000 Ang^3
#
#
#
# Elastic Constant Matrix: (Units=GPa)
#
#
# Indices 1 2 3 4 5 6 
#
# 1 107.4473 36.9060 40.8552 3.5746 15.8859 -30.7391
# 2 36.9060 117.2096 52.7493 -4.3435 22.4858 -7.0112
# 3 40.8552 52.7493 137.3272 -8.3756 36.1058 -17.8779
# 4 3.5746 -4.3435 -8.3756 40.0298 2.0137 -0.2830
# 5 15.8859 22.4858 36.1058 2.0137 49.9267 7.3472
# 6 -30.7391 -7.0112 -17.8779 -0.2830 7.3472 26.7274
#
#
#
# Elastic Compliance Matrix: (Units=1/GPa)
#
#
# Indices 1 2 3 4 5 6 
#
# 1 0.017651 -0.003122 0.000913 -0.001158 -0.008107 0.022309
# 2 -0.003122 0.011122 -0.003268 0.000851 -0.001321 -0.002487
# 3 0.000913 -0.003268 0.012381 0.002712 -0.009518 0.011119
# 4 -0.001158 0.000851 0.002712 0.025924 -0.003299 0.001886
# 5 -0.008107 -0.001321 -0.009518 -0.003299 0.033959 -0.025407
# 6 0.022309 -0.002487 0.011119 0.001886 -0.025407 0.076862
#
#
# Mechanical properties :
#
#
# Convention : Reuss Voigt Hill
#
# Bulk Modulus (GPa) = 33.11262 69.22279 51.16770
# Shear Modulus (GPa) = 25.13592 38.76835 31.95214
#
# Velocity S-wave (km/s) = 3.24206 4.02636 3.65531
# Velocity P-wave (km/s) = 5.27837 7.11069 6.26191
#
# Compressibility (1/GPa) = 0.03019996
#
# Stress axis : x y z
#
# Youngs Moduli (GPa) = 56.65255 89.91582 80.76930
#
# Poissons Ratio (x) = 0.28072 -0.07373
# Poissons Ratio (y) = 0.17687 0.26394
# Poissons Ratio (z) = -0.05172 0.29383
#
# Static dielectric constant tensor:
#      x y z
#    x 4.364310 -0.196480 0.106310 
#    y -0.196480 4.284880 -0.328850 
#    z 0.106310 -0.328850 4.643280 
# 
# 
# High freq. dielectric constant tensor:
#      x y z
#    x 1.948570 -0.016560 0.007200 
#    y -0.016560 1.940660 -0.016000 
#    z 0.007200 -0.016000 1.969410 
# 
# From -- ./inp_files/307522.got.cif
#   From: 2010.06.25/outbox.cif.g09.slc.cpg/sg2_154_cif.got.tgz:307522.got - 2010.06.27 13:26:56.
