data_PCOD8028125
_publ_section_title
;
Structure prediction by ZEFSAII (Michael W. Deem and Ramdas Pophale) SiO2 
 PCOD8028125
Probable space group: P -1
;
_chemical_formula_sum "Si O2"
_cell_formula_units_Z 10
_cell_length_a 8.752011
_cell_length_b 5.054927
_cell_length_c 9.937007
_cell_angle_alpha 105.755420
_cell_angle_beta 86.222641
_cell_angle_gamma 81.241902
_cell_volume 415.505486
_symmetry_space_group_name_H-M "P -1"
_symmetry_group_IT_number 2
_symmetry_cell_setting 'triclinic'
loop_
_space_group_symop_operation_xyz
x,y,z
-x,-y,-z
loop_
_atom_site_type_symbol
_atom_site_label
_atom_site_fract_x
_atom_site_fract_y
_atom_site_fract_z
Si Si1 0.757799 0.447938 0.480610
Si Si2 0.517488 0.118006 0.370338
Si Si3 0.562786 0.187332 0.914315
Si Si4 0.998735 0.346652 0.673461
Si Si5 0.923126 0.971400 0.857149
O O1 0.679210 0.233643 0.365844
O O2 0.628746 0.631072 0.608901
O O3 0.887249 0.276749 0.548941
O O4 0.832103 0.643287 0.398635
O O5 0.500000 0.000000 0.500000
O O6 0.512299 0.872931 0.231445
O O7 0.748142 0.136488 0.891045
O O8 0.500000 0.500000 0.000000
O O9 0.500000 0.000000 0.000000
O O10 0.927132 0.647751 0.781393
O O11 0.014785 0.108206 0.753494
O O12 0.000000 0.000000 0.000000
#
# Coordination Sequence:
#
# PCOD8028125 Si02
#       5
#     2   2   2   2   2
#     4  10  25  43  76 110 143 190 243 320 372 436
#     4  11  25  45  77 109 147 191 256 305 368 447
#     4  12  29  50  75 107 154 198 246 304 377 443
#     4  11  25  47  74 108 148 186 248 310 378 430
#     4  12  27  48  73 106 149 200 250 301 370 457
#
# _framework density 24.067069
#
# number of rings (size 3 to 8) (size 9 to 14) (size 15 to 20)
#    0.000    0.800    2.000    3.000   11.200    1.600 
#    0.000    0.000    0.000    0.000    0.000    0.000 
#    0.000    0.000    0.000    0.000    0.000    0.000 
#
# Total GULP energy -124067.045113 kJ/mol
# GULP energy per Si atom -12406.704511 kJ/mol
# Density = 2.401229 g / cm^3
# Si number density = 24.067069 Si / 1000 Ang^3
#
#
#
# Elastic Constant Matrix: (Units=GPa)
#
#
# Indices 1 2 3 4 5 6 
#
# 1 161.6129 27.5889 66.1950 0.1625 18.8736 24.2394
# 2 27.5889 90.0243 41.5737 -5.3196 11.5974 17.5841
# 3 66.1950 41.5737 169.1012 -3.6110 28.3788 15.0621
# 4 0.1625 -5.3196 -3.6110 62.9777 5.9598 -10.9478
# 5 18.8736 11.5974 28.3788 5.9598 42.3509 0.4714
# 6 24.2394 17.5841 15.0621 -10.9478 0.4714 29.7695
#
#
#
# Elastic Compliance Matrix: (Units=1/GPa)
#
#
# Indices 1 2 3 4 5 6 
#
# 1 0.008279 -0.000115 -0.002409 -0.001002 -0.001838 -0.005793
# 2 -0.000115 0.013856 -0.002407 0.000041 -0.002060 -0.006825
# 3 -0.002409 -0.002407 0.008139 0.000546 -0.003792 -0.000474
# 4 -0.001002 0.000041 0.000546 0.017354 -0.002450 0.006936
# 5 -0.001838 -0.002060 -0.003792 -0.002450 0.027845 0.003290
# 6 -0.005793 -0.006825 -0.000474 0.006936 0.003290 0.045078
#
#
# Mechanical properties :
#
#
# Convention : Reuss Voigt Hill
#
# Bulk Modulus (GPa) = 48.99499 76.82816 62.91157
# Shear Modulus (GPa) = 36.43888 46.04502 41.24195
#
# Velocity S-wave (km/s) = 3.89531 4.37875 4.14409
# Velocity P-wave (km/s) = 6.37441 7.58660 7.00677
#
# Compressibility (1/GPa) = 0.02041025
#
# Stress axis : x y z
#
# Youngs Moduli (GPa) = 120.79243 72.17174 122.86871
#
# Poissons Ratio (x) = 0.00833 0.29603
# Poissons Ratio (y) = 0.01394 0.29572
# Poissons Ratio (z) = 0.29103 0.17370
#
# Static dielectric constant tensor:
#      x y z
#    x 4.750810 0.019010 -0.096910 
#    y 0.019010 4.215400 0.072890 
#    z -0.096910 0.072890 4.519720 
# 
# 
# High freq. dielectric constant tensor:
#      x y z
#    x 1.973780 0.004020 -0.000580 
#    y 0.004020 1.961910 0.005860 
#    z -0.000580 0.005860 1.959580 
# 
# From -- ./inp_files/15238.got.cif
#   From: 2010.06.25/outbox.cif.g09.slc.cpg/sg2_8_cif.got.tgz:15238.got - 2010.06.27 13:26:56.
