data_PCOD8028319
_publ_section_title
;
Structure prediction by ZEFSAII (Michael W. Deem and Ramdas Pophale) SiO2 
 PCOD8028319
Probable space group: P -1
;
_chemical_formula_sum "Si O2"
_cell_formula_units_Z 14
_cell_length_a 8.776443
_cell_length_b 21.181091
_cell_length_c 16.661667
_cell_angle_alpha 160.819653
_cell_angle_beta 133.480157
_cell_angle_gamma 46.804549
_cell_volume 730.572856
_symmetry_space_group_name_H-M "P -1"
_symmetry_group_IT_number 2
_symmetry_cell_setting 'triclinic'
loop_
_space_group_symop_operation_xyz
x,y,z
-x,-y,-z
loop_
_atom_site_type_symbol
_atom_site_label
_atom_site_fract_x
_atom_site_fract_y
_atom_site_fract_z
Si Si1 0.990946 0.787381 0.904001
Si Si2 0.382920 0.696993 0.728447
Si Si3 0.524899 0.343872 0.616034
Si Si4 0.223815 0.982534 0.602310
Si Si5 0.323875 0.012052 0.846706
Si Si6 0.459519 0.749338 0.005605
Si Si7 0.947867 0.653442 0.557561
O O1 0.230184 0.833258 0.059934
O O2 0.966116 0.570703 0.662395
O O3 0.928601 0.796021 0.798595
O O4 0.837403 0.948904 0.091485
O O5 0.500000 0.500000 0.500000
O O6 0.476834 0.872325 0.929932
O O7 0.420215 0.690180 0.829334
O O8 0.128447 0.722013 0.647603
O O9 0.579841 0.215817 0.400516
O O10 0.558641 0.561516 0.868427
O O11 0.286811 0.327798 0.542337
O O12 0.678705 0.246701 0.626710
O O13 0.202942 0.081704 0.802402
O O14 0.382274 0.091928 0.737835
O O15 0.000000 0.000000 0.500000
#
# Coordination Sequence:
#
# PCOD8028319 Si02
#       7
#     2   2   2   2   2   2   2
#     4   9  16  31  51  76 110 145 165 209 260 311
#     4  10  17  30  51  78 110 149 170 200 259 307
#     4   9  20  34  53  81 103 137 185 210 261 312
#     4   9  20  39  58  75 101 135 179 229 271 303
#     4   9  19  32  50  81 105 136 184 211 251 315
#     4   9  19  36  54  76 108 138 173 213 267 312
#     4   9  17  29  50  74 113 147 168 204 259 311
#
# _framework density 19.163043999999999
#
# number of rings (size 3 to 8) (size 9 to 14) (size 15 to 20)
#    0.857    2.000    1.429    0.857    0.000    1.714 
#    0.000    0.714    0.000    3.429    0.000    0.000 
#    0.000    0.000    0.000    0.000    0.000    0.000 
#
# Total GULP energy -173445.586183 kJ/mol
# GULP energy per Si atom -12388.970442 kJ/mol
# Density = 1.911943 g / cm^3
# Si number density = 19.163044 Si / 1000 Ang^3
#
#
#
# Elastic Constant Matrix: (Units=GPa)
#
#
# Indices 1 2 3 4 5 6 
#
# 1 107.3657 14.7210 20.7795 0.5298 9.5997 -23.2870
# 2 14.7210 69.1785 5.6438 5.6366 13.8063 -15.6015
# 3 20.7795 5.6438 38.3918 4.6828 17.5871 -4.0635
# 4 0.5298 5.6366 4.6828 25.3529 -2.9224 2.8835
# 5 9.5997 13.8063 17.5871 -2.9224 32.5243 0.3001
# 6 -23.2870 -15.6015 -4.0635 2.8835 0.3001 19.3336
#
#
#
# Elastic Compliance Matrix: (Units=1/GPa)
#
#
# Indices 1 2 3 4 5 6 
#
# 1 0.014114 0.002360 -0.004225 -0.002515 -0.003279 0.018442
# 2 0.002360 0.022773 0.006041 -0.010701 -0.014816 0.024315
# 3 -0.004225 0.006041 0.041721 -0.013100 -0.025155 0.010899
# 4 -0.002515 -0.010701 -0.013100 0.048745 0.016951 -0.021951
# 5 -0.003279 -0.014816 -0.025155 0.016951 0.053355 -0.024548
# 6 0.018442 0.024315 0.010899 -0.021951 -0.024548 0.099503
#
#
# Mechanical properties :
#
#
# Convention : Reuss Voigt Hill
#
# Bulk Modulus (GPa) = 11.49984 33.02497 22.26240
# Shear Modulus (GPa) = 16.61985 27.02825 21.82405
#
# Velocity S-wave (km/s) = 2.94817 3.75965 3.37836
# Velocity P-wave (km/s) = 4.19559 6.00980 5.18270
#
# Compressibility (1/GPa) = 0.08695775
#
# Stress axis : x y z
#
# Youngs Moduli (GPa) = 70.85342 43.91205 23.96895
#
# Poissons Ratio (x) = -0.10362 0.10128
# Poissons Ratio (y) = -0.16719 -0.14479
# Poissons Ratio (z) = 0.29937 -0.26527
#
# Static dielectric constant tensor:
#      x y z
#    x 3.565220 -0.200550 0.189010 
#    y -0.200550 3.176880 0.138350 
#    z 0.189010 0.138350 3.259940 
# 
# 
# High freq. dielectric constant tensor:
#      x y z
#    x 1.744140 -0.024240 0.018560 
#    y -0.024240 1.717730 0.022310 
#    z 0.018560 0.022310 1.721660 
# 
# From -- ./inp_files/180909.got.cif
#   From: 2010.06.25/outbox.cif.g09.slc.cpg/sg2_91_cif.got.tgz:180909.got - 2010.06.27 13:26:56.
