data_PCOD8028200
_publ_section_title
;
Structure prediction by ZEFSAII (Michael W. Deem and Ramdas Pophale) SiO2 
 PCOD8028200
Probable space group: P -1
;
_chemical_formula_sum "Si O2"
_cell_formula_units_Z 14
_cell_length_a 14.016660
_cell_length_b 8.961140
_cell_length_c 11.507179
_cell_angle_alpha 58.242244
_cell_angle_beta 51.791879
_cell_angle_gamma 29.119792
_cell_volume 552.312902
_symmetry_space_group_name_H-M "P -1"
_symmetry_group_IT_number 2
_symmetry_cell_setting 'triclinic'
loop_
_space_group_symop_operation_xyz
x,y,z
-x,-y,-z
loop_
_atom_site_type_symbol
_atom_site_label
_atom_site_fract_x
_atom_site_fract_y
_atom_site_fract_z
Si Si1 0.744121 0.412994 0.832023
Si Si2 0.820617 0.806515 0.783279
Si Si3 0.401694 0.454594 0.727414
Si Si4 0.198130 0.435125 0.485819
Si Si5 0.276506 0.953648 0.005562
Si Si6 0.074903 0.688624 0.042471
Si Si7 0.547089 0.204656 0.467562
O O1 0.864315 0.394081 0.657056
O O2 0.704255 0.267628 0.870163
O O3 0.897419 0.201938 0.918159
O O4 0.508639 0.767775 0.894135
O O5 0.811924 0.608050 0.853279
O O6 0.002783 0.678604 0.620986
O O7 0.602342 0.159131 0.772334
O O8 0.860042 0.783717 0.901253
O O9 0.422722 0.364776 0.616848
O O10 0.366741 0.704767 0.665215
O O11 0.194159 0.605648 0.870177
O O12 0.392948 0.314369 0.439889
O O13 0.256295 0.164509 0.521811
O O14 0.160154 0.094981 0.908598
#
# Coordination Sequence:
#
# PCOD8028200 Si02
#       7
#     2   2   2   2   2   2   2
#     4  11  26  47  72 107 147 186 238 299 353 423
#     4  12  26  46  72 107 144 191 237 294 359 424
#     4  11  24  46  71 104 146 186 239 296 351 423
#     4  11  26  45  71 103 146 183 237 298 354 422
#     4  11  26  46  74 106 143 190 240 290 361 424
#     4  12  26  44  75 105 145 188 239 295 354 426
#     4  10  25  44  71 101 143 189 236 289 362 420
#
# _framework density 25.347951999999999
#
# number of rings (size 3 to 8) (size 9 to 14) (size 15 to 20)
#    0.000    0.857    1.429    3.857    8.000    8.000 
#    0.000    0.000    0.000    0.000    0.000    0.000 
#    0.000    0.000    0.000    0.000    0.000    0.000 
#
# Total GULP energy -173670.127068 kJ/mol
# GULP energy per Si atom -12405.009076 kJ/mol
# Density = 2.529026 g / cm^3
# Si number density = 25.347952 Si / 1000 Ang^3
#
#
#
# Elastic Constant Matrix: (Units=GPa)
#
#
# Indices 1 2 3 4 5 6 
#
# 1 83.1414 4.7929 24.1322 7.0124 9.2230 -11.2154
# 2 4.7929 54.5953 9.2739 1.7305 -5.5285 -2.6407
# 3 24.1322 9.2739 127.0155 5.2876 0.7935 -6.8461
# 4 7.0124 1.7305 5.2876 41.1385 -0.6496 2.0179
# 5 9.2230 -5.5285 0.7935 -0.6496 32.8133 -0.4519
# 6 -11.2154 -2.6407 -6.8461 2.0179 -0.4519 38.0362
#
#
#
# Elastic Compliance Matrix: (Units=1/GPa)
#
#
# Indices 1 2 3 4 5 6 
#
# 1 0.013871 -0.000991 -0.002244 -0.002278 -0.004006 0.003690
# 2 -0.000991 0.019013 -0.001154 -0.000470 0.003513 0.000887
# 3 -0.002244 -0.001154 0.008455 -0.000692 0.000229 0.000819
# 4 -0.002278 -0.000470 -0.000692 0.024927 0.001042 -0.002139
# 5 -0.004006 0.003513 0.000229 0.001042 0.032201 -0.000569
# 6 0.003690 0.000887 0.000819 -0.002139 -0.000569 0.027695
#
#
# Mechanical properties :
#
#
# Convention : Reuss Voigt Hill
#
# Bulk Modulus (GPa) = 30.71337 37.90557 34.30947
# Shear Modulus (GPa) = 34.29495 37.50114 35.89804
#
# Velocity S-wave (km/s) = 3.68226 3.85054 3.76734
# Velocity P-wave (km/s) = 5.49743 5.89537 5.69988
#
# Compressibility (1/GPa) = 0.03255911
#
# Stress axis : x y z
#
# Youngs Moduli (GPa) = 72.09497 52.59487 118.26934
#
# Poissons Ratio (x) = 0.05214 0.26541
# Poissons Ratio (y) = 0.07148 0.13654
# Poissons Ratio (z) = 0.16179 0.06072
#
# Static dielectric constant tensor:
#      x y z
#    x 4.466340 0.161550 0.096890 
#    y 0.161550 4.641120 -0.111990 
#    z 0.096890 -0.111990 4.446320 
# 
# 
# High freq. dielectric constant tensor:
#      x y z
#    x 2.022160 0.008140 0.005570 
#    y 0.008140 2.016740 -0.007030 
#    z 0.005570 -0.007030 2.014540 
# 
# From -- ./inp_files/172646.got.cif
#   From: 2010.06.25/outbox.cif.g09.slc.cpg/sg2_87_cif.got.tgz:172646.got - 2010.06.27 13:26:56.
