data_PCOD8028054
_publ_section_title
;
Structure prediction by ZEFSAII (Michael W. Deem and Ramdas Pophale) SiO2 
 PCOD8028054
Probable space group: P -1
;
_chemical_formula_sum "Si O2"
_cell_formula_units_Z 16
_cell_length_a 21.397569
_cell_length_b 13.115001
_cell_length_c 17.888912
_cell_angle_alpha 26.701597
_cell_angle_beta 18.437925
_cell_angle_gamma 25.738957
_cell_volume 661.409586
_symmetry_space_group_name_H-M "P -1"
_symmetry_group_IT_number 2
_symmetry_cell_setting 'triclinic'
loop_
_space_group_symop_operation_xyz
x,y,z
-x,-y,-z
loop_
_atom_site_type_symbol
_atom_site_label
_atom_site_fract_x
_atom_site_fract_y
_atom_site_fract_z
Si Si1 0.030775 0.312453 0.481911
Si Si2 0.082419 0.180758 0.189223
Si Si3 0.418449 0.291629 0.410495
Si Si4 0.238259 0.197496 0.466234
Si Si5 0.054177 0.412375 0.222157
Si Si6 0.363690 0.724006 0.085807
Si Si7 0.367102 0.680732 0.708174
Si Si8 0.692774 0.486564 0.345444
O O1 0.959500 0.592604 0.407748
O O2 0.835536 0.225820 0.776283
O O3 0.218911 0.155387 0.426409
O O4 0.098279 0.278305 0.340771
O O5 0.052464 0.211814 0.293357
O O6 0.863690 0.227862 0.356985
O O7 0.270376 0.918464 0.132240
O O8 0.163084 0.395324 0.936952
O O9 0.428736 0.444115 0.225016
O O10 0.561228 0.375678 0.250808
O O11 0.174520 0.368113 0.663347
O O12 0.500000 0.000000 0.500000
O O13 0.231276 0.967782 0.669398
O O14 0.457704 0.244104 0.190318
O O15 0.237615 0.520093 0.930216
O O16 0.577818 0.639191 0.448033
O O17 0.500000 0.500000 0.500000
#
# Coordination Sequence:
#
# PCOD8028054 Si02
#       8
#     2   2   2   2   2   2   2   2
#     4  10  25  43  64  96 136 176 229 281 339 399
#     4  11  24  42  71 101 138 177 232 278 342 412
#     4  11  26  46  68 100 137 181 228 282 344 404
#     4  11  24  43  68 100 133 178 231 281 336 404
#     4  11  24  45  67 102 135 179 226 280 343 407
#     4  11  24  44  70  98 137 177 227 285 339 402
#     4  12  23  41  71  97 135 178 226 281 338 404
#     4  11  23  42  66 102 136 182 222 278 340 404
#
# _framework density 24.190760000000001
#
# number of rings (size 3 to 8) (size 9 to 14) (size 15 to 20)
#    0.000    1.000    3.750    2.625    1.750    7.000 
#    0.000    1.250    0.000    0.000    0.000    0.000 
#    0.000    0.000    0.000    0.000    0.000    0.000 
#
# Total GULP energy -198233.387748 kJ/mol
# GULP energy per Si atom -12389.586734 kJ/mol
# Density = 2.413570 g / cm^3
# Si number density = 24.190760 Si / 1000 Ang^3
#
#
#
# Elastic Constant Matrix: (Units=GPa)
#
#
# Indices 1 2 3 4 5 6 
#
# 1 123.5974 15.9155 28.2871 5.6178 -9.6395 5.9884
# 2 15.9155 60.4619 1.3924 2.1217 4.1524 2.1187
# 3 28.2871 1.3924 71.7260 -2.2712 -14.1492 -9.4861
# 4 5.6178 2.1217 -2.2712 30.7215 2.1829 3.0047
# 5 -9.6395 4.1524 -14.1492 2.1829 31.8339 4.1490
# 6 5.9884 2.1187 -9.4861 3.0047 4.1490 30.5203
#
#
#
# Elastic Compliance Matrix: (Units=1/GPa)
#
#
# Indices 1 2 3 4 5 6 
#
# 1 0.009662 -0.002430 -0.003811 -0.001732 0.002061 -0.003021
# 2 -0.002430 0.017410 -0.000014 -0.000522 -0.002940 -0.000285
# 3 -0.003811 -0.000014 0.017313 0.001054 0.005788 0.005239
# 4 -0.001732 -0.000522 0.001054 0.033347 -0.001973 -0.002311
# 5 0.002061 -0.002940 0.005788 -0.001973 0.035524 -0.003036
# 6 -0.003021 -0.000285 0.005239 -0.002311 -0.003036 0.035646
#
#
# Mechanical properties :
#
#
# Convention : Reuss Voigt Hill
#
# Bulk Modulus (GPa) = 31.37299 38.55279 34.96289
# Shear Modulus (GPa) = 29.06340 32.62784 30.84562
#
# Velocity S-wave (km/s) = 3.46992 3.67655 3.57473
# Velocity P-wave (km/s) = 5.38989 5.83046 5.61450
#
# Compressibility (1/GPa) = 0.03187456
#
# Stress axis : x y z
#
# Youngs Moduli (GPa) = 103.50026 57.43946 57.75931
#
# Poissons Ratio (x) = 0.13960 0.22012
# Poissons Ratio (y) = 0.25155 0.00079
# Poissons Ratio (z) = 0.39444 0.00078
#
# Static dielectric constant tensor:
#      x y z
#    x 4.775180 -0.060330 -0.280750 
#    y -0.060330 4.269990 0.146790 
#    z -0.280750 0.146790 4.265920 
# 
# 
# High freq. dielectric constant tensor:
#      x y z
#    x 1.975800 0.006110 -0.010080 
#    y 0.006110 1.954280 0.004680 
#    z -0.010080 0.004680 1.953050 
# 
# From -- ./inp_files/461833.got.cif
#   From: 2010.06.25/outbox.cif.g09.slc.cpg/sg2_231_cif.got.tgz:461833.got - 2010.06.27 13:26:56.
