data_PCOD8028952
_publ_section_title
;
Structure prediction by ZEFSAII (Michael W. Deem and Ramdas Pophale) SiO2 
 PCOD8028952
Probable space group: P -1
;
_chemical_formula_sum "Si O2"
_cell_formula_units_Z 14
_cell_length_a 13.237556
_cell_length_b 8.826815
_cell_length_c 11.673478
_cell_angle_alpha 53.793859
_cell_angle_beta 47.503236
_cell_angle_gamma 49.498383
_cell_volume 736.096934
_symmetry_space_group_name_H-M "P -1"
_symmetry_group_IT_number 2
_symmetry_cell_setting 'triclinic'
loop_
_space_group_symop_operation_xyz
x,y,z
-x,-y,-z
loop_
_atom_site_type_symbol
_atom_site_label
_atom_site_fract_x
_atom_site_fract_y
_atom_site_fract_z
Si Si1 0.863857 0.800764 0.408140
Si Si2 0.176305 0.141723 0.147334
Si Si3 0.679941 0.666310 0.213647
Si Si4 0.846750 0.196625 0.329213
Si Si5 0.288708 0.397948 0.525776
Si Si6 0.044547 0.409047 0.330210
Si Si7 0.637359 0.247291 0.682442
O O1 0.716798 0.766938 0.490426
O O2 0.889506 0.748004 0.545756
O O3 0.011953 0.643607 0.292111
O O4 0.837394 0.037861 0.309952
O O5 0.158984 0.318424 0.177094
O O6 0.021784 0.119501 0.259232
O O7 0.300570 0.918973 0.189902
O O8 0.228460 0.208343 0.960263
O O9 0.777165 0.422946 0.225886
O O10 0.651310 0.716413 0.348186
O O11 0.522131 0.743954 0.235809
O O12 0.749999 0.184437 0.516967
O O13 0.386109 0.523654 0.356520
O O14 0.117693 0.579466 0.592990
#
# Coordination Sequence:
#
# PCOD8028952 Si02
#       7
#     2   2   2   2   2   2   2
#     4   9  18  32  57  90 106 134 187 242 264 312
#     4  12  21  36  60  84 110 146 187 229 272 325
#     4  11  24  37  52  85 122 143 174 232 286 322
#     4  11  19  35  64  85 100 146 196 225 269 322
#     4   9  18  36  58  78 113 135 184 229 270 312
#     4   9  17  32  57  85 110 129 187 235 268 301
#     4  11  21  37  58  82 110 150 189 221 270 331
#
# _framework density 19.019234999999998
#
# number of rings (size 3 to 8) (size 9 to 14) (size 15 to 20)
#    0.857    0.857    4.286    3.857    0.000    0.000 
#    0.000    5.714    0.000    0.857    0.000    0.000 
#    0.000    0.000    0.000    0.000    0.000    0.000 
#
# Total GULP energy -173472.412740 kJ/mol
# GULP energy per Si atom -12390.886624 kJ/mol
# Density = 1.897595 g / cm^3
# Si number density = 19.019235 Si / 1000 Ang^3
#
#
#
# Elastic Constant Matrix: (Units=GPa)
#
#
# Indices 1 2 3 4 5 6 
#
# 1 79.5251 34.4701 7.3354 -5.3205 -13.0219 -2.7072
# 2 34.4701 58.7418 19.4147 -17.4279 2.0401 5.5983
# 3 7.3354 19.4147 56.9973 -15.3584 1.8509 3.3852
# 4 -5.3205 -17.4279 -15.3584 19.6391 -5.9225 -3.4269
# 5 -13.0219 2.0401 1.8509 -5.9225 17.3614 -1.0562
# 6 -2.7072 5.5983 3.3852 -3.4269 -1.0562 33.1093
#
#
#
# Elastic Compliance Matrix: (Units=1/GPa)
#
#
# Indices 1 2 3 4 5 6 
#
# 1 0.021776 -0.014057 0.001336 0.000843 0.018416 0.004695
# 2 -0.014057 0.032959 -0.003649 0.019477 -0.007662 -0.004578
# 3 0.001336 -0.003649 0.022886 0.016455 0.004619 0.000237
# 4 0.000843 0.019477 0.016455 0.090628 0.027831 0.005361
# 5 0.018416 -0.007662 0.004619 0.027831 0.081789 0.007819
# 6 0.004695 -0.004578 0.000237 0.005361 0.007819 0.032141
#
#
# Mechanical properties :
#
#
# Convention : Reuss Voigt Hill
#
# Bulk Modulus (GPa) = 22.28089 35.30050 28.79070
# Shear Modulus (GPa) = 15.15703 22.95823 19.05763
#
# Velocity S-wave (km/s) = 2.82606 3.47811 3.16890
# Velocity P-wave (km/s) = 4.73172 5.89325 5.34414
#
# Compressibility (1/GPa) = 0.04488151
#
# Stress axis : x y z
#
# Youngs Moduli (GPa) = 45.92185 30.34044 43.69567
#
# Poissons Ratio (x) = 0.42649 -0.05837
# Poissons Ratio (y) = 0.64552 0.15943
# Poissons Ratio (z) = -0.06134 0.11070
#
# Static dielectric constant tensor:
#      x y z
#    x 3.576630 0.104770 -0.044940 
#    y 0.104770 3.463880 -0.186130 
#    z -0.044940 -0.186130 3.135710 
# 
# 
# High freq. dielectric constant tensor:
#      x y z
#    x 1.747340 -0.001010 0.000810 
#    y -0.001010 1.729780 -0.019360 
#    z 0.000810 -0.019360 1.700380 
# 
# From -- ./inp_files/391448.got.cif
#   From: 2010.06.25/outbox.cif.g09.slc.cpg/sg2_196_cif.got.tgz:391448.got - 2010.06.27 13:26:56.
