data_PCOD8028511
_publ_section_title
;
Structure prediction by ZEFSAII (Michael W. Deem and Ramdas Pophale) SiO2 
 PCOD8028511
Probable space group: P -1
;
_chemical_formula_sum "Si O2"
_cell_formula_units_Z 16
_cell_length_a 12.164394
_cell_length_b 25.185535
_cell_length_c 5.924321
_cell_angle_alpha 70.913096
_cell_angle_beta 63.524561
_cell_angle_gamma 26.115537
_cell_volume 702.666733
_symmetry_space_group_name_H-M "P -1"
_symmetry_group_IT_number 2
_symmetry_cell_setting 'triclinic'
loop_
_space_group_symop_operation_xyz
x,y,z
-x,-y,-z
loop_
_atom_site_type_symbol
_atom_site_label
_atom_site_fract_x
_atom_site_fract_y
_atom_site_fract_z
Si Si1 0.647072 0.892812 0.148869
Si Si2 0.150570 0.300513 0.912006
Si Si3 0.719686 0.644004 0.031805
Si Si4 0.459796 0.485093 0.807312
Si Si5 0.203054 0.017889 0.641462
Si Si6 0.129159 0.765246 0.057627
Si Si7 0.743129 0.201513 0.459304
Si Si8 0.487128 0.793746 0.639343
O O1 0.701661 0.819466 0.026595
O O2 0.930793 0.797072 0.116609
O O3 0.461901 0.950660 0.447568
O O4 0.500000 0.000000 0.000000
O O5 0.253179 0.301429 0.005607
O O6 0.249544 0.285138 0.603292
O O7 0.833406 0.422218 0.045850
O O8 0.509389 0.691972 0.291955
O O9 0.601458 0.695720 0.818052
O O10 0.000000 0.500000 0.000000
O O11 0.500000 0.500000 0.500000
O O12 0.664755 0.349042 0.802329
O O13 0.500000 0.500000 0.000000
O O14 0.028255 0.118141 0.853426
O O15 0.029824 0.082703 0.482867
O O16 0.307738 0.913609 0.767026
O O17 0.280330 0.731369 0.754898
O O18 0.715745 0.154009 0.418410
#
# Coordination Sequence:
#
# PCOD8028511 Si02
#       8
#     2   2   2   2   2   2   2   2
#     4  11  23  46  71 103 149 190 243 303 379 453
#     4  10  26  46  72 103 144 195 245 307 372 446
#     4  11  27  45  73 101 144 193 248 309 374 455
#     4  12  30  50  77 110 155 201 257 312 375 457
#     4  11  25  43  74 102 141 189 243 308 376 458
#     4  12  27  43  74 107 147 192 246 312 376 456
#     4  11  25  45  69 105 141 186 248 306 383 440
#     4  10  25  47  70 103 143 191 247 308 380 447
#
# _framework density 22.770396999999999
#
# number of rings (size 3 to 8) (size 9 to 14) (size 15 to 20)
#    0.000    1.000    2.500    1.500   12.250    4.000 
#    0.000    0.000    0.000    0.000    0.000    0.000 
#    0.000    0.000    0.000    0.000    0.000    0.000 
#
# Total GULP energy -198283.958387 kJ/mol
# GULP energy per Si atom -12392.747399 kJ/mol
# Density = 2.271857 g / cm^3
# Si number density = 22.770397 Si / 1000 Ang^3
#
#
#
# Elastic Constant Matrix: (Units=GPa)
#
#
# Indices 1 2 3 4 5 6 
#
# 1 85.4690 21.8300 47.1042 4.3390 -20.0027 -5.2876
# 2 21.8300 130.7429 51.7155 -11.6382 -15.2906 8.7820
# 3 47.1042 51.7155 127.2951 -5.0583 -20.0102 -3.6297
# 4 4.3390 -11.6382 -5.0583 39.8538 -4.6510 -1.2884
# 5 -20.0027 -15.2906 -20.0102 -4.6510 39.0596 10.2691
# 6 -5.2876 8.7820 -3.6297 -1.2884 10.2691 32.5999
#
#
#
# Elastic Compliance Matrix: (Units=1/GPa)
#
#
# Indices 1 2 3 4 5 6 
#
# 1 0.015846 -0.000250 -0.005017 -0.001824 0.005126 0.000392
# 2 -0.000250 0.009965 -0.003424 0.002770 0.003419 -0.004074
# 3 -0.005017 -0.003424 0.011476 0.001251 0.001898 0.000838
# 4 -0.001824 0.002770 0.001251 0.026720 0.004288 -0.001197
# 5 0.005126 0.003419 0.001898 0.004288 0.033768 -0.010346
# 6 0.000392 -0.004074 0.000838 -0.001197 -0.010346 0.035141
#
#
# Mechanical properties :
#
#
# Convention : Reuss Voigt Hill
#
# Bulk Modulus (GPa) = 50.24581 64.97846 57.61214
# Shear Modulus (GPa) = 31.86055 37.15980 34.51018
#
# Velocity S-wave (km/s) = 3.74466 4.04410 3.89726
# Velocity P-wave (km/s) = 6.38833 7.09963 6.75335
#
# Compressibility (1/GPa) = 0.01990216
#
# Stress axis : x y z
#
# Youngs Moduli (GPa) = 63.10798 100.35079 87.14212
#
# Poissons Ratio (x) = 0.02512 0.43723
# Poissons Ratio (y) = 0.01580 0.29841
# Poissons Ratio (z) = 0.31664 0.34364
#
# Static dielectric constant tensor:
#      x y z
#    x 4.374660 0.152030 -0.061830 
#    y 0.152030 3.990100 0.002540 
#    z -0.061830 0.002540 4.315780 
# 
# 
# High freq. dielectric constant tensor:
#      x y z
#    x 1.913070 -0.001200 -0.015830 
#    y -0.001200 1.905070 0.005590 
#    z -0.015830 0.005590 1.898200 
# 
# From -- ./inp_files/84289.got.cif
#   From: 2010.06.25/outbox.cif.g09.slc.cpg/sg2_43_cif.got.tgz:84289.got - 2010.06.27 13:26:56.
