data_PCOD8028122
_publ_section_title
;
Structure prediction by ZEFSAII (Michael W. Deem and Ramdas Pophale) SiO2 
 PCOD8028122
Probable space group: P -1
;
_chemical_formula_sum "Si O2"
_cell_formula_units_Z 14
_cell_length_a 13.810844
_cell_length_b 9.315902
_cell_length_c 18.173918
_cell_angle_alpha 151.553397
_cell_angle_beta 146.673229
_cell_angle_gamma 44.853378
_cell_volume 608.970753
_symmetry_space_group_name_H-M "P -1"
_symmetry_group_IT_number 2
_symmetry_cell_setting 'triclinic'
loop_
_space_group_symop_operation_xyz
x,y,z
-x,-y,-z
loop_
_atom_site_type_symbol
_atom_site_label
_atom_site_fract_x
_atom_site_fract_y
_atom_site_fract_z
Si Si1 0.432670 0.622351 0.435754
Si Si2 0.743378 0.790103 0.144177
Si Si3 0.309741 0.536747 0.587263
Si Si4 0.996715 0.143879 0.142454
Si Si5 0.586780 0.705343 0.306190
Si Si6 0.291533 0.440860 0.830193
Si Si7 0.975011 0.522808 0.909749
O O1 0.500000 0.500000 0.500000
O O2 0.509790 0.439564 0.334944
O O3 0.223409 0.572125 0.283619
O O4 0.494143 0.976098 0.616359
O O5 0.784352 0.793895 0.260113
O O6 0.906650 0.682315 0.154971
O O7 0.717021 0.125621 0.250776
O O8 0.570034 0.563362 0.916301
O O9 0.149052 0.415008 0.376472
O O10 0.318826 0.316739 0.564699
O O11 0.803513 0.253880 0.083270
O O12 0.000000 0.000000 0.000000
O O13 0.031315 0.876342 0.097530
O O14 0.735485 0.679340 0.324808
O O15 0.500000 0.500000 0.000000
O O16 0.000000 0.500000 0.000000
#
# Coordination Sequence:
#
# PCOD8028122 Si02
#       7
#     2   2   2   2   2   2   2
#     4  12  27  45  74 106 141 190 245 289 362 434
#     4  11  25  47  72 106 146 188 241 296 359 429
#     4  12  27  45  75 108 144 188 242 297 362 428
#     4  12  26  48  73 101 145 195 239 297 359 427
#     4  11  25  48  75 104 147 186 238 303 360 426
#     4  10  25  43  74  99 140 186 245 284 361 416
#     4  12  27  45  72 104 149 189 241 298 362 425
#
# _framework density 22.989609999999999
#
# number of rings (size 3 to 8) (size 9 to 14) (size 15 to 20)
#    0.000    0.571    1.429    5.143   14.000    1.143 
#    0.000    0.000    0.000    0.000    0.000    0.000 
#    0.000    0.000    0.000    0.000    0.000    0.000 
#
# Total GULP energy -173590.847645 kJ/mol
# GULP energy per Si atom -12399.346260 kJ/mol
# Density = 2.293728 g / cm^3
# Si number density = 22.989610 Si / 1000 Ang^3
#
#
#
# Elastic Constant Matrix: (Units=GPa)
#
#
# Indices 1 2 3 4 5 6 
#
# 1 185.4247 82.7063 24.4684 -14.2453 -12.1018 -3.1633
# 2 82.7063 165.5014 48.7057 18.6773 -8.9578 1.9615
# 3 24.4684 48.7057 115.0093 2.4948 5.3278 -5.8376
# 4 -14.2453 18.6773 2.4948 43.2323 5.3349 -2.8717
# 5 -12.1018 -8.9578 5.3278 5.3349 26.2034 -1.7592
# 6 -3.1633 1.9615 -5.8376 -2.8717 -1.7592 62.5861
#
#
#
# Elastic Compliance Matrix: (Units=1/GPa)
#
#
# Indices 1 2 3 4 5 6 
#
# 1 0.007732 -0.004310 0.000067 0.004302 0.001259 0.000765
# 2 -0.004310 0.010080 -0.003427 -0.006055 0.003315 -0.001038
# 3 0.000067 -0.003427 0.010314 0.001403 -0.003453 0.001040
# 4 0.004302 -0.006055 0.001403 0.027926 -0.005943 0.001652
# 5 0.001259 0.003315 -0.003453 -0.005943 0.041826 0.000541
# 6 0.000765 -0.001038 0.001040 0.001652 0.000541 0.016237
#
#
# Mechanical properties :
#
#
# Convention : Reuss Voigt Hill
#
# Bulk Modulus (GPa) = 78.20219 86.41069 82.30644
# Shear Modulus (GPa) = 37.39226 47.07469 42.23347
#
# Velocity S-wave (km/s) = 4.03735 4.53001 4.29075
# Velocity P-wave (km/s) = 7.47153 8.06410 7.77346
#
# Compressibility (1/GPa) = 0.01278737
#
# Stress axis : x y z
#
# Youngs Moduli (GPa) = 129.32594 99.20898 96.95507
#
# Poissons Ratio (x) = 0.42762 -0.00654
# Poissons Ratio (y) = 0.55744 0.33222
# Poissons Ratio (z) = -0.00873 0.33995
#
# Static dielectric constant tensor:
#      x y z
#    x 4.846710 0.250030 -0.167680 
#    y 0.250030 4.485260 0.106220 
#    z -0.167680 0.106220 3.851950 
# 
# 
# High freq. dielectric constant tensor:
#      x y z
#    x 1.930860 0.001860 -0.004070 
#    y 0.001860 1.923970 0.004960 
#    z -0.004070 0.004960 1.896280 
# 
# From -- ./inp_files/294413.got.cif
#   From: 2010.06.25/outbox.cif.g09.slc.cpg/sg2_148_cif.got.tgz:294413.got - 2010.06.27 13:26:56.
