data_PCOD8028803
_publ_section_title
;
Structure prediction by ZEFSAII (Michael W. Deem and Ramdas Pophale) SiO2 
 PCOD8028803
Probable space group: P -1
;
_chemical_formula_sum "Si O2"
_cell_formula_units_Z 14
_cell_length_a 8.241085
_cell_length_b 17.296912
_cell_length_c 20.439012
_cell_angle_alpha 160.143326
_cell_angle_beta 132.809443
_cell_angle_gamma 38.857950
_cell_volume 601.487146
_symmetry_space_group_name_H-M "P -1"
_symmetry_group_IT_number 2
_symmetry_cell_setting 'triclinic'
loop_
_space_group_symop_operation_xyz
x,y,z
-x,-y,-z
loop_
_atom_site_type_symbol
_atom_site_label
_atom_site_fract_x
_atom_site_fract_y
_atom_site_fract_z
Si Si1 0.603806 0.148622 0.688263
Si Si2 0.983213 0.324663 0.775378
Si Si3 0.523938 0.621225 0.671189
Si Si4 0.108569 0.836164 0.503386
Si Si5 0.375365 0.771261 0.971492
Si Si6 0.183302 0.097953 0.050565
Si Si7 0.468046 0.301796 0.912398
O O1 0.576665 0.106881 0.724004
O O2 0.500000 0.000000 0.500000
O O3 0.456283 0.473017 0.889632
O O4 0.916008 0.000178 0.641497
O O5 0.013092 0.293592 0.679807
O O6 0.140566 0.461180 0.951398
O O7 0.666367 0.482129 0.828175
O O8 0.148311 0.027748 0.619216
O O9 0.500000 0.500000 0.500000
O O10 0.609723 0.397500 0.573760
O O11 0.755592 0.676775 0.770340
O O12 0.257124 0.897428 0.847652
O O13 0.380329 0.904180 0.147977
O O14 0.366028 0.928353 0.029032
O O15 0.123929 0.744170 0.884934
#
# Coordination Sequence:
#
# PCOD8028803 Si02
#       7
#     2   2   2   2   2   2   2
#     4  11  24  42  62 104 138 174 219 285 344 410
#     4  11  23  44  71 106 139 183 221 290 353 409
#     4  11  26  47  73 101 131 189 235 282 335 416
#     4  11  24  42  69 102 143 173 229 288 350 399
#     4  11  23  46  69  99 139 184 228 282 341 414
#     4  10  26  49  69  96 142 185 230 284 338 401
#     4  11  25  41  71 100 138 185 227 274 354 416
#
# _framework density 23.275642999999999
#
# number of rings (size 3 to 8) (size 9 to 14) (size 15 to 20)
#    0.000    1.143    4.286    0.429    6.000    0.000 
#    0.000    2.857    0.000    0.000    0.000    0.000 
#    0.000    0.000    0.000    0.000    0.000    0.000 
#
# Total GULP energy -173444.750297 kJ/mol
# GULP energy per Si atom -12388.910736 kJ/mol
# Density = 2.322267 g / cm^3
# Si number density = 23.275643 Si / 1000 Ang^3
#
#
#
# Elastic Constant Matrix: (Units=GPa)
#
#
# Indices 1 2 3 4 5 6 
#
# 1 101.7556 36.7730 30.0652 -8.3388 -14.4464 6.1225
# 2 36.7730 129.1509 49.3286 -15.5879 2.9043 20.9875
# 3 30.0652 49.3286 102.2636 -20.9368 0.2007 5.8387
# 4 -8.3388 -15.5879 -20.9368 36.4269 3.3614 -7.3549
# 5 -14.4464 2.9043 0.2007 3.3614 29.4798 -6.0138
# 6 6.1225 20.9875 5.8387 -7.3549 -6.0138 41.9828
#
#
#
# Elastic Compliance Matrix: (Units=1/GPa)
#
#
# Indices 1 2 3 4 5 6 
#
# 1 0.012462 -0.002978 -0.002331 -0.000188 0.006624 0.000911
# 2 -0.002978 0.011123 -0.003968 0.001146 -0.003658 -0.004897
# 3 -0.002331 -0.003968 0.013518 0.005916 -0.001253 0.001301
# 4 -0.000188 0.001146 0.005916 0.032368 -0.003151 0.003851
# 5 0.006624 -0.003658 -0.001253 -0.003151 0.039138 0.006091
# 6 0.000911 -0.004897 0.001301 0.003851 0.006091 0.027501
#
#
# Mechanical properties :
#
#
# Convention : Reuss Voigt Hill
#
# Bulk Modulus (GPa) = 53.91377 62.83374 58.37375
# Shear Modulus (GPa) = 31.08532 36.04480 33.56506
#
# Velocity S-wave (km/s) = 3.65845 3.93950 3.80158
# Velocity P-wave (km/s) = 6.40774 6.90992 6.66356
#
# Compressibility (1/GPa) = 0.01854814
#
# Stress axis : x y z
#
# Youngs Moduli (GPa) = 80.24077 89.90463 73.97766
#
# Poissons Ratio (x) = 0.26772 0.17245
# Poissons Ratio (y) = 0.23894 0.29358
# Poissons Ratio (z) = 0.18705 0.35678
#
# Static dielectric constant tensor:
#      x y z
#    x 4.426210 0.284370 -0.312200 
#    y 0.284370 4.252660 -0.273770 
#    z -0.312200 -0.273770 4.102040 
# 
# 
# High freq. dielectric constant tensor:
#      x y z
#    x 1.935430 0.017650 -0.018050 
#    y 0.017650 1.916390 -0.019360 
#    z -0.018050 -0.019360 1.899700 
# 
# From -- ./inp_files/591093.got.cif
#   From: 2010.06.25/outbox.cif.g09.slc.cpg/sg2_296_cif.got.tgz:591093.got - 2010.06.27 13:26:56.
