data_PCOD8028157
_publ_section_title
;
Structure prediction by ZEFSAII (Michael W. Deem and Ramdas Pophale) SiO2 
 PCOD8028157
Probable space group: P -1
;
_chemical_formula_sum "Si O2"
_cell_formula_units_Z 16
_cell_length_a 14.844206
_cell_length_b 14.798283
_cell_length_c 5.580003
_cell_angle_alpha 129.923646
_cell_angle_beta 46.963139
_cell_angle_gamma 135.072073
_cell_volume 602.115427
_symmetry_space_group_name_H-M "P -1"
_symmetry_group_IT_number 2
_symmetry_cell_setting 'triclinic'
loop_
_space_group_symop_operation_xyz
x,y,z
-x,-y,-z
loop_
_atom_site_type_symbol
_atom_site_label
_atom_site_fract_x
_atom_site_fract_y
_atom_site_fract_z
Si Si1 0.716860 0.621562 0.378598
Si Si2 0.151313 0.994465 0.450155
Si Si3 0.063546 0.405421 0.311004
Si Si4 0.488961 0.329314 0.445327
Si Si5 0.178487 0.120857 0.116022
Si Si6 0.692391 0.363188 0.505948
Si Si7 0.186924 0.777763 0.236117
Si Si8 0.577217 0.142122 0.722629
O O1 0.617761 0.462827 0.321318
O O2 0.655789 0.668340 0.339837
O O3 0.732977 0.716000 0.739622
O O4 0.879594 0.654132 0.102605
O O5 0.215635 0.065404 0.199517
O O6 0.175578 0.864921 0.188537
O O7 0.225955 0.085750 0.713204
O O8 0.987823 0.944095 0.688086
O O9 0.209801 0.486069 0.329011
O O10 0.000000 0.500000 0.500000
O O11 0.954138 0.280928 0.451060
O O12 0.539747 0.339761 0.648936
O O13 0.477208 0.192464 0.120165
O O14 0.673378 0.256098 0.556728
O O15 0.786692 0.344598 0.098031
O O16 0.322004 0.878964 0.313377
O O17 0.500000 0.000000 0.500000
#
# Coordination Sequence:
#
# PCOD8028157 Si02
#       8
#     2   2   2   2   2   2   2   2
#     4  11  25  45  76 103 150 197 249 315 380 450
#     4  10  25  44  67 108 152 191 253 302 379 467
#     4  12  24  44  74 109 150 191 247 321 387 458
#     4  10  25  49  66 109 141 192 262 305 378 460
#     4  10  25  44  67 104 150 197 244 310 376 453
#     4  11  24  46  72 105 147 191 253 316 379 457
#     4  11  26  41  74 108 144 199 246 311 388 453
#     4  11  25  47  74 103 145 195 249 312 377 455
#
# _framework density 26.572977000000002
#
# number of rings (size 3 to 8) (size 9 to 14) (size 15 to 20)
#    0.000    1.250    2.500    1.125   12.250    3.500 
#    0.000    0.000    0.000    0.000    0.000    0.000 
#    0.000    0.000    0.000    0.000    0.000    0.000 
#
# Total GULP energy -198266.933555 kJ/mol
# GULP energy per Si atom -12391.683347 kJ/mol
# Density = 2.651250 g / cm^3
# Si number density = 26.572977 Si / 1000 Ang^3
#
#
#
# Elastic Constant Matrix: (Units=GPa)
#
#
# Indices 1 2 3 4 5 6 
#
# 1 115.2440 21.9105 42.0354 10.5261 -0.7981 -20.1727
# 2 21.9105 59.7218 19.7211 31.4299 1.5717 -8.9008
# 3 42.0354 19.7211 75.3491 7.3047 -0.2764 -4.9132
# 4 10.5261 31.4299 7.3047 36.2743 3.4367 5.5987
# 5 -0.7981 1.5717 -0.2764 3.4367 39.8548 2.2548
# 6 -20.1727 -8.9008 -4.9132 5.5987 2.2548 41.9440
#
#
#
# Elastic Compliance Matrix: (Units=1/GPa)
#
#
# Indices 1 2 3 4 5 6 
#
# 1 0.012173 0.000109 -0.006138 -0.003269 0.000163 0.005586
# 2 0.000109 0.038313 -0.006016 -0.033930 0.000698 0.011970
# 3 -0.006138 -0.006016 0.017725 0.003831 0.000058 -0.002667
# 4 -0.003269 -0.033930 0.003831 0.059918 -0.002953 -0.016163
# 5 0.000163 0.000698 0.000058 -0.002953 0.025364 -0.000736
# 6 0.005586 0.011970 -0.002667 -0.016163 -0.000736 0.030953
#
#
# Mechanical properties :
#
#
# Convention : Reuss Voigt Hill
#
# Bulk Modulus (GPa) = 22.66468 46.40544 34.53506
# Shear Modulus (GPa) = 22.39731 34.72447 28.56089
#
# Velocity S-wave (km/s) = 2.90636 3.61883 3.28199
# Velocity P-wave (km/s) = 4.45087 5.91292 5.23320
#
# Compressibility (1/GPa) = 0.04412152
#
# Stress axis : x y z
#
# Youngs Moduli (GPa) = 82.15108 26.10097 56.41662
#
# Poissons Ratio (x) = -0.00286 0.34627
# Poissons Ratio (y) = -0.00899 0.33942
# Poissons Ratio (z) = 0.50422 0.15703
#
# Static dielectric constant tensor:
#      x y z
#    x 5.268160 0.115210 0.256480 
#    y 0.115210 9.708990 -0.400960 
#    z 0.256480 -0.400960 4.974270 
# 
# 
# High freq. dielectric constant tensor:
#      x y z
#    x 2.083330 0.004570 -0.002050 
#    y 0.004570 2.061610 0.013970 
#    z -0.002050 0.013970 2.060550 
# 
# From -- ./inp_files/98661.got.cif
#   From: 2010.06.25/outbox.cif.g09.slc.cpg/sg2_50_cif.got.tgz:98661.got - 2010.06.27 13:26:56.
