data_PCOD8028678
_publ_section_title
;
Structure prediction by ZEFSAII (Michael W. Deem and Ramdas Pophale) SiO2 
 PCOD8028678
Probable space group: P -1
;
_chemical_formula_sum "Si O2"
_cell_formula_units_Z 16
_cell_length_a 7.510208
_cell_length_b 22.001029
_cell_length_c 9.026653
_cell_angle_alpha 128.289747
_cell_angle_beta 146.608843
_cell_angle_gamma 52.270889
_cell_volume 628.641778
_symmetry_space_group_name_H-M "P -1"
_symmetry_group_IT_number 2
_symmetry_cell_setting 'triclinic'
loop_
_space_group_symop_operation_xyz
x,y,z
-x,-y,-z
loop_
_atom_site_type_symbol
_atom_site_label
_atom_site_fract_x
_atom_site_fract_y
_atom_site_fract_z
Si Si1 0.916048 0.912591 0.852102
Si Si2 0.314380 0.138077 0.684603
Si Si3 0.584135 0.413357 0.359852
Si Si4 0.250542 0.552483 0.797165
Si Si5 0.782827 0.279135 0.914929
Si Si6 0.410005 0.943795 0.977588
Si Si7 0.785498 0.688711 0.189919
Si Si8 0.453873 0.180686 0.337193
O O1 0.849515 0.909318 0.623581
O O2 0.635661 0.871976 0.668695
O O3 0.290764 0.867304 0.079607
O O4 0.856470 0.003707 0.013690
O O5 0.128291 0.231239 0.694348
O O6 0.284998 0.097985 0.765985
O O7 0.500000 0.500000 0.500000
O O8 0.587344 0.426255 0.206855
O O9 0.915488 0.361619 0.581614
O O10 0.294585 0.363012 0.086441
O O11 0.000000 0.500000 0.500000
O O12 0.500000 0.500000 0.000000
O O13 0.112266 0.636340 0.910842
O O14 0.531012 0.284299 0.883745
O O15 0.609489 0.252899 0.608738
O O16 0.108055 0.212841 0.065410
O O17 0.304556 0.872898 0.699765
O O18 0.500000 0.000000 0.000000
#
# Coordination Sequence:
#
# PCOD8028678 Si02
#       8
#     2   2   2   2   2   2   2   2
#     4  11  22  42  70  96 127 175 230 273 324 401
#     4  12  23  43  69  99 131 173 235 275 324 400
#     4  11  24  44  69  96 134 172 213 274 339 385
#     4  11  23  42  67  99 130 172 224 262 320 410
#     4  11  21  40  69  93 130 177 218 267 329 389
#     4  10  26  44  66 100 141 178 217 281 345 390
#     4  11  21  40  70  97 126 172 228 270 320 395
#     4  11  21  41  63  97 131 171 218 273 334 385
#
# _framework density 25.451695999999998
#
# number of rings (size 3 to 8) (size 9 to 14) (size 15 to 20)
#    0.000    1.000    2.500    5.625    0.000    2.000 
#    6.750    5.625    0.000    0.000    0.000    0.000 
#    0.000    0.000    0.000    0.000    0.000    0.000 
#
# Total GULP energy -198269.584821 kJ/mol
# GULP energy per Si atom -12391.849051 kJ/mol
# Density = 2.539377 g / cm^3
# Si number density = 25.451696 Si / 1000 Ang^3
#
#
#
# Elastic Constant Matrix: (Units=GPa)
#
#
# Indices 1 2 3 4 5 6 
#
# 1 86.2341 53.8505 33.3212 10.0117 -28.2252 -3.4333
# 2 53.8505 194.0108 91.2708 16.7799 -25.3833 9.0729
# 3 33.3212 91.2708 192.8994 29.5437 -13.8318 -0.9873
# 4 10.0117 16.7799 29.5437 68.0448 -1.1739 -5.0163
# 5 -28.2252 -25.3833 -13.8318 -1.1739 30.2038 5.2309
# 6 -3.4333 9.0729 -0.9873 -5.0163 5.2309 30.7496
#
#
#
# Elastic Compliance Matrix: (Units=1/GPa)
#
#
# Indices 1 2 3 4 5 6 
#
# 1 0.018557 -0.002845 -0.000580 -0.001513 0.014598 0.000162
# 2 -0.002845 0.007976 -0.003000 -0.000440 0.003241 -0.003390
# 3 -0.000580 -0.003000 0.007038 -0.002180 -0.000046 0.000699
# 4 -0.001513 -0.000440 -0.002180 0.016147 -0.002670 0.002979
# 5 0.014598 0.003241 -0.000046 -0.002670 0.050805 -0.008406
# 6 0.000162 -0.003390 0.000699 0.002979 -0.008406 0.035478
#
#
# Mechanical properties :
#
#
# Convention : Reuss Voigt Hill
#
# Bulk Modulus (GPa) = 48.25989 92.22550 70.24269
# Shear Modulus (GPa) = 32.10111 45.44641 38.77376
#
# Velocity S-wave (km/s) = 3.55527 4.23021 3.90734
# Velocity P-wave (km/s) = 5.98797 7.75718 6.92927
#
# Compressibility (1/GPa) = 0.02072114
#
# Stress axis : x y z
#
# Youngs Moduli (GPa) = 53.88733 125.37830 142.08846
#
# Poissons Ratio (x) = 0.35665 0.08245
# Poissons Ratio (y) = 0.15329 0.42627
# Poissons Ratio (z) = 0.03127 0.37614
#
# Static dielectric constant tensor:
#      x y z
#    x 4.936080 0.900010 0.685300 
#    y 0.900010 8.894730 4.180810 
#    z 0.685300 4.180810 8.470690 
# 
# 
# High freq. dielectric constant tensor:
#      x y z
#    x 2.008960 0.007610 -0.007940 
#    y 0.007610 2.039490 0.019310 
#    z -0.007940 0.019310 2.038210 
# 
# From -- ./inp_files/226573.got.cif
#   From: 2010.06.25/outbox.cif.g09.slc.cpg/sg2_114_cif.got.tgz:226573.got - 2010.06.27 13:26:56.
