data_PCOD8028577
_publ_section_title
;
Structure prediction by ZEFSAII (Michael W. Deem and Ramdas Pophale) SiO2 
 PCOD8028577
Probable space group: P -1
;
_chemical_formula_sum "Si O2"
_cell_formula_units_Z 16
_cell_length_a 10.557460
_cell_length_b 14.491860
_cell_length_c 9.285506
_cell_angle_alpha 100.617346
_cell_angle_beta 95.842321
_cell_angle_gamma 145.810356
_cell_volume 696.604556
_symmetry_space_group_name_H-M "P -1"
_symmetry_group_IT_number 2
_symmetry_cell_setting 'triclinic'
loop_
_space_group_symop_operation_xyz
x,y,z
-x,-y,-z
loop_
_atom_site_type_symbol
_atom_site_label
_atom_site_fract_x
_atom_site_fract_y
_atom_site_fract_z
Si Si1 0.002849 0.739528 0.007930
Si Si2 0.362913 0.567759 0.614649
Si Si3 0.755326 0.298343 0.982215
Si Si4 0.780330 0.215965 0.474296
Si Si5 0.483032 0.139322 0.631720
Si Si6 0.487513 0.145927 0.192608
Si Si7 0.312024 0.401272 0.819363
Si Si8 0.503689 0.369393 0.658837
O O1 0.936514 0.717182 0.163081
O O2 0.200956 0.783028 0.028245
O O3 0.761019 0.564067 0.829817
O O4 0.196982 0.946593 0.044171
O O5 0.519852 0.764222 0.689843
O O6 0.419548 0.546357 0.760954
O O7 0.457410 0.572331 0.484719
O O8 0.068776 0.407240 0.513229
O O9 0.520675 0.171011 0.815501
O O10 0.682667 0.291159 0.127446
O O11 0.000000 0.500000 0.000000
O O12 0.732462 0.257467 0.613280
O O13 0.591769 0.126016 0.296704
O O14 0.737588 0.079646 0.481572
O O15 0.429629 0.212379 0.600312
O O16 0.276530 0.282868 0.686389
O O17 0.500000 0.500000 0.000000
#
# Coordination Sequence:
#
# PCOD8028577 Si02
#       8
#     2   2   2   2   2   2   2   2
#     4  11  23  43  66  99 139 175 222 280 324 398
#     4  12  25  43  69  97 136 178 223 282 336 392
#     4  12  22  37  65  97 137 176 215 265 339 403
#     4  11  24  41  65 104 143 173 210 278 343 410
#     4  11  23  39  64  98 140 174 220 265 339 403
#     4  12  25  40  67 106 140 174 219 271 344 405
#     4  10  25  48  69  93 129 182 235 281 327 386
#     4  11  24  44  69  96 133 181 232 271 332 393
#
# _framework density 22.968553
#
# number of rings (size 3 to 8) (size 9 to 14) (size 15 to 20)
#    0.000    0.750    3.750    4.125    5.250    0.000 
#    0.000    6.250    0.000    0.000    0.000    0.000 
#    0.000    0.000    0.000    0.000    0.000    0.000 
#
# Total GULP energy -198220.142141 kJ/mol
# GULP energy per Si atom -12388.758884 kJ/mol
# Density = 2.291628 g / cm^3
# Si number density = 22.968553 Si / 1000 Ang^3
#
#
#
# Elastic Constant Matrix: (Units=GPa)
#
#
# Indices 1 2 3 4 5 6 
#
# 1 84.6344 15.4345 29.8431 -7.8427 -27.6698 -16.5991
# 2 15.4345 91.4736 36.7697 -0.9570 -20.0486 -17.1900
# 3 29.8431 36.7697 106.2658 -26.5814 -16.9853 -2.4254
# 4 -7.8427 -0.9570 -26.5814 42.9780 3.4211 -12.0489
# 5 -27.6698 -20.0486 -16.9853 3.4211 41.6603 -6.9825
# 6 -16.5991 -17.1900 -2.4254 -12.0489 -6.9825 29.9559
#
#
#
# Elastic Compliance Matrix: (Units=1/GPa)
#
#
# Indices 1 2 3 4 5 6 
#
# 1 0.024733 0.006885 -0.003150 0.008207 0.022116 0.025857
# 2 0.006885 0.018344 -0.004932 0.002615 0.014245 0.018315
# 3 -0.003150 -0.004932 0.014086 0.007952 0.000608 -0.000095
# 4 0.008207 0.002615 0.007952 0.035460 0.010981 0.023514
# 5 0.022116 0.014245 0.000608 0.010981 0.051061 0.036797
# 6 0.025857 0.018315 -0.000095 0.023514 0.036797 0.076247
#
#
# Mechanical properties :
#
#
# Convention : Reuss Voigt Hill
#
# Bulk Modulus (GPa) = 18.25855 49.60759 33.93307
# Shear Modulus (GPa) = 20.78296 36.27395 28.52846
#
# Velocity S-wave (km/s) = 3.01133 3.97834 3.52812
# Velocity P-wave (km/s) = 4.47855 6.53818 5.60380
#
# Compressibility (1/GPa) = 0.05476887
#
# Stress axis : x y z
#
# Youngs Moduli (GPa) = 40.43215 54.51341 70.99348
#
# Poissons Ratio (x) = -0.37534 0.22365
# Poissons Ratio (y) = -0.27839 0.35013
# Poissons Ratio (z) = 0.12737 0.26885
#
# Static dielectric constant tensor:
#      x y z
#    x 4.471220 -0.145030 -0.347730 
#    y -0.145030 4.279860 -0.131630 
#    z -0.347730 -0.131630 4.220420 
# 
# 
# High freq. dielectric constant tensor:
#      x y z
#    x 1.898740 -0.009120 -0.024590 
#    y -0.009120 1.899090 -0.013620 
#    z -0.024590 -0.013620 1.915790 
# 
# From -- ./inp_files/241070.got.cif
#   From: 2010.06.25/outbox.cif.g09.slc.cpg/sg2_121_cif.got.tgz:241070.got - 2010.06.27 13:26:56.
