data_PCOD8028010
_publ_section_title
;
Structure prediction by ZEFSAII (Michael W. Deem and Ramdas Pophale) SiO2 
 PCOD8028010
Probable space group: P -1
;
_chemical_formula_sum "Si O2"
_cell_formula_units_Z 16
_cell_length_a 9.162168
_cell_length_b 6.839533
_cell_length_c 17.323781
_cell_angle_alpha 129.219975
_cell_angle_beta 118.384249
_cell_angle_gamma 82.834464
_cell_volume 714.876063
_symmetry_space_group_name_H-M "P -1"
_symmetry_group_IT_number 2
_symmetry_cell_setting 'triclinic'
loop_
_space_group_symop_operation_xyz
x,y,z
-x,-y,-z
loop_
_atom_site_type_symbol
_atom_site_label
_atom_site_fract_x
_atom_site_fract_y
_atom_site_fract_z
Si Si1 0.889912 0.140620 0.107938
Si Si2 0.190030 0.631620 0.553289
Si Si3 0.477090 0.407118 0.618143
Si Si4 0.019902 0.722559 0.237487
Si Si5 0.741496 0.003882 0.197225
Si Si6 0.271658 0.857425 0.467391
Si Si7 0.876989 0.216925 0.885121
Si Si8 0.388767 0.035890 0.130045
O O1 0.974331 0.415024 0.159000
O O2 0.832226 0.175154 0.190054
O O3 0.037800 0.993314 0.108041
O O4 0.735080 0.974405 0.976401
O O5 0.319297 0.443407 0.533953
O O6 0.181577 0.763511 0.501963
O O7 0.000000 0.500000 0.500000
O O8 0.267998 0.837389 0.688892
O O9 0.629135 0.353918 0.590131
O O10 0.551294 0.658051 0.753676
O O11 0.400482 0.143723 0.583107
O O12 0.116707 0.870532 0.373359
O O13 0.150840 0.816589 0.222325
O O14 0.838513 0.783867 0.187275
O O15 0.538800 0.907175 0.104186
O O16 0.694928 0.155553 0.867569
O O17 0.000000 0.500000 0.000000
#
# Coordination Sequence:
#
# PCOD8028010 Si02
#       8
#     2   2   2   2   2   2   2   2
#     4  11  23  44  67  95 133 174 218 264 329 390
#     4  11  23  43  67  94 136 175 220 272 324 385
#     4  10  25  43  65 100 130 168 225 271 327 386
#     4  11  24  43  68  96 134 172 219 268 327 391
#     4  10  25  42  61 100 131 174 217 267 325 387
#     4  11  24  43  69  96 130 177 218 272 326 389
#     4  11  24  43  66 100 128 167 222 270 325 389
#     4  11  23  44  69  95 135 174 213 276 327 390
#
# _framework density 22.381502999999999
#
# number of rings (size 3 to 8) (size 9 to 14) (size 15 to 20)
#    0.000    1.250    1.250    3.375    1.750   11.500 
#    2.250    0.000    0.000    0.000    0.000    0.000 
#    0.000    0.000    0.000    0.000    0.000    0.000 
#
# Total GULP energy -198346.802181 kJ/mol
# GULP energy per Si atom -12396.675136 kJ/mol
# Density = 2.233056 g / cm^3
# Si number density = 22.381503 Si / 1000 Ang^3
#
#
#
# Elastic Constant Matrix: (Units=GPa)
#
#
# Indices 1 2 3 4 5 6 
#
# 1 106.1735 45.9071 10.1844 -7.7629 3.8500 11.7415
# 2 45.9071 127.7935 36.6106 -4.3419 -2.0093 10.7813
# 3 10.1844 36.6106 92.4756 -4.9067 0.7836 10.0798
# 4 -7.7629 -4.3419 -4.9067 44.4882 5.6212 -5.2619
# 5 3.8500 -2.0093 0.7836 5.6212 31.6099 -1.3403
# 6 11.7415 10.7813 10.0798 -5.2619 -1.3403 26.2109
#
#
#
# Elastic Compliance Matrix: (Units=1/GPa)
#
#
# Indices 1 2 3 4 5 6 
#
# 1 0.011719 -0.004122 0.000843 0.001572 -0.002146 -0.003672
# 2 -0.004122 0.010432 -0.003590 -0.000386 0.001277 -0.001076
# 3 0.000843 -0.003590 0.012591 0.000878 -0.000952 -0.003615
# 4 0.001572 -0.000386 0.000878 0.023791 -0.004313 0.003672
# 5 -0.002146 0.001277 -0.000952 -0.004313 0.032837 0.001615
# 6 -0.003672 -0.001076 -0.003615 0.003672 0.001615 0.042450
#
#
# Mechanical properties :
#
#
# Convention : Reuss Voigt Hill
#
# Bulk Modulus (GPa) = 47.60952 56.87183 52.24068
# Shear Modulus (GPa) = 32.35031 36.04451 34.19741
#
# Velocity S-wave (km/s) = 3.80597 4.01741 3.91312
# Velocity P-wave (km/s) = 6.37431 6.85454 6.61879
#
# Compressibility (1/GPa) = 0.02100420
#
# Stress axis : x y z
#
# Youngs Moduli (GPa) = 85.33367 95.85886 79.42288
#
# Poissons Ratio (x) = 0.39510 -0.06696
# Poissons Ratio (y) = 0.35172 0.28513
# Poissons Ratio (z) = -0.07194 0.34414
#
# Static dielectric constant tensor:
#      x y z
#    x 4.388590 -0.209020 0.096700 
#    y -0.209020 4.180760 -0.280560 
#    z 0.096700 -0.280560 4.097150 
# 
# 
# High freq. dielectric constant tensor:
#      x y z
#    x 1.894430 -0.001300 0.002990 
#    y -0.001300 1.884810 -0.009210 
#    z 0.002990 -0.009210 1.880280 
# 
# From -- ./inp_files/68640.got.cif
#   From: 2010.06.25/outbox.cif.g09.slc.cpg/sg2_35_cif.got.tgz:68640.got - 2010.06.27 13:26:56.
