data_PCOD8028363
_publ_section_title
;
Structure prediction by ZEFSAII (Michael W. Deem and Ramdas Pophale) SiO2 
 PCOD8028363
Probable space group: P -1
;
_chemical_formula_sum "Si O2"
_cell_formula_units_Z 16
_cell_length_a 8.551876
_cell_length_b 12.134594
_cell_length_c 15.550013
_cell_angle_alpha 119.205370
_cell_angle_beta 117.887513
_cell_angle_gamma 31.266546
_cell_volume 726.476519
_symmetry_space_group_name_H-M "P -1"
_symmetry_group_IT_number 2
_symmetry_cell_setting 'triclinic'
loop_
_space_group_symop_operation_xyz
x,y,z
-x,-y,-z
loop_
_atom_site_type_symbol
_atom_site_label
_atom_site_fract_x
_atom_site_fract_y
_atom_site_fract_z
Si Si1 0.709722 0.804255 0.912000
Si Si2 0.706038 0.950676 0.628023
Si Si3 0.185624 0.547361 0.216829
Si Si4 0.603390 0.466297 0.416845
Si Si5 0.512435 0.923713 0.200180
Si Si6 0.645110 0.717020 0.472492
Si Si7 0.775772 0.369181 0.923360
Si Si8 0.697119 0.206769 0.956842
O O1 0.695341 0.660276 0.859111
O O2 0.611949 0.893180 0.823148
O O3 0.041362 0.660167 0.966817
O O4 0.500000 0.000000 0.000000
O O5 0.542430 0.906934 0.563877
O O6 0.036056 0.761990 0.594621
O O7 0.725099 0.959407 0.738361
O O8 0.476195 0.189960 0.620936
O O9 0.430865 0.470733 0.311335
O O10 0.118300 0.668560 0.160316
O O11 0.857903 0.740988 0.253080
O O12 0.500000 0.500000 0.500000
O O13 0.498106 0.671955 0.450651
O O14 0.518248 0.789807 0.098745
O O15 0.000000 0.500000 0.500000
O O16 0.774013 0.220839 0.887513
O O17 0.435995 0.613203 0.943240
O O18 0.000000 0.000000 0.000000
#
# Coordination Sequence:
#
# PCOD8028363 Si02
#       8
#     2   2   2   2   2   2   2   2
#     4  12  24  44  69  99 143 186 230 285 347 409
#     4  10  25  45  75 102 134 183 233 286 355 422
#     4  12  28  43  69 102 143 185 240 288 350 420
#     4  11  28  47  71 103 144 182 231 295 354 419
#     4  12  26  42  71 103 139 186 237 285 348 424
#     4   9  22  48  73  97 135 176 227 292 354 409
#     4  11  24  43  64  97 137 181 231 288 340 413
#     4  11  24  41  67  95 138 181 227 286 349 402
#
# _framework density 22.024113
#
# number of rings (size 3 to 8) (size 9 to 14) (size 15 to 20)
#    0.000    1.000    3.750    1.125   10.500    2.500 
#    0.000    0.000    0.000    0.000    0.000    0.000 
#    0.000    0.000    0.000    0.000    0.000    0.000 
#
# Total GULP energy -198236.541826 kJ/mol
# GULP energy per Si atom -12389.783864 kJ/mol
# Density = 2.197399 g / cm^3
# Si number density = 22.024113 Si / 1000 Ang^3
#
#
#
# Elastic Constant Matrix: (Units=GPa)
#
#
# Indices 1 2 3 4 5 6 
#
# 1 113.2664 50.1404 37.2694 -2.1889 -4.1815 11.0562
# 2 50.1404 123.6494 38.9067 -14.4646 -13.6337 5.5088
# 3 37.2694 38.9067 85.6747 -12.8931 -11.1341 -5.1061
# 4 -2.1889 -14.4646 -12.8931 32.3771 -2.3444 -1.3192
# 5 -4.1815 -13.6337 -11.1341 -2.3444 49.5893 -2.5644
# 6 11.0562 5.5088 -5.1061 -1.3192 -2.5644 42.6278
#
#
#
# Elastic Compliance Matrix: (Units=1/GPa)
#
#
# Indices 1 2 3 4 5 6 
#
# 1 0.012216 -0.003924 -0.004340 -0.002888 -0.001333 -0.003351
# 2 -0.003924 0.011206 -0.002520 0.003888 0.002343 -0.000471
# 3 -0.004340 -0.002520 0.016126 0.005372 0.003009 0.003730
# 4 -0.002888 0.003888 0.005372 0.034931 0.003797 0.002200
# 5 -0.001333 0.002343 0.003009 0.003797 0.021647 0.001823
# 6 -0.003351 -0.000471 0.003730 0.002200 0.001823 0.025013
#
#
# Mechanical properties :
#
#
# Convention : Reuss Voigt Hill
#
# Bulk Modulus (GPa) = 55.61679 63.91373 59.76526
# Shear Modulus (GPa) = 33.62482 38.00379 35.81431
#
# Velocity S-wave (km/s) = 3.91158 4.15848 4.03692
# Velocity P-wave (km/s) = 6.76077 7.22082 6.99458
#
# Compressibility (1/GPa) = 0.01798018
#
# Stress axis : x y z
#
# Youngs Moduli (GPa) = 81.86266 89.24103 62.01079
#
# Poissons Ratio (x) = 0.35014 0.26911
# Poissons Ratio (y) = 0.32119 0.15629
# Poissons Ratio (z) = 0.35526 0.22492
#
# Static dielectric constant tensor:
#      x y z
#    x 4.203900 0.200030 0.037710 
#    y 0.200030 4.271130 -0.106320 
#    z 0.037710 -0.106320 3.804040 
# 
# 
# High freq. dielectric constant tensor:
#      x y z
#    x 1.877310 0.010330 0.004510 
#    y 0.010330 1.881170 -0.011870 
#    z 0.004510 -0.011870 1.848530 
# 
# From -- ./inp_files/117224.got.cif
#   From: 2010.06.25/outbox.cif.g09.slc.cpg/sg2_59_cif.got.tgz:117224.got - 2010.06.27 13:26:56.
