data_PCOD8028909
_publ_section_title
;
Structure prediction by ZEFSAII (Michael W. Deem and Ramdas Pophale) SiO2 
 PCOD8028909
Probable space group: P -1
;
_chemical_formula_sum "Si O2"
_cell_formula_units_Z 12
_cell_length_a 10.455036
_cell_length_b 14.804111
_cell_length_c 8.924625
_cell_angle_alpha 68.312349
_cell_angle_beta 150.699507
_cell_angle_gamma 113.881915
_cell_volume 617.711164
_symmetry_space_group_name_H-M "P -1"
_symmetry_group_IT_number 2
_symmetry_cell_setting 'triclinic'
loop_
_space_group_symop_operation_xyz
x,y,z
-x,-y,-z
loop_
_atom_site_type_symbol
_atom_site_label
_atom_site_fract_x
_atom_site_fract_y
_atom_site_fract_z
Si Si1 0.175605 0.959788 0.375497
Si Si2 0.888160 0.745848 0.165411
Si Si3 0.643385 0.262115 0.561163
Si Si4 0.224026 0.453134 0.675674
Si Si5 0.720758 0.053613 0.855399
Si Si6 0.729002 0.469717 0.654951
O O1 0.241436 0.982544 0.253638
O O2 0.029175 0.847913 0.323171
O O3 0.473749 0.985585 0.732712
O O4 0.996826 0.033825 0.222358
O O5 0.815205 0.664975 0.269994
O O6 0.100195 0.706209 0.300779
O O7 0.628286 0.761682 0.797547
O O8 0.681968 0.166653 0.754983
O O9 0.642169 0.352132 0.617202
O O10 0.235173 0.472881 0.499621
O O11 0.000000 0.500000 0.500000
O O12 0.500000 0.500000 0.000000
O O13 0.500000 0.500000 0.500000
O O14 0.000000 0.500000 0.000000
#
# Coordination Sequence:
#
# PCOD8028909 Si02
#       6
#     2   2   2   2   2   2
#     4   9  16  26  44  76 110 134 170 223 277 325
#     4  11  19  32  55  81 108 144 183 228 279 332
#     4  11  20  33  54  78 110 148 184 223 282 331
#     4  12  22  40  60  83 111 152 193 233 286 336
#     4   9  16  27  44  73 110 141 167 218 280 331
#     4  12  25  40  57  83 115 151 193 238 279 335
#
# _framework density 19.426555
#
# number of rings (size 3 to 8) (size 9 to 14) (size 15 to 20)
#    0.000    1.333    3.333    7.000    0.000    0.000 
#    0.000    0.000    0.000    0.000    0.000    7.000 
#    0.000    0.000    0.000    0.000    0.000    0.000 
#
# Total GULP energy -148718.943404 kJ/mol
# GULP energy per Si atom -12393.245284 kJ/mol
# Density = 1.938234 g / cm^3
# Si number density = 19.426555 Si / 1000 Ang^3
#
#
#
# Elastic Constant Matrix: (Units=GPa)
#
#
# Indices 1 2 3 4 5 6 
#
# 1 91.2882 51.4338 56.9437 -6.1230 12.7972 5.0099
# 2 51.4338 176.5154 60.6571 -7.3761 13.7729 12.0930
# 3 56.9437 60.6571 134.8078 1.2135 31.1392 8.1609
# 4 -6.1230 -7.3761 1.2135 29.5900 -3.6033 12.0985
# 5 12.7972 13.7729 31.1392 -3.6033 35.9578 -1.5806
# 6 5.0099 12.0930 8.1609 12.0985 -1.5806 26.2059
#
#
#
# Elastic Compliance Matrix: (Units=1/GPa)
#
#
# Indices 1 2 3 4 5 6 
#
# 1 0.016256 -0.002503 -0.005768 0.003804 0.000467 -0.001884
# 2 -0.002503 0.007498 -0.002117 0.002941 -0.000015 -0.003681
# 3 -0.005768 -0.002117 0.012898 -0.002832 -0.008640 -0.001151
# 4 0.003804 0.002941 -0.002832 0.044701 0.003501 -0.021629
# 5 0.000467 -0.000015 -0.008640 0.003501 0.035621 0.003141
# 6 -0.001884 -0.003681 -0.001151 -0.021629 0.003141 0.050752
#
#
# Mechanical properties :
#
#
# Convention : Reuss Voigt Hill
#
# Bulk Modulus (GPa) = 62.98834 82.29785 72.64310
# Shear Modulus (GPa) = 25.80058 33.92252 29.86155
#
# Velocity S-wave (km/s) = 3.64828 4.18328 3.92491
# Velocity P-wave (km/s) = 7.08807 8.11102 7.61674
#
# Compressibility (1/GPa) = 0.01587595
#
# Stress axis : x y z
#
# Youngs Moduli (GPa) = 61.51658 133.36522 77.53160
#
# Poissons Ratio (x) = 0.33379 0.44724
# Poissons Ratio (y) = 0.15397 0.16411
# Poissons Ratio (z) = 0.35486 0.28229
#
# Static dielectric constant tensor:
#      x y z
#    x 3.297960 0.199120 0.448150 
#    y 0.199120 3.703390 -0.051950 
#    z 0.448150 -0.051950 3.985650 
# 
# 
# High freq. dielectric constant tensor:
#      x y z
#    x 1.702170 0.013020 0.048930 
#    y 0.013020 1.771320 -0.004100 
#    z 0.048930 -0.004100 1.773380 
# 
# From -- ./inp_files/88660.got.cif
#   From: 2010.06.25/outbox.cif.g09.slc.cpg/sg2_45_cif.got.tgz:88660.got - 2010.06.27 13:26:56.
