data_PCOD8028151
_publ_section_title
;
Structure prediction by ZEFSAII (Michael W. Deem and Ramdas Pophale) SiO2 
 PCOD8028151
Probable space group: P -1
;
_chemical_formula_sum "Si O2"
_cell_formula_units_Z 16
_cell_length_a 24.735067
_cell_length_b 18.382372
_cell_length_c 6.380150
_cell_angle_alpha 114.345154
_cell_angle_beta 75.274957
_cell_angle_gamma 161.469427
_cell_volume 740.508908
_symmetry_space_group_name_H-M "P -1"
_symmetry_group_IT_number 2
_symmetry_cell_setting 'triclinic'
loop_
_space_group_symop_operation_xyz
x,y,z
-x,-y,-z
loop_
_atom_site_type_symbol
_atom_site_label
_atom_site_fract_x
_atom_site_fract_y
_atom_site_fract_z
Si Si1 0.158864 0.099667 0.870867
Si Si2 0.712936 0.256812 0.616162
Si Si3 0.650448 0.738240 0.466109
Si Si4 0.420683 0.576741 0.401072
Si Si5 0.982999 0.773437 0.050351
Si Si6 0.134761 0.252837 0.588708
Si Si7 0.727240 0.118742 0.719364
Si Si8 0.904966 0.415552 0.298826
O O1 0.326947 0.289530 0.789025
O O2 0.246461 0.304709 0.105666
O O3 0.959881 0.839477 0.635924
O O4 0.103051 0.965953 0.958782
O O5 0.724038 0.201454 0.711612
O O6 0.787249 0.329715 0.401825
O O7 0.500000 0.000000 0.500000
O O8 0.854102 0.520558 0.849140
O O9 0.500000 0.500000 0.500000
O O10 0.580770 0.728626 0.449801
O O11 0.861166 0.037196 0.706427
O O12 0.338072 0.491671 0.607971
O O13 0.530196 0.804306 0.471938
O O14 0.843924 0.653023 0.135929
O O15 0.000000 0.000000 0.500000
O O16 0.908314 0.310095 0.701443
O O17 0.749783 0.157340 0.996251
O O18 0.000000 0.500000 0.500000
#
# Coordination Sequence:
#
# PCOD8028151 Si02
#       8
#     2   2   2   2   2   2   2   2
#     4  11  24  44  68 100 137 178 220 267 343 408
#     4  11  27  45  69  97 134 182 233 279 334 406
#     4  11  24  44  66 107 138 173 223 273 338 406
#     4  12  24  41  72 100 134 175 223 279 333 408
#     4  11  26  44  68  94 140 180 221 278 336 397
#     4  11  24  45  65  99 139 176 219 276 340 401
#     4  10  25  44  67 100 133 175 226 281 341 392
#     4   9  22  47  66  93 133 173 223 278 340 396
#
# _framework density 21.606763000000001
#
# number of rings (size 3 to 8) (size 9 to 14) (size 15 to 20)
#    0.000    1.250    2.500    1.500   10.500    1.500 
#    4.500    0.000    0.000    0.000    0.000    0.000 
#    0.000    0.000    0.000    0.000    0.000    0.000 
#
# Total GULP energy -198291.688999 kJ/mol
# GULP energy per Si atom -12393.230562 kJ/mol
# Density = 2.155759 g / cm^3
# Si number density = 21.606763 Si / 1000 Ang^3
#
#
#
# Elastic Constant Matrix: (Units=GPa)
#
#
# Indices 1 2 3 4 5 6 
#
# 1 91.7145 48.2970 47.0284 -6.9437 -24.9950 1.2829
# 2 48.2970 121.7640 57.2353 -5.1210 -38.6394 5.4913
# 3 47.0284 57.2353 108.4646 -7.2551 -21.3463 -8.6284
# 4 -6.9437 -5.1210 -7.2551 42.4968 2.4262 -13.9302
# 5 -24.9950 -38.6394 -21.3463 2.4262 42.6008 1.8363
# 6 1.2829 5.4913 -8.6284 -13.9302 1.8363 50.7360
#
#
#
# Elastic Compliance Matrix: (Units=1/GPa)
#
#
# Indices 1 2 3 4 5 6 
#
# 1 0.016022 -0.002604 -0.004650 0.000975 0.004689 -0.000816
# 2 -0.002604 0.014741 -0.005095 -0.001053 0.009480 -0.003028
# 3 -0.004650 -0.005095 0.014282 0.002323 -0.000487 0.003753
# 4 0.000975 -0.001053 0.002323 0.026585 -0.001070 0.007822
# 5 0.004689 0.009480 -0.000487 -0.001070 0.034760 -0.002779
# 6 -0.000816 -0.003028 0.003753 0.007822 -0.002779 0.022945
#
#
# Mechanical properties :
#
#
# Convention : Reuss Voigt Hill
#
# Bulk Modulus (GPa) = 49.14578 69.67383 59.40980
# Shear Modulus (GPa) = 31.09151 38.45887 34.77519
#
# Velocity S-wave (km/s) = 3.79749 4.22352 4.01616
# Velocity P-wave (km/s) = 6.48250 7.49002 7.00440
#
# Compressibility (1/GPa) = 0.02034763
#
# Stress axis : x y z
#
# Youngs Moduli (GPa) = 62.41486 67.83812 70.01582
#
# Poissons Ratio (x) = 0.17663 0.32556
# Poissons Ratio (y) = 0.16251 0.35675
# Poissons Ratio (z) = 0.29022 0.34566
#
# Static dielectric constant tensor:
#      x y z
#    x 3.992110 0.242410 -0.033840 
#    y 0.242410 3.932630 -0.230840 
#    z -0.033840 -0.230840 4.312470 
# 
# 
# High freq. dielectric constant tensor:
#      x y z
#    x 1.844620 0.017300 -0.006030 
#    y 0.017300 1.857560 -0.009420 
#    z -0.006030 -0.009420 1.853920 
# 
# From -- ./inp_files/124846.got.cif
#   From: 2010.06.25/outbox.cif.g09.slc.cpg/sg2_63_cif.got.tgz:124846.got - 2010.06.27 13:26:56.
