data_PCOD8028140
_publ_section_title
;
Structure prediction by ZEFSAII (Michael W. Deem and Ramdas Pophale) SiO2 
 PCOD8028140
Probable space group: P -1
;
_chemical_formula_sum "Si O2"
_cell_formula_units_Z 16
_cell_length_a 10.783125
_cell_length_b 9.846063
_cell_length_c 16.244660
_cell_angle_alpha 59.064770
_cell_angle_beta 150.691050
_cell_angle_gamma 110.017863
_cell_volume 700.746939
_symmetry_space_group_name_H-M "P -1"
_symmetry_group_IT_number 2
_symmetry_cell_setting 'triclinic'
loop_
_space_group_symop_operation_xyz
x,y,z
-x,-y,-z
loop_
_atom_site_type_symbol
_atom_site_label
_atom_site_fract_x
_atom_site_fract_y
_atom_site_fract_z
Si Si1 0.169350 0.120190 0.841524
Si Si2 0.776579 0.550134 0.287779
Si Si3 0.242107 0.994612 0.748115
Si Si4 0.679350 0.099729 0.666196
Si Si5 0.470256 0.356531 0.587839
Si Si6 0.735157 0.753339 0.753505
Si Si7 0.681912 0.410979 0.871773
Si Si8 0.972729 0.262625 0.379746
O O1 0.161055 0.310921 0.776666
O O2 0.960298 0.095387 0.793559
O O3 0.096404 0.061781 0.727767
O O4 0.451789 0.013707 0.065922
O O5 0.501601 0.624071 0.150911
O O6 0.000000 0.500000 0.500000
O O7 0.767476 0.396111 0.273353
O O8 0.190367 0.817652 0.754064
O O9 0.142089 0.121360 0.578601
O O10 0.648412 0.182221 0.712418
O O11 0.446360 0.212460 0.442356
O O12 0.656696 0.912909 0.717240
O O13 0.500000 0.500000 0.500000
O O14 0.569270 0.384727 0.726254
O O15 0.167110 0.351199 0.417090
O O16 0.692650 0.599591 0.827898
O O17 0.037594 0.714464 0.912270
#
# Coordination Sequence:
#
# PCOD8028140 Si02
#       8
#     2   2   2   2   2   2   2   2
#     4  11  24  44  69  98 131 174 222 270 336 388
#     4  12  22  42  72  96 129 177 221 268 330 397
#     4  10  25  44  68  99 133 170 217 286 323 390
#     4  11  25  42  69  97 131 175 221 268 330 396
#     4  12  24  42  67  98 139 175 216 270 329 392
#     4  10  25  44  65  99 128 175 223 268 328 393
#     4  11  24  45  67  96 134 176 220 271 332 385
#     4  11  25  44  68  99 134 173 221 271 333 387
#
# _framework density 22.83278
#
# number of rings (size 3 to 8) (size 9 to 14) (size 15 to 20)
#    0.000    1.000    3.750    1.500    8.750    2.000 
#    4.500    0.000    0.000    0.000    0.000    0.000 
#    0.000    0.000    0.000    0.000    0.000    0.000 
#
# Total GULP energy -198491.160150 kJ/mol
# GULP energy per Si atom -12405.697509 kJ/mol
# Density = 2.278081 g / cm^3
# Si number density = 22.832780 Si / 1000 Ang^3
#
#
#
# Elastic Constant Matrix: (Units=GPa)
#
#
# Indices 1 2 3 4 5 6 
#
# 1 100.2400 40.1594 10.3672 13.3109 18.7121 -15.1660
# 2 40.1594 136.8857 14.6626 -2.5330 2.3416 -22.7769
# 3 10.3672 14.6626 61.9405 2.7646 14.5351 -4.1454
# 4 13.3109 -2.5330 2.7646 37.2481 5.0723 8.0536
# 5 18.7121 2.3416 14.5351 5.0723 29.4538 -5.5321
# 6 -15.1660 -22.7769 -4.1454 8.0536 -5.5321 30.5672
#
#
#
# Elastic Compliance Matrix: (Units=1/GPa)
#
#
# Indices 1 2 3 4 5 6 
#
# 1 0.014008 -0.003391 0.000691 -0.005306 -0.007191 0.004614
# 2 -0.003391 0.009400 -0.002106 0.000336 0.003435 0.005569
# 3 0.000691 -0.002106 0.018759 -0.000424 -0.009511 -0.000292
# 4 -0.005306 0.000336 -0.000424 0.031860 -0.004108 -0.011578
# 5 -0.007191 0.003435 -0.009511 -0.004108 0.044947 0.006919
# 6 0.004614 0.005569 -0.000292 -0.011578 0.006919 0.043417
#
#
# Mechanical properties :
#
#
# Convention : Reuss Voigt Hill
#
# Bulk Modulus (GPa) = 30.71733 47.71608 39.21670
# Shear Modulus (GPa) = 27.34422 35.04562 31.19492
#
# Velocity S-wave (km/s) = 3.46437 3.92201 3.70027
# Velocity P-wave (km/s) = 5.43000 6.43840 5.95558
#
# Compressibility (1/GPa) = 0.03255491
#
# Stress axis : x y z
#
# Youngs Moduli (GPa) = 71.38706 106.38278 53.30911
#
# Poissons Ratio (x) = 0.36077 -0.03684
# Poissons Ratio (y) = 0.24209 0.11226
# Poissons Ratio (z) = -0.04934 0.22402
#
# Static dielectric constant tensor:
#      x y z
#    x 4.022170 -0.106970 0.168190 
#    y -0.106970 4.643690 0.020950 
#    z 0.168190 0.020950 4.083920 
# 
# 
# High freq. dielectric constant tensor:
#      x y z
#    x 1.890930 -0.001350 0.010980 
#    y -0.001350 1.925860 -0.005920 
#    z 0.010980 -0.005920 1.896680 
# 
# From -- ./inp_files/565833.got.cif
#   From: 2010.06.25/outbox.cif.g09.slc.cpg/sg2_283_cif.got.tgz:565833.got - 2010.06.27 13:26:56.
