data_PCOD8028311
_publ_section_title
;
Structure prediction by ZEFSAII (Michael W. Deem and Ramdas Pophale) SiO2 
 PCOD8028311
Probable space group: P -1
;
_chemical_formula_sum "Si O2"
_cell_formula_units_Z 12
_cell_length_a 14.812950
_cell_length_b 11.337770
_cell_length_c 5.001441
_cell_angle_alpha 64.542344
_cell_angle_beta 52.283214
_cell_angle_gamma 51.778251
_cell_volume 520.225398
_symmetry_space_group_name_H-M "P -1"
_symmetry_group_IT_number 2
_symmetry_cell_setting 'triclinic'
loop_
_space_group_symop_operation_xyz
x,y,z
-x,-y,-z
loop_
_atom_site_type_symbol
_atom_site_label
_atom_site_fract_x
_atom_site_fract_y
_atom_site_fract_z
Si Si1 0.768118 0.438695 0.217828
Si Si2 0.733357 0.716356 0.664269
Si Si3 0.207853 0.061829 0.418324
Si Si4 0.450093 0.346653 0.228571
Si Si5 0.933176 0.777281 0.000750
Si Si6 0.378956 0.719872 0.503479
O O1 0.674637 0.500794 0.587250
O O2 0.719123 0.345524 0.214890
O O3 0.765766 0.570500 0.919980
O O4 0.912114 0.330385 0.173074
O O5 0.703849 0.856989 0.774274
O O6 0.605367 0.762436 0.665077
O O7 0.859926 0.679601 0.284774
O O8 0.115936 0.090135 0.817145
O O9 0.301594 0.887026 0.358110
O O10 0.105866 0.140906 0.289320
O O11 0.557231 0.270297 0.342999
O O12 0.510776 0.383876 0.818511
#
# Coordination Sequence:
#
# PCOD8028311 Si02
#       6
#     2   2   2   2   2   2
#     4  12  26  46  73 103 138 180 226 290 335 405
#     4  10  25  45  70 105 135 178 229 282 341 399
#     4  10  25  48  66 107 133 183 225 281 343 400
#     4  12  26  45  70 104 138 182 227 279 341 405
#     4  10  25  45  74 100 138 173 237 276 346 398
#     4  12  28  45  72  99 144 179 230 275 341 412
#
# _framework density 23.066924
#
# number of rings (size 3 to 8) (size 9 to 14) (size 15 to 20)
#    1.000    0.000    1.667    3.500    4.667    4.000 
#    0.000    0.000    0.000    0.000    0.000    0.000 
#    0.000    0.000    0.000    0.000    0.000    0.000 
#
# Total GULP energy -148745.163069 kJ/mol
# GULP energy per Si atom -12395.430256 kJ/mol
# Density = 2.301442 g / cm^3
# Si number density = 23.066924 Si / 1000 Ang^3
#
#
#
# Elastic Constant Matrix: (Units=GPa)
#
#
# Indices 1 2 3 4 5 6 
#
# 1 86.6257 6.5978 36.3544 -15.5848 8.2783 2.5250
# 2 6.5978 -9.2264 20.9479 5.7611 -14.3053 10.5163
# 3 36.3544 20.9479 56.9123 -1.0077 1.4259 10.9338
# 4 -15.5848 5.7611 -1.0077 14.7289 1.8511 4.1514
# 5 8.2783 -14.3053 1.4259 1.8511 44.0225 -0.7221
# 6 2.5250 10.5163 10.9338 4.1514 -0.7221 18.5105
#
#
#
# Elastic Compliance Matrix: (Units=1/GPa)
#
#
# Indices 1 2 3 4 5 6 
#
# 1 0.021491 0.002196 -0.013864 0.021694 -0.003807 -0.001004
# 2 0.002196 -0.037951 0.011215 0.016732 -0.013642 0.010352
# 3 -0.013864 0.011215 0.024983 -0.013569 0.005751 -0.015970
# 4 0.021694 0.016732 -0.013569 0.090694 -0.002425 -0.024885
# 5 -0.003807 -0.013642 0.005751 -0.002425 0.019015 0.006159
# 6 -0.001004 0.010352 -0.015970 -0.024885 0.006159 0.063533
#
#
# Mechanical properties :
#
#
# Convention : Reuss Voigt Hill
#
# Bulk Modulus (GPa) = 131.28449 29.12355 80.20402
# Shear Modulus (GPa) = 26.99644 20.14648 23.57146
#
# Velocity S-wave (km/s) = 3.42475 2.95853 3.20014
# Velocity P-wave (km/s) = 8.52507 4.93190 6.96421
#
# Compressibility (1/GPa) = 0.00761705
#
# Stress axis : x y z
#
# Youngs Moduli (GPa) = 46.53095 -26.34950 40.02780
#
# Poissons Ratio (x) = 0.05787 0.55495
# Poissons Ratio (y) = -0.10218 -0.44892
# Poissons Ratio (z) = 0.64510 0.29552
#
# Static dielectric constant tensor:
#      x y z
#    x 4.442030 0.146190 -0.043080 
#    y 0.146190 3.830870 0.073650 
#    z -0.043080 0.073650 4.091410 
# 
# 
# High freq. dielectric constant tensor:
#      x y z
#    x 1.933430 0.002340 0.003050 
#    y 0.002340 1.888960 -0.002520 
#    z 0.003050 -0.002520 1.909520 
# 
# From -- ./inp_files/71606.got.cif
#   From: 2010.06.25/outbox.cif.g09.slc.cpg/sg2_36_cif.got.tgz:71606.got - 2010.06.27 13:26:56.
