data_PCOD8028911
_publ_section_title
;
Structure prediction by ZEFSAII (Michael W. Deem and Ramdas Pophale) SiO2 
 PCOD8028911
Probable space group: P -1
;
_chemical_formula_sum "Si O2"
_cell_formula_units_Z 14
_cell_length_a 6.763453
_cell_length_b 11.156246
_cell_length_c 10.501164
_cell_angle_alpha 114.698473
_cell_angle_beta 103.168667
_cell_angle_gamma 83.790909
_cell_volume 700.871353
_symmetry_space_group_name_H-M "P -1"
_symmetry_group_IT_number 2
_symmetry_cell_setting 'triclinic'
loop_
_space_group_symop_operation_xyz
x,y,z
-x,-y,-z
loop_
_atom_site_type_symbol
_atom_site_label
_atom_site_fract_x
_atom_site_fract_y
_atom_site_fract_z
Si Si1 0.486924 0.983301 0.836271
Si Si2 0.096370 0.467165 0.862990
Si Si3 0.472535 0.679714 0.634608
Si Si4 0.215522 0.215291 0.880504
Si Si5 0.876180 0.112786 0.960931
Si Si6 0.160758 0.498547 0.409753
Si Si7 0.610007 0.338517 0.111883
O O1 0.459395 0.836010 0.719064
O O2 0.299767 0.070329 0.789718
O O3 0.693311 0.038879 0.828260
O O4 0.500000 0.000000 0.000000
O O5 0.151127 0.309876 0.795369
O O6 0.305656 0.547081 0.915659
O O7 0.946162 0.506813 0.745049
O O8 0.000000 0.500000 0.000000
O O9 0.304000 0.627981 0.487912
O O10 0.699333 0.632993 0.608485
O O11 0.414939 0.606357 0.725286
O O12 0.015054 0.197665 0.927247
O O13 0.389757 0.290737 0.015997
O O14 0.771679 0.216375 0.088655
O O15 0.000000 0.000000 0.000000
O O16 0.000000 0.500000 0.500000
#
# Coordination Sequence:
#
# PCOD8028911 Si02
#       7
#     2   2   2   2   2   2   2
#     4  11  21  36  63  95 128 169 217 271 320 378
#     4  12  24  40  67  97 133 174 215 269 326 386
#     4  11  22  43  67  94 131 168 222 269 318 386
#     4  11  22  37  56  99 131 165 213 269 327 373
#     4  11  19  32  57  94 128 163 210 263 320 373
#     4  11  26  44  66  96 131 175 217 264 327 391
#     4  11  21  37  62  97 130 166 207 270 323 375
#
# _framework density 19.975135999999999
#
# number of rings (size 3 to 8) (size 9 to 14) (size 15 to 20)
#    0.000    0.857    7.143    1.286    2.000    1.143 
#    0.000    0.714    0.000    1.714    0.000    0.000 
#    0.000    0.000    0.000    0.000    0.000    0.000 
#
# Total GULP energy -173516.321634 kJ/mol
# GULP energy per Si atom -12394.022974 kJ/mol
# Density = 1.992967 g / cm^3
# Si number density = 19.975136 Si / 1000 Ang^3
#
#
#
# Elastic Constant Matrix: (Units=GPa)
#
#
# Indices 1 2 3 4 5 6 
#
# 1 140.3540 43.9163 38.0169 4.9404 2.7841 8.9367
# 2 43.9163 118.6640 30.4866 19.8010 -2.1082 -2.2940
# 3 38.0169 30.4866 80.9496 10.9724 4.7410 2.2763
# 4 4.9404 19.8010 10.9724 34.1174 -0.0840 -0.8910
# 5 2.7841 -2.1082 4.7410 -0.0840 28.8509 3.6972
# 6 8.9367 -2.2940 2.2763 -0.8910 3.6972 40.9211
#
#
#
# Elastic Compliance Matrix: (Units=1/GPa)
#
#
# Indices 1 2 3 4 5 6 
#
# 1 0.008945 -0.002724 -0.003281 0.001291 -0.000280 -0.001870
# 2 -0.002724 0.010920 -0.002235 -0.005192 0.001272 0.001103
# 3 -0.003281 -0.002235 0.015305 -0.003159 -0.002356 -0.000116
# 4 0.001291 -0.005192 -0.003159 0.033162 0.000071 0.000318
# 5 -0.000280 0.001272 -0.002356 0.000071 0.035546 -0.002947
# 6 -0.001870 0.001103 -0.000116 0.000318 -0.002947 0.025187
#
#
# Mechanical properties :
#
#
# Convention : Reuss Voigt Hill
#
# Bulk Modulus (GPa) = 53.50404 62.75635 58.13020
# Shear Modulus (GPa) = 32.94345 35.94774 34.44560
#
# Velocity S-wave (km/s) = 4.06547 4.24680 4.15712
# Velocity P-wave (km/s) = 6.99148 7.45201 7.22542
#
# Compressibility (1/GPa) = 0.01869018
#
# Stress axis : x y z
#
# Youngs Moduli (GPa) = 111.79270 91.57606 65.33646
#
# Poissons Ratio (x) = 0.24947 0.21437
# Poissons Ratio (y) = 0.30454 0.14602
# Poissons Ratio (z) = 0.36680 0.20466
#
# Static dielectric constant tensor:
#      x y z
#    x 4.213650 0.001980 0.135720 
#    y 0.001980 4.028310 0.185860 
#    z 0.135720 0.185860 3.349460 
# 
# 
# High freq. dielectric constant tensor:
#      x y z
#    x 1.809100 -0.003120 0.010300 
#    y -0.003120 1.783850 0.024540 
#    z 0.010300 0.024540 1.734090 
# 
# From -- ./inp_files/363472.got.cif
#   From: 2010.06.25/outbox.cif.g09.slc.cpg/sg2_182_cif.got.tgz:363472.got - 2010.06.27 13:26:56.
