data_PCOD8028321
_publ_section_title
;
Structure prediction by ZEFSAII (Michael W. Deem and Ramdas Pophale) SiO2 
 PCOD8028321
Probable space group: P -1
;
_chemical_formula_sum "Si O2"
_cell_formula_units_Z 16
_cell_length_a 11.770792
_cell_length_b 19.007819
_cell_length_c 8.875168
_cell_angle_alpha 134.413283
_cell_angle_beta 54.687168
_cell_angle_gamma 151.005677
_cell_volume 684.197490
_symmetry_space_group_name_H-M "P -1"
_symmetry_group_IT_number 2
_symmetry_cell_setting 'triclinic'
loop_
_space_group_symop_operation_xyz
x,y,z
-x,-y,-z
loop_
_atom_site_type_symbol
_atom_site_label
_atom_site_fract_x
_atom_site_fract_y
_atom_site_fract_z
Si Si1 0.314683 0.811217 0.894925
Si Si2 0.164299 0.666270 0.210959
Si Si3 0.626229 0.257185 0.555951
Si Si4 0.812681 0.093720 0.475038
Si Si5 0.775636 0.558527 0.909267
Si Si6 0.398970 0.114051 0.943333
Si Si7 0.564456 0.530227 0.746249
Si Si8 0.280602 0.256524 0.321945
O O1 0.315109 0.730913 0.643615
O O2 0.049674 0.700112 0.952883
O O3 0.412848 0.820241 0.984924
O O4 0.500000 0.000000 0.000000
O O5 0.144554 0.651235 0.385594
O O6 0.151227 0.770078 0.314114
O O7 0.420012 0.757231 0.137609
O O8 0.000000 0.500000 0.000000
O O9 0.615398 0.369054 0.744685
O O10 0.387638 0.063216 0.496330
O O11 0.047352 0.167351 0.442456
O O12 0.770327 0.060160 0.274336
O O13 0.756692 0.600681 0.823743
O O14 0.668719 0.567051 0.133527
O O15 0.254119 0.123233 0.132461
O O16 0.496298 0.405830 0.491689
O O17 0.678071 0.682186 0.787844
#
# Coordination Sequence:
#
# PCOD8028321 Si02
#       8
#     2   2   2   2   2   2   2   2
#     4  12  26  43  71 104 147 188 237 294 368 425
#     4  11  24  40  71  98 139 182 237 296 353 416
#     4  11  24  43  68 102 140 182 240 292 363 421
#     4  11  25  45  70 104 149 184 242 298 355 424
#     4  11  25  47  69 101 144 189 235 297 358 434
#     4  11  24  44  65 107 139 184 240 290 357 423
#     4  10  25  45  71 101 141 186 245 291 359 421
#     4  11  25  43  75 101 141 188 246 294 358 421
#
# _framework density 23.385061
#
# number of rings (size 3 to 8) (size 9 to 14) (size 15 to 20)
#    0.000    1.000    0.000    6.750   12.250    0.000 
#    2.250    1.250    0.000    0.000    0.000    0.000 
#    0.000    0.000    0.000    0.000    0.000    0.000 
#
# Total GULP energy -198260.958769 kJ/mol
# GULP energy per Si atom -12391.309923 kJ/mol
# Density = 2.333184 g / cm^3
# Si number density = 23.385061 Si / 1000 Ang^3
#
#
#
# Elastic Constant Matrix: (Units=GPa)
#
#
# Indices 1 2 3 4 5 6 
#
# 1 118.2449 34.6127 38.3907 1.4036 0.7699 6.6413
# 2 34.6127 78.1143 26.6668 5.7918 -7.1688 5.4902
# 3 38.3907 26.6668 115.4519 12.2430 -11.6472 -3.5692
# 4 1.4036 5.7918 12.2430 37.3428 -1.1913 -2.0586
# 5 0.7699 -7.1688 -11.6472 -1.1913 45.7728 -1.1894
# 6 6.6413 5.4902 -3.5692 -2.0586 -1.1894 34.0876
#
#
#
# Elastic Compliance Matrix: (Units=1/GPa)
#
#
# Indices 1 2 3 4 5 6 
#
# 1 0.010630 -0.003787 -0.002979 0.001018 -0.001549 -0.001766
# 2 -0.003787 0.015617 -0.002043 -0.001661 0.001894 -0.002026
# 3 -0.002979 -0.002043 0.010738 -0.002907 0.002437 0.001943
# 4 0.001018 -0.001661 -0.002907 0.028023 -0.000250 0.001449
# 5 -0.001549 0.001894 0.002437 -0.000250 0.022810 0.001033
# 6 -0.001766 -0.002026 0.001943 0.001449 0.001033 0.030333
#
#
# Mechanical properties :
#
#
# Convention : Reuss Voigt Hill
#
# Bulk Modulus (GPa) = 51.63434 56.79461 54.21448
# Shear Modulus (GPa) = 35.15559 37.58336 36.36947
#
# Velocity S-wave (km/s) = 3.88149 4.01328 3.94794
# Velocity P-wave (km/s) = 6.49738 6.76865 6.63440
#
# Compressibility (1/GPa) = 0.01936696
#
# Stress axis : x y z
#
# Youngs Moduli (GPa) = 94.07534 64.03472 93.12432
#
# Poissons Ratio (x) = 0.24248 0.27740
# Poissons Ratio (y) = 0.35624 0.19028
# Poissons Ratio (z) = 0.28023 0.13084
#
# Static dielectric constant tensor:
#      x y z
#    x 4.441130 0.268540 0.311470 
#    y 0.268540 4.013340 0.230510 
#    z 0.311470 0.230510 4.377370 
# 
# 
# High freq. dielectric constant tensor:
#      x y z
#    x 1.922930 0.001580 0.014880 
#    y 0.001580 1.914220 -0.001550 
#    z 0.014880 -0.001550 1.950420 
# 
# From -- ./inp_files/283329.got.cif
#   From: 2010.06.25/outbox.cif.g09.slc.cpg/sg2_142_cif.got.tgz:283329.got - 2010.06.27 13:26:56.
