data_PCOD8028438
_publ_section_title
;
Structure prediction by ZEFSAII (Michael W. Deem and Ramdas Pophale) SiO2 
 PCOD8028438
Probable space group: P -1
;
_chemical_formula_sum "Si O2"
_cell_formula_units_Z 12
_cell_length_a 18.406212
_cell_length_b 5.161798
_cell_length_c 8.000951
_cell_angle_alpha 88.633411
_cell_angle_beta 41.105067
_cell_angle_gamma 79.122684
_cell_volume 482.469250
_symmetry_space_group_name_H-M "P -1"
_symmetry_group_IT_number 2
_symmetry_cell_setting 'triclinic'
loop_
_space_group_symop_operation_xyz
x,y,z
-x,-y,-z
loop_
_atom_site_type_symbol
_atom_site_label
_atom_site_fract_x
_atom_site_fract_y
_atom_site_fract_z
Si Si1 0.648533 0.817402 0.686252
Si Si2 0.000696 0.616303 0.180114
Si Si3 0.447558 0.612290 0.277841
Si Si4 0.697030 0.556891 0.935400
Si Si5 0.919612 0.143916 0.488412
Si Si6 0.744898 0.540270 0.213283
O O1 0.567649 0.608431 0.829240
O O2 0.714153 0.758314 0.752072
O O3 0.735828 0.754875 0.377891
O O4 0.567770 0.110544 0.799178
O O5 0.923866 0.923989 0.335850
O O6 0.126643 0.643322 0.009025
O O7 0.963329 0.404225 0.365689
O O8 0.000000 0.500000 0.000000
O O9 0.346263 0.635700 0.590924
O O10 0.568473 0.523746 0.163048
O O11 0.785905 0.262805 0.765892
O O12 0.717919 0.682983 0.076451
O O13 0.000000 0.000000 0.500000
#
# Coordination Sequence:
#
# PCOD8028438 Si02
#       6
#     2   2   2   2   2   2
#     4  10  25  46  70 111 147 188 246 299 377 437
#     4  12  27  52  75 108 150 198 251 310 368 442
#     4  10  25  49  71 112 146 193 244 304 376 438
#     4  12  24  49  77 107 151 195 243 314 365 447
#     4  12  28  49  75 110 146 197 251 304 373 438
#     4  10  26  46  76 108 148 193 249 305 371 445
#
# _framework density 24.872052
#
# number of rings (size 3 to 8) (size 9 to 14) (size 15 to 20)
#    1.000    0.000    1.667    3.500    2.333    4.667 
#    3.000    0.000    0.000    0.000    0.000    0.000 
#    0.000    0.000    0.000    0.000    0.000    0.000 
#
# Total GULP energy -148713.288558 kJ/mol
# GULP energy per Si atom -12392.774046 kJ/mol
# Density = 2.481544 g / cm^3
# Si number density = 24.872052 Si / 1000 Ang^3
#
#
#
# Elastic Constant Matrix: (Units=GPa)
#
#
# Indices 1 2 3 4 5 6 
#
# 1 112.9840 44.6309 54.9031 -7.1348 14.5053 -30.4955
# 2 44.6309 153.8097 66.6320 7.8999 -7.7603 -6.3964
# 3 54.9031 66.6320 122.7874 1.1928 -1.4724 -5.4238
# 4 -7.1348 7.8999 1.1928 25.6921 -10.4636 1.5500
# 5 14.5053 -7.7603 -1.4724 -10.4636 60.4677 2.0491
# 6 -30.4955 -6.3964 -5.4238 1.5500 2.0491 44.3104
#
#
#
# Elastic Compliance Matrix: (Units=1/GPa)
#
#
# Indices 1 2 3 4 5 6 
#
# 1 0.015773 -0.002122 -0.005539 0.003061 -0.003998 0.009949
# 2 -0.002122 0.008981 -0.003912 -0.002675 0.001124 -0.000601
# 3 -0.005539 -0.003912 0.012633 -0.000265 0.001186 -0.002876
# 4 0.003061 -0.002675 -0.000265 0.043221 0.006399 -0.000120
# 5 -0.003998 0.001124 0.001186 0.006399 0.018897 -0.003542
# 6 0.009949 -0.000601 -0.002876 -0.000120 -0.003542 0.029144
#
#
# Mechanical properties :
#
#
# Convention : Reuss Voigt Hill
#
# Bulk Modulus (GPa) = 70.22131 80.21258 75.21694
# Shear Modulus (GPa) = 31.94011 40.98837 36.46424
#
# Velocity S-wave (km/s) = 3.58743 4.06392 3.83309
# Velocity P-wave (km/s) = 6.74195 7.37162 7.06380
#
# Compressibility (1/GPa) = 0.01424069
#
# Stress axis : x y z
#
# Youngs Moduli (GPa) = 63.40069 111.34452 79.15493
#
# Poissons Ratio (x) = 0.23632 0.43845
# Poissons Ratio (y) = 0.13456 0.30964
# Poissons Ratio (z) = 0.35118 0.43556
#
# Static dielectric constant tensor:
#      x y z
#    x 4.636260 0.424070 0.037320 
#    y 0.424070 5.125020 0.051590 
#    z 0.037320 0.051590 4.844740 
# 
# 
# High freq. dielectric constant tensor:
#      x y z
#    x 1.987030 -0.009550 0.002150 
#    y -0.009550 1.969060 0.009830 
#    z 0.002150 0.009830 2.027390 
# 
# From -- ./inp_files/340223.got.cif
#   From: 2010.06.25/outbox.cif.g09.slc.cpg/sg2_171_cif.got.tgz:340223.got - 2010.06.27 13:26:56.
