data_PCOD8028292
_publ_section_title
;
Structure prediction by ZEFSAII (Michael W. Deem and Ramdas Pophale) SiO2 
 PCOD8028292
Probable space group: P -1
;
_chemical_formula_sum "Si O2"
_cell_formula_units_Z 14
_cell_length_a 18.388998
_cell_length_b 5.317867
_cell_length_c 9.280939
_cell_angle_alpha 52.752325
_cell_angle_beta 56.211393
_cell_angle_gamma 56.122178
_cell_volume 566.000519
_symmetry_space_group_name_H-M "P -1"
_symmetry_group_IT_number 2
_symmetry_cell_setting 'triclinic'
loop_
_space_group_symop_operation_xyz
x,y,z
-x,-y,-z
loop_
_atom_site_type_symbol
_atom_site_label
_atom_site_fract_x
_atom_site_fract_y
_atom_site_fract_z
Si Si1 0.400725 0.109578 0.644793
Si Si2 0.250735 0.007685 0.680339
Si Si3 0.898628 0.275418 0.994102
Si Si4 0.557098 0.129748 0.007687
Si Si5 0.124076 0.729296 0.569677
Si Si6 0.073280 0.022168 0.226271
Si Si7 0.699755 0.152942 0.613182
O O1 0.336140 0.887163 0.744215
O O2 0.346056 0.473136 0.522014
O O3 0.500000 0.000000 0.500000
O O4 0.413412 0.109415 0.803241
O O5 0.173352 0.349121 0.694545
O O6 0.299346 0.067440 0.454769
O O7 0.190900 0.756065 0.807595
O O8 0.898068 0.651214 0.886258
O O9 0.870116 0.204834 0.887104
O O10 0.000000 0.000000 0.000000
O O11 0.500000 0.500000 0.000000
O O12 0.650205 0.098350 0.830472
O O13 0.500000 0.000000 0.000000
O O14 0.192954 0.940811 0.431020
O O15 0.037445 0.856957 0.731187
O O16 0.087324 0.770417 0.432589
#
# Coordination Sequence:
#
# PCOD8028292 Si02
#       7
#     2   2   2   2   2   2   2
#     4  11  25  49  75 108 146 194 247 304 376 444
#     4  11  26  44  75 105 150 195 246 312 370 444
#     4  12  25  44  72 106 148 191 251 302 373 432
#     4  12  28  49  78 108 145 191 243 305 373 445
#     4  10  25  45  69 103 146 192 248 304 371 429
#     4  11  26  45  72 103 145 199 246 306 364 443
#     4  11  26  46  74 106 151 191 248 307 369 448
#
# _framework density 24.734960999999998
#
# number of rings (size 3 to 8) (size 9 to 14) (size 15 to 20)
#    0.000    0.857    2.857    2.143   12.000    2.286 
#    0.000    0.000    0.000    0.000    0.000    0.000 
#    0.000    0.000    0.000    0.000    0.000    0.000 
#
# Total GULP energy -173493.136217 kJ/mol
# GULP energy per Si atom -12392.366873 kJ/mol
# Density = 2.467866 g / cm^3
# Si number density = 24.734961 Si / 1000 Ang^3
#
#
#
# Elastic Constant Matrix: (Units=GPa)
#
#
# Indices 1 2 3 4 5 6 
#
# 1 153.1132 32.4248 56.9152 8.8867 -22.3647 4.4063
# 2 32.4248 63.0436 24.3132 15.0411 -8.0763 14.4768
# 3 56.9152 24.3132 156.5971 25.6938 -5.3423 4.8353
# 4 8.8867 15.0411 25.6938 41.0449 6.2484 2.7150
# 5 -22.3647 -8.0763 -5.3423 6.2484 46.4713 0.9775
# 6 4.4063 14.4768 4.8353 2.7150 0.9775 38.5353
#
#
#
# Elastic Compliance Matrix: (Units=1/GPa)
#
#
# Indices 1 2 3 4 5 6 
#
# 1 0.008613 -0.003215 -0.002605 0.000424 0.003221 0.000438
# 2 -0.003215 0.021458 -0.000732 -0.006712 0.003152 -0.007209
# 3 -0.002605 -0.000732 0.008159 -0.004286 0.000137 -0.000153
# 4 0.000424 -0.006712 -0.004286 0.030189 -0.005536 0.001024
# 5 0.003221 0.003152 0.000137 -0.005536 0.024414 -0.001799
# 6 0.000438 -0.007209 -0.000153 0.001024 -0.001799 0.028601
#
#
# Mechanical properties :
#
#
# Convention : Reuss Voigt Hill
#
# Bulk Modulus (GPa) = 39.79613 66.67339 53.23476
# Shear Modulus (GPa) = 34.98617 42.48368 38.73492
#
# Velocity S-wave (km/s) = 3.76499 4.14884 3.96156
# Velocity P-wave (km/s) = 5.91812 7.06853 6.51875
#
# Compressibility (1/GPa) = 0.02512807
#
# Stress axis : x y z
#
# Youngs Moduli (GPa) = 116.09910 46.60181 122.56890
#
# Poissons Ratio (x) = 0.14981 0.31925
# Poissons Ratio (y) = 0.37323 0.08969
# Poissons Ratio (z) = 0.30240 0.03410
#
# Static dielectric constant tensor:
#      x y z
#    x 4.884180 0.209170 0.295120 
#    y 0.209170 4.029870 0.037800 
#    z 0.295120 0.037800 4.440150 
# 
# 
# High freq. dielectric constant tensor:
#      x y z
#    x 2.003210 -0.000420 0.004250 
#    y -0.000420 1.971670 0.023240 
#    z 0.004250 0.023240 1.994630 
# 
# From -- ./inp_files/323247.got.cif
#   From: 2010.06.25/outbox.cif.g09.slc.cpg/sg2_162_cif.got.tgz:323247.got - 2010.06.27 13:26:56.
