data_PCOD8028741
_publ_section_title
;
Structure prediction by ZEFSAII (Michael W. Deem and Ramdas Pophale) SiO2 
 PCOD8028741
Probable space group: P -1
;
_chemical_formula_sum "Si O2"
_cell_formula_units_Z 14
_cell_length_a 22.301014
_cell_length_b 8.629403
_cell_length_c 9.807749
_cell_angle_alpha 133.740381
_cell_angle_beta 151.659086
_cell_angle_gamma 45.854251
_cell_volume 625.690340
_symmetry_space_group_name_H-M "P -1"
_symmetry_group_IT_number 2
_symmetry_cell_setting 'triclinic'
loop_
_space_group_symop_operation_xyz
x,y,z
-x,-y,-z
loop_
_atom_site_type_symbol
_atom_site_label
_atom_site_fract_x
_atom_site_fract_y
_atom_site_fract_z
Si Si1 0.438420 0.818894 0.838440
Si Si2 0.244047 0.553939 0.224376
Si Si3 0.126845 0.955048 0.819850
Si Si4 0.151481 0.403437 0.212307
Si Si5 0.261573 0.207369 0.846607
Si Si6 0.983190 0.151560 0.191163
Si Si7 0.706049 0.527046 0.197293
O O1 0.336023 0.722056 0.484950
O O2 0.355984 0.957443 0.881533
O O3 0.552172 0.601513 0.976224
O O4 0.500000 0.000000 0.000000
O O5 0.208315 0.557911 0.316117
O O6 0.306516 0.311325 0.137357
O O7 0.112330 0.618247 0.908786
O O8 0.087917 0.949752 0.895668
O O9 0.237652 0.738129 0.862792
O O10 0.000000 0.000000 0.500000
O O11 0.183954 0.169058 0.055325
O O12 0.221165 0.377516 0.480686
O O13 0.000000 0.500000 0.000000
O O14 0.276674 0.356811 0.838473
O O15 0.114046 0.187710 0.539462
O O16 0.000000 0.000000 0.000000
#
# Coordination Sequence:
#
# PCOD8028741 Si02
#       7
#     2   2   2   2   2   2   2
#     4  10  26  46  71 100 139 186 238 287 336 411
#     4  12  25  44  70 105 138 182 237 287 342 414
#     4  12  25  42  67 102 139 177 221 284 349 411
#     4  12  26  43  68 103 143 178 224 287 358 411
#     4  11  23  43  73 105 137 177 238 290 343 412
#     4  12  23  41  72 102 138 175 231 290 349 399
#     4  11  25  45  67  97 142 184 230 280 350 406
#
# _framework density 22.375285999999999
#
# number of rings (size 3 to 8) (size 9 to 14) (size 15 to 20)
#    0.000    0.571    4.286    3.857    2.000    5.143 
#    0.000    1.429    0.000    0.000    0.000    0.000 
#    0.000    0.000    0.000    0.000    0.000    0.000 
#
# Total GULP energy -173513.714801 kJ/mol
# GULP energy per Si atom -12393.836772 kJ/mol
# Density = 2.232436 g / cm^3
# Si number density = 22.375286 Si / 1000 Ang^3
#
#
#
# Elastic Constant Matrix: (Units=GPa)
#
#
# Indices 1 2 3 4 5 6 
#
# 1 90.5966 36.1619 48.1590 0.0333 -7.9749 -6.9894
# 2 36.1619 142.8247 58.2349 -1.1762 8.9245 -33.9289
# 3 48.1590 58.2349 105.2529 17.3112 8.1888 -29.0131
# 4 0.0333 -1.1762 17.3112 48.0853 -4.0113 0.5470
# 5 -7.9749 8.9245 8.1888 -4.0113 39.3512 0.5013
# 6 -6.9894 -33.9289 -29.0131 0.5470 0.5013 38.6373
#
#
#
# Elastic Compliance Matrix: (Units=1/GPa)
#
#
# Indices 1 2 3 4 5 6 
#
# 1 0.017005 -0.002324 -0.009311 0.003885 0.006384 -0.006094
# 2 -0.002324 0.010502 -0.002922 0.001050 -0.002222 0.006622
# 3 -0.009311 -0.002922 0.020275 -0.008026 -0.006404 0.011172
# 4 0.003885 0.001050 -0.008026 0.024159 0.004743 -0.004805
# 5 0.006384 -0.002222 -0.006404 0.004743 0.029103 -0.006050
# 6 -0.006094 0.006622 0.011172 -0.004805 -0.006050 0.039130
#
#
# Mechanical properties :
#
#
# Convention : Reuss Voigt Hill
#
# Bulk Modulus (GPa) = 53.56147 69.30955 61.43551
# Shear Modulus (GPa) = 28.48852 38.28932 33.38892
#
# Velocity S-wave (km/s) = 3.57208 4.14119 3.86712
# Velocity P-wave (km/s) = 6.40334 7.34229 6.88883
#
# Compressibility (1/GPa) = 0.01867014
#
# Stress axis : x y z
#
# Youngs Moduli (GPa) = 58.80549 95.22221 49.32132
#
# Poissons Ratio (x) = 0.22128 0.45921
# Poissons Ratio (y) = 0.13665 0.14410
# Poissons Ratio (z) = 0.54751 0.27821
#
# Static dielectric constant tensor:
#      x y z
#    x 0.000000 0.000000 0.000000 
#    y 0.000000 0.000000 0.000000 
#    z 0.000000 0.000000 0.000000 
# 
# 
# High freq. dielectric constant tensor:
#      x y z
#    x 1.878880 -0.018400 -0.002160 
#    y -0.018400 1.894760 0.010000 
#    z -0.002160 0.010000 1.876690 
# 
# From -- ./inp_files/343903.got.cif
#   From: 2010.06.25/outbox.cif.g09.slc.cpg/sg2_172_cif.got.tgz:343903.got - 2010.06.27 13:26:56.
