data_PCOD8028093
_publ_section_title
;
Structure prediction by ZEFSAII (Michael W. Deem and Ramdas Pophale) SiO2 
 PCOD8028093
Probable space group: P -1
;
_chemical_formula_sum "Si O2"
_cell_formula_units_Z 16
_cell_length_a 7.209952
_cell_length_b 11.267995
_cell_length_c 15.668821
_cell_angle_alpha 55.073928
_cell_angle_beta 48.375331
_cell_angle_gamma 56.179785
_cell_volume 747.197996
_symmetry_space_group_name_H-M "P -1"
_symmetry_group_IT_number 2
_symmetry_cell_setting 'triclinic'
loop_
_space_group_symop_operation_xyz
x,y,z
-x,-y,-z
loop_
_atom_site_type_symbol
_atom_site_label
_atom_site_fract_x
_atom_site_fract_y
_atom_site_fract_z
Si Si1 0.863784 0.843988 0.692832
Si Si2 0.390723 0.829445 0.948717
Si Si3 0.735355 0.620070 0.057291
Si Si4 0.811413 0.662336 0.471243
Si Si5 0.970347 0.148694 0.546876
Si Si6 0.673744 0.425318 0.306098
Si Si7 0.378625 0.311273 0.665138
Si Si8 0.837798 0.848637 0.054400
O O1 0.573683 0.869542 0.804367
O O2 0.859310 0.839908 0.592958
O O3 0.039427 0.688127 0.744163
O O4 0.980408 0.976752 0.634439
O O5 0.285841 0.970576 0.987660
O O6 0.537416 0.675407 0.017023
O O7 0.147474 0.799232 0.988684
O O8 0.601669 0.542145 0.201502
O O9 0.785974 0.772982 0.013974
O O10 0.000000 0.500000 0.000000
O O11 0.528424 0.672024 0.589983
O O12 0.799460 0.688319 0.362850
O O13 0.000000 0.500000 0.500000
O O14 0.915155 0.790546 0.430596
O O15 0.677473 0.243130 0.576860
O O16 0.659899 0.518790 0.359610
O O17 0.291783 0.210371 0.802593
#
# Coordination Sequence:
#
# PCOD8028093 Si02
#       8
#     2   2   2   2   2   2   2   2
#     4  11  23  45  65  94 139 169 205 279 331 369
#     4  11  23  46  67  94 130 176 221 261 326 389
#     4  11  24  43  66  98 131 167 215 272 322 385
#     4  12  24  39  68  98 125 172 219 260 323 392
#     4  11  24  43  68  95 131 169 214 270 322 387
#     4  11  23  42  65  96 135 170 212 269 328 381
#     4  11  22  44  65  95 132 167 219 265 320 389
#     4  10  25  43  69  95 127 177 220 268 319 387
#
# _framework density 21.413333999999999
#
# number of rings (size 3 to 8) (size 9 to 14) (size 15 to 20)
#    0.000    1.000    5.000    1.500    1.750    2.000 
#    4.500    0.000    0.000    0.000    0.000    0.000 
#    0.000    0.000    0.000    0.000    0.000    0.000 
#
# Total GULP energy -198481.809355 kJ/mol
# GULP energy per Si atom -12405.113085 kJ/mol
# Density = 2.136460 g / cm^3
# Si number density = 21.413334 Si / 1000 Ang^3
#
#
#
# Elastic Constant Matrix: (Units=GPa)
#
#
# Indices 1 2 3 4 5 6 
#
# 1 99.7019 32.8646 31.3479 4.9158 4.6324 0.7749
# 2 32.8646 105.2395 14.3924 3.4766 4.7036 -6.9038
# 3 31.3479 14.3924 81.5650 7.1564 1.3803 -1.4741
# 4 4.9158 3.4766 7.1564 33.0951 -4.3122 -1.9006
# 5 4.6324 4.7036 1.3803 -4.3122 29.9272 1.7220
# 6 0.7749 -6.9038 -1.4741 -1.9006 1.7220 38.9412
#
#
#
# Elastic Compliance Matrix: (Units=1/GPa)
#
#
# Indices 1 2 3 4 5 6 
#
# 1 0.012542 -0.003327 -0.004155 -0.000839 -0.001291 -0.000981
# 2 -0.003327 0.010824 -0.000520 -0.000593 -0.001363 0.001997
# 3 -0.004155 -0.000520 0.014173 -0.002408 -0.000300 0.000423
# 4 -0.000839 -0.000593 -0.002408 0.031618 0.004824 0.001150
# 5 -0.001291 -0.001363 -0.000300 0.004824 0.034625 -0.001523
# 6 -0.000981 0.001997 0.000423 0.001150 -0.001523 0.026193
#
#
# Mechanical properties :
#
#
# Convention : Reuss Voigt Hill
#
# Bulk Modulus (GPa) = 46.43913 49.30180 47.87047
# Shear Modulus (GPa) = 32.64602 34.25281 33.44941
#
# Velocity S-wave (km/s) = 3.90880 4.00384 3.95661
# Velocity P-wave (km/s) = 6.48889 6.66695 6.57852
#
# Compressibility (1/GPa) = 0.02153357
#
# Stress axis : x y z
#
# Youngs Moduli (GPa) = 79.73060 92.38911 70.55704
#
# Poissons Ratio (x) = 0.30741 0.29320
# Poissons Ratio (y) = 0.26529 0.03668
# Poissons Ratio (z) = 0.33132 0.04803
#
# Static dielectric constant tensor:
#      x y z
#    x 3.834440 0.091750 -0.087230 
#    y 0.091750 4.043330 0.022330 
#    z -0.087230 0.022330 3.844190 
# 
# 
# High freq. dielectric constant tensor:
#      x y z
#    x 1.828790 -0.003320 -0.003420 
#    y -0.003320 1.854230 0.001150 
#    z -0.003420 0.001150 1.845020 
# 
# From -- ./inp_files/446686.got.cif
#   From: 2010.06.25/outbox.cif.g09.slc.cpg/sg2_224_cif.got.tgz:446686.got - 2010.06.27 13:26:56.
