data_PCOD8028475
_publ_section_title
;
Structure prediction by ZEFSAII (Michael W. Deem and Ramdas Pophale) SiO2 
 PCOD8028475
Probable space group: P -1
;
_chemical_formula_sum "Si O2"
_cell_formula_units_Z 12
_cell_length_a 11.310164
_cell_length_b 11.685774
_cell_length_c 10.958388
_cell_angle_alpha 142.540283
_cell_angle_beta 36.776800
_cell_angle_gamma 143.488119
_cell_volume 467.951163
_symmetry_space_group_name_H-M "P -1"
_symmetry_group_IT_number 2
_symmetry_cell_setting 'triclinic'
loop_
_space_group_symop_operation_xyz
x,y,z
-x,-y,-z
loop_
_atom_site_type_symbol
_atom_site_label
_atom_site_fract_x
_atom_site_fract_y
_atom_site_fract_z
Si Si1 0.969254 0.707191 0.181961
Si Si2 0.706811 0.549721 0.784892
Si Si3 0.811198 0.162272 0.344823
Si Si4 0.576338 0.030322 0.666766
Si Si5 0.677717 0.859178 0.679839
Si Si6 0.591059 0.405412 0.109517
O O1 0.849018 0.760181 0.440094
O O2 0.801349 0.640742 0.147872
O O3 0.203511 0.919711 0.153117
O O4 0.000000 0.500000 0.000000
O O5 0.767337 0.361131 0.573389
O O6 0.627771 0.580437 0.742499
O O7 0.925842 0.764151 0.827102
O O8 0.500000 0.500000 0.000000
O O9 0.720064 0.020137 0.423013
O O10 0.677730 0.044702 0.233486
O O11 0.590977 0.885883 0.641114
O O12 0.666776 0.270473 0.843301
O O13 0.466244 0.702549 0.800581
#
# Coordination Sequence:
#
# PCOD8028475 Si02
#       6
#     2   2   2   2   2   2
#     4  11  25  44  71 104 150 195 242 296 377 442
#     4  11  24  47  69 105 142 194 254 300 371 439
#     4  10  25  46  74 100 147 199 240 317 361 439
#     4  11  23  47  71 107 146 190 253 299 379 440
#     4  11  26  47  71 112 148 191 243 312 370 446
#     4  12  25  45  73 107 149 191 248 308 374 445
#
# _framework density 25.643701
#
# number of rings (size 3 to 8) (size 9 to 14) (size 15 to 20)
#    0.000    1.000    3.333    2.000    4.667    2.000 
#    3.000    0.000    0.000    0.000    0.000    0.000 
#    0.000    0.000    0.000    0.000    0.000    0.000 
#
# Total GULP energy -148741.640939 kJ/mol
# GULP energy per Si atom -12395.136745 kJ/mol
# Density = 2.558533 g / cm^3
# Si number density = 25.643701 Si / 1000 Ang^3
#
#
#
# Elastic Constant Matrix: (Units=GPa)
#
#
# Indices 1 2 3 4 5 6 
#
# 1 176.2226 81.2813 26.4408 -14.4458 7.2136 12.0249
# 2 81.2813 94.1940 9.5456 -11.3002 9.9567 15.8578
# 3 26.4408 9.5456 67.6873 0.1033 -1.1244 -0.5477
# 4 -14.4458 -11.3002 0.1033 39.9584 7.3137 0.9318
# 5 7.2136 9.9567 -1.1244 7.3137 39.8535 3.4018
# 6 12.0249 15.8578 -0.5477 0.9318 3.4018 50.1378
#
#
#
# Elastic Compliance Matrix: (Units=1/GPa)
#
#
# Indices 1 2 3 4 5 6 
#
# 1 0.009956 -0.008172 -0.002739 0.001308 -0.000090 0.000149
# 2 -0.008172 0.019028 0.000414 0.003159 -0.003512 -0.003874
# 3 -0.002739 0.000414 0.015809 -0.001110 0.000986 0.000652
# 4 0.001308 0.003159 -0.001110 0.027524 -0.005986 -0.001430
# 5 -0.000090 -0.003512 0.000986 -0.005986 0.027162 -0.000588
# 6 0.000149 -0.003874 0.000652 -0.001430 -0.000588 0.021208
#
#
# Mechanical properties :
#
#
# Convention : Reuss Voigt Hill
#
# Bulk Modulus (GPa) = 42.01719 63.62658 52.82188
# Shear Modulus (GPa) = 33.41937 40.71235 37.06586
#
# Velocity S-wave (km/s) = 3.61393 3.98881 3.80599
# Velocity P-wave (km/s) = 5.81675 6.78821 6.32117
#
# Compressibility (1/GPa) = 0.02379979
#
# Stress axis : x y z
#
# Youngs Moduli (GPa) = 100.44665 52.55293 63.25649
#
# Poissons Ratio (x) = 0.42945 0.17325
# Poissons Ratio (y) = 0.82082 -0.02620
# Poissons Ratio (z) = 0.27511 -0.02177
#
# Static dielectric constant tensor:
#      x y z
#    x 5.603000 0.478010 -0.222380 
#    y 0.478010 4.920050 0.073810 
#    z -0.222380 0.073810 4.633820 
# 
# 
# High freq. dielectric constant tensor:
#      x y z
#    x 2.036310 0.018410 -0.008210 
#    y 0.018410 2.016230 0.015130 
#    z -0.008210 0.015130 2.022220 
# 
# From -- ./inp_files/424375.got.cif
#   From: 2010.06.25/outbox.cif.g09.slc.cpg/sg2_213_cif.got.tgz:424375.got - 2010.06.27 13:26:56.
