data_PCOD8028233
_publ_section_title
;
Structure prediction by ZEFSAII (Michael W. Deem and Ramdas Pophale) SiO2 
 PCOD8028233
Probable space group: P -1
;
_chemical_formula_sum "Si O2"
_cell_formula_units_Z 14
_cell_length_a 14.432653
_cell_length_b 15.941525
_cell_length_c 5.432665
_cell_angle_alpha 92.290690
_cell_angle_beta 98.188124
_cell_angle_gamma 152.343253
_cell_volume 535.421581
_symmetry_space_group_name_H-M "P -1"
_symmetry_group_IT_number 2
_symmetry_cell_setting 'triclinic'
loop_
_space_group_symop_operation_xyz
x,y,z
-x,-y,-z
loop_
_atom_site_type_symbol
_atom_site_label
_atom_site_fract_x
_atom_site_fract_y
_atom_site_fract_z
Si Si1 0.964095 0.833934 0.947169
Si Si2 0.589065 0.981760 0.600108
Si Si3 0.446232 0.580672 0.043529
Si Si4 0.658120 0.329826 0.851207
Si Si5 0.937554 0.262075 0.127674
Si Si6 0.291777 0.223087 0.322609
Si Si7 0.209416 0.691281 0.749320
O O1 0.782538 0.650908 0.042231
O O2 0.872349 0.830771 0.728027
O O3 0.055688 0.831182 0.809685
O O4 0.158030 0.029331 0.207152
O O5 0.557797 0.883816 0.374836
O O6 0.429440 0.828700 0.746068
O O7 0.500000 0.000000 0.500000
O O8 0.838801 0.184888 0.801722
O O9 0.413205 0.653641 0.988972
O O10 0.578649 0.676236 0.361339
O O11 0.560808 0.637949 0.848256
O O12 0.820791 0.505622 0.738097
O O13 0.804011 0.369940 0.007086
O O14 0.780209 0.197152 0.218057
O O15 0.000000 0.500000 0.500000
#
# Coordination Sequence:
#
# PCOD8028233 Si02
#       7
#     2   2   2   2   2   2   2
#     4  10  25  44  75 106 143 190 242 301 364 432
#     4  12  24  40  65  93 134 181 228 277 344 407
#     4  11  26  45  77 105 147 189 243 296 366 429
#     4  11  25  43  64  97 135 179 228 287 342 416
#     4  11  23  44  64  97 135 177 231 282 346 419
#     4  11  25  49  74 108 146 188 240 305 364 431
#     4  12  24  41  68  94 137 180 222 284 341 412
#
# _framework density 26.147618999999999
#
# number of rings (size 3 to 8) (size 9 to 14) (size 15 to 20)
#    0.000    0.857    2.857    3.429    4.000    3.429 
#    0.000    4.286    0.000    0.000    0.000    0.000 
#    0.000    0.000    0.000    0.000    0.000    0.000 
#
# Total GULP energy -173454.903286 kJ/mol
# GULP energy per Si atom -12389.635949 kJ/mol
# Density = 2.608811 g / cm^3
# Si number density = 26.147619 Si / 1000 Ang^3
#
#
#
# Elastic Constant Matrix: (Units=GPa)
#
#
# Indices 1 2 3 4 5 6 
#
# 1 146.9882 3.4356 15.7398 -9.3137 -0.7477 -28.6986
# 2 3.4356 87.6520 23.2225 20.3233 -1.1100 -17.9754
# 3 15.7398 23.2225 95.8278 12.6189 5.1728 1.3574
# 4 -9.3137 20.3233 12.6189 33.8264 0.9570 -3.8910
# 5 -0.7477 -1.1100 5.1728 0.9570 28.5458 7.8098
# 6 -28.6986 -17.9754 1.3574 -3.8910 7.8098 42.5004
#
#
#
# Elastic Compliance Matrix: (Units=1/GPa)
#
#
# Indices 1 2 3 4 5 6 
#
# 1 0.008530 0.000769 -0.002068 0.003467 -0.001325 0.006712
# 2 0.000769 0.015094 -0.002931 -0.007014 -0.000385 0.006426
# 3 -0.002068 -0.002931 0.012082 -0.003633 -0.001388 -0.003099
# 4 0.003467 -0.007014 -0.003633 0.036491 -0.001602 0.003126
# 5 -0.001325 -0.000385 -0.001388 -0.001602 0.037489 -0.008048
# 6 0.006712 0.006426 -0.003099 0.003126 -0.008048 0.032644
#
#
# Mechanical properties :
#
#
# Convention : Reuss Voigt Hill
#
# Bulk Modulus (GPa) = 36.69964 46.14042 41.42003
# Shear Modulus (GPa) = 31.27494 40.17920 35.72707
#
# Velocity S-wave (km/s) = 3.46221 3.92424 3.70044
# Velocity P-wave (km/s) = 5.48165 6.18201 5.84234
#
# Compressibility (1/GPa) = 0.02724823
#
# Stress axis : x y z
#
# Youngs Moduli (GPa) = 117.23038 66.25070 82.76446
#
# Poissons Ratio (x) = -0.05096 0.17113
# Poissons Ratio (y) = -0.09018 0.24257
# Poissons Ratio (z) = 0.24240 0.19417
#
# Static dielectric constant tensor:
#      x y z
#    x 5.416090 0.371420 -0.407330 
#    y 0.371420 7.721400 -1.996890 
#    z -0.407330 -1.996890 6.234420 
# 
# 
# High freq. dielectric constant tensor:
#      x y z
#    x 2.066980 -0.014600 0.004060 
#    y -0.014600 2.053560 0.025310 
#    z 0.004060 0.025310 2.021290 
# 
# From -- ./inp_files/97955.got.cif
#   From: 2010.06.25/outbox.cif.g09.slc.cpg/sg2_49_cif.got.tgz:97955.got - 2010.06.27 13:26:56.
