data_PCOD8028162
_publ_section_title
;
Structure prediction by ZEFSAII (Michael W. Deem and Ramdas Pophale) SiO2 
 PCOD8028162
Probable space group: P -1
;
_chemical_formula_sum "Si O2"
_cell_formula_units_Z 14
_cell_length_a 16.094683
_cell_length_b 25.051946
_cell_length_c 5.149477
_cell_angle_alpha 111.214855
_cell_angle_beta 104.020258
_cell_angle_gamma 18.999139
_cell_volume 595.025997
_symmetry_space_group_name_H-M "P -1"
_symmetry_group_IT_number 2
_symmetry_cell_setting 'triclinic'
loop_
_space_group_symop_operation_xyz
x,y,z
-x,-y,-z
loop_
_atom_site_type_symbol
_atom_site_label
_atom_site_fract_x
_atom_site_fract_y
_atom_site_fract_z
Si Si1 0.742757 0.835834 0.089913
Si Si2 0.854575 0.985144 0.882999
Si Si3 0.340501 0.477389 0.776111
Si Si4 0.179016 0.385418 0.682936
Si Si5 0.626233 0.183848 0.571406
Si Si6 0.446412 0.937022 0.371815
Si Si7 0.473998 0.581219 0.698820
O O1 0.677099 0.817742 0.150804
O O2 0.747369 0.888763 0.374143
O O3 0.036464 0.644406 0.842709
O O4 0.500000 0.000000 0.000000
O O5 0.846409 0.026651 0.679925
O O6 0.741836 0.991704 0.781108
O O7 0.684574 0.122823 0.222711
O O8 0.159976 0.793356 0.869314
O O9 0.577118 0.282579 0.688520
O O10 0.386928 0.468529 0.503689
O O11 0.373013 0.506683 0.066088
O O12 0.346643 0.336945 0.736222
O O13 0.384888 0.200494 0.510706
O O14 0.000000 0.500000 0.500000
O O15 0.000000 0.500000 0.000000
O O16 0.500000 0.500000 0.500000
#
# Coordination Sequence:
#
# PCOD8028162 Si02
#       7
#     2   2   2   2   2   2   2
#     4  11  27  44  73 101 144 192 233 299 354 418
#     4  11  25  47  73 104 142 185 239 282 357 413
#     4  12  28  47  73 106 142 180 241 288 354 416
#     4  11  23  39  66  99 141 184 231 283 345 419
#     4  11  25  43  71 104 140 186 230 294 347 418
#     4  10  25  44  68 104 138 190 234 289 354 422
#     4  12  28  48  76 103 141 187 232 296 341 422
#
# _framework density 23.528382000000001
#
# number of rings (size 3 to 8) (size 9 to 14) (size 15 to 20)
#    0.000    0.857    0.000    5.571   14.000    3.429 
#    0.000    0.000    0.000    0.000    0.000    0.000 
#    0.000    0.000    0.000    0.000    0.000    0.000 
#
# Total GULP energy -173603.252851 kJ/mol
# GULP energy per Si atom -12400.232346 kJ/mol
# Density = 2.347483 g / cm^3
# Si number density = 23.528382 Si / 1000 Ang^3
#
#
#
# Elastic Constant Matrix: (Units=GPa)
#
#
# Indices 1 2 3 4 5 6 
#
# 1 96.8699 11.7604 25.9759 9.5200 -7.2602 0.5520
# 2 11.7604 105.1258 14.3508 -5.0148 -9.8561 -13.1309
# 3 25.9759 14.3508 105.8668 -4.3731 -9.4439 -7.8807
# 4 9.5200 -5.0148 -4.3731 39.5978 -3.1810 -5.4379
# 5 -7.2602 -9.8561 -9.4439 -3.1810 37.2254 4.4687
# 6 0.5520 -13.1309 -7.8807 -5.4379 4.4687 34.3543
#
#
#
# Elastic Compliance Matrix: (Units=1/GPa)
#
#
# Indices 1 2 3 4 5 6 
#
# 1 0.011686 -0.001221 -0.002891 -0.003467 0.001169 -0.002018
# 2 -0.001221 0.010532 -0.000546 0.002288 0.002127 0.004006
# 3 -0.002891 -0.000546 0.010672 0.002287 0.001906 0.002400
# 4 -0.003467 0.002288 0.002287 0.027566 0.002201 0.005532
# 5 0.001169 0.002127 0.001906 0.002201 0.028583 -0.002138
# 6 -0.002018 0.004006 0.002400 0.005532 -0.002138 0.032376
#
#
# Mechanical properties :
#
#
# Convention : Reuss Voigt Hill
#
# Bulk Modulus (GPa) = 42.41600 45.78185 44.09892
# Shear Modulus (GPa) = 36.07755 39.28717 37.68236
#
# Velocity S-wave (km/s) = 3.92007 4.09072 4.00630
# Velocity P-wave (km/s) = 6.20934 6.46625 6.33910
#
# Compressibility (1/GPa) = 0.02357601
#
# Stress axis : x y z
#
# Youngs Moduli (GPa) = 85.56982 94.94578 93.69939
#
# Poissons Ratio (x) = 0.11589 0.27090
# Poissons Ratio (y) = 0.10444 0.05114
# Poissons Ratio (z) = 0.24740 0.05182
#
# Static dielectric constant tensor:
#      x y z
#    x 4.612140 0.251110 -0.150530 
#    y 0.251110 4.406170 -0.100690 
#    z -0.150530 -0.100690 4.389440 
# 
# 
# High freq. dielectric constant tensor:
#      x y z
#    x 1.944080 0.000150 -0.004110 
#    y 0.000150 1.939240 0.002450 
#    z -0.004110 0.002450 1.935160 
# 
# From -- ./inp_files/95492.got.cif
#   From: 2010.06.25/outbox.cif.g09.slc.cpg/sg2_48_cif.got.tgz:95492.got - 2010.06.27 13:26:56.
