data_PCOD8028583
_publ_section_title
;
Structure prediction by ZEFSAII (Michael W. Deem and Ramdas Pophale) SiO2 
 PCOD8028583
Probable space group: P -1
;
_chemical_formula_sum "Si O2"
_cell_formula_units_Z 14
_cell_length_a 14.475190
_cell_length_b 22.495655
_cell_length_c 10.994119
_cell_angle_alpha 33.534530
_cell_angle_beta 139.732323
_cell_angle_gamma 163.019088
_cell_volume 564.494312
_symmetry_space_group_name_H-M "P -1"
_symmetry_group_IT_number 2
_symmetry_cell_setting 'triclinic'
loop_
_space_group_symop_operation_xyz
x,y,z
-x,-y,-z
loop_
_atom_site_type_symbol
_atom_site_label
_atom_site_fract_x
_atom_site_fract_y
_atom_site_fract_z
Si Si1 0.187376 0.082891 0.663001
Si Si2 0.866997 0.530561 0.478531
Si Si3 0.720386 0.974148 0.749046
Si Si4 0.189000 0.377992 0.967728
Si Si5 0.203937 0.754236 0.046976
Si Si6 0.411586 0.908339 0.720679
Si Si7 0.812241 0.827963 0.945334
O O1 0.570573 0.359039 0.564730
O O2 0.000000 0.000000 0.500000
O O3 0.075422 0.056744 0.724932
O O4 0.084260 0.888185 0.900070
O O5 0.773298 0.502347 0.296847
O O6 0.202772 0.808874 0.382975
O O7 0.911807 0.433717 0.687829
O O8 0.790185 0.125566 0.474971
O O9 0.641997 0.814555 0.863779
O O10 0.404669 0.795656 0.819648
O O11 0.033374 0.153829 0.838507
O O12 0.552850 0.582889 0.020153
O O13 0.079493 0.351686 0.033485
O O14 0.282272 0.791965 0.920386
O O15 0.500000 0.000000 0.000000
#
# Coordination Sequence:
#
# PCOD8028583 Si02
#       7
#     2   2   2   2   2   2   2
#     4  12  26  41  71 110 140 172 229 290 355 419
#     4  12  23  43  72 106 142 178 218 294 365 406
#     4  10  25  48  70  95 137 202 230 283 325 422
#     4  12  25  42  71 109 143 177 219 291 367 412
#     4  12  24  40  71 110 139 169 231 287 353 420
#     4  11  25  48  73  97 144 181 240 283 348 402
#     4  11  24  47  72  97 146 183 236 278 351 408
#
# _framework density 24.800958999999999
#
# number of rings (size 3 to 8) (size 9 to 14) (size 15 to 20)
#    0.000    0.571    4.286    3.429    6.000    0.000 
#    0.000   17.143    0.000    0.000    0.000    0.000 
#    0.000    0.000    0.000    0.000    0.000    0.000 
#
# Total GULP energy -173489.010164 kJ/mol
# GULP energy per Si atom -12392.072155 kJ/mol
# Density = 2.474451 g / cm^3
# Si number density = 24.800959 Si / 1000 Ang^3
#
#
#
# Elastic Constant Matrix: (Units=GPa)
#
#
# Indices 1 2 3 4 5 6 
#
# 1 128.7904 4.6745 51.4915 3.0190 -15.9801 5.6604
# 2 4.6745 91.6913 34.2269 8.3319 -12.5325 1.5083
# 3 51.4915 34.2269 129.4183 16.8795 -9.8719 4.0829
# 4 3.0190 8.3319 16.8795 44.4327 6.2257 -4.9263
# 5 -15.9801 -12.5325 -9.8719 6.2257 42.5253 3.4068
# 6 5.6604 1.5083 4.0829 -4.9263 3.4068 33.9029
#
#
#
# Elastic Compliance Matrix: (Units=1/GPa)
#
#
# Indices 1 2 3 4 5 6 
#
# 1 0.009780 0.001469 -0.003968 -0.000072 0.003323 -0.001565
# 2 0.001469 0.012822 -0.003399 -0.001878 0.003902 -0.001071
# 3 -0.003968 -0.003399 0.010718 -0.003358 0.000569 -0.001022
# 4 -0.000072 -0.001878 -0.003358 0.025430 -0.005463 0.004744
# 5 0.003323 0.003902 0.000569 -0.005463 0.027192 -0.004323
# 6 -0.001565 -0.001071 -0.001022 0.004744 -0.004323 0.031052
#
#
# Mechanical properties :
#
#
# Convention : Reuss Voigt Hill
#
# Bulk Modulus (GPa) = 46.45794 58.96509 52.71151
# Shear Modulus (GPa) = 36.77439 41.47265 39.12352
#
# Velocity S-wave (km/s) = 3.85487 4.09371 3.97608
# Velocity P-wave (km/s) = 6.21179 6.79497 6.50991
#
# Compressibility (1/GPa) = 0.02152485
#
# Stress axis : x y z
#
# Youngs Moduli (GPa) = 102.24687 77.99261 93.30180
#
# Poissons Ratio (x) = -0.11456 0.37018
# Poissons Ratio (y) = -0.15019 0.31712
# Poissons Ratio (z) = 0.40567 0.26509
#
# Static dielectric constant tensor:
#      x y z
#    x 4.721450 0.343080 -0.224830 
#    y 0.343080 4.477440 0.107730 
#    z -0.224830 0.107730 4.503060 
# 
# 
# High freq. dielectric constant tensor:
#      x y z
#    x 2.006450 0.008310 -0.002990 
#    y 0.008310 1.984630 0.017800 
#    z -0.002990 0.017800 1.980840 
# 
# From -- ./inp_files/458043.got.cif
#   From: 2010.06.25/outbox.cif.g09.slc.cpg/sg2_230_cif.got.tgz:458043.got - 2010.06.27 13:26:56.
