data_PCOD8028149
_publ_section_title
;
Structure prediction by ZEFSAII (Michael W. Deem and Ramdas Pophale) SiO2 
 PCOD8028149
Probable space group: P -1
;
_chemical_formula_sum "Si O2"
_cell_formula_units_Z 16
_cell_length_a 14.889443
_cell_length_b 19.856697
_cell_length_c 10.158373
_cell_angle_alpha 146.699798
_cell_angle_beta 25.729055
_cell_angle_gamma 152.394742
_cell_volume 593.566228
_symmetry_space_group_name_H-M "P -1"
_symmetry_group_IT_number 2
_symmetry_cell_setting 'triclinic'
loop_
_space_group_symop_operation_xyz
x,y,z
-x,-y,-z
loop_
_atom_site_type_symbol
_atom_site_label
_atom_site_fract_x
_atom_site_fract_y
_atom_site_fract_z
Si Si1 0.230768 0.093250 0.171409
Si Si2 0.488566 0.042405 0.383669
Si Si3 0.238494 0.189814 0.597950
Si Si4 0.701441 0.541221 0.913210
Si Si5 0.004895 0.197771 0.468508
Si Si6 0.270002 0.683831 0.323895
Si Si7 0.005230 0.447190 0.761497
Si Si8 0.710923 0.229725 0.141663
O O1 0.183017 0.163614 0.474390
O O2 0.235713 0.185877 0.188185
O O3 0.001503 0.922104 0.180166
O O4 0.476284 0.091029 0.852830
O O5 0.549678 0.141445 0.595600
O O6 0.679773 0.151710 0.195237
O O7 0.198199 0.956157 0.587867
O O8 0.443989 0.155279 0.304335
O O9 0.323737 0.356146 0.782973
O O10 0.639381 0.396240 0.835028
O O11 0.980091 0.627388 0.628597
O O12 0.500000 0.500000 0.000000
O O13 0.105512 0.340048 0.473400
O O14 0.883354 0.210307 0.783757
O O15 0.265846 0.646099 0.109854
O O16 0.182807 0.597001 0.686546
O O17 0.000000 0.500000 0.000000
#
# Coordination Sequence:
#
# PCOD8028149 Si02
#       8
#     2   2   2   2   2   2   2   2
#     4  11  23  36  64 101 129 166 215 269 323 385
#     4  12  22  41  69  98 131 163 225 275 326 383
#     4  11  20  36  65 103 129 161 216 275 330 377
#     4  11  23  39  65 102 137 162 212 280 335 381
#     4  11  24  42  63  93 137 178 213 264 324 384
#     4  11  24  41  65  94 130 178 215 268 331 385
#     4  10  25  44  66  91 133 179 222 263 324 397
#     4  11  20  40  68  99 130 168 216 278 321 381
#
# _framework density 26.95571
#
# number of rings (size 3 to 8) (size 9 to 14) (size 15 to 20)
#    0.000    1.000    3.750    4.875    3.500    0.500 
#    0.000    3.750    0.000    0.000    0.000    0.000 
#    0.000    0.000    0.000    0.000    0.000    0.000 
#
# Total GULP energy -198376.908290 kJ/mol
# GULP energy per Si atom -12398.556768 kJ/mol
# Density = 2.689436 g / cm^3
# Si number density = 26.955710 Si / 1000 Ang^3
#
#
#
# Elastic Constant Matrix: (Units=GPa)
#
#
# Indices 1 2 3 4 5 6 
#
# 1 175.4876 55.4511 50.1154 30.5354 -27.0242 12.4686
# 2 55.4511 98.5721 14.8696 43.2289 4.8512 -1.6129
# 3 50.1154 14.8696 85.7543 24.2628 -18.4785 0.5766
# 4 30.5354 43.2289 24.2628 38.4850 1.0047 8.3693
# 5 -27.0242 4.8512 -18.4785 1.0047 50.3841 6.8914
# 6 12.4686 -1.6129 0.5766 8.3693 6.8914 46.6329
#
#
#
# Elastic Compliance Matrix: (Units=1/GPa)
#
#
# Indices 1 2 3 4 5 6 
#
# 1 0.009304 -0.006152 -0.004188 0.002884 0.004513 -0.003833
# 2 -0.006152 0.026482 0.006868 -0.030965 -0.003890 0.008608
# 3 -0.004188 0.006868 0.018484 -0.016928 0.003714 0.003618
# 4 0.002884 -0.030965 -0.016928 0.072321 -0.001147 -0.014443
# 5 0.004513 -0.003890 0.003714 -0.001147 0.024688 -0.004830
# 6 -0.003833 0.008608 0.003618 -0.014443 -0.004830 0.026028
#
#
# Mechanical properties :
#
#
# Convention : Reuss Voigt Hill
#
# Bulk Modulus (GPa) = 21.13037 66.74292 43.93664
# Shear Modulus (GPa) = 24.99682 43.05893 34.02787
#
# Velocity S-wave (km/s) = 3.04851 4.00108 3.55683
# Velocity P-wave (km/s) = 4.49969 6.79403 5.76220
#
# Compressibility (1/GPa) = 0.04732526
#
# Stress axis : x y z
#
# Youngs Moduli (GPa) = 107.48225 37.76195 54.10231
#
# Poissons Ratio (x) = 0.23231 0.22660
# Poissons Ratio (y) = 0.66121 -0.37159
# Poissons Ratio (z) = 0.45017 -0.25936
#
# Static dielectric constant tensor:
#      x y z
#    x 5.186810 0.056730 -0.086610 
#    y 0.056730 5.102780 0.283170 
#    z -0.086610 0.283170 4.792110 
# 
# 
# High freq. dielectric constant tensor:
#      x y z
#    x 2.103180 0.006590 -0.008340 
#    y 0.006590 2.090920 0.016460 
#    z -0.008340 0.016460 2.074420 
# 
# From -- ./inp_files/438721.got.cif
#   From: 2010.06.25/outbox.cif.g09.slc.cpg/sg2_220_cif.got.tgz:438721.got - 2010.06.27 13:26:56.
