data_PCOD8028835
_publ_section_title
;
Structure prediction by ZEFSAII (Michael W. Deem and Ramdas Pophale) SiO2 
 PCOD8028835
Probable space group: P -1
;
_chemical_formula_sum "Si O2"
_cell_formula_units_Z 14
_cell_length_a 14.122500
_cell_length_b 11.542469
_cell_length_c 9.061136
_cell_angle_alpha 36.804299
_cell_angle_beta 135.844016
_cell_angle_gamma 124.481423
_cell_volume 616.292108
_symmetry_space_group_name_H-M "P -1"
_symmetry_group_IT_number 2
_symmetry_cell_setting 'triclinic'
loop_
_space_group_symop_operation_xyz
x,y,z
-x,-y,-z
loop_
_atom_site_type_symbol
_atom_site_label
_atom_site_fract_x
_atom_site_fract_y
_atom_site_fract_z
Si Si1 0.221550 0.367259 0.161301
Si Si2 0.907613 0.336188 0.495146
Si Si3 0.963591 0.162409 0.176832
Si Si4 0.218024 0.490259 0.348732
Si Si5 0.377827 0.252685 0.184840
Si Si6 0.152100 0.134060 0.843601
Si Si7 0.332606 0.665089 0.573771
O O1 0.282215 0.414036 0.344256
O O2 0.333759 0.248567 0.311780
O O3 0.097097 0.220890 0.178225
O O4 0.176694 0.571289 0.829240
O O5 0.806710 0.247771 0.597269
O O6 0.000000 0.500000 0.500000
O O7 0.007661 0.161610 0.736357
O O8 0.850397 0.070379 0.035776
O O9 0.903922 0.358444 0.983421
O O10 0.000000 0.000000 0.500000
O O11 0.161289 0.310020 0.559069
O O12 0.322982 0.605428 0.451174
O O13 0.538143 0.192978 0.409187
O O14 0.281950 0.120045 0.112011
O O15 0.358499 0.472733 0.891932
#
# Coordination Sequence:
#
# PCOD8028835 Si02
#       7
#     2   2   2   2   2   2   2
#     4  11  20  35  59  87 123 152 198 244 291 351
#     4  11  17  36  60  88 119 153 192 247 294 347
#     4  12  23  35  59  93 121 155 196 243 304 341
#     4  11  21  38  61  86 120 158 192 247 291 351
#     4   9  20  37  60  92 117 156 200 240 291 360
#     4  11  21  38  62  89 124 151 194 248 296 347
#     4   9  19  37  62  87 119 157 199 235 302 351
#
# _framework density 22.7165
#
# number of rings (size 3 to 8) (size 9 to 14) (size 15 to 20)
#    0.000    1.429    7.143    1.286    0.000    1.143 
#    0.000    0.714    0.000    0.857    0.000    0.000 
#    0.000    0.000    0.000    0.000    0.000    0.000 
#
# Total GULP energy -173523.744870 kJ/mol
# GULP energy per Si atom -12394.553205 kJ/mol
# Density = 2.266480 g / cm^3
# Si number density = 22.716500 Si / 1000 Ang^3
#
#
#
# Elastic Constant Matrix: (Units=GPa)
#
#
# Indices 1 2 3 4 5 6 
#
# 1 139.0860 59.0547 38.5713 29.6128 -2.1818 3.6011
# 2 59.0547 134.1830 24.6277 28.1108 -7.4922 -0.6866
# 3 38.5713 24.6277 67.0779 7.1130 -15.8172 -1.6648
# 4 29.6128 28.1108 7.1130 36.1875 -5.3714 -0.8650
# 5 -2.1818 -7.4922 -15.8172 -5.3714 29.6831 10.8852
# 6 3.6011 -0.6866 -1.6648 -0.8650 10.8852 35.4385
#
#
#
# Elastic Compliance Matrix: (Units=1/GPa)
#
#
# Indices 1 2 3 4 5 6 
#
# 1 0.011301 -0.002769 -0.005729 -0.006568 -0.003957 -0.000416
# 2 -0.002769 0.010046 -0.001400 -0.005169 0.000616 0.000095
# 3 -0.005729 -0.001400 0.021096 0.003333 0.011803 -0.001998
# 4 -0.006568 -0.005169 0.003333 0.037386 0.006935 -0.000494
# 5 -0.003957 0.000616 0.011803 0.006935 0.045845 -0.012944
# 6 -0.000416 0.000095 -0.001998 -0.000494 -0.012944 0.032132
#
#
# Mechanical properties :
#
#
# Convention : Reuss Voigt Hill
#
# Bulk Modulus (GPa) = 44.15572 64.98382 54.56977
# Shear Modulus (GPa) = 27.00473 34.80137 30.90305
#
# Velocity S-wave (km/s) = 3.45160 3.91831 3.69233
# Velocity P-wave (km/s) = 5.94682 7.00995 6.50015
#
# Compressibility (1/GPa) = 0.02264712
#
# Stress axis : x y z
#
# Youngs Moduli (GPa) = 88.48393 99.54151 47.40141
#
# Poissons Ratio (x) = 0.27568 0.27155
# Poissons Ratio (y) = 0.24506 0.06637
# Poissons Ratio (z) = 0.50690 0.13938
#
# Static dielectric constant tensor:
#      x y z
#    x 4.450310 0.084470 -0.013950 
#    y 0.084470 4.218640 0.245270 
#    z -0.013950 0.245270 4.224350 
# 
# 
# High freq. dielectric constant tensor:
#      x y z
#    x 1.882360 -0.004800 -0.015380 
#    y -0.004800 1.895350 0.002490 
#    z -0.015380 0.002490 1.895000 
# 
# From -- ./inp_files/302195.got.cif
#   From: 2010.06.25/outbox.cif.g09.slc.cpg/sg2_152_cif.got.tgz:302195.got - 2010.06.27 13:26:56.
