data_PCOD8028336
_publ_section_title
;
Structure prediction by ZEFSAII (Michael W. Deem and Ramdas Pophale) SiO2 
 PCOD8028336
Probable space group: P -1
;
_chemical_formula_sum "Si O2"
_cell_formula_units_Z 16
_cell_length_a 16.177673
_cell_length_b 11.296422
_cell_length_c 9.088943
_cell_angle_alpha 51.747241
_cell_angle_beta 116.375621
_cell_angle_gamma 72.114625
_cell_volume 656.150845
_symmetry_space_group_name_H-M "P -1"
_symmetry_group_IT_number 2
_symmetry_cell_setting 'triclinic'
loop_
_space_group_symop_operation_xyz
x,y,z
-x,-y,-z
loop_
_atom_site_type_symbol
_atom_site_label
_atom_site_fract_x
_atom_site_fract_y
_atom_site_fract_z
Si Si1 0.342364 0.822399 0.132702
Si Si2 0.293824 0.391978 0.777001
Si Si3 0.854602 0.395002 0.803163
Si Si4 0.578536 0.545464 0.956480
Si Si5 0.881126 0.761249 0.802155
Si Si6 0.280391 0.094136 0.153037
Si Si7 0.634512 0.974868 0.239539
Si Si8 0.177161 0.810338 0.842211
O O1 0.500000 0.500000 0.500000
O O2 0.281509 0.955049 0.143784
O O3 0.184589 0.960212 0.819076
O O4 0.396891 0.899867 0.034525
O O5 0.157045 0.617403 0.371907
O O6 0.303127 0.529200 0.777637
O O7 0.253788 0.295523 0.910015
O O8 0.465346 0.127995 0.035013
O O9 0.767620 0.668296 0.559466
O O10 0.769927 0.380162 0.843341
O O11 0.045150 0.167401 0.181618
O O12 0.446265 0.849566 0.566891
O O13 0.500000 0.500000 0.000000
O O14 0.686970 0.359533 0.044469
O O15 0.869695 0.718161 0.994732
O O16 0.701628 0.002820 0.395657
O O17 0.000000 0.500000 0.000000
O O18 0.000000 0.000000 0.500000
#
# Coordination Sequence:
#
# PCOD8028336 Si02
#       8
#     2   2   2   2   2   2   2   2
#     4  12  25  45  73 108 151 194 244 306 373 449
#     4  12  25  44  75 110 139 184 253 312 354 444
#     4  11  25  45  71 106 143 188 247 304 374 433
#     4  12  28  47  74 107 150 197 249 304 375 445
#     4  10  25  45  72 101 149 190 239 304 377 434
#     4  12  26  46  75 109 144 194 254 302 373 441
#     4  11  22  45  71 103 145 189 241 302 372 437
#     4  12  28  48  75 108 151 198 248 302 380 448
#
# _framework density 24.384637999999999
#
# number of rings (size 3 to 8) (size 9 to 14) (size 15 to 20)
#    0.000    0.500    3.750    3.750    7.000    1.500 
#    0.000    1.250    0.000    0.000    0.000    0.000 
#    0.000    0.000    0.000    0.000    0.000    0.000 
#
# Total GULP energy -198329.793913 kJ/mol
# GULP energy per Si atom -12395.612120 kJ/mol
# Density = 2.432914 g / cm^3
# Si number density = 24.384638 Si / 1000 Ang^3
#
#
#
# Elastic Constant Matrix: (Units=GPa)
#
#
# Indices 1 2 3 4 5 6 
#
# 1 152.9421 56.2826 15.2301 -0.0666 -14.2769 -20.4671
# 2 56.2826 149.2228 13.9749 18.5949 0.4180 -11.6406
# 3 15.2301 13.9749 45.6585 11.7681 -3.3176 -1.0367
# 4 -0.0666 18.5949 11.7681 35.8162 9.1871 3.5884
# 5 -14.2769 0.4180 -3.3176 9.1871 46.6525 8.6579
# 6 -20.4671 -11.6406 -1.0367 3.5884 8.6579 48.5612
#
#
#
# Elastic Compliance Matrix: (Units=1/GPa)
#
#
# Indices 1 2 3 4 5 6 
#
# 1 0.008304 -0.002955 -0.002097 0.001575 0.001676 0.002332
# 2 -0.002955 0.008486 -0.000517 -0.004257 -0.000394 0.001163
# 3 -0.002097 -0.000517 0.025218 -0.008741 0.002942 -0.000348
# 4 0.001575 -0.004257 -0.008741 0.034896 -0.006613 -0.001943
# 5 0.001676 -0.000394 0.002942 -0.006613 0.024043 -0.003123
# 6 0.002332 0.001163 -0.000348 -0.001943 -0.003123 0.022547
#
#
# Mechanical properties :
#
#
# Convention : Reuss Voigt Hill
#
# Bulk Modulus (GPa) = 32.39214 57.64429 45.01822
# Shear Modulus (GPa) = 34.50146 43.69506 39.09826
#
# Velocity S-wave (km/s) = 3.76558 4.23769 4.00859
# Velocity P-wave (km/s) = 5.67616 6.90180 6.31877
#
# Compressibility (1/GPa) = 0.03087168
#
# Stress axis : x y z
#
# Youngs Moduli (GPa) = 120.42933 117.83459 39.65386
#
# Poissons Ratio (x) = 0.34815 0.08314
# Poissons Ratio (y) = 0.35582 0.02050
# Poissons Ratio (z) = 0.25250 0.06092
#
# Static dielectric constant tensor:
#      x y z
#    x 4.735720 -0.025050 0.244950 
#    y -0.025050 4.695560 0.641490 
#    z 0.244950 0.641490 4.684430 
# 
# 
# High freq. dielectric constant tensor:
#      x y z
#    x 1.983440 -0.000180 0.000150 
#    y -0.000180 1.979180 0.026400 
#    z 0.000150 0.026400 1.961620 
# 
# From -- ./inp_files/306527.got.cif
#   From: 2010.06.25/outbox.cif.g09.slc.cpg/sg2_154_cif.got.tgz:306527.got - 2010.06.27 13:26:56.
