data_PCOD8028940
_publ_section_title
;
Structure prediction by ZEFSAII (Michael W. Deem and Ramdas Pophale) SiO2 
 PCOD8028940
Probable space group: P -1
;
_chemical_formula_sum "Si O2"
_cell_formula_units_Z 16
_cell_length_a 18.632027
_cell_length_b 24.507297
_cell_length_c 7.801575
_cell_angle_alpha 92.856658
_cell_angle_beta 77.740368
_cell_angle_gamma 162.917805
_cell_volume 864.881212
_symmetry_space_group_name_H-M "P -1"
_symmetry_group_IT_number 2
_symmetry_cell_setting 'triclinic'
loop_
_space_group_symop_operation_xyz
x,y,z
-x,-y,-z
loop_
_atom_site_type_symbol
_atom_site_label
_atom_site_fract_x
_atom_site_fract_y
_atom_site_fract_z
Si Si1 0.407650 0.451020 0.803753
Si Si2 0.938090 0.408677 0.230648
Si Si3 0.666300 0.031324 0.673375
Si Si4 0.840975 0.317789 0.897794
Si Si5 0.409108 0.273972 0.704240
Si Si6 0.221085 0.219832 0.078156
Si Si7 0.950520 0.593893 0.520099
Si Si8 0.791860 0.643917 0.443392
O O1 0.556726 0.609529 0.850750
O O2 0.674617 0.606787 0.620467
O O3 0.193723 0.321964 0.749510
O O4 0.200783 0.262972 0.994036
O O5 0.005760 0.418355 0.355665
O O6 0.119187 0.594293 0.196315
O O7 0.587033 0.170553 0.363400
O O8 0.026360 0.446464 0.004434
O O9 0.848466 0.209038 0.509787
O O10 0.880275 0.135308 0.627714
O O11 0.506993 0.938923 0.914913
O O12 0.950940 0.353475 0.711143
O O13 0.575556 0.435355 0.516977
O O14 0.609022 0.365092 0.654731
O O15 0.352371 0.264737 0.908820
O O16 0.106118 0.033832 0.735278
#
# Coordination Sequence:
#
# PCOD8028940 Si02
#       8
#     2   2   2   2   2   2   2   2
#     4   9  18  33  57  74 101 138 171 212 255 317
#     4   9  20  36  53  75 107 142 172 220 256 307
#     4   9  19  35  51  76 111 135 171 223 250 311
#     4   9  20  36  52  75 108 139 172 223 252 308
#     4   9  20  34  52  75 109 130 170 221 251 315
#     4   9  18  37  51  76 105 132 172 215 260 304
#     4  11  19  35  56  79 102 145 175 210 267 308
#     4   9  18  34  52  78 104 135 172 210 262 301
#
# _framework density 18.499649999999999
#
# number of rings (size 3 to 8) (size 9 to 14) (size 15 to 20)
#    0.750    2.000    0.000    1.125    0.000    2.500 
#    4.500    3.750    0.000    0.000    0.000    0.000 
#    0.000    0.000    0.000    0.000    0.000    0.000 
#
# Total GULP energy -198267.436624 kJ/mol
# GULP energy per Si atom -12391.714789 kJ/mol
# Density = 1.845754 g / cm^3
# Si number density = 18.499650 Si / 1000 Ang^3
#
#
#
# Elastic Constant Matrix: (Units=GPa)
#
#
# Indices 1 2 3 4 5 6 
#
# 1 70.6009 20.2556 22.4840 -4.4056 -0.1896 12.7368
# 2 20.2556 41.1550 9.6258 -5.9661 -3.8996 -4.3387
# 3 22.4840 9.6258 46.1735 -5.2575 0.3636 4.4488
# 4 -4.4056 -5.9661 -5.2575 27.8827 1.0919 -0.8865
# 5 -0.1896 -3.8996 0.3636 1.0919 24.2175 -2.6681
# 6 12.7368 -4.3387 4.4488 -0.8865 -2.6681 23.4561
#
#
#
# Elastic Compliance Matrix: (Units=1/GPa)
#
#
# Indices 1 2 3 4 5 6 
#
# 1 0.021805 -0.010745 -0.007179 -0.000503 -0.002840 -0.012808
# 2 -0.010745 0.032894 -0.002381 0.005060 0.006486 0.013300
# 3 -0.007179 -0.002381 0.026179 0.003289 -0.001148 -0.001514
# 4 -0.000503 0.005060 0.003289 0.037577 -0.000721 0.001924
# 5 -0.002840 0.006486 -0.001148 -0.000721 0.043229 0.007850
# 6 -0.012808 0.013300 -0.001514 0.001924 0.007850 0.053301
#
#
# Mechanical properties :
#
#
# Convention : Reuss Voigt Hill
#
# Bulk Modulus (GPa) = 24.83398 29.18446 27.00922
# Shear Modulus (GPa) = 18.58616 22.14888 20.36752
#
# Velocity S-wave (km/s) = 3.17310 3.46390 3.32168
# Velocity P-wave (km/s) = 5.18439 5.63986 5.41692
#
# Compressibility (1/GPa) = 0.04026740
#
# Stress axis : x y z
#
# Youngs Moduli (GPa) = 45.86170 30.40058 38.19877
#
# Poissons Ratio (x) = 0.32666 0.27421
# Poissons Ratio (y) = 0.49279 0.09097
# Poissons Ratio (z) = 0.32922 0.07240
#
# Static dielectric constant tensor:
#      x y z
#    x 3.322150 -0.118770 0.054060 
#    y -0.118770 3.260020 -0.103010 
#    z 0.054060 -0.103010 3.335760 
# 
# 
# High freq. dielectric constant tensor:
#      x y z
#    x 1.713370 -0.010700 0.007870 
#    y -0.010700 1.706010 -0.008070 
#    z 0.007870 -0.008070 1.707360 
# 
# From -- ./inp_files/338306.got.cif
#   From: 2010.06.25/outbox.cif.g09.slc.cpg/sg2_170_cif.got.tgz:338306.got - 2010.06.27 13:26:56.
