data_PCOD8028110
_publ_section_title
;
Structure prediction by ZEFSAII (Michael W. Deem and Ramdas Pophale) SiO2 
 PCOD8028110
Probable space group: P -1
;
_chemical_formula_sum "Si O2"
_cell_formula_units_Z 16
_cell_length_a 12.037881
_cell_length_b 11.992883
_cell_length_c 5.762317
_cell_angle_alpha 90.725128
_cell_angle_beta 52.848674
_cell_angle_gamma 86.917071
_cell_volume 661.034608
_symmetry_space_group_name_H-M "P -1"
_symmetry_group_IT_number 2
_symmetry_cell_setting 'triclinic'
loop_
_space_group_symop_operation_xyz
x,y,z
-x,-y,-z
loop_
_atom_site_type_symbol
_atom_site_label
_atom_site_fract_x
_atom_site_fract_y
_atom_site_fract_z
Si Si1 0.220392 0.758163 0.192310
Si Si2 0.993452 0.178661 0.886453
Si Si3 0.237094 0.331267 0.599213
Si Si4 0.141209 0.963846 0.581706
Si Si5 0.389145 0.442536 0.789861
Si Si6 0.512814 0.734516 0.008205
Si Si7 0.149451 0.534375 0.395540
Si Si8 0.555522 0.042493 0.678860
O O1 0.190004 0.888243 0.300861
O O2 0.388301 0.735309 0.975020
O O3 0.148814 0.668548 0.452717
O O4 0.147035 0.754523 0.033442
O O5 0.097151 0.272272 0.821032
O O6 0.064868 0.085062 0.612312
O O7 0.964592 0.109316 0.148465
O O8 0.316468 0.346312 0.739471
O O9 0.200290 0.455110 0.541470
O O10 0.339787 0.251224 0.304961
O O11 0.279097 0.987021 0.555943
O O12 0.500000 0.500000 0.500000
O O13 0.476875 0.387229 0.891299
O O14 0.262163 0.526535 0.042899
O O15 0.481679 0.824532 0.254049
O O16 0.000000 0.500000 0.500000
O O17 0.500000 0.000000 0.500000
O O18 0.500000 0.000000 0.000000
#
# Coordination Sequence:
#
# PCOD8028110 Si02
#       8
#     2   2   2   2   2   2   2   2
#     4  11  23  44  69  93 143 177 240 296 373 436
#     4  11  24  44  67 101 138 185 239 293 373 443
#     4  11  24  44  73 100 141 186 238 298 370 439
#     4  10  26  43  68 101 138 192 235 299 365 443
#     4  11  25  44  70 103 142 189 241 303 375 449
#     4  10  25  43  71 102 135 189 237 303 367 443
#     4  11  24  43  64 106 136 183 236 301 369 445
#     4  11  26  46  74 110 149 192 252 312 370 445
#
# _framework density 24.20448
#
# number of rings (size 3 to 8) (size 9 to 14) (size 15 to 20)
#    0.000    1.250    1.250    2.625    8.750    6.500 
#    2.250    0.000    0.000    0.000    0.000    0.000 
#    0.000    0.000    0.000    0.000    0.000    0.000 
#
# Total GULP energy -198275.180879 kJ/mol
# GULP energy per Si atom -12392.198805 kJ/mol
# Density = 2.414939 g / cm^3
# Si number density = 24.204480 Si / 1000 Ang^3
#
#
#
# Elastic Constant Matrix: (Units=GPa)
#
#
# Indices 1 2 3 4 5 6 
#
# 1 153.4652 34.5024 31.3996 -3.8787 -13.5632 -2.2506
# 2 34.5024 82.3830 3.0726 -7.7732 -4.0594 -0.2161
# 3 31.3996 3.0726 78.3855 -12.5134 -11.6708 2.1412
# 4 -3.8787 -7.7732 -12.5134 33.0210 3.0264 -6.7021
# 5 -13.5632 -4.0594 -11.6708 3.0264 30.3597 -0.6696
# 6 -2.2506 -0.2161 2.1412 -6.7021 -0.6696 43.4305
#
#
#
# Elastic Compliance Matrix: (Units=1/GPa)
#
#
# Indices 1 2 3 4 5 6 
#
# 1 0.008015 -0.003240 -0.002945 -0.001048 0.002129 0.000416
# 2 -0.003240 0.013796 0.001380 0.003410 0.000596 0.000368
# 3 -0.002945 0.001380 0.015380 0.005418 0.004241 -0.000003
# 4 -0.001048 0.003410 0.005418 0.034132 -0.001223 0.004944
# 5 0.002129 0.000596 0.004241 -0.001223 0.035727 0.000266
# 6 0.000416 0.000368 -0.000003 0.004944 0.000266 0.023816
#
#
# Mechanical properties :
#
#
# Convention : Reuss Voigt Hill
#
# Bulk Modulus (GPa) = 36.25766 50.24256 43.25011
# Shear Modulus (GPa) = 33.40709 37.71283 35.55996
#
# Velocity S-wave (km/s) = 3.71914 3.95155 3.83710
# Velocity P-wave (km/s) = 5.78402 6.45153 6.12687
#
# Compressibility (1/GPa) = 0.02758038
#
# Stress axis : x y z
#
# Youngs Moduli (GPa) = 124.76802 72.48548 65.02128
#
# Poissons Ratio (x) = 0.23483 0.19151
# Poissons Ratio (y) = 0.40421 -0.08973
# Poissons Ratio (z) = 0.36748 -0.10003
#
# Static dielectric constant tensor:
#      x y z
#    x 4.533780 -0.136510 -0.225620 
#    y -0.136510 4.768950 0.224910 
#    z -0.225620 0.224910 4.170840 
# 
# 
# High freq. dielectric constant tensor:
#      x y z
#    x 1.972960 -0.004440 -0.019310 
#    y -0.004440 1.977340 0.002510 
#    z -0.019310 0.002510 1.937550 
# 
# From -- ./inp_files/69574.got.cif
#   From: 2010.06.25/outbox.cif.g09.slc.cpg/sg2_35_cif.got.tgz:69574.got - 2010.06.27 13:26:56.
