data_PCOD8028161
_publ_section_title
;
Structure prediction by ZEFSAII (Michael W. Deem and Ramdas Pophale) SiO2 
 PCOD8028161
Probable space group: P -1
;
_chemical_formula_sum "Si O2"
_cell_formula_units_Z 16
_cell_length_a 14.288062
_cell_length_b 11.658848
_cell_length_c 5.298373
_cell_angle_alpha 110.011136
_cell_angle_beta 82.299286
_cell_angle_gamma 127.821436
_cell_volume 651.678997
_symmetry_space_group_name_H-M "P -1"
_symmetry_group_IT_number 2
_symmetry_cell_setting 'triclinic'
loop_
_space_group_symop_operation_xyz
x,y,z
-x,-y,-z
loop_
_atom_site_type_symbol
_atom_site_label
_atom_site_fract_x
_atom_site_fract_y
_atom_site_fract_z
Si Si1 0.690615 0.798416 0.869838
Si Si2 0.128534 0.888680 0.825733
Si Si3 0.308516 0.917605 0.452927
Si Si4 0.034303 0.166318 0.552073
Si Si5 0.704140 0.663872 0.272961
Si Si6 0.557947 0.175239 0.396853
Si Si7 0.558621 0.311264 0.008610
Si Si8 0.914465 0.316802 0.926197
O O1 0.653141 0.709373 0.549254
O O2 0.583521 0.798743 0.003649
O O3 0.724066 0.735788 0.043160
O O4 0.810402 0.971319 0.888989
O O5 0.230120 0.967463 0.628032
O O6 0.003736 0.843298 0.733785
O O7 0.112372 0.734710 0.808679
O O8 0.377188 0.902947 0.645370
O O9 0.210601 0.755118 0.222410
O O10 0.413663 0.047487 0.327380
O O11 0.173635 0.296487 0.636453
O O12 0.971642 0.228569 0.771840
O O13 0.000000 0.000000 0.500000
O O14 0.605504 0.484058 0.139459
O O15 0.609483 0.270864 0.191489
O O16 0.595523 0.285620 0.707428
O O17 0.000000 0.500000 0.000000
#
# Coordination Sequence:
#
# PCOD8028161 Si02
#       8
#     2   2   2   2   2   2   2   2
#     4  12  24  45  71 101 145 184 246 291 371 431
#     4  11  24  44  75  95 145 193 242 301 364 437
#     4  10  25  44  68 104 134 190 239 296 362 436
#     4  11  25  46  70 107 141 191 255 294 360 434
#     4  12  27  42  71 104 144 188 235 309 356 438
#     4  11  25  43  74 103 140 184 244 294 356 450
#     4  12  25  44  70 105 144 185 233 302 376 425
#     4  11  27  45  72 105 149 188 243 308 371 427
#
# _framework density 24.551964999999999
#
# number of rings (size 3 to 8) (size 9 to 14) (size 15 to 20)
#    0.000    0.750    2.500    3.750    7.000    5.000 
#    0.000    0.000    0.000    0.000    0.000    0.000 
#    0.000    0.000    0.000    0.000    0.000    0.000 
#
# Total GULP energy -198263.064751 kJ/mol
# GULP energy per Si atom -12391.441547 kJ/mol
# Density = 2.449608 g / cm^3
# Si number density = 24.551965 Si / 1000 Ang^3
#
#
#
# Elastic Constant Matrix: (Units=GPa)
#
#
# Indices 1 2 3 4 5 6 
#
# 1 76.2420 6.0926 2.5585 -3.4711 8.1484 -4.0088
# 2 6.0926 143.7000 41.5814 6.1203 15.4962 -23.5682
# 3 2.5585 41.5814 108.4112 5.6063 10.0112 -7.2193
# 4 -3.4711 6.1203 5.6063 31.2083 -7.0964 -2.5063
# 5 8.1484 15.4962 10.0112 -7.0964 36.0903 0.7253
# 6 -4.0088 -23.5682 -7.2193 -2.5063 0.7253 28.7166
#
#
#
# Elastic Compliance Matrix: (Units=1/GPa)
#
#
# Indices 1 2 3 4 5 6 
#
# 1 0.013582 0.000034 0.000025 0.001001 -0.002933 0.002091
# 2 0.000034 0.009350 -0.002694 -0.001637 -0.003737 0.006953
# 3 0.000025 -0.002694 0.010573 -0.001829 -0.002148 0.000345
# 4 0.001001 -0.001637 -0.001829 0.034666 0.007777 0.001165
# 5 -0.002933 -0.003737 -0.002148 0.007777 0.032183 -0.004150
# 6 0.002091 0.006953 0.000345 0.001165 -0.004150 0.041114
#
#
# Mechanical properties :
#
#
# Convention : Reuss Voigt Hill
#
# Bulk Modulus (GPa) = 35.41953 47.64647 41.53300
# Shear Modulus (GPa) = 32.02039 37.74443 34.88241
#
# Velocity S-wave (km/s) = 3.61527 3.92513 3.77338
# Velocity P-wave (km/s) = 5.64664 6.32382 5.99480
#
# Compressibility (1/GPa) = 0.02823301
#
# Stress axis : x y z
#
# Youngs Moduli (GPa) = 73.62909 106.95041 94.58154
#
# Poissons Ratio (x) = -0.00359 -0.00236
# Poissons Ratio (y) = -0.00247 0.25484
# Poissons Ratio (z) = -0.00184 0.28816
#
# Static dielectric constant tensor:
#      x y z
#    x 4.423840 0.044100 0.190930 
#    y 0.044100 4.368710 -0.075580 
#    z 0.190930 -0.075580 4.675400 
# 
# 
# High freq. dielectric constant tensor:
#      x y z
#    x 1.979260 0.000140 0.013760 
#    y 0.000140 1.968760 -0.000260 
#    z 0.013760 -0.000260 1.989310 
# 
# From -- ./inp_files/94610.got.cif
#   From: 2010.06.25/outbox.cif.g09.slc.cpg/sg2_48_cif.got.tgz:94610.got - 2010.06.27 13:26:56.
