data_PCOD8028284
_publ_section_title
;
Structure prediction by ZEFSAII (Michael W. Deem and Ramdas Pophale) SiO2 
 PCOD8028284
Probable space group: P -1
;
_chemical_formula_sum "Si O2"
_cell_formula_units_Z 12
_cell_length_a 8.290702
_cell_length_b 8.039687
_cell_length_c 11.019759
_cell_angle_alpha 53.412033
_cell_angle_beta 87.165518
_cell_angle_gamma 53.216546
_cell_volume 414.868641
_symmetry_space_group_name_H-M "P -1"
_symmetry_group_IT_number 2
_symmetry_cell_setting 'triclinic'
loop_
_space_group_symop_operation_xyz
x,y,z
-x,-y,-z
loop_
_atom_site_type_symbol
_atom_site_label
_atom_site_fract_x
_atom_site_fract_y
_atom_site_fract_z
Si Si1 0.589863 0.170943 0.418788
Si Si2 0.053905 0.552301 0.662766
Si Si3 0.689645 0.721123 0.830853
Si Si4 0.143953 0.655295 0.365226
Si Si5 0.843237 0.916799 0.913346
Si Si6 0.425579 0.381537 0.884846
O O1 0.484282 0.103888 0.352714
O O2 0.411465 0.389518 0.435405
O O3 0.660176 0.312132 0.280670
O O4 0.818889 0.854079 0.602687
O O5 0.022387 0.355830 0.690339
O O6 0.128248 0.645438 0.514548
O O7 0.256147 0.364068 0.837153
O O8 0.700229 0.930108 0.808254
O O9 0.592307 0.634454 0.963370
O O10 0.940184 0.419225 0.902577
O O11 0.057157 0.962363 0.198716
O O12 0.685847 0.110690 0.950301
#
# Coordination Sequence:
#
# PCOD8028284 Si02
#       6
#     2   2   2   2   2   2
#     4  11  25  45  72 104 138 181 228 284 343 409
#     4  11  25  45  72 103 138 180 229 287 340 407
#     4  11  25  45  72 103 138 180 229 287 340 407
#     4  10  25  45  69 100 138 184 228 279 341 408
#     4  10  25  45  69 100 138 184 228 279 341 408
#     4  11  25  45  72 104 138 181 228 284 343 409
#
# _framework density 28.924817999999998
#
# number of rings (size 3 to 8) (size 9 to 14) (size 15 to 20)
#    0.000    1.333    0.000    3.000    9.333    8.000 
#    0.000    0.000    0.000    0.000    0.000    0.000 
#    0.000    0.000    0.000    0.000    0.000    0.000 
#
# Total GULP energy -148963.860145 kJ/mol
# GULP energy per Si atom -12413.655012 kJ/mol
# Density = 2.885898 g / cm^3
# Si number density = 28.924818 Si / 1000 Ang^3
#
#
#
# Elastic Constant Matrix: (Units=GPa)
#
#
# Indices 1 2 3 4 5 6 
#
# 1 92.0086 6.1805 24.2627 -1.9050 -15.9604 -11.8812
# 2 6.1805 72.7590 13.5482 1.0322 8.0620 -12.9060
# 3 24.2627 13.5482 125.6977 -7.9679 10.9831 -0.7275
# 4 -1.9050 1.0322 -7.9679 48.2313 12.3670 -12.9723
# 5 -15.9604 8.0620 10.9831 12.3670 43.7332 -0.5958
# 6 -11.8812 -12.9060 -0.7275 -12.9723 -0.5958 41.7829
#
#
#
# Elastic Compliance Matrix: (Units=1/GPa)
#
#
# Indices 1 2 3 4 5 6 
#
# 1 0.013146 -0.000594 -0.003001 -0.000548 0.005862 0.003416
# 2 -0.000594 0.015207 -0.001121 0.001601 -0.003124 0.004961
# 3 -0.003001 -0.001121 0.009134 0.002295 -0.003837 -0.000383
# 4 -0.000548 0.001601 0.002295 0.025325 -0.008122 0.008125
# 5 0.005862 -0.003124 -0.003837 -0.008122 0.028822 -0.001475
# 6 0.003416 0.004961 -0.000383 0.008125 -0.001475 0.028932
#
#
# Mechanical properties :
#
#
# Convention : Reuss Voigt Hill
#
# Bulk Modulus (GPa) = 35.64366 42.04979 38.84673
# Shear Modulus (GPa) = 35.88109 43.18109 39.53109
#
# Velocity S-wave (km/s) = 3.52589 3.86796 3.70088
# Velocity P-wave (km/s) = 5.37824 5.87515 5.63218
#
# Compressibility (1/GPa) = 0.02805548
#
# Stress axis : x y z
#
# Youngs Moduli (GPa) = 76.06617 65.76076 109.47880
#
# Poissons Ratio (x) = 0.03905 0.32852
# Poissons Ratio (y) = 0.04517 0.12276
# Poissons Ratio (z) = 0.22826 0.07374
#
# Static dielectric constant tensor:
#      x y z
#    x 5.574540 -0.157400 -0.548990 
#    y -0.157400 5.223040 0.178760 
#    z -0.548990 0.178760 5.335460 
# 
# 
# High freq. dielectric constant tensor:
#      x y z
#    x 2.192490 -0.014430 -0.035790 
#    y -0.014430 2.172220 0.010650 
#    z -0.035790 0.010650 2.198130 
# 
# From -- ./inp_files/380980.got.cif
#   From: 2010.06.25/outbox.cif.g09.slc.cpg/sg2_191_cif.got.tgz:380980.got - 2010.06.27 13:26:56.
