data_PCOD8028675
_publ_section_title
;
Structure prediction by ZEFSAII (Michael W. Deem and Ramdas Pophale) SiO2 
 PCOD8028675
Probable space group: P -1
;
_chemical_formula_sum "Si O2"
_cell_formula_units_Z 16
_cell_length_a 14.604922
_cell_length_b 11.945461
_cell_length_c 13.989804
_cell_angle_alpha 147.902701
_cell_angle_beta 51.676474
_cell_angle_gamma 104.024436
_cell_volume 747.092227
_symmetry_space_group_name_H-M "P -1"
_symmetry_group_IT_number 2
_symmetry_cell_setting 'triclinic'
loop_
_space_group_symop_operation_xyz
x,y,z
-x,-y,-z
loop_
_atom_site_type_symbol
_atom_site_label
_atom_site_fract_x
_atom_site_fract_y
_atom_site_fract_z
Si Si1 0.149562 0.037891 0.779658
Si Si2 0.046842 0.563458 0.107598
Si Si3 0.847357 0.430070 0.603159
Si Si4 0.261128 0.054182 0.311468
Si Si5 0.467904 0.711313 0.254361
Si Si6 0.061252 0.509696 0.613316
Si Si7 0.666441 0.490825 0.143547
Si Si8 0.482975 0.980025 0.274217
O O1 0.097827 0.881733 0.649566
O O2 0.340814 0.792766 0.475915
O O3 0.110138 0.305986 0.949987
O O4 0.065525 0.161611 0.027044
O O5 0.886428 0.855316 0.466971
O O6 0.161094 0.613516 0.040375
O O7 0.000000 0.500000 0.000000
O O8 0.968665 0.407991 0.575171
O O9 0.855180 0.494309 0.535322
O O10 0.667658 0.692539 0.943396
O O11 0.390122 0.013874 0.265544
O O12 0.202695 0.287023 0.435706
O O13 0.336200 0.751254 0.999150
O O14 0.619517 0.574514 0.122335
O O15 0.410840 0.978494 0.420627
O O16 0.500000 0.500000 0.000000
O O17 0.549775 0.733654 0.476421
#
# Coordination Sequence:
#
# PCOD8028675 Si02
#       8
#     2   2   2   2   2   2   2   2
#     4  11  22  40  66  90 128 162 202 260 309 375
#     4  11  23  37  58  94 131 165 206 243 311 390
#     4  11  24  44  68  88 124 163 213 273 305 365
#     4  11  24  41  60  92 127 167 211 257 309 376
#     4  12  22  38  62  99 131 163 206 247 319 383
#     4  10  26  44  64  95 116 165 225 256 314 363
#     4  12  24  38  62  90 135 174 197 254 315 374
#     4  12  24  41  63  95 130 165 209 253 317 380
#
# _framework density 21.416364999999999
#
# number of rings (size 3 to 8) (size 9 to 14) (size 15 to 20)
#    0.000    0.750    5.000    1.875    5.250    0.500 
#    0.000    0.625    0.000    0.000    0.000    0.000 
#    0.000    0.000    0.000    0.000    0.000    0.000 
#
# Total GULP energy -198273.893006 kJ/mol
# GULP energy per Si atom -12392.118313 kJ/mol
# Density = 2.136762 g / cm^3
# Si number density = 21.416365 Si / 1000 Ang^3
#
#
#
# Elastic Constant Matrix: (Units=GPa)
#
#
# Indices 1 2 3 4 5 6 
#
# 1 104.1488 15.5398 27.6083 0.1756 7.1453 -2.0740
# 2 15.5398 46.3207 18.9924 -1.6403 2.3868 -0.8271
# 3 27.6083 18.9924 110.0295 4.6923 30.3037 7.6891
# 4 0.1756 -1.6403 4.6923 25.3128 1.1217 3.5497
# 5 7.1453 2.3868 30.3037 1.1217 37.9701 8.4643
# 6 -2.0740 -0.8271 7.6891 3.5497 8.4643 28.3097
#
#
#
# Elastic Compliance Matrix: (Units=1/GPa)
#
#
# Indices 1 2 3 4 5 6 
#
# 1 0.010632 -0.002617 -0.002207 -0.000016 -0.000391 0.001421
# 2 -0.002617 0.024191 -0.004252 0.002173 0.002132 0.000760
# 3 -0.002207 -0.004252 0.013162 -0.002174 -0.009598 -0.000719
# 4 -0.000016 0.002173 -0.002174 0.040670 0.001491 -0.004892
# 5 -0.000391 0.002132 -0.009598 0.001491 0.035726 -0.008228
# 6 0.001421 0.000760 -0.000719 -0.004892 -0.008228 0.038719
#
#
# Mechanical properties :
#
#
# Convention : Reuss Voigt Hill
#
# Bulk Modulus (GPa) = 33.51908 42.75336 38.13622
# Shear Modulus (GPa) = 26.15117 31.54244 28.84681
#
# Velocity S-wave (km/s) = 3.49819 3.84190 3.67407
# Velocity P-wave (km/s) = 5.65699 6.29972 5.98699
#
# Compressibility (1/GPa) = 0.02983375
#
# Stress axis : x y z
#
# Youngs Moduli (GPa) = 94.05272 41.33840 75.97364
#
# Poissons Ratio (x) = 0.10819 0.16767
# Poissons Ratio (y) = 0.24615 0.32302
# Poissons Ratio (z) = 0.20757 0.17576
#
# Static dielectric constant tensor:
#      x y z
#    x 3.879540 0.060250 0.167840 
#    y 0.060250 3.682050 -0.060950 
#    z 0.167840 -0.060950 4.332990 
# 
# 
# High freq. dielectric constant tensor:
#      x y z
#    x 1.847790 0.004550 0.013800 
#    y 0.004550 1.812580 0.002380 
#    z 0.013800 0.002380 1.859670 
# 
# From -- ./inp_files/532790.got.cif
#   From: 2010.06.25/outbox.cif.g09.slc.cpg/sg2_267_cif.got.tgz:532790.got - 2010.06.27 13:26:56.
