data_PCOD8028724
_publ_section_title
;
Structure prediction by ZEFSAII (Michael W. Deem and Ramdas Pophale) SiO2 
 PCOD8028724
Probable space group: P -1
;
_chemical_formula_sum "Si O2"
_cell_formula_units_Z 16
_cell_length_a 8.438872
_cell_length_b 14.025129
_cell_length_c 8.815209
_cell_angle_alpha 131.306355
_cell_angle_beta 75.997011
_cell_angle_gamma 100.048011
_cell_volume 760.297778
_symmetry_space_group_name_H-M "P -1"
_symmetry_group_IT_number 2
_symmetry_cell_setting 'triclinic'
loop_
_space_group_symop_operation_xyz
x,y,z
-x,-y,-z
loop_
_atom_site_type_symbol
_atom_site_label
_atom_site_fract_x
_atom_site_fract_y
_atom_site_fract_z
Si Si1 0.316191 0.398257 0.153788
Si Si2 0.527916 0.148020 0.829716
Si Si3 0.999551 0.543007 0.873399
Si Si4 0.519762 0.352840 0.532585
Si Si5 0.247014 0.729151 0.860536
Si Si6 0.045404 0.864013 0.793723
Si Si7 0.818663 0.651983 0.546211
Si Si8 0.359813 0.883661 0.563853
O O1 0.432515 0.524089 0.247625
O O2 0.229816 0.406874 0.344335
O O3 0.177178 0.399131 0.058172
O O4 0.415826 0.270824 0.974910
O O5 0.625809 0.131081 0.634153
O O6 0.421829 0.021159 0.753282
O O7 0.656123 0.163198 0.953265
O O8 0.148988 0.641202 0.909897
O O9 0.025612 0.422342 0.631822
O O10 0.000000 0.500000 0.000000
O O11 0.621226 0.351651 0.349652
O O12 0.328635 0.357923 0.548075
O O13 0.542232 0.225035 0.487911
O O14 0.119665 0.790165 0.840807
O O15 0.169328 0.870648 0.631857
O O16 0.878320 0.796906 0.706091
O O17 0.000000 0.000000 0.000000
#
# Coordination Sequence:
#
# PCOD8028724 Si02
#       8
#     2   2   2   2   2   2   2   2
#     4  12  23  45  70  96 131 181 217 277 328 401
#     4  11  25  45  69  94 139 175 224 272 333 394
#     4  12  27  41  66 102 140 170 217 275 344 390
#     4  11  24  42  73  99 129 175 230 269 328 392
#     4  11  23  43  69 100 131 174 222 276 326 398
#     4  11  25  43  69  98 131 177 223 268 332 401
#     4  12  23  44  66  99 133 172 219 278 331 393
#     4  10  26  46  64  99 136 177 215 279 331 394
#
# _framework density 21.044387
#
# number of rings (size 3 to 8) (size 9 to 14) (size 15 to 20)
#    0.000    0.750    3.750    3.750    7.000    1.500 
#    0.000    0.625    0.000    0.000    0.000    0.000 
#    0.000    0.000    0.000    0.000    0.000    0.000 
#
# Total GULP energy -198482.351809 kJ/mol
# GULP energy per Si atom -12405.146988 kJ/mol
# Density = 2.099649 g / cm^3
# Si number density = 21.044387 Si / 1000 Ang^3
#
#
#
# Elastic Constant Matrix: (Units=GPa)
#
#
# Indices 1 2 3 4 5 6 
#
# 1 102.8994 27.4646 24.2764 13.8784 11.9175 4.1788
# 2 27.4646 95.6229 33.2214 14.9646 -0.7469 9.7535
# 3 24.2764 33.2214 98.5702 23.3239 5.7215 1.9156
# 4 13.8784 14.9646 23.3239 45.1310 3.7735 2.6573
# 5 11.9175 -0.7469 5.7215 3.7735 35.1108 7.1895
# 6 4.1788 9.7535 1.9156 2.6573 7.1895 18.8985
#
#
#
# Elastic Compliance Matrix: (Units=1/GPa)
#
#
# Indices 1 2 3 4 5 6 
#
# 1 0.011353 -0.002633 -0.001314 -0.001670 -0.003639 0.000601
# 2 -0.002633 0.013456 -0.003547 -0.001687 0.003383 -0.007053
# 3 -0.001314 -0.003547 0.012921 -0.005088 -0.001628 0.002146
# 4 -0.001670 -0.001687 -0.005088 0.026042 -0.001137 -0.001474
# 5 -0.003639 0.003383 -0.001628 -0.001137 0.032862 -0.013118
# 6 0.000601 -0.007053 0.002146 -0.001474 -0.013118 0.061402
#
#
# Mechanical properties :
#
#
# Convention : Reuss Voigt Hill
#
# Bulk Modulus (GPa) = 43.97015 51.89082 47.93049
# Shear Modulus (GPa) = 27.68498 33.97006 30.82752
#
# Velocity S-wave (km/s) = 3.63099 4.02208 3.83153
# Velocity P-wave (km/s) = 6.20630 6.80300 6.51149
#
# Compressibility (1/GPa) = 0.02274270
#
# Stress axis : x y z
#
# Youngs Moduli (GPa) = 88.08048 74.31670 77.39507
#
# Poissons Ratio (x) = 0.19565 0.10170
# Poissons Ratio (y) = 0.23188 0.27451
# Poissons Ratio (z) = 0.11575 0.26360
#
# Static dielectric constant tensor:
#      x y z
#    x 3.932770 0.082090 0.003310 
#    y 0.082090 3.821150 0.126040 
#    z 0.003310 0.126040 3.900700 
# 
# 
# High freq. dielectric constant tensor:
#      x y z
#    x 1.831600 0.007500 0.002490 
#    y 0.007500 1.829420 0.007090 
#    z 0.002490 0.007090 1.829820 
# 
# From -- ./inp_files/187549.got.cif
#   From: 2010.06.25/outbox.cif.g09.slc.cpg/sg2_94_cif.got.tgz:187549.got - 2010.06.27 13:26:56.
