data_PCOD8028753
_publ_section_title
;
Structure prediction by ZEFSAII (Michael W. Deem and Ramdas Pophale) SiO2 
 PCOD8028753
Probable space group: P -1
;
_chemical_formula_sum "Si O2"
_cell_formula_units_Z 12
_cell_length_a 7.791936
_cell_length_b 14.238151
_cell_length_c 9.065596
_cell_angle_alpha 51.091112
_cell_angle_beta 127.156117
_cell_angle_gamma 139.693496
_cell_volume 490.402226
_symmetry_space_group_name_H-M "P -1"
_symmetry_group_IT_number 2
_symmetry_cell_setting 'triclinic'
loop_
_space_group_symop_operation_xyz
x,y,z
-x,-y,-z
loop_
_atom_site_type_symbol
_atom_site_label
_atom_site_fract_x
_atom_site_fract_y
_atom_site_fract_z
Si Si1 0.822303 0.330964 0.008254
Si Si2 0.776452 0.668489 0.993966
Si Si3 0.011940 0.676295 0.410488
Si Si4 0.764864 0.115120 0.425553
Si Si5 0.546879 0.382351 0.584584
Si Si6 0.641984 0.824577 0.564959
O O1 0.698805 0.203932 0.196245
O O2 0.996910 0.309305 0.013538
O O3 0.571457 0.299816 0.815777
O O4 0.000000 0.500000 0.000000
O O5 0.720237 0.785636 0.796172
O O6 0.500000 0.500000 0.000000
O O7 0.877980 0.703614 0.179670
O O8 0.990468 0.760763 0.458317
O O9 0.323273 0.749940 0.468862
O O10 0.839491 0.494769 0.537306
O O11 0.500000 0.000000 0.500000
O O12 0.822929 0.010890 0.466238
O O13 0.500000 0.500000 0.500000
O O14 0.315837 0.251595 0.478839
#
# Coordination Sequence:
#
# PCOD8028753 Si02
#       6
#     2   2   2   2   2   2
#     4  12  25  45  73 104 143 189 242 287 352 431
#     4  12  25  41  76 108 138 189 240 290 354 419
#     4  11  23  46  69 105 141 188 233 290 353 420
#     4  10  26  46  73 102 146 191 230 299 360 409
#     4  12  24  41  72 107 140 182 242 297 348 420
#     4  11  24  46  69 101 147 185 234 292 351 421
#
# _framework density 24.469709000000002
#
# number of rings (size 3 to 8) (size 9 to 14) (size 15 to 20)
#    0.000    0.667    5.000    2.500    2.333    2.000 
#    0.000    0.000    0.000    0.000    0.000    0.000 
#    0.000    0.000    0.000    0.000    0.000    0.000 
#
# Total GULP energy -148815.160315 kJ/mol
# GULP energy per Si atom -12401.263360 kJ/mol
# Density = 2.441402 g / cm^3
# Si number density = 24.469709 Si / 1000 Ang^3
#
#
#
# Elastic Constant Matrix: (Units=GPa)
#
#
# Indices 1 2 3 4 5 6 
#
# 1 56.4108 23.5056 28.3035 2.8541 -4.6233 -27.4641
# 2 23.5056 154.6517 86.3616 -7.5623 -4.5176 -34.9038
# 3 28.3035 86.3616 268.3589 -1.1748 -0.7010 -17.2116
# 4 2.8541 -7.5623 -1.1748 51.7656 -0.6973 -3.9938
# 5 -4.6233 -4.5176 -0.7010 -0.6973 38.0023 1.4194
# 6 -27.4641 -34.9038 -17.2116 -3.9938 1.4194 39.1975
#
#
#
# Elastic Compliance Matrix: (Units=1/GPa)
#
#
# Indices 1 2 3 4 5 6 
#
# 1 0.028172 0.001562 -0.002177 0.000214 0.002826 0.020093
# 2 0.001562 0.009905 -0.002772 0.001995 0.001022 0.008863
# 3 -0.002177 -0.002772 0.004721 -0.000333 -0.000441 -0.001939
# 4 0.000214 0.001995 -0.000333 0.019889 0.000480 0.003789
# 5 0.002826 0.001022 -0.000441 0.000480 0.026714 0.001778
# 6 0.020093 0.008863 -0.001939 0.003789 0.001778 0.046953
#
#
# Mechanical properties :
#
#
# Convention : Reuss Voigt Hill
#
# Bulk Modulus (GPa) = 27.76027 83.97363 55.86695
# Shear Modulus (GPa) = 32.22989 48.54312 40.38651
#
# Velocity S-wave (km/s) = 3.63317 4.45882 4.06700
# Velocity P-wave (km/s) = 5.38231 7.80385 6.70333
#
# Compressibility (1/GPa) = 0.03602270
#
# Stress axis : x y z
#
# Youngs Moduli (GPa) = 35.49631 100.96296 211.81294
#
# Poissons Ratio (x) = -0.15766 0.46107
# Poissons Ratio (y) = -0.05543 0.58721
# Poissons Ratio (z) = 0.07727 0.27990
#
# Static dielectric constant tensor:
#      x y z
#    x 5.037210 -0.430120 -0.461500 
#    y -0.430120 5.384490 -0.061200 
#    z -0.461500 -0.061200 5.129310 
# 
# 
# High freq. dielectric constant tensor:
#      x y z
#    x 1.990800 -0.007060 -0.005450 
#    y -0.007060 1.982610 0.002920 
#    z -0.005450 0.002920 1.975360 
# 
# From -- ./inp_files/152466.got.cif
#   From: 2010.06.25/outbox.cif.g09.slc.cpg/sg2_77_cif.got.tgz:152466.got - 2010.06.27 13:26:56.
