data_PCOD8028663
_publ_section_title
;
Structure prediction by ZEFSAII (Michael W. Deem and Ramdas Pophale) SiO2 
 PCOD8028663
Probable space group: P -1
;
_chemical_formula_sum "Si O2"
_cell_formula_units_Z 16
_cell_length_a 20.509200
_cell_length_b 9.086508
_cell_length_c 6.482297
_cell_angle_alpha 52.173997
_cell_angle_beta 125.337188
_cell_angle_gamma 132.818893
_cell_volume 672.140279
_symmetry_space_group_name_H-M "P -1"
_symmetry_group_IT_number 2
_symmetry_cell_setting 'triclinic'
loop_
_space_group_symop_operation_xyz
x,y,z
-x,-y,-z
loop_
_atom_site_type_symbol
_atom_site_label
_atom_site_fract_x
_atom_site_fract_y
_atom_site_fract_z
Si Si1 0.356514 0.255108 0.935324
Si Si2 0.085491 0.610839 0.716218
Si Si3 0.576768 0.981754 0.437954
Si Si4 0.815419 0.614502 0.808477
Si Si5 0.279267 0.970950 0.651938
Si Si6 0.911052 0.017170 0.351399
Si Si7 0.388033 0.669020 0.476282
Si Si8 0.782709 0.797472 0.963106
O O1 0.413943 0.478728 0.722029
O O2 0.300956 0.050449 0.858464
O O3 0.410560 0.181971 0.247772
O O4 0.289886 0.319071 0.885531
O O5 0.182774 0.746418 0.655793
O O6 0.064546 0.754063 0.709497
O O7 0.000000 0.500000 0.500000
O O8 0.102747 0.442314 0.025974
O O9 0.465835 0.842583 0.310390
O O10 0.635970 0.043175 0.283561
O O11 0.604378 0.206868 0.404020
O O12 0.713849 0.418123 0.731036
O O13 0.815424 0.653498 0.022837
O O14 0.840056 0.827500 0.539035
O O15 0.267995 0.142091 0.352754
O O16 0.000000 0.000000 0.500000
O O17 0.869869 0.997670 0.063067
#
# Coordination Sequence:
#
# PCOD8028663 Si02
#       8
#     2   2   2   2   2   2   2   2
#     4  11  21  45  67  97 136 183 228 280 338 405
#     4  12  27  46  70 105 138 178 231 283 341 414
#     4  10  26  41  69  99 142 180 227 290 335 408
#     4  12  26  46  73  98 142 181 229 286 341 411
#     4  11  23  46  69  99 142 180 229 285 338 402
#     4  12  27  48  70 101 138 179 233 286 343 408
#     4  11  22  46  65 104 136 179 236 275 346 409
#     4  11  21  44  72  94 135 185 219 288 340 397
#
# _framework density 23.804555000000001
#
# number of rings (size 3 to 8) (size 9 to 14) (size 15 to 20)
#    0.000    0.750    5.000    1.875    5.250    3.000 
#    2.250    1.875    0.000    0.000    0.000    0.000 
#    0.000    0.000    0.000    0.000    0.000    0.000 
#
# Total GULP energy -198293.880328 kJ/mol
# GULP energy per Si atom -12393.367520 kJ/mol
# Density = 2.375038 g / cm^3
# Si number density = 23.804555 Si / 1000 Ang^3
#
#
#
# Elastic Constant Matrix: (Units=GPa)
#
#
# Indices 1 2 3 4 5 6 
#
# 1 118.4771 37.4058 10.8009 14.0980 -9.7041 -10.1639
# 2 37.4058 126.8683 24.6015 22.2866 1.0073 -14.6013
# 3 10.8009 24.6015 66.0887 19.0413 8.4974 -8.7752
# 4 14.0980 22.2866 19.0413 34.4752 -3.9026 6.9599
# 5 -9.7041 1.0073 8.4974 -3.9026 37.6605 -2.6601
# 6 -10.1639 -14.6013 -8.7752 6.9599 -2.6601 38.5009
#
#
#
# Elastic Compliance Matrix: (Units=1/GPa)
#
#
# Indices 1 2 3 4 5 6 
#
# 1 0.009875 -0.002141 0.000031 -0.002895 0.002471 0.002496
# 2 -0.002141 0.010277 -0.001037 -0.006137 -0.000936 0.004140
# 3 0.000031 -0.001037 0.020694 -0.012655 -0.005504 0.006239
# 4 -0.002895 -0.006137 -0.012655 0.044568 0.005930 -0.013623
# 5 0.002471 -0.000936 -0.005504 0.005930 0.029070 -0.000021
# 6 0.002496 0.004140 0.006239 -0.013623 -0.000021 0.032086
#
#
# Mechanical properties :
#
#
# Convention : Reuss Voigt Hill
#
# Bulk Modulus (GPa) = 28.94308 50.78341 39.86324
# Shear Modulus (GPa) = 30.41717 38.03572 34.22645
#
# Velocity S-wave (km/s) = 3.57849 4.00163 3.79596
# Velocity P-wave (km/s) = 5.40918 6.53686 5.99957
#
# Compressibility (1/GPa) = 0.03455058
#
# Stress axis : x y z
#
# Youngs Moduli (GPa) = 101.26920 97.30847 48.32235
#
# Poissons Ratio (x) = 0.20836 -0.00150
# Poissons Ratio (y) = 0.21684 0.05013
# Poissons Ratio (z) = -0.00315 0.10095
#
# Static dielectric constant tensor:
#      x y z
#    x 4.614880 -0.062820 -0.016010 
#    y -0.062820 4.311530 0.033930 
#    z -0.016010 0.033930 4.258930 
# 
# 
# High freq. dielectric constant tensor:
#      x y z
#    x 1.953620 -0.003340 0.012270 
#    y -0.003340 1.944630 0.003210 
#    z 0.012270 0.003210 1.937260 
# 
# From -- ./inp_files/116732.got.cif
#   From: 2010.06.25/outbox.cif.g09.slc.cpg/sg2_59_cif.got.tgz:116732.got - 2010.06.27 13:26:56.
