data_PCOD8028265
_publ_section_title
;
Structure prediction by ZEFSAII (Michael W. Deem and Ramdas Pophale) SiO2 
 PCOD8028265
Probable space group: P -1
;
_chemical_formula_sum "Si O2"
_cell_formula_units_Z 16
_cell_length_a 13.578815
_cell_length_b 17.210795
_cell_length_c 5.803025
_cell_angle_alpha 94.766109
_cell_angle_beta 123.372606
_cell_angle_gamma 45.631201
_cell_volume 698.720160
_symmetry_space_group_name_H-M "P -1"
_symmetry_group_IT_number 2
_symmetry_cell_setting 'triclinic'
loop_
_space_group_symop_operation_xyz
x,y,z
-x,-y,-z
loop_
_atom_site_type_symbol
_atom_site_label
_atom_site_fract_x
_atom_site_fract_y
_atom_site_fract_z
Si Si1 0.823818 0.036462 0.817197
Si Si2 0.509257 0.292905 0.218138
Si Si3 0.912094 0.468063 0.276958
Si Si4 0.226206 0.226065 0.328694
Si Si5 0.791035 0.913187 0.439589
Si Si6 0.592701 0.427044 0.350978
Si Si7 0.570542 0.136071 0.902793
Si Si8 0.032812 0.698591 0.361341
O O1 0.632534 0.175924 0.514974
O O2 0.774543 0.044916 0.021287
O O3 0.877614 0.927369 0.741045
O O4 0.000000 0.000000 0.000000
O O5 0.604825 0.327733 0.331307
O O6 0.294900 0.408931 0.069982
O O7 0.500067 0.254169 0.949432
O O8 0.881358 0.419455 0.422305
O O9 0.000000 0.500000 0.500000
O O10 0.048027 0.367121 0.227719
O O11 0.285639 0.124765 0.547235
O O12 0.590407 0.813015 0.467130
O O13 0.160782 0.227306 0.999024
O O14 0.967692 0.800916 0.473584
O O15 0.610981 0.048330 0.121865
O O16 0.500000 0.500000 0.500000
O O17 0.805579 0.352120 0.614171
O O18 0.500000 0.500000 0.000000
#
# Coordination Sequence:
#
# PCOD8028265 Si02
#       8
#     2   2   2   2   2   2   2   2
#     4  11  28  45  70 100 142 191 246 306 369 446
#     4  11  26  45  72 102 145 191 245 305 372 446
#     4  11  23  45  68 105 147 181 235 300 374 447
#     4  11  24  43  73 103 142 182 242 305 376 456
#     4  10  25  45  68 100 140 182 246 299 380 440
#     4  12  28  49  76 109 154 199 257 312 374 454
#     4  11  25  45  70 103 139 194 242 307 375 447
#     4  11  26  42  73 105 141 193 240 309 376 447
#
# _framework density 22.899013
#
# number of rings (size 3 to 8) (size 9 to 14) (size 15 to 20)
#    0.000    1.000    2.500    1.875   10.500    5.500 
#    0.000    0.000    0.000    0.000    0.000    0.000 
#    0.000    0.000    0.000    0.000    0.000    0.000 
#
# Total GULP energy -198372.922584 kJ/mol
# GULP energy per Si atom -12398.307662 kJ/mol
# Density = 2.284689 g / cm^3
# Si number density = 22.899013 Si / 1000 Ang^3
#
#
#
# Elastic Constant Matrix: (Units=GPa)
#
#
# Indices 1 2 3 4 5 6 
#
# 1 88.3106 51.5905 18.0886 4.6673 18.8989 -9.2934
# 2 51.5905 138.2406 30.8759 13.6999 5.1022 12.8950
# 3 18.0886 30.8759 77.8436 3.7094 11.0189 -4.2900
# 4 4.6673 13.6999 3.7094 36.8113 -1.3124 2.7941
# 5 18.8989 5.1022 11.0189 -1.3124 43.1732 1.9184
# 6 -9.2934 12.8950 -4.2900 2.7941 1.9184 33.5792
#
#
#
# Elastic Compliance Matrix: (Units=1/GPa)
#
#
# Indices 1 2 3 4 5 6 
#
# 1 0.017973 -0.007197 0.000211 -0.000512 -0.007452 0.008233
# 2 -0.007197 0.011478 -0.003558 -0.002378 0.002933 -0.006824
# 3 0.000211 -0.003558 0.014955 -0.000613 -0.003667 0.003596
# 4 -0.000512 -0.002378 -0.000613 0.028368 0.001602 -0.001759
# 5 -0.007452 0.002933 -0.003667 0.001602 0.027301 -0.005350
# 6 0.008233 -0.006824 0.003596 -0.001759 -0.005350 0.035591
#
#
# Mechanical properties :
#
#
# Convention : Reuss Voigt Hill
#
# Bulk Modulus (GPa) = 42.88423 56.16719 49.52571
# Shear Modulus (GPa) = 30.39016 36.30206 33.34611
#
# Velocity S-wave (km/s) = 3.64694 3.98592 3.82019
# Velocity P-wave (km/s) = 6.04167 6.76497 6.41353
#
# Compressibility (1/GPa) = 0.02331860
#
# Stress axis : x y z
#
# Youngs Moduli (GPa) = 55.63858 87.12105 66.86693
#
# Poissons Ratio (x) = 0.62699 -0.01412
# Poissons Ratio (y) = 0.40042 0.23793
# Poissons Ratio (z) = -0.01175 0.31000
#
# Static dielectric constant tensor:
#      x y z
#    x 4.243520 -0.121620 -0.115680 
#    y -0.121620 4.859000 0.411640 
#    z -0.115680 0.411640 4.273310 
# 
# 
# High freq. dielectric constant tensor:
#      x y z
#    x 1.906590 0.010480 0.006120 
#    y 0.010480 1.920820 0.003710 
#    z 0.006120 0.003710 1.901710 
# 
# From -- ./inp_files/99928.got.cif
#   From: 2010.06.25/outbox.cif.g09.slc.cpg/sg2_50_cif.got.tgz:99928.got - 2010.06.27 13:26:56.
