data_PCOD8028886
_publ_section_title
;
Structure prediction by ZEFSAII (Michael W. Deem and Ramdas Pophale) SiO2 
 PCOD8028886
Probable space group: P -1
;
_chemical_formula_sum "Si O2"
_cell_formula_units_Z 16
_cell_length_a 14.700440
_cell_length_b 11.206057
_cell_length_c 11.129532
_cell_angle_alpha 39.638083
_cell_angle_beta 63.041540
_cell_angle_gamma 42.998699
_cell_volume 771.788578
_symmetry_space_group_name_H-M "P -1"
_symmetry_group_IT_number 2
_symmetry_cell_setting 'triclinic'
loop_
_space_group_symop_operation_xyz
x,y,z
-x,-y,-z
loop_
_atom_site_type_symbol
_atom_site_label
_atom_site_fract_x
_atom_site_fract_y
_atom_site_fract_z
Si Si1 0.986587 0.996575 0.857313
Si Si2 0.240417 0.437132 0.082566
Si Si3 0.461307 0.490258 0.896068
Si Si4 0.747957 0.027441 0.981240
Si Si5 0.730423 0.982724 0.491301
Si Si6 0.856148 0.619658 0.051241
Si Si7 0.894528 0.787185 0.306190
Si Si8 0.988642 0.846874 0.533308
O O1 0.030421 0.100303 0.851567
O O2 0.993694 0.109847 0.645295
O O3 0.090683 0.690954 0.022391
O O4 0.828189 0.126780 0.858876
O O5 0.295736 0.202223 0.317401
O O6 0.343881 0.480944 0.988819
O O7 0.235133 0.372749 0.998691
O O8 0.588281 0.250624 0.931399
O O9 0.410252 0.724205 0.659616
O O10 0.500000 0.500000 0.000000
O O11 0.769428 0.900970 0.937770
O O12 0.817153 0.818902 0.207494
O O13 0.783926 0.943223 0.355139
O O14 0.838108 0.931501 0.565372
O O15 0.889885 0.445183 0.279007
O O16 0.000000 0.500000 0.000000
O O17 0.000000 0.500000 0.500000
O O18 0.000000 0.000000 0.500000
#
# Coordination Sequence:
#
# PCOD8028886 Si02
#       8
#     2   2   2   2   2   2   2   2
#     4  11  21  39  67 102 131 178 223 290 337 392
#     4  12  23  44  75  99 137 185 227 275 351 400
#     4  12  26  50  65  96 145 185 228 281 338 415
#     4  12  24  42  67  98 137 179 227 280 341 404
#     4  11  23  42  68  99 134 184 223 278 341 406
#     4  12  22  41  71 102 135 172 227 291 336 400
#     4  11  22  40  66 102 136 164 235 293 332 395
#     4  11  18  36  68 103 135 171 225 279 343 398
#
# _framework density 20.731065999999998
#
# number of rings (size 3 to 8) (size 9 to 14) (size 15 to 20)
#    0.000    0.500    7.500    2.625    0.000    2.000 
#    4.500    0.625    0.000    0.000    0.000    0.000 
#    0.000    0.000    0.000    0.000    0.000    0.000 
#
# Total GULP energy -198400.541550 kJ/mol
# GULP energy per Si atom -12400.033847 kJ/mol
# Density = 2.068388 g / cm^3
# Si number density = 20.731066 Si / 1000 Ang^3
#
#
#
# Elastic Constant Matrix: (Units=GPa)
#
#
# Indices 1 2 3 4 5 6 
#
# 1 94.9309 21.0232 18.0409 1.6303 3.2409 15.3136
# 2 21.0232 94.6713 5.6959 -10.1724 -0.7207 5.1247
# 3 18.0409 5.6959 116.1708 -19.2427 -8.3019 -8.4119
# 4 1.6303 -10.1724 -19.2427 21.0233 1.3566 -0.0556
# 5 3.2409 -0.7207 -8.3019 1.3566 29.7361 1.8803
# 6 15.3136 5.1247 -8.4119 -0.0556 1.8803 36.7410
#
#
#
# Elastic Compliance Matrix: (Units=1/GPa)
#
#
# Indices 1 2 3 4 5 6 
#
# 1 0.012864 -0.002940 -0.003268 -0.005311 -0.001788 -0.005616
# 2 -0.002940 0.011912 0.001044 0.006908 0.000599 -0.000217
# 3 -0.003268 0.001044 0.011351 0.010976 0.002817 0.003688
# 4 -0.005311 0.006908 0.010976 0.061327 0.000772 0.003816
# 5 -0.001788 0.000599 0.002817 0.000772 0.034619 -0.000464
# 6 -0.005616 -0.000217 0.003688 0.003816 -0.000464 0.030463
#
#
# Mechanical properties :
#
#
# Convention : Reuss Voigt Hill
#
# Bulk Modulus (GPa) = 38.76244 43.92146 41.34195
# Shear Modulus (GPa) = 27.55376 34.90092 31.22734
#
# Velocity S-wave (km/s) = 3.64964 4.10751 3.88533
# Velocity P-wave (km/s) = 6.04138 6.61270 6.33348
#
# Compressibility (1/GPa) = 0.02579817
#
# Stress axis : x y z
#
# Youngs Moduli (GPa) = 77.73372 83.95202 88.10053
#
# Poissons Ratio (x) = 0.24685 0.28790
# Poissons Ratio (y) = 0.22857 -0.09197
# Poissons Ratio (z) = 0.25402 -0.08764
#
# Static dielectric constant tensor:
#      x y z
#    x 3.321000 -1.047350 -0.196200 
#    y -1.047350 2.865110 -1.004980 
#    z -0.196200 -1.004980 4.202680 
# 
# 
# High freq. dielectric constant tensor:
#      x y z
#    x 1.814330 0.019180 0.000150 
#    y 0.019180 1.796390 0.006130 
#    z 0.000150 0.006130 1.829790 
# 
# From -- ./inp_files/450989.got.cif
#   From: 2010.06.25/outbox.cif.g09.slc.cpg/sg2_226_cif.got.tgz:450989.got - 2010.06.27 13:26:56.
