data_PCOD8028595
_publ_section_title
;
Structure prediction by ZEFSAII (Michael W. Deem and Ramdas Pophale) SiO2 
 PCOD8028595
Probable space group: P -1
;
_chemical_formula_sum "Si O2"
_cell_formula_units_Z 14
_cell_length_a 5.321054
_cell_length_b 9.437164
_cell_length_c 12.629895
_cell_angle_alpha 104.531869
_cell_angle_beta 113.320762
_cell_angle_gamma 72.666336
_cell_volume 549.521836
_symmetry_space_group_name_H-M "P -1"
_symmetry_group_IT_number 2
_symmetry_cell_setting 'triclinic'
loop_
_space_group_symop_operation_xyz
x,y,z
-x,-y,-z
loop_
_atom_site_type_symbol
_atom_site_label
_atom_site_fract_x
_atom_site_fract_y
_atom_site_fract_z
Si Si1 0.665274 0.529591 0.933686
Si Si2 0.125157 0.716535 0.217869
Si Si3 0.919019 0.659782 0.383716
Si Si4 0.530055 0.057149 0.630599
Si Si5 0.700866 0.838435 0.981152
Si Si6 0.258705 0.626782 0.641055
Si Si7 0.770621 0.776694 0.750962
O O1 0.619529 0.406754 0.816667
O O2 0.533105 0.703502 0.913446
O O3 0.500000 0.500000 0.000000
O O4 0.000000 0.500000 0.000000
O O5 0.218749 0.856705 0.310608
O O6 0.030471 0.614786 0.275282
O O7 0.898674 0.790965 0.105822
O O8 0.754052 0.828451 0.366074
O O9 0.725648 0.550527 0.373682
O O10 0.157435 0.667693 0.511788
O O11 0.500000 0.000000 0.500000
O O12 0.575038 0.924422 0.696952
O O13 0.863365 0.830365 0.892776
O O14 0.500000 0.000000 0.000000
O O15 0.570315 0.657745 0.707824
O O16 0.037503 0.714913 0.708536
#
# Coordination Sequence:
#
# PCOD8028595 Si02
#       7
#     2   2   2   2   2   2   2
#     4  10  25  48  73 106 149 201 252 301 370 452
#     4  11  27  48  78 111 153 207 257 313 381 468
#     4  11  26  47  80 109 150 199 262 315 389 451
#     4  12  27  47  77 110 154 204 254 318 385 455
#     4  11  27  47  75 113 153 201 251 318 383 452
#     4  11  28  50  78 113 150 199 259 323 377 455
#     4  12  28  49  74 111 156 199 252 318 385 450
#
# _framework density 25.476697000000001
#
# number of rings (size 3 to 8) (size 9 to 14) (size 15 to 20)
#    0.000    0.857    1.429    2.571   14.000    5.143 
#    0.000    0.000    0.000    0.000    0.000    0.000 
#    0.000    0.000    0.000    0.000    0.000    0.000 
#
# Total GULP energy -173451.849962 kJ/mol
# GULP energy per Si atom -12389.417854 kJ/mol
# Density = 2.541871 g / cm^3
# Si number density = 25.476697 Si / 1000 Ang^3
#
#
#
# Elastic Constant Matrix: (Units=GPa)
#
#
# Indices 1 2 3 4 5 6 
#
# 1 95.5841 17.3240 44.2336 3.3785 -19.1071 2.6300
# 2 17.3240 140.3032 45.7223 24.1495 -17.7562 -0.8950
# 3 44.2336 45.7223 197.0446 -17.1796 -20.0972 -1.3436
# 4 3.3785 24.1495 -17.1796 39.9925 2.9094 -10.2319
# 5 -19.1071 -17.7562 -20.0972 2.9094 50.4393 5.8900
# 6 2.6300 -0.8950 -1.3436 -10.2319 5.8900 33.9507
#
#
#
# Elastic Compliance Matrix: (Units=1/GPa)
#
#
# Indices 1 2 3 4 5 6 
#
# 1 0.012808 0.000553 -0.002896 -0.003751 0.004459 -0.002996
# 2 0.000553 0.009770 -0.002778 -0.008133 0.003353 -0.002928
# 3 -0.002896 -0.002778 0.006864 0.005381 0.000113 0.002025
# 4 -0.003751 -0.008133 0.005381 0.036059 -0.005637 0.012134
# 5 0.004459 0.003353 0.000113 -0.005637 0.023775 -0.006076
# 6 -0.002996 -0.002928 0.002025 0.012134 -0.006076 0.034401
#
#
# Mechanical properties :
#
#
# Convention : Reuss Voigt Hill
#
# Bulk Modulus (GPa) = 52.08351 71.94352 62.01352
# Shear Modulus (GPa) = 35.63284 46.58663 41.10973
#
# Velocity S-wave (km/s) = 3.74390 4.28085 4.02135
# Velocity P-wave (km/s) = 6.25916 7.26185 6.77907
#
# Compressibility (1/GPa) = 0.01919993
#
# Stress axis : x y z
#
# Youngs Moduli (GPa) = 78.07332 102.35384 145.68045
#
# Poissons Ratio (x) = -0.05663 0.42195
# Poissons Ratio (y) = -0.04319 0.40474
# Poissons Ratio (z) = 0.22613 0.28437
#
# Static dielectric constant tensor:
#      x y z
#    x 3.862290 -0.133670 -0.223940 
#    y -0.133670 5.115690 0.281710 
#    z -0.223940 0.281710 5.427550 
# 
# 
# High freq. dielectric constant tensor:
#      x y z
#    x 1.996960 -0.004420 -0.004880 
#    y -0.004420 2.039540 -0.004470 
#    z -0.004880 -0.004470 2.052270 
# 
# From -- ./inp_files/94745.got.cif
#   From: 2010.06.25/outbox.cif.g09.slc.cpg/sg2_48_cif.got.tgz:94745.got - 2010.06.27 13:26:56.
