data_PCOD8028204
_publ_section_title
;
Structure prediction by ZEFSAII (Michael W. Deem and Ramdas Pophale) SiO2 
 PCOD8028204
Probable space group: P -1
;
_chemical_formula_sum "Si O2"
_cell_formula_units_Z 14
_cell_length_a 9.217786
_cell_length_b 13.804564
_cell_length_c 8.392180
_cell_angle_alpha 65.744776
_cell_angle_beta 93.660132
_cell_angle_gamma 138.374493
_cell_volume 592.278828
_symmetry_space_group_name_H-M "P -1"
_symmetry_group_IT_number 2
_symmetry_cell_setting 'triclinic'
loop_
_space_group_symop_operation_xyz
x,y,z
-x,-y,-z
loop_
_atom_site_type_symbol
_atom_site_label
_atom_site_fract_x
_atom_site_fract_y
_atom_site_fract_z
Si Si1 0.464276 0.127486 0.220277
Si Si2 0.688979 0.149047 0.784333
Si Si3 0.938000 0.959886 0.840375
Si Si4 0.369723 0.708483 0.564608
Si Si5 0.636821 0.656807 0.526452
Si Si6 0.033463 0.625821 0.074408
Si Si7 0.772493 0.657497 0.864369
O O1 0.328522 0.150492 0.126186
O O2 0.455314 0.128610 0.411255
O O3 0.303553 0.930931 0.303541
O O4 0.723289 0.275339 0.054313
O O5 0.639324 0.235678 0.642606
O O6 0.928148 0.290959 0.809606
O O7 0.500000 0.000000 0.000000
O O8 0.932638 0.840269 0.840571
O O9 0.145287 0.150384 0.654457
O O10 0.000000 0.000000 0.000000
O O11 0.444784 0.629862 0.597486
O O12 0.125418 0.566034 0.748733
O O13 0.500000 0.500000 0.500000
O O14 0.764028 0.662989 0.669778
O O15 0.893387 0.616068 0.944751
O O16 0.500000 0.500000 0.000000
#
# Coordination Sequence:
#
# PCOD8028204 Si02
#       7
#     2   2   2   2   2   2   2
#     4  11  25  46  73 110 145 192 242 304 375 438
#     4  10  25  44  71 106 147 188 240 299 365 441
#     4  12  27  46  78 107 150 199 251 308 374 441
#     4  12  25  48  73 110 145 193 248 304 372 441
#     4  12  29  48  77 108 150 200 254 309 371 441
#     4  11  25  47  75 108 149 192 238 307 371 443
#     4  12  24  50  75 111 151 192 251 307 372 448
#
# _framework density 23.637516000000002
#
# number of rings (size 3 to 8) (size 9 to 14) (size 15 to 20)
#    0.000    0.571    2.857    3.429   10.000    1.143 
#    2.571    0.000    0.000    0.000    0.000    0.000 
#    0.000    0.000    0.000    0.000    0.000    0.000 
#
# Total GULP energy -173489.817432 kJ/mol
# GULP energy per Si atom -12392.129817 kJ/mol
# Density = 2.358372 g / cm^3
# Si number density = 23.637516 Si / 1000 Ang^3
#
#
#
# Elastic Constant Matrix: (Units=GPa)
#
#
# Indices 1 2 3 4 5 6 
#
# 1 66.0775 21.0547 17.2848 3.8974 0.9118 6.2029
# 2 21.0547 158.6918 53.9964 28.4821 2.0482 -20.1936
# 3 17.2848 53.9964 139.2170 9.3456 20.8091 9.9261
# 4 3.8974 28.4821 9.3456 52.1514 7.4634 -1.4938
# 5 0.9118 2.0482 20.8091 7.4634 36.9907 4.2753
# 6 6.2029 -20.1936 9.9261 -1.4938 4.2753 49.6268
#
#
#
# Elastic Compliance Matrix: (Units=1/GPa)
#
#
# Indices 1 2 3 4 5 6 
#
# 1 0.016358 -0.002153 -0.001096 -0.000023 0.000656 -0.002759
# 2 -0.002153 0.009117 -0.003580 -0.004326 0.001927 0.004399
# 3 -0.001096 -0.003580 0.009595 0.000960 -0.005045 -0.002775
# 4 -0.000023 -0.004326 0.000960 0.022006 -0.004637 -0.000888
# 5 0.000656 0.001927 -0.005045 -0.004637 0.030810 -0.001083
# 6 -0.002759 0.004399 -0.002775 -0.000888 -0.001083 0.022907
#
#
# Mechanical properties :
#
#
# Convention : Reuss Voigt Hill
#
# Bulk Modulus (GPa) = 46.70142 60.96202 53.83172
# Shear Modulus (GPa) = 37.99802 45.86379 41.93090
#
# Velocity S-wave (km/s) = 4.01375 4.40966 4.21635
# Velocity P-wave (km/s) = 6.42499 7.19536 6.82106
#
# Compressibility (1/GPa) = 0.02141262
#
# Stress axis : x y z
#
# Youngs Moduli (GPa) = 61.13369 109.69075 104.21970
#
# Poissons Ratio (x) = 0.23614 0.11420
# Poissons Ratio (y) = 0.13161 0.37309
# Poissons Ratio (z) = 0.06699 0.39267
#
# Static dielectric constant tensor:
#      x y z
#    x 4.254670 -0.210300 0.070990 
#    y -0.210300 5.714050 0.186060 
#    z 0.070990 0.186060 4.079810 
# 
# 
# High freq. dielectric constant tensor:
#      x y z
#    x 1.922750 -0.001560 0.002600 
#    y -0.001560 1.969790 0.005680 
#    z 0.002600 0.005680 1.944230 
# 
# From -- ./inp_files/206006.got.cif
#   From: 2010.06.25/outbox.cif.g09.slc.cpg/sg2_104_cif.got.tgz:206006.got - 2010.06.27 13:26:56.
