data_PCOD8028992
_publ_section_title
;
Structure prediction by ZEFSAII (Michael W. Deem and Ramdas Pophale) SiO2 
 PCOD8028992
Probable space group: P -1
;
_chemical_formula_sum "Si O2"
_cell_formula_units_Z 12
_cell_length_a 15.481886
_cell_length_b 9.530813
_cell_length_c 9.722876
_cell_angle_alpha 141.021242
_cell_angle_beta 45.963377
_cell_angle_gamma 137.385276
_cell_volume 584.967230
_symmetry_space_group_name_H-M "P -1"
_symmetry_group_IT_number 2
_symmetry_cell_setting 'triclinic'
loop_
_space_group_symop_operation_xyz
x,y,z
-x,-y,-z
loop_
_atom_site_type_symbol
_atom_site_label
_atom_site_fract_x
_atom_site_fract_y
_atom_site_fract_z
Si Si1 0.503341 0.194250 0.033610
Si Si2 0.938651 0.711380 0.880009
Si Si3 0.340905 0.468789 0.427089
Si Si4 0.398657 0.053664 0.472891
Si Si5 0.817730 0.401531 0.512201
Si Si6 0.276506 0.363238 0.726809
O O1 0.365502 0.222802 0.194245
O O2 0.613238 0.456911 0.156240
O O3 0.500000 0.000000 0.000000
O O4 0.539145 0.118896 0.791417
O O5 0.839906 0.549062 0.744241
O O6 0.049316 0.610040 0.698597
O O7 0.864726 0.680461 0.085100
O O8 0.000000 0.000000 0.000000
O O9 0.476902 0.710142 0.423022
O O10 0.223579 0.447969 0.439815
O O11 0.292454 0.475163 0.641969
O O12 0.309722 0.124080 0.514023
O O13 0.295403 0.881954 0.570577
#
# Coordination Sequence:
#
# PCOD8028992 Si02
#       6
#     2   2   2   2   2   2
#     4  11  19  37  63  92 127 163 191 244 317 365
#     4  11  24  44  65  81 122 175 207 241 300 365
#     4  11  24  37  63 102 122 148 206 259 302 359
#     4  11  20  39  66  91 126 160 193 248 316 370
#     4  11  25  42  62  92 124 160 206 253 302 355
#     4  11  21  39  65  91 119 162 210 241 298 374
#
# _framework density 20.513971999999999
#
# number of rings (size 3 to 8) (size 9 to 14) (size 15 to 20)
#    0.000    1.000    6.667    1.500    0.000    2.667 
#    0.000    0.833    0.000    0.000    0.000    0.000 
#    0.000    0.000    0.000    0.000    0.000    0.000 
#
# Total GULP energy -148745.817999 kJ/mol
# GULP energy per Si atom -12395.484833 kJ/mol
# Density = 2.046728 g / cm^3
# Si number density = 20.513972 Si / 1000 Ang^3
#
#
#
# Elastic Constant Matrix: (Units=GPa)
#
#
# Indices 1 2 3 4 5 6 
#
# 1 128.8322 34.2404 47.9578 -2.2815 -26.0222 -12.5839
# 2 34.2404 80.9270 27.9277 -5.4188 -13.2737 -0.4496
# 3 47.9578 27.9277 113.6033 -4.8326 -23.0318 4.3825
# 4 -2.2815 -5.4188 -4.8326 32.0477 0.5557 -7.6875
# 5 -26.0222 -13.2737 -23.0318 0.5557 25.7954 3.7360
# 6 -12.5839 -0.4496 4.3825 -7.6875 3.7360 19.4512
#
#
#
# Elastic Compliance Matrix: (Units=1/GPa)
#
#
# Indices 1 2 3 4 5 6 
#
# 1 0.011750 -0.002646 -0.003225 0.001630 0.006466 0.007670
# 2 -0.002646 0.014746 -0.001682 0.001757 0.003520 -0.000974
# 3 -0.003225 -0.001682 0.012426 -0.000359 0.007938 -0.006592
# 4 0.001630 0.001757 -0.000359 0.035232 -0.000739 0.015242
# 5 0.006466 0.003520 0.007938 -0.000739 0.055430 -0.008462
# 6 0.007670 -0.000974 -0.006592 0.015242 -0.008462 0.065485
#
#
# Mechanical properties :
#
#
# Convention : Reuss Voigt Hill
#
# Bulk Modulus (GPa) = 41.99007 60.40156 51.19582
# Shear Modulus (GPa) = 22.92380 29.67464 26.29922
#
# Velocity S-wave (km/s) = 3.34649 3.80749 3.58441
# Velocity P-wave (km/s) = 5.95361 6.98837 6.49164
#
# Compressibility (1/GPa) = 0.02381516
#
# Stress axis : x y z
#
# Youngs Moduli (GPa) = 85.10658 67.81286 80.47611
#
# Poissons Ratio (x) = 0.17944 0.25957
# Poissons Ratio (y) = 0.22520 0.13538
# Poissons Ratio (z) = 0.27450 0.11408
#
# Static dielectric constant tensor:
#      x y z
#    x 3.557620 -0.027200 -0.424780 
#    y -0.027200 3.724320 -0.009330 
#    z -0.424780 -0.009330 4.061000 
# 
# 
# High freq. dielectric constant tensor:
#      x y z
#    x 1.778560 -0.005070 -0.021260 
#    y -0.005070 1.799750 0.003040 
#    z -0.021260 0.003040 1.814080 
# 
# From -- ./inp_files/23257.got.cif
#   From: 2010.06.25/outbox.cif.g09.slc.cpg/sg2_12_cif.got.tgz:23257.got - 2010.06.27 13:26:56.
