data_PCOD8028647
_publ_section_title
;
Structure prediction by ZEFSAII (Michael W. Deem and Ramdas Pophale) SiO2 
 PCOD8028647
Probable space group: P -1
;
_chemical_formula_sum "Si O2"
_cell_formula_units_Z 16
_cell_length_a 13.682078
_cell_length_b 11.494234
_cell_length_c 9.101961
_cell_angle_alpha 91.103154
_cell_angle_beta 79.297027
_cell_angle_gamma 32.305993
_cell_volume 708.113381
_symmetry_space_group_name_H-M "P -1"
_symmetry_group_IT_number 2
_symmetry_cell_setting 'triclinic'
loop_
_space_group_symop_operation_xyz
x,y,z
-x,-y,-z
loop_
_atom_site_type_symbol
_atom_site_label
_atom_site_fract_x
_atom_site_fract_y
_atom_site_fract_z
Si Si1 0.917942 0.742963 0.969861
Si Si2 0.722876 0.319289 0.705403
Si Si3 0.126088 0.089860 0.297100
Si Si4 0.299510 0.696100 0.844730
Si Si5 0.688886 0.481532 0.427938
Si Si6 0.738894 0.763509 0.244815
Si Si7 0.387561 0.968648 0.442607
Si Si8 0.956771 0.187304 0.867329
O O1 0.812167 0.937601 0.888470
O O2 0.062946 0.513272 0.831316
O O3 0.747449 0.845724 0.107991
O O4 0.052549 0.678178 0.048864
O O5 0.506994 0.533352 0.845228
O O6 0.681190 0.387862 0.548420
O O7 0.860573 0.284187 0.733232
O O8 0.835096 0.084268 0.686580
O O9 0.892057 0.347465 0.380269
O O10 0.235552 0.059863 0.380851
O O11 0.335854 0.549666 0.725775
O O12 0.173116 0.782162 0.019946
O O13 0.183984 0.915211 0.795539
O O14 0.511527 0.752531 0.501851
O O15 0.537140 0.892823 0.297238
O O16 0.741642 0.824399 0.403610
#
# Coordination Sequence:
#
# PCOD8028647 Si02
#       8
#     2   2   2   2   2   2   2   2
#     4  11  24  47  73  97 139 181 228 290 343 391
#     4  12  26  38  69 105 140 182 220 258 341 430
#     4  12  24  43  74 101 137 183 217 277 351 409
#     4  11  22  42  63  96 145 180 216 272 330 413
#     4  12  24  44  65 103 144 176 222 277 337 408
#     4  10  25  50  71  98 133 176 238 298 336 388
#     4  11  25  47  75 100 135 177 232 291 340 396
#     4  11  23  42  66  96 142 178 219 276 333 407
#
# _framework density 22.59525
#
# number of rings (size 3 to 8) (size 9 to 14) (size 15 to 20)
#    0.000    0.750    5.000    1.875    3.500    1.000 
#    0.000    0.000    0.000    0.000    0.000    0.000 
#    0.000    0.000    0.000    0.000    0.000    0.000 
#
# Total GULP energy -198411.506503 kJ/mol
# GULP energy per Si atom -12400.719156 kJ/mol
# Density = 2.254382 g / cm^3
# Si number density = 22.595250 Si / 1000 Ang^3
#
#
#
# Elastic Constant Matrix: (Units=GPa)
#
#
# Indices 1 2 3 4 5 6 
#
# 1 112.2098 42.1494 40.1002 -5.3671 14.5945 -2.3711
# 2 42.1494 60.9482 10.9333 3.1666 10.7058 -8.5656
# 3 40.1002 10.9333 74.7366 4.7446 2.1102 5.5816
# 4 -5.3671 3.1666 4.7446 37.9293 3.8862 -3.8329
# 5 14.5945 10.7058 2.1102 3.8862 45.9493 -7.3297
# 6 -2.3711 -8.5656 5.5816 -3.8329 -7.3297 35.7434
#
#
#
# Elastic Compliance Matrix: (Units=1/GPa)
#
#
# Indices 1 2 3 4 5 6 
#
# 1 0.015456 -0.009156 -0.007120 0.004112 -0.002828 -0.000196
# 2 -0.009156 0.023526 0.001390 -0.002836 -0.001735 0.004154
# 3 -0.007120 0.001390 0.017435 -0.003713 0.000962 -0.003063
# 4 0.004112 -0.002836 -0.003713 0.028169 -0.002427 0.002696
# 5 -0.002828 -0.001735 0.000962 -0.002427 0.023845 0.003876
# 6 -0.000196 0.004154 -0.003063 0.002696 0.003876 0.030522
#
#
# Mechanical properties :
#
#
# Convention : Reuss Voigt Hill
#
# Bulk Modulus (GPa) = 37.53203 48.25114 42.89159
# Shear Modulus (GPa) = 28.15232 34.23853 31.19543
#
# Velocity S-wave (km/s) = 3.53362 3.89691 3.71970
# Velocity P-wave (km/s) = 5.77020 6.45358 6.12144
#
# Compressibility (1/GPa) = 0.02664391
#
# Stress axis : x y z
#
# Youngs Moduli (GPa) = 64.69994 42.50671 57.35742
#
# Poissons Ratio (x) = 0.38919 0.40839
# Poissons Ratio (y) = 0.59239 -0.07972
# Poissons Ratio (z) = 0.46067 -0.05908
#
# Static dielectric constant tensor:
#      x y z
#    x 4.166350 -0.022220 -0.163180 
#    y -0.022220 4.053480 -0.015960 
#    z -0.163180 -0.015960 4.158750 
# 
# 
# High freq. dielectric constant tensor:
#      x y z
#    x 1.894760 -0.002410 -0.003800 
#    y -0.002410 1.879240 0.002780 
#    z -0.003800 0.002780 1.896280 
# 
# From -- ./inp_files/307527.got.cif
#   From: 2010.06.25/outbox.cif.g09.slc.cpg/sg2_154_cif.got.tgz:307527.got - 2010.06.27 13:26:56.
