data_PCOD8028377
_publ_section_title
;
Structure prediction by ZEFSAII (Michael W. Deem and Ramdas Pophale) SiO2 
 PCOD8028377
Probable space group: P -1
;
_chemical_formula_sum "Si O2"
_cell_formula_units_Z 14
_cell_length_a 10.778095
_cell_length_b 8.425788
_cell_length_c 7.865087
_cell_angle_alpha 127.378612
_cell_angle_beta 100.938717
_cell_angle_gamma 87.460354
_cell_volume 554.962657
_symmetry_space_group_name_H-M "P -1"
_symmetry_group_IT_number 2
_symmetry_cell_setting 'triclinic'
loop_
_space_group_symop_operation_xyz
x,y,z
-x,-y,-z
loop_
_atom_site_type_symbol
_atom_site_label
_atom_site_fract_x
_atom_site_fract_y
_atom_site_fract_z
Si Si1 0.205646 0.111963 0.144396
Si Si2 0.527734 0.528640 0.326624
Si Si3 0.876967 0.208639 0.674962
Si Si4 0.336980 0.142270 0.631349
Si Si5 0.016995 0.914228 0.710463
Si Si6 0.738045 0.576470 0.925126
Si Si7 0.559186 0.112465 0.925770
O O1 0.257950 0.300067 0.169319
O O2 0.119045 0.188480 0.324732
O O3 0.315575 0.985671 0.164808
O O4 0.117751 0.948388 0.908133
O O5 0.500000 0.500000 0.500000
O O6 0.621859 0.729373 0.445752
O O7 0.398364 0.552402 0.203460
O O8 0.592607 0.342644 0.139762
O O9 0.924211 0.226461 0.504183
O O10 0.848630 0.428628 0.872869
O O11 0.750108 0.058140 0.565150
O O12 0.991203 0.132213 0.766413
O O13 0.461582 0.084979 0.726056
O O14 0.253171 0.274566 0.816405
O O15 0.500000 0.000000 0.000000
#
# Coordination Sequence:
#
# PCOD8028377 Si02
#       7
#     2   2   2   2   2   2   2
#     4  11  23  45  71 100 144 185 231 284 348 408
#     4  11  27  42  67 111 138 180 232 282 363 432
#     4  11  25  46  72 100 139 182 241 288 336 411
#     4  11  25  48  69 108 144 178 228 292 356 424
#     4  10  25  46  66 100 138 188 239 283 336 407
#     4  11  24  43  72 102 140 184 227 282 359 415
#     4  11  21  43  74 100 146 181 219 291 358 410
#
# _framework density 25.226924
#
# number of rings (size 3 to 8) (size 9 to 14) (size 15 to 20)
#    0.000    1.143    4.286    1.714   10.000    1.714 
#    0.000    0.000    0.000    0.000    0.000    0.000 
#    0.000    0.000    0.000    0.000    0.000    0.000 
#
# Total GULP energy -173640.348522 kJ/mol
# GULP energy per Si atom -12402.882037 kJ/mol
# Density = 2.516951 g / cm^3
# Si number density = 25.226924 Si / 1000 Ang^3
#
#
#
# Elastic Constant Matrix: (Units=GPa)
#
#
# Indices 1 2 3 4 5 6 
#
# 1 122.1104 39.4748 19.9794 6.1177 -20.6300 -1.1134
# 2 39.4748 99.7822 27.8735 -8.2017 -26.8110 -2.8135
# 3 19.9794 27.8735 61.9929 1.1691 -14.2359 -6.8759
# 4 6.1177 -8.2017 1.1691 37.1428 -0.9226 -14.5263
# 5 -20.6300 -26.8110 -14.2359 -0.9226 27.6193 -6.2641
# 6 -1.1134 -2.8135 -6.8759 -14.5263 -6.2641 52.8376
#
#
#
# Elastic Compliance Matrix: (Units=1/GPa)
#
#
# Indices 1 2 3 4 5 6 
#
# 1 0.010065 -0.002752 -0.001017 -0.002196 0.004210 -0.000171
# 2 -0.002752 0.016005 -0.003069 0.005777 0.012888 0.003511
# 3 -0.001017 -0.003069 0.019877 0.000361 0.007281 0.003364
# 4 -0.002196 0.005777 0.000361 0.032727 0.007561 0.010202
# 5 0.004210 0.012888 0.007281 0.007561 0.058298 0.010713
# 6 -0.000171 0.003511 0.003364 0.010202 0.010713 0.023622
#
#
# Mechanical properties :
#
#
# Convention : Reuss Voigt Hill
#
# Bulk Modulus (GPa) = 30.98806 50.94897 40.96852
# Shear Modulus (GPa) = 27.02314 36.62379 31.82347
#
# Velocity S-wave (km/s) = 3.27647 3.81435 3.55560
# Velocity P-wave (km/s) = 5.15985 6.29596 5.75601
#
# Compressibility (1/GPa) = 0.03227049
#
# Stress axis : x y z
#
# Youngs Moduli (GPa) = 99.35357 62.48183 50.30919
#
# Poissons Ratio (x) = 0.17193 0.05118
# Poissons Ratio (y) = 0.27339 0.15440
# Poissons Ratio (z) = 0.10108 0.19176
#
# Static dielectric constant tensor:
#      x y z
#    x 4.884270 -0.059750 -0.207780 
#    y -0.059750 4.699340 -0.125760 
#    z -0.207780 -0.125760 4.434630 
# 
# 
# High freq. dielectric constant tensor:
#      x y z
#    x 2.020830 0.004340 -0.009570 
#    y 0.004340 2.000630 -0.016960 
#    z -0.009570 -0.016960 2.005270 
# 
# From -- ./inp_files/236689.got.cif
#   From: 2010.06.25/outbox.cif.g09.slc.cpg/sg2_119_cif.got.tgz:236689.got - 2010.06.27 13:26:56.
