data_PCOD8028362
_publ_section_title
;
Structure prediction by ZEFSAII (Michael W. Deem and Ramdas Pophale) SiO2 
 PCOD8028362
Probable space group: P -1
;
_chemical_formula_sum "Si O2"
_cell_formula_units_Z 14
_cell_length_a 14.426575
_cell_length_b 11.752700
_cell_length_c 8.713500
_cell_angle_alpha 68.237310
_cell_angle_beta 31.492524
_cell_angle_gamma 57.144912
_cell_volume 633.960536
_symmetry_space_group_name_H-M "P -1"
_symmetry_group_IT_number 2
_symmetry_cell_setting 'triclinic'
loop_
_space_group_symop_operation_xyz
x,y,z
-x,-y,-z
loop_
_atom_site_type_symbol
_atom_site_label
_atom_site_fract_x
_atom_site_fract_y
_atom_site_fract_z
Si Si1 0.727062 0.991233 0.870539
Si Si2 0.143031 0.314931 0.187088
Si Si3 0.691224 0.769687 0.676410
Si Si4 0.697124 0.496307 0.290700
Si Si5 0.063121 0.962626 0.179060
Si Si6 0.313252 0.486456 0.341074
Si Si7 0.024340 0.805433 0.046074
O O1 0.750925 0.840583 0.952749
O O2 0.886053 0.963892 0.527602
O O3 0.756965 0.059642 0.950105
O O4 0.515826 0.100897 0.044401
O O5 0.184241 0.314616 0.309727
O O6 0.901751 0.389936 0.470311
O O7 0.253893 0.386957 0.903975
O O8 0.660825 0.662630 0.665888
O O9 0.800488 0.844083 0.394742
O O10 0.500000 0.500000 0.500000
O O11 0.676198 0.508435 0.494874
O O12 0.878414 0.353419 0.054315
O O13 0.137767 0.839501 0.009120
O O14 0.976981 0.109934 0.143583
O O15 0.500000 0.500000 0.000000
#
# Coordination Sequence:
#
# PCOD8028362 Si02
#       7
#     2   2   2   2   2   2   2
#     4  11  26  45  74 108 143 194 244 296 364 424
#     4  12  26  50  74 108 154 188 242 303 360 435
#     4  12  27  44  73 109 150 191 243 294 369 431
#     4  12  29  47  76 106 146 192 245 303 367 430
#     4  10  25  45  74  99 148 189 245 298 355 432
#     4  12  29  48  76 107 146 195 246 299 369 434
#     4  11  25  47  69 106 147 190 244 299 360 427
#
# _framework density 22.083392
#
# number of rings (size 3 to 8) (size 9 to 14) (size 15 to 20)
#    0.000    0.571    2.857    3.000   14.000    1.714 
#    0.000    0.000    0.000    0.000    0.000    0.000 
#    0.000    0.000    0.000    0.000    0.000    0.000 
#
# Total GULP energy -173637.376112 kJ/mol
# GULP energy per Si atom -12402.669722 kJ/mol
# Density = 2.203313 g / cm^3
# Si number density = 22.083392 Si / 1000 Ang^3
#
#
#
# Elastic Constant Matrix: (Units=GPa)
#
#
# Indices 1 2 3 4 5 6 
#
# 1 135.2322 58.3191 71.6320 -3.8865 4.0002 -4.6446
# 2 58.3191 140.0083 52.9058 -8.3955 0.1557 0.2194
# 3 71.6320 52.9058 90.3166 -15.2131 -4.0741 -3.9878
# 4 -3.8865 -8.3955 -15.2131 42.3758 -3.2513 1.5633
# 5 4.0002 0.1557 -4.0741 -3.2513 38.2143 0.3290
# 6 -4.6446 0.2194 -3.9878 1.5633 0.3290 30.4066
#
#
#
# Elastic Compliance Matrix: (Units=1/GPa)
#
#
# Indices 1 2 3 4 5 6 
#
# 1 0.013772 -0.002009 -0.010353 -0.003102 -0.002809 0.000950
# 2 -0.002009 0.009499 -0.003973 0.000288 -0.000220 -0.000909
# 3 -0.010353 -0.003973 0.022988 0.006793 0.004119 0.001068
# 4 -0.003102 0.000288 0.006793 0.026096 0.003276 -0.000962
# 5 -0.002809 -0.000220 0.004119 0.003276 0.027184 -0.000350
# 6 0.000950 -0.000909 0.001068 -0.000962 -0.000350 0.033233
#
#
# Mechanical properties :
#
#
# Convention : Reuss Voigt Hill
#
# Bulk Modulus (GPa) = 73.58744 81.25232 77.41988
# Shear Modulus (GPa) = 29.41668 34.37937 31.89803
#
# Velocity S-wave (km/s) = 3.65372 3.94991 3.80470
# Velocity P-wave (km/s) = 7.15503 7.59445 7.37801
#
# Compressibility (1/GPa) = 0.01358927
#
# Stress axis : x y z
#
# Youngs Moduli (GPa) = 72.61346 105.27064 43.50083
#
# Poissons Ratio (x) = 0.21144 0.45038
# Poissons Ratio (y) = 0.14585 0.17283
# Poissons Ratio (z) = 0.75179 0.41824
#
# Static dielectric constant tensor:
#      x y z
#    x 4.318730 0.185610 -0.020890 
#    y 0.185610 4.180530 0.095490 
#    z -0.020890 0.095490 4.110590 
# 
# 
# High freq. dielectric constant tensor:
#      x y z
#    x 1.889630 0.010850 0.002870 
#    y 0.010850 1.881140 -0.009190 
#    z 0.002870 -0.009190 1.872330 
# 
# From -- ./inp_files/156604.got.cif
#   From: 2010.06.25/outbox.cif.g09.slc.cpg/sg2_79_cif.got.tgz:156604.got - 2010.06.27 13:26:56.
