data_PCOD8028371
_publ_section_title
;
Structure prediction by ZEFSAII (Michael W. Deem and Ramdas Pophale) SiO2 
 PCOD8028371
Probable space group: P -1
;
_chemical_formula_sum "Si O2"
_cell_formula_units_Z 12
_cell_length_a 8.514321
_cell_length_b 8.685339
_cell_length_c 9.254450
_cell_angle_alpha 51.452346
_cell_angle_beta 108.932900
_cell_angle_gamma 90.926037
_cell_volume 490.009029
_symmetry_space_group_name_H-M "P -1"
_symmetry_group_IT_number 2
_symmetry_cell_setting 'triclinic'
loop_
_space_group_symop_operation_xyz
x,y,z
-x,-y,-z
loop_
_atom_site_type_symbol
_atom_site_label
_atom_site_fract_x
_atom_site_fract_y
_atom_site_fract_z
Si Si1 0.496301 0.218291 0.816194
Si Si2 0.888655 0.214185 0.903610
Si Si3 0.090550 0.832382 0.513234
Si Si4 0.809292 0.648729 0.549566
Si Si5 0.656446 0.559611 0.083505
Si Si6 0.833971 0.803322 0.788735
O O1 0.690601 0.225414 0.856460
O O2 0.388856 0.271044 0.604648
O O3 0.391773 0.379775 0.803087
O O4 0.500000 0.000000 0.000000
O O5 0.885851 0.406904 0.685969
O O6 0.970866 0.259513 0.054453
O O7 0.000000 0.000000 0.000000
O O8 0.191675 0.641941 0.747200
O O9 0.932644 0.762147 0.429188
O O10 0.205626 0.945295 0.381390
O O11 0.000000 0.000000 0.500000
O O12 0.816013 0.696876 0.694442
O O13 0.500000 0.500000 0.000000
O O14 0.707362 0.742149 0.903975
#
# Coordination Sequence:
#
# PCOD8028371 Si02
#       6
#     2   2   2   2   2   2
#     4  12  29  49  72 113 163 196 258 324 382 455
#     4  12  26  48  79 114 152 206 258 318 390 456
#     4  10  25  45  79 112 154 200 259 310 389 454
#     4  11  25  49  80 111 154 203 259 319 384 460
#     4  12  28  48  77 115 156 201 257 321 386 456
#     4  11  25  50  82 107 153 203 256 308 390 459
#
# _framework density 24.489345
#
# number of rings (size 3 to 8) (size 9 to 14) (size 15 to 20)
#    0.000    0.667    1.667    4.000   14.000    1.333 
#    3.000    0.000    0.000    0.000    0.000    0.000 
#    0.000    0.000    0.000    0.000    0.000    0.000 
#
# Total GULP energy -148690.144184 kJ/mol
# GULP energy per Si atom -12390.845349 kJ/mol
# Density = 2.443361 g / cm^3
# Si number density = 24.489345 Si / 1000 Ang^3
#
#
#
# Elastic Constant Matrix: (Units=GPa)
#
#
# Indices 1 2 3 4 5 6 
#
# 1 159.8709 80.1249 70.4948 0.5075 1.4391 30.6506
# 2 80.1249 120.1825 71.0465 -10.3853 8.4687 18.0758
# 3 70.4948 71.0465 143.9235 -6.1884 8.3305 17.6094
# 4 0.5075 -10.3853 -6.1884 57.3605 20.0819 1.9930
# 5 1.4391 8.4687 8.3305 20.0819 50.0736 -5.4354
# 6 30.6506 18.0758 17.6094 1.9930 -5.4354 53.5808
#
#
#
# Elastic Compliance Matrix: (Units=1/GPa)
#
#
# Indices 1 2 3 4 5 6 
#
# 1 0.010622 -0.005506 -0.002230 -0.001676 0.001312 -0.003291
# 2 -0.005506 0.015259 -0.004375 0.003498 -0.003207 -0.001016
# 3 -0.002230 -0.004375 0.010420 0.000859 -0.001365 -0.000843
# 4 -0.001676 0.003498 0.000859 0.021616 -0.009603 -0.002281
# 5 0.001312 -0.003207 -0.001365 -0.009603 0.024952 0.003669
# 6 -0.003291 -0.001016 -0.000843 -0.002281 0.003669 0.021622
#
#
# Mechanical properties :
#
#
# Convention : Reuss Voigt Hill
#
# Bulk Modulus (GPa) = 82.79734 96.36770 89.58252
# Shear Modulus (GPa) = 37.66779 45.69037 41.67908
#
# Velocity S-wave (km/s) = 3.92615 4.32409 4.12992
# Velocity P-wave (km/s) = 7.37807 8.02288 7.70722
#
# Compressibility (1/GPa) = 0.01207768
#
# Stress axis : x y z
#
# Youngs Moduli (GPa) = 94.14134 65.53601 95.97323
#
# Poissons Ratio (x) = 0.36082 0.21407
# Poissons Ratio (y) = 0.51831 0.41991
# Poissons Ratio (z) = 0.20998 0.28674
#
# Static dielectric constant tensor:
#      x y z
#    x 4.511970 0.424710 -0.299870 
#    y 0.424710 4.459790 -0.353500 
#    z -0.299870 -0.353500 5.214720 
# 
# 
# High freq. dielectric constant tensor:
#      x y z
#    x 1.968550 0.025940 0.000690 
#    y 0.025940 1.992690 -0.012800 
#    z 0.000690 -0.012800 1.986990 
# 
# From -- ./inp_files/156515.got.cif
#   From: 2010.06.25/outbox.cif.g09.slc.cpg/sg2_79_cif.got.tgz:156515.got - 2010.06.27 13:26:56.
