data_PCOD8028686
_publ_section_title
;
Structure prediction by ZEFSAII (Michael W. Deem and Ramdas Pophale) SiO2 
 PCOD8028686
Probable space group: P -1
;
_chemical_formula_sum "Si O2"
_cell_formula_units_Z 16
_cell_length_a 9.752657
_cell_length_b 25.051536
_cell_length_c 9.752637
_cell_angle_alpha 28.522466
_cell_angle_beta 122.307949
_cell_angle_gamma 134.218144
_cell_volume 793.811403
_symmetry_space_group_name_H-M "P -1"
_symmetry_group_IT_number 2
_symmetry_cell_setting 'triclinic'
loop_
_space_group_symop_operation_xyz
x,y,z
-x,-y,-z
loop_
_atom_site_type_symbol
_atom_site_label
_atom_site_fract_x
_atom_site_fract_y
_atom_site_fract_z
Si Si1 0.653659 0.545164 0.361732
Si Si2 0.945588 0.222400 0.832037
Si Si3 0.906008 0.815314 0.278675
Si Si4 0.844498 0.395005 0.760473
Si Si5 0.750870 0.000001 0.750875
Si Si6 0.093072 0.545157 0.801165
Si Si7 0.316284 0.896599 0.787114
Si Si8 0.402102 0.492181 0.105698
O O1 0.500000 0.500000 0.500000
O O2 0.852629 0.685414 0.186971
O O3 0.674164 0.420652 0.627646
O O4 0.578022 0.576062 0.116241
O O5 0.975938 0.154678 0.869416
O O6 0.872417 0.314590 0.538053
O O7 0.785315 0.112009 0.102693
O O8 0.757893 0.656500 0.585611
O O9 0.773486 0.875305 0.062084
O O10 0.062627 0.875300 0.351214
O O11 0.000000 0.500000 0.500000
O O12 0.951643 0.420645 0.905171
O O13 0.756676 0.246252 0.997059
O O14 0.549137 0.971923 0.770266
O O15 0.742188 0.028078 0.521067
O O16 0.307659 0.576048 0.845887
O O17 0.000000 0.500000 0.000000
O O18 0.500000 0.500000 0.000000
#
# Coordination Sequence:
#
# PCOD8028686 Si02
#       8
#     2   2   2   2   2   2   2   2
#     4  11  21  38  56  99 127 162 191 245 323 382
#     4  11  24  40  66  88 132 161 204 260 310 371
#     4  11  23  47  63  91 127 165 207 267 302 361
#     4  11  20  37  66  90 127 160 196 252 317 374
#     4  10  26  44  68  86 120 170 222 254 302 356
#     4  11  21  38  56  99 127 162 191 245 323 382
#     4  11  23  44  65  94 119 168 215 254 304 373
#     4  12  24  35  65  98 130 157 199 251 319 376
#
# _framework density 20.155922
#
# number of rings (size 3 to 8) (size 9 to 14) (size 15 to 20)
#    0.000    1.000    5.000    3.000    3.500    1.000 
#    0.000    0.000    0.000    0.000    0.000    0.000 
#    0.000    0.000    0.000    0.000    0.000    0.000 
#
# Total GULP energy -198395.466970 kJ/mol
# GULP energy per Si atom -12399.716686 kJ/mol
# Density = 2.011005 g / cm^3
# Si number density = 20.155922 Si / 1000 Ang^3
#
#
#
# Elastic Constant Matrix: (Units=GPa)
#
#
# Indices 1 2 3 4 5 6 
#
# 1 144.5593 32.4597 36.2799 29.2315 -14.6599 5.0819
# 2 32.4597 89.9132 26.4610 31.6259 5.9906 11.5746
# 3 36.2799 26.4610 77.7380 23.7625 -7.6410 11.5169
# 4 29.2315 31.6259 23.7625 39.8335 0.0116 1.3768
# 5 -14.6599 5.9906 -7.6410 0.0116 47.5849 10.6524
# 6 5.0819 11.5746 11.5169 1.3768 10.6524 38.0750
#
#
#
# Elastic Compliance Matrix: (Units=1/GPa)
#
#
# Indices 1 2 3 4 5 6 
#
# 1 0.008873 -0.001148 -0.002023 -0.004365 0.002741 -0.000832
# 2 -0.001148 0.016486 -0.001251 -0.011377 -0.001831 -0.003556
# 3 -0.002023 -0.001251 0.017839 -0.007975 0.003625 -0.005471
# 4 -0.004365 -0.011377 -0.007975 0.041904 -0.002463 0.005627
# 5 0.002741 -0.001831 0.003625 -0.002463 0.024383 -0.007638
# 6 -0.000832 -0.003556 -0.005471 0.005627 -0.007638 0.031045
#
#
# Mechanical properties :
#
#
# Convention : Reuss Voigt Hill
#
# Bulk Modulus (GPa) = 29.11014 55.84574 42.47794
# Shear Modulus (GPa) = 31.08972 39.56600 35.32786
#
# Velocity S-wave (km/s) = 3.93168 4.43538 4.19110
# Velocity P-wave (km/s) = 5.92323 7.34827 6.67389
#
# Compressibility (1/GPa) = 0.03435229
#
# Stress axis : x y z
#
# Youngs Moduli (GPa) = 112.70225 60.65764 56.05795
#
# Poissons Ratio (x) = 0.06963 0.11342
# Poissons Ratio (y) = 0.12937 0.07015
# Poissons Ratio (z) = 0.22803 0.07591
#
# Static dielectric constant tensor:
#      x y z
#    x 4.555450 1.350850 0.331330 
#    y 1.350850 2.605930 4.109770 
#    z 0.331330 4.109770 1.119350 
# 
# 
# High freq. dielectric constant tensor:
#      x y z
#    x 1.804420 0.003750 0.001690 
#    y 0.003750 1.790530 0.023440 
#    z 0.001690 0.023440 1.779390 
# 
# From -- ./inp_files/178203.got.cif
#   From: 2010.06.25/outbox.cif.g09.slc.cpg/sg2_90_cif.got.tgz:178203.got - 2010.06.27 13:26:56.
