data_PCOD8028401
_publ_section_title
;
Structure prediction by ZEFSAII (Michael W. Deem and Ramdas Pophale) SiO2 
 PCOD8028401
Probable space group: P -1
;
_chemical_formula_sum "Si O2"
_cell_formula_units_Z 16
_cell_length_a 5.112536
_cell_length_b 16.166627
_cell_length_c 14.394707
_cell_angle_alpha 146.213265
_cell_angle_beta 106.365760
_cell_angle_gamma 79.361519
_cell_volume 632.075308
_symmetry_space_group_name_H-M "P -1"
_symmetry_group_IT_number 2
_symmetry_cell_setting 'triclinic'
loop_
_space_group_symop_operation_xyz
x,y,z
-x,-y,-z
loop_
_atom_site_type_symbol
_atom_site_label
_atom_site_fract_x
_atom_site_fract_y
_atom_site_fract_z
Si Si1 0.754331 0.728544 0.943226
Si Si2 0.482970 0.239245 0.603780
Si Si3 0.389091 0.685396 0.116006
Si Si4 0.011093 0.987720 0.099078
Si Si5 0.518290 0.534441 0.426271
Si Si6 0.843542 0.521859 0.906785
Si Si7 0.995312 0.708752 0.532238
Si Si8 0.532856 0.062316 0.770964
O O1 0.493737 0.623087 0.778409
O O2 0.877491 0.822251 0.955970
O O3 0.936957 0.611250 0.903197
O O4 0.708314 0.848742 0.131102
O O5 0.437147 0.240003 0.711051
O O6 0.199525 0.278173 0.564915
O O7 0.577570 0.080867 0.433123
O O8 0.748409 0.352778 0.710438
O O9 0.575316 0.586702 0.982431
O O10 0.285172 0.820677 0.169242
O O11 0.141946 0.569478 0.032055
O O12 0.316658 0.993066 0.174631
O O13 0.881648 0.127721 0.264980
O O14 0.000000 0.000000 0.000000
O O15 0.500000 0.500000 0.500000
O O16 0.806972 0.625986 0.516750
O O17 0.260036 0.624470 0.455572
#
# Coordination Sequence:
#
# PCOD8028401 Si02
#       8
#     2   2   2   2   2   2   2   2
#     4  11  25  44  72  98 145 185 238 298 356 428
#     4  11  24  46  73 107 146 187 239 300 355 428
#     4  11  24  47  71 107 141 192 240 290 358 429
#     4  11  25  44  71 100 144 187 237 297 360 430
#     4  12  27  48  75 103 142 188 240 297 359 424
#     4  11  24  44  71 103 144 186 237 296 356 421
#     4  11  28  45  71 108 141 185 239 293 359 419
#     4  10  25  46  68 104 143 192 233 295 361 424
#
# _framework density 25.313437
#
# number of rings (size 3 to 8) (size 9 to 14) (size 15 to 20)
#    0.000    1.000    2.500    2.250    8.750    1.500 
#    4.500    1.875    0.000    0.000    0.000    0.000 
#    0.000    0.000    0.000    0.000    0.000    0.000 
#
# Total GULP energy -198280.749343 kJ/mol
# GULP energy per Si atom -12392.546834 kJ/mol
# Density = 2.525582 g / cm^3
# Si number density = 25.313437 Si / 1000 Ang^3
#
#
#
# Elastic Constant Matrix: (Units=GPa)
#
#
# Indices 1 2 3 4 5 6 
#
# 1 67.1896 28.3716 24.7897 17.8581 10.8109 6.7797
# 2 28.3716 97.1389 47.2458 8.0533 0.1222 8.2046
# 3 24.7897 47.2458 163.2266 19.2509 7.7973 1.1012
# 4 17.8581 8.0533 19.2509 46.3685 3.3668 2.8586
# 5 10.8109 0.1222 7.7973 3.3668 26.3726 2.4299
# 6 6.7797 8.2046 1.1012 2.8586 2.4299 32.2763
#
#
#
# Elastic Compliance Matrix: (Units=1/GPa)
#
#
# Indices 1 2 3 4 5 6 
#
# 1 0.020108 -0.004932 -0.000564 -0.006021 -0.007111 -0.001882
# 2 -0.004932 0.013532 -0.003404 0.000898 0.003090 -0.002600
# 3 -0.000564 -0.003404 0.007542 -0.002258 -0.001792 0.001061
# 4 -0.006021 0.000898 -0.002258 0.024728 0.000075 -0.001082
# 5 -0.007111 0.003090 -0.001792 0.000075 0.041557 -0.002366
# 6 -0.001882 -0.002600 0.001061 -0.001082 -0.002366 0.032276
#
#
# Mechanical properties :
#
#
# Convention : Reuss Voigt Hill
#
# Bulk Modulus (GPa) = 42.76528 58.70771 50.73649
# Shear Modulus (GPa) = 30.24119 36.14667 33.19393
#
# Velocity S-wave (km/s) = 3.46015 3.78294 3.62514
# Velocity P-wave (km/s) = 5.73537 6.50565 6.13262
#
# Compressibility (1/GPa) = 0.02338345
#
# Stress axis : x y z
#
# Youngs Moduli (GPa) = 49.73063 73.90060 132.58908
#
# Poissons Ratio (x) = 0.36446 0.07476
# Poissons Ratio (y) = 0.24526 0.45130
# Poissons Ratio (z) = 0.02804 0.25154
#
# Static dielectric constant tensor:
#      x y z
#    x 4.042300 0.141780 0.168110 
#    y 0.141780 5.432790 0.270680 
#    z 0.168110 0.270680 4.937420 
# 
# 
# High freq. dielectric constant tensor:
#      x y z
#    x 1.979390 0.011450 0.004300 
#    y 0.011450 2.045270 0.003620 
#    z 0.004300 0.003620 2.027690 
# 
# From -- ./inp_files/485350.got.cif
#   From: 2010.06.25/outbox.cif.g09.slc.cpg/sg2_243_cif.got.tgz:485350.got - 2010.06.27 13:26:56.
