data_PCOD8028257
_publ_section_title
;
Structure prediction by ZEFSAII (Michael W. Deem and Ramdas Pophale) SiO2 
 PCOD8028257
Probable space group: P -1
;
_chemical_formula_sum "Si O2"
_cell_formula_units_Z 16
_cell_length_a 18.429870
_cell_length_b 9.823645
_cell_length_c 16.306043
_cell_angle_alpha 153.732378
_cell_angle_beta 141.604179
_cell_angle_gamma 41.733573
_cell_volume 801.276779
_symmetry_space_group_name_H-M "P -1"
_symmetry_group_IT_number 2
_symmetry_cell_setting 'triclinic'
loop_
_space_group_symop_operation_xyz
x,y,z
-x,-y,-z
loop_
_atom_site_type_symbol
_atom_site_label
_atom_site_fract_x
_atom_site_fract_y
_atom_site_fract_z
Si Si1 0.856375 0.596837 0.007141
Si Si2 0.385533 0.574686 0.883086
Si Si3 0.588908 0.302818 0.358792
Si Si4 0.839384 0.553518 0.310855
Si Si5 0.007639 0.995708 0.754649
Si Si6 0.505070 0.361485 0.708083
Si Si7 0.735335 0.637309 0.092550
Si Si8 0.351275 0.273394 0.224233
O O1 0.820777 0.645982 0.096081
O O2 0.908961 0.899378 0.185826
O O3 0.954207 0.291298 0.921660
O O4 0.742188 0.550774 0.827535
O O5 0.286988 0.369290 0.712639
O O6 0.417787 0.505402 0.780202
O O7 0.500000 0.500000 0.000000
O O8 0.324018 0.930315 0.034288
O O9 0.541260 0.461947 0.319130
O O10 0.482115 0.225063 0.277121
O O11 0.659433 0.532460 0.596031
O O12 0.673807 0.986087 0.244335
O O13 0.817081 0.501798 0.167326
O O14 0.903769 0.851188 0.540401
O O15 0.919188 0.246205 0.249650
O O16 0.500000 0.000000 0.500000
O O17 0.638977 0.410922 0.870052
#
# Coordination Sequence:
#
# PCOD8028257 Si02
#       8
#     2   2   2   2   2   2   2   2
#     4  11  23  43  69  91 125 172 222 270 317 376
#     4  12  22  39  66  96 134 169 206 261 333 393
#     4  11  23  39  63  98 133 171 213 259 326 394
#     4  11  24  44  67  94 129 168 219 268 323 375
#     4  10  25  45  67  91 121 178 225 266 317 379
#     4  12  25  37  59 102 137 169 209 258 326 392
#     4  12  24  42  66  97 133 167 216 272 320 383
#     4  11  21  39  66  92 129 175 214 259 321 394
#
# _framework density 19.968132000000001
#
# number of rings (size 3 to 8) (size 9 to 14) (size 15 to 20)
#    0.000    0.750    5.000    2.625    1.750    3.000 
#    0.000    0.000    0.000    0.000    0.000    0.000 
#    0.000    0.000    0.000    0.000    0.000    0.000 
#
# Total GULP energy -198495.418637 kJ/mol
# GULP energy per Si atom -12405.963665 kJ/mol
# Density = 1.992268 g / cm^3
# Si number density = 19.968132 Si / 1000 Ang^3
#
#
#
# Elastic Constant Matrix: (Units=GPa)
#
#
# Indices 1 2 3 4 5 6 
#
# 1 131.3711 33.5004 62.8678 -10.8812 -2.7990 8.0815
# 2 33.5004 96.0275 43.3847 -9.2574 -2.2871 14.1787
# 3 62.8678 43.3847 132.6148 0.6255 3.1479 11.4697
# 4 -10.8812 -9.2574 0.6255 38.6158 1.0349 -6.3198
# 5 -2.7990 -2.2871 3.1479 1.0349 29.3308 -5.3593
# 6 8.0815 14.1787 11.4697 -6.3198 -5.3593 31.9311
#
#
#
# Elastic Compliance Matrix: (Units=1/GPa)
#
#
# Indices 1 2 3 4 5 6 
#
# 1 0.010358 -0.001316 -0.004555 0.002700 0.001345 0.000359
# 2 -0.001316 0.013186 -0.003385 0.002212 0.000496 -0.003785
# 3 -0.004555 -0.003385 0.011062 -0.002575 -0.002196 -0.002196
# 4 0.002700 0.002212 -0.002575 0.028016 0.000615 0.004907
# 5 0.001345 0.000496 -0.002196 0.000615 0.035632 0.006330
# 6 0.000359 -0.003785 -0.002196 0.004907 0.006330 0.035730
#
#
# Mechanical properties :
#
#
# Convention : Reuss Voigt Hill
#
# Bulk Modulus (GPa) = 62.13882 71.05769 66.59826
# Shear Modulus (GPa) = 31.67384 34.65957 33.16670
#
# Velocity S-wave (km/s) = 3.98706 4.17075 4.07994
# Velocity P-wave (km/s) = 7.23755 7.67179 7.45783
#
# Compressibility (1/GPa) = 0.01609300
#
# Stress axis : x y z
#
# Youngs Moduli (GPa) = 96.54551 75.83813 90.40215
#
# Poissons Ratio (x) = 0.09981 0.41182
# Poissons Ratio (y) = 0.12706 0.30598
# Poissons Ratio (z) = 0.43981 0.25669
#
# Static dielectric constant tensor:
#      x y z
#    x 3.802990 0.015750 0.092090 
#    y 0.015750 3.548910 -0.032800 
#    z 0.092090 -0.032800 3.852850 
# 
# 
# High freq. dielectric constant tensor:
#      x y z
#    x 1.781910 0.006190 0.005790 
#    y 0.006190 1.789710 -0.000600 
#    z 0.005790 -0.000600 1.785910 
# 
# From -- ./inp_files/178199.got.cif
#   From: 2010.06.25/outbox.cif.g09.slc.cpg/sg2_90_cif.got.tgz:178199.got - 2010.06.27 13:26:56.
