data_PCOD8028721
_publ_section_title
;
Structure prediction by ZEFSAII (Michael W. Deem and Ramdas Pophale) SiO2 
 PCOD8028721
Probable space group: P -1
;
_chemical_formula_sum "Si O2"
_cell_formula_units_Z 14
_cell_length_a 7.525578
_cell_length_b 14.742357
_cell_length_c 4.715564
_cell_angle_alpha 93.222378
_cell_angle_beta 73.581680
_cell_angle_gamma 87.520145
_cell_volume 500.084064
_symmetry_space_group_name_H-M "P -1"
_symmetry_group_IT_number 2
_symmetry_cell_setting 'triclinic'
loop_
_space_group_symop_operation_xyz
x,y,z
-x,-y,-z
loop_
_atom_site_type_symbol
_atom_site_label
_atom_site_fract_x
_atom_site_fract_y
_atom_site_fract_z
Si Si1 0.110426 0.126446 0.498684
Si Si2 0.315216 0.039831 0.895216
Si Si3 0.849453 0.566286 0.225154
Si Si4 0.689300 0.108019 0.577490
Si Si5 0.928848 0.682841 0.721697
Si Si6 0.343343 0.689120 0.434763
Si Si7 0.596178 0.427236 0.145315
O O1 0.209065 0.117179 0.757926
O O2 0.154025 0.222403 0.355450
O O3 0.891265 0.114405 0.631091
O O4 0.207104 0.045056 0.246633
O O5 0.536710 0.058325 0.833361
O O6 0.292220 0.941474 0.744680
O O7 0.906177 0.598248 0.511200
O O8 0.696256 0.494010 0.325136
O O9 0.813243 0.655401 0.049585
O O10 0.000000 0.500000 0.000000
O O11 0.595525 0.208896 0.597573
O O12 0.146740 0.689490 0.694165
O O13 0.493517 0.635312 0.575936
O O14 0.310694 0.646008 0.132348
O O15 0.500000 0.500000 0.000000
#
# Coordination Sequence:
#
# PCOD8028721 Si02
#       7
#     2   2   2   2   2   2   2
#     4  11  25  44  71 105 145 178 233 286 342 414
#     4  11  25  46  71 107 138 184 231 281 350 419
#     4  12  21  39  65  86 125 165 226 271 316 401
#     4  10  26  45  75 101 142 185 228 287 350 409
#     4  11  22  39  66  97 123 177 222 276 332 393
#     4  11  23  43  63  92 130 171 220 272 334 404
#     4  12  26  40  61  92 128 169 215 274 337 391
#
# _framework density 27.995293
#
# number of rings (size 3 to 8) (size 9 to 14) (size 15 to 20)
#    0.000    0.857    2.857    3.429    0.000   12.571 
#    0.000    0.000    0.000    0.000    0.000    0.000 
#    0.000    0.000    0.000    0.000    0.000    0.000 
#
# Total GULP energy -173451.718867 kJ/mol
# GULP energy per Si atom -12389.408491 kJ/mol
# Density = 2.793157 g / cm^3
# Si number density = 27.995293 Si / 1000 Ang^3
#
#
#
# Elastic Constant Matrix: (Units=GPa)
#
#
# Indices 1 2 3 4 5 6 
#
# 1 80.6969 23.1557 9.3653 -1.3192 8.5113 -1.7573
# 2 23.1557 154.2881 15.6770 -14.5032 -8.8604 3.1038
# 3 9.3653 15.6770 112.5408 -13.1873 9.6108 6.1741
# 4 -1.3192 -14.5032 -13.1873 46.6182 2.5138 0.1394
# 5 8.5113 -8.8604 9.6108 2.5138 30.1769 -6.0109
# 6 -1.7573 3.1038 6.1741 0.1394 -6.0109 41.0182
#
#
#
# Elastic Compliance Matrix: (Units=1/GPa)
#
#
# Indices 1 2 3 4 5 6 
#
# 1 0.013546 -0.002254 -0.000486 -0.000226 -0.004269 0.000199
# 2 -0.002254 0.007241 -0.000850 0.001795 0.002862 -0.000103
# 3 -0.000486 -0.000850 0.009802 0.002709 -0.003859 -0.002007
# 4 -0.000226 0.001795 0.002709 0.022900 -0.002375 -0.000979
# 5 -0.004269 0.002862 -0.003859 -0.002375 0.037749 0.005721
# 6 0.000199 -0.000103 -0.002007 -0.000979 0.005721 0.025540
#
#
# Mechanical properties :
#
#
# Convention : Reuss Voigt Hill
#
# Bulk Modulus (GPa) = 42.71794 49.32466 46.02130
# Shear Modulus (GPa) = 37.94779 43.51784 40.73282
#
# Velocity S-wave (km/s) = 3.68571 3.94695 3.81857
# Velocity P-wave (km/s) = 5.77968 6.19907 5.99304
#
# Compressibility (1/GPa) = 0.02340937
#
# Stress axis : x y z
#
# Youngs Moduli (GPa) = 73.82156 138.09972 102.02489
#
# Poissons Ratio (x) = 0.31128 0.04959
# Poissons Ratio (y) = 0.16640 0.08668
# Poissons Ratio (z) = 0.03588 0.11733
#
# Static dielectric constant tensor:
#      x y z
#    x 4.629760 -0.444410 0.210900 
#    y -0.444410 5.592080 -0.104650 
#    z 0.210900 -0.104650 5.237900 
# 
# 
# High freq. dielectric constant tensor:
#      x y z
#    x 2.120460 -0.015350 0.010980 
#    y -0.015350 2.169290 -0.009970 
#    z 0.010980 -0.009970 2.137860 
# 
# From -- ./inp_files/38476.got.cif
#   From: 2010.06.25/outbox.cif.g09.slc.cpg/sg2_20_cif.got.tgz:38476.got - 2010.06.27 13:26:56.
