data_PCOD8028294
_publ_section_title
;
Structure prediction by ZEFSAII (Michael W. Deem and Ramdas Pophale) SiO2 
 PCOD8028294
Probable space group: P -1
;
_chemical_formula_sum "Si O2"
_cell_formula_units_Z 16
_cell_length_a 25.830833
_cell_length_b 9.781634
_cell_length_c 9.512474
_cell_angle_alpha 135.884103
_cell_angle_beta 137.192633
_cell_angle_gamma 27.890769
_cell_volume 745.529054
_symmetry_space_group_name_H-M "P -1"
_symmetry_group_IT_number 2
_symmetry_cell_setting 'triclinic'
loop_
_space_group_symop_operation_xyz
x,y,z
-x,-y,-z
loop_
_atom_site_type_symbol
_atom_site_label
_atom_site_fract_x
_atom_site_fract_y
_atom_site_fract_z
Si Si1 0.739656 0.196586 0.975629
Si Si2 0.106890 0.162815 0.510685
Si Si3 0.487969 0.255912 0.413357
Si Si4 0.519088 0.281086 0.188517
Si Si5 0.232884 0.667827 0.170067
Si Si6 0.713581 0.807784 0.694771
Si Si7 0.727273 0.820743 0.059669
Si Si8 0.888392 0.131476 0.450114
O O1 0.606441 0.503749 0.973978
O O2 0.773553 0.228578 0.920013
O O3 0.755356 0.930479 0.797228
O O4 0.819371 0.128313 0.204084
O O5 0.210091 0.097364 0.724921
O O6 0.000000 0.500000 0.500000
O O7 0.149149 0.961881 0.312481
O O8 0.067304 0.088992 0.497123
O O9 0.529435 0.136530 0.247008
O O10 0.459961 0.536484 0.592680
O O11 0.363628 0.395714 0.294388
O O12 0.589083 0.979518 0.512290
O O13 0.610284 0.030288 0.071788
O O14 0.190540 0.522824 0.983337
O O15 0.809410 0.458977 0.595019
O O16 0.696414 0.872800 0.873208
O O17 0.000000 0.000000 0.500000
#
# Coordination Sequence:
#
# PCOD8028294 Si02
#       8
#     2   2   2   2   2   2   2   2
#     4  10  25  45  69 105 141 182 228 283 337 413
#     4  12  29  50  70  99 140 181 233 293 341 409
#     4   9  20  40  68 103 144 183 224 274 336 421
#     4   9  20  39  69 103 144 184 223 271 347 409
#     4  11  25  44  70 108 139 183 233 276 341 420
#     4  11  25  44  69 104 143 177 226 288 345 407
#     4  12  25  43  70 104 143 181 223 289 348 404
#     4  12  29  49  71 101 133 183 239 285 345 412
#
# _framework density 21.461269000000001
#
# number of rings (size 3 to 8) (size 9 to 14) (size 15 to 20)
#    0.000    1.250    3.750    0.750    7.000    6.500 
#    0.000    0.000    0.000    0.000    0.000    0.000 
#    0.000    0.000    0.000    0.000    0.000    0.000 
#
# Total GULP energy -198434.844857 kJ/mol
# GULP energy per Si atom -12402.177804 kJ/mol
# Density = 2.141242 g / cm^3
# Si number density = 21.461269 Si / 1000 Ang^3
#
#
#
# Elastic Constant Matrix: (Units=GPa)
#
#
# Indices 1 2 3 4 5 6 
#
# 1 91.0307 44.7952 7.9228 11.9400 -15.2469 10.0405
# 2 44.7952 124.7746 37.1451 13.3218 -16.6688 6.2025
# 3 7.9228 37.1451 64.3657 10.8703 -13.6785 -2.5456
# 4 11.9400 13.3218 10.8703 33.3525 1.5638 -2.6304
# 5 -15.2469 -16.6688 -13.6785 1.5638 32.2366 2.8867
# 6 10.0405 6.2025 -2.5456 -2.6304 2.8867 41.2260
#
#
#
# Elastic Compliance Matrix: (Units=1/GPa)
#
#
# Indices 1 2 3 4 5 6 
#
# 1 0.015237 -0.004755 0.002991 -0.005123 0.006588 -0.003599
# 2 -0.004755 0.011843 -0.005728 -0.001330 0.001614 -0.001175
# 3 0.002991 -0.005728 0.021135 -0.005990 0.007665 0.000519
# 4 -0.005123 -0.001330 -0.005990 0.034964 -0.007693 0.003847
# 5 0.006588 0.001614 0.007665 -0.007693 0.039008 -0.004596
# 6 -0.003599 -0.001175 0.000519 0.003847 -0.004596 0.025909
#
#
# Mechanical properties :
#
#
# Convention : Reuss Voigt Hill
#
# Bulk Modulus (GPa) = 30.09185 51.09970 40.59577
# Shear Modulus (GPa) = 28.70986 34.05022 31.38004
#
# Velocity S-wave (km/s) = 3.66150 3.98752 3.82798
# Velocity P-wave (km/s) = 5.65043 6.71285 6.20442
#
# Compressibility (1/GPa) = 0.03323159
#
# Stress axis : x y z
#
# Youngs Moduli (GPa) = 65.62894 84.44050 47.31584
#
# Poissons Ratio (x) = 0.40149 -0.14154
# Poissons Ratio (y) = 0.31205 0.27103
# Poissons Ratio (z) = -0.19632 0.48368
#
# Static dielectric constant tensor:
#      x y z
#    x 4.099840 0.147790 0.124620 
#    y 0.147790 3.822010 0.054580 
#    z 0.124620 0.054580 4.060250 
# 
# 
# High freq. dielectric constant tensor:
#      x y z
#    x 1.850060 0.009890 0.001400 
#    y 0.009890 1.838220 0.008320 
#    z 0.001400 0.008320 1.856860 
# 
# From -- ./inp_files/352440.got.cif
#   From: 2010.06.25/outbox.cif.g09.slc.cpg/sg2_177_cif.got.tgz:352440.got - 2010.06.27 13:26:56.
