data_PCOD8028423
_publ_section_title
;
Structure prediction by ZEFSAII (Michael W. Deem and Ramdas Pophale) SiO2 
 PCOD8028423
Probable space group: P -1
;
_chemical_formula_sum "Si O2"
_cell_formula_units_Z 16
_cell_length_a 11.695100
_cell_length_b 9.060787
_cell_length_c 8.816754
_cell_angle_alpha 93.080037
_cell_angle_beta 106.551896
_cell_angle_gamma 52.360394
_cell_volume 700.216832
_symmetry_space_group_name_H-M "P -1"
_symmetry_group_IT_number 2
_symmetry_cell_setting 'triclinic'
loop_
_space_group_symop_operation_xyz
x,y,z
-x,-y,-z
loop_
_atom_site_type_symbol
_atom_site_label
_atom_site_fract_x
_atom_site_fract_y
_atom_site_fract_z
Si Si1 0.433706 0.968720 0.325223
Si Si2 0.857260 0.728417 0.614807
Si Si3 0.889809 0.176910 0.862417
Si Si4 0.967209 0.620517 0.143141
Si Si5 0.691803 0.894758 0.253757
Si Si6 0.989624 0.091323 0.345920
Si Si7 0.335463 0.757168 0.823455
Si Si8 0.566662 0.344710 0.817710
O O1 0.517503 0.967093 0.203739
O O2 0.451751 0.776134 0.314764
O O3 0.500000 0.000000 0.500000
O O4 0.252920 0.141522 0.277067
O O5 0.943886 0.513721 0.685857
O O6 0.768913 0.768092 0.427429
O O7 0.984496 0.754008 0.630455
O O8 0.969532 0.268491 0.861078
O O9 0.718021 0.328623 0.861388
O O10 0.872590 0.090975 0.701667
O O11 0.000000 0.000000 0.000000
O O12 0.787648 0.769742 0.133647
O O13 0.000000 0.500000 0.000000
O O14 0.683954 0.078168 0.271347
O O15 0.830188 0.184616 0.205045
O O16 0.000000 0.000000 0.500000
O O17 0.427468 0.564145 0.750601
O O18 0.425947 0.724528 0.011169
#
# Coordination Sequence:
#
# PCOD8028423 Si02
#       8
#     2   2   2   2   2   2   2   2
#     4  10  25  46  69  98 144 191 230 295 363 424
#     4  11  24  45  69 102 143 187 235 298 360 425
#     4  12  23  46  72 100 141 183 239 294 348 424
#     4  12  27  41  71 107 138 185 237 296 362 427
#     4  11  24  48  66  99 146 186 238 293 363 429
#     4  12  22  43  73 101 138 186 236 293 356 418
#     4  11  25  43  72 107 141 189 241 292 367 424
#     4  11  25  44  72 105 144 186 240 300 355 433
#
# _framework density 22.850066000000002
#
# number of rings (size 3 to 8) (size 9 to 14) (size 15 to 20)
#    0.000    0.750    5.000    1.125    5.250    1.500 
#    2.250    3.125    0.000    0.000    0.000    0.000 
#    0.000    0.000    0.000    0.000    0.000    0.000 
#
# Total GULP energy -198280.694890 kJ/mol
# GULP energy per Si atom -12392.543431 kJ/mol
# Density = 2.279806 g / cm^3
# Si number density = 22.850066 Si / 1000 Ang^3
#
#
#
# Elastic Constant Matrix: (Units=GPa)
#
#
# Indices 1 2 3 4 5 6 
#
# 1 145.0282 49.7755 17.2682 -1.1520 -23.3337 -5.1353
# 2 49.7755 135.9600 31.6867 1.4620 -12.7169 -2.3631
# 3 17.2682 31.6867 68.7917 2.2326 -8.8886 9.9391
# 4 -1.1520 1.4620 2.2326 42.1436 1.8197 -9.5250
# 5 -23.3337 -12.7169 -8.8886 1.8197 32.6014 0.4340
# 6 -5.1353 -2.3631 9.9391 -9.5250 0.4340 38.2268
#
#
#
# Elastic Compliance Matrix: (Units=1/GPa)
#
#
# Indices 1 2 3 4 5 6 
#
# 1 0.008698 -0.002572 -0.000533 0.000407 0.005038 0.001192
# 2 -0.002572 0.009247 -0.003690 0.000041 0.000741 0.001187
# 3 -0.000533 -0.003690 0.017643 -0.002195 0.003185 -0.005470
# 4 0.000407 0.000041 -0.002195 0.025516 -0.001809 0.007006
# 5 0.005038 0.000741 0.003185 -0.001809 0.035550 -0.000960
# 6 0.001192 0.001187 -0.005470 0.007006 -0.000960 0.029572
#
#
# Mechanical properties :
#
#
# Convention : Reuss Voigt Hill
#
# Bulk Modulus (GPa) = 45.46310 60.80452 53.13381
# Shear Modulus (GPa) = 33.97904 39.33100 36.65502
#
# Velocity S-wave (km/s) = 3.86040 4.15331 4.00953
# Velocity P-wave (km/s) = 6.30950 7.04755 6.68871
#
# Compressibility (1/GPa) = 0.02199586
#
# Stress axis : x y z
#
# Youngs Moduli (GPa) = 114.97509 108.14874 56.67852
#
# Poissons Ratio (x) = 0.27821 0.03020
# Poissons Ratio (y) = 0.29577 0.20917
# Poissons Ratio (z) = 0.06127 0.39912
#
# Static dielectric constant tensor:
#      x y z
#    x 4.628360 -0.243330 -0.199730 
#    y -0.243330 4.486330 0.188950 
#    z -0.199730 0.188950 3.996170 
# 
# 
# High freq. dielectric constant tensor:
#      x y z
#    x 1.915270 -0.009200 -0.012650 
#    y -0.009200 1.907520 0.009660 
#    z -0.012650 0.009660 1.888180 
# 
# From -- ./inp_files/244106.got.cif
#   From: 2010.06.25/outbox.cif.g09.slc.cpg/sg2_123_cif.got.tgz:244106.got - 2010.06.27 13:26:56.
