data_PCOD8028898
_publ_section_title
;
Structure prediction by ZEFSAII (Michael W. Deem and Ramdas Pophale) SiO2 
 PCOD8028898
Probable space group: P -1
;
_chemical_formula_sum "Si O2"
_cell_formula_units_Z 16
_cell_length_a 12.601022
_cell_length_b 11.140734
_cell_length_c 11.634522
_cell_angle_alpha 94.549473
_cell_angle_beta 135.557633
_cell_angle_gamma 120.485096
_cell_volume 671.743468
_symmetry_space_group_name_H-M "P -1"
_symmetry_group_IT_number 2
_symmetry_cell_setting 'triclinic'
loop_
_space_group_symop_operation_xyz
x,y,z
-x,-y,-z
loop_
_atom_site_type_symbol
_atom_site_label
_atom_site_fract_x
_atom_site_fract_y
_atom_site_fract_z
Si Si1 0.683302 0.350246 0.091472
Si Si2 0.805883 0.677665 0.113501
Si Si3 0.266568 0.382383 0.395652
Si Si4 0.396980 0.805342 0.375476
Si Si5 0.306095 0.488302 0.678824
Si Si6 0.896616 0.066191 0.424751
Si Si7 0.055800 0.605985 0.888791
Si Si8 0.108584 0.029647 0.207774
O O1 0.718961 0.482506 0.036030
O O2 0.746165 0.423625 0.279662
O O3 0.875450 0.370138 0.192180
O O4 0.399752 0.114093 0.848642
O O5 0.043255 0.842146 0.396517
O O6 0.550943 0.589556 0.943571
O O7 0.916250 0.802924 0.089592
O O8 0.500000 0.500000 0.500000
O O9 0.369895 0.530708 0.595079
O O10 0.131634 0.168487 0.311426
O O11 0.052876 0.329492 0.165844
O O12 0.604252 0.836773 0.567369
O O13 0.151540 0.626210 0.252328
O O14 0.500000 0.000000 0.500000
O O15 0.314753 0.751639 0.173990
O O16 0.053200 0.243928 0.466880
O O17 0.000000 0.000000 0.500000
O O18 0.000000 0.000000 0.000000
#
# Coordination Sequence:
#
# PCOD8028898 Si02
#       8
#     2   2   2   2   2   2   2   2
#     4  11  23  42  70 104 142 184 237 296 357 421
#     4  11  22  37  67 105 137 181 233 291 352 422
#     4  12  26  48  69 102 144 187 239 291 358 430
#     4  11  24  46  71 104 141 186 239 294 354 426
#     4  11  24  39  69 103 141 183 235 295 350 426
#     4  11  18  39  64 104 137 181 233 288 352 417
#     4  11  26  46  71 101 144 193 234 294 362 423
#     4  12  25  43  73 107 142 188 237 296 356 428
#
# _framework density 23.818615000000001
#
# number of rings (size 3 to 8) (size 9 to 14) (size 15 to 20)
#    0.000    0.750    3.750    4.500    1.750    2.500 
#    0.000    0.625    0.000    0.000    0.000    0.000 
#    0.000    0.000    0.000    0.000    0.000    0.000 
#
# Total GULP energy -198286.302674 kJ/mol
# GULP energy per Si atom -12392.893917 kJ/mol
# Density = 2.376440 g / cm^3
# Si number density = 23.818615 Si / 1000 Ang^3
#
#
#
# Elastic Constant Matrix: (Units=GPa)
#
#
# Indices 1 2 3 4 5 6 
#
# 1 157.1819 28.3979 59.4700 -4.4678 -2.8905 4.9648
# 2 28.3979 79.3438 37.7955 8.6727 -3.3276 3.7982
# 3 59.4700 37.7955 125.6372 6.7468 -6.8033 0.1203
# 4 -4.4678 8.6727 6.7468 45.8533 1.5383 -1.2322
# 5 -2.8905 -3.3276 -6.8033 1.5383 36.0621 -4.9452
# 6 4.9648 3.7982 0.1203 -1.2322 -4.9452 39.8081
#
#
#
# Elastic Compliance Matrix: (Units=1/GPa)
#
#
# Indices 1 2 3 4 5 6 
#
# 1 0.007983 -0.001343 -0.003474 0.001531 -0.000321 -0.000850
# 2 -0.001343 0.015245 -0.003787 -0.002509 0.000515 -0.001289
# 3 -0.003474 -0.003787 0.010896 -0.001255 0.001608 0.000923
# 4 0.001531 -0.002509 -0.001255 0.022674 -0.001230 0.000601
# 5 -0.000321 0.000515 0.001608 -0.001230 0.028587 0.003499
# 6 -0.000850 -0.001289 0.000923 0.000601 0.003499 0.025800
#
#
# Mechanical properties :
#
#
# Convention : Reuss Voigt Hill
#
# Bulk Modulus (GPa) = 59.10662 68.16551 63.63607
# Shear Modulus (GPa) = 37.30414 40.11133 38.70774
#
# Velocity S-wave (km/s) = 3.96179 4.10815 4.03563
# Velocity P-wave (km/s) = 6.76734 7.15425 6.96348
#
# Compressibility (1/GPa) = 0.01691858
#
# Stress axis : x y z
#
# Youngs Moduli (GPa) = 125.26002 65.59360 91.77275
#
# Poissons Ratio (x) = 0.08807 0.31880
# Poissons Ratio (y) = 0.16819 0.34753
# Poissons Ratio (z) = 0.43512 0.24839
#
# Static dielectric constant tensor:
#      x y z
#    x 4.288980 -0.031070 0.026870 
#    y -0.031070 4.227340 0.074090 
#    z 0.026870 0.074090 4.298320 
# 
# 
# High freq. dielectric constant tensor:
#      x y z
#    x 1.946490 0.001730 0.001220 
#    y 0.001730 1.933770 0.011210 
#    z 0.001220 0.011210 1.950320 
# 
# From -- ./inp_files/428451.got.cif
#   From: 2010.06.25/outbox.cif.g09.slc.cpg/sg2_215_cif.got.tgz:428451.got - 2010.06.27 13:26:56.
