data_PCOD8028920
_publ_section_title
;
Structure prediction by ZEFSAII (Michael W. Deem and Ramdas Pophale) SiO2 
 PCOD8028920
Probable space group: P -1
;
_chemical_formula_sum "Si O2"
_cell_formula_units_Z 14
_cell_length_a 12.268308
_cell_length_b 13.493008
_cell_length_c 15.280347
_cell_angle_alpha 18.679622
_cell_angle_beta 68.229807
_cell_angle_gamma 68.010667
_cell_volume 750.074877
_symmetry_space_group_name_H-M "P -1"
_symmetry_group_IT_number 2
_symmetry_cell_setting 'triclinic'
loop_
_space_group_symop_operation_xyz
x,y,z
-x,-y,-z
loop_
_atom_site_type_symbol
_atom_site_label
_atom_site_fract_x
_atom_site_fract_y
_atom_site_fract_z
Si Si1 0.521571 0.609590 0.174320
Si Si2 0.765929 0.322195 0.922852
Si Si3 0.539540 0.645150 0.778544
Si Si4 0.167446 0.667668 0.428765
Si Si5 0.284309 0.351014 0.505073
Si Si6 0.018746 0.166616 0.948558
Si Si7 0.590622 0.296261 0.581545
O O1 0.526121 0.474869 0.187466
O O2 0.401033 0.532641 0.321956
O O3 0.613463 0.447295 0.352558
O O4 0.532659 0.972729 0.860068
O O5 0.682664 0.579994 0.784888
O O6 0.792479 0.482166 0.688693
O O7 0.898351 0.210458 0.006660
O O8 0.688811 0.021036 0.200428
O O9 0.500000 0.000000 0.500000
O O10 0.500000 0.500000 0.000000
O O11 0.212184 0.392916 0.579956
O O12 0.065563 0.509379 0.643747
O O13 0.277701 0.765010 0.370074
O O14 0.114709 0.968160 0.142645
O O15 0.000000 0.000000 0.000000
O O16 0.500000 0.500000 0.500000
#
# Coordination Sequence:
#
# PCOD8028920 Si02
#       7
#     2   2   2   2   2   2   2
#     4  11  23  38  58  85 120 159 190 243 302 344
#     4  11  22  35  58  83 120 152 187 240 306 342
#     4  11  23  41  64  92 113 145 200 260 304 350
#     4  12  23  33  53  81 121 160 205 221 265 354
#     4  11  19  33  54  83 114 160 192 225 275 353
#     4  12  22  36  53  83 118 165 196 233 284 350
#     4  12  24  36  56  85 123 168 198 228 284 358
#
# _framework density 18.664804
#
# number of rings (size 3 to 8) (size 9 to 14) (size 15 to 20)
#    0.000    0.571    4.286    6.857    2.000    0.000 
#    0.000    0.000    0.000    0.000    0.000   20.000 
#    0.000    0.000    0.000    0.000    0.000    0.000 
#
# Total GULP energy -173464.621130 kJ/mol
# GULP energy per Si atom -12390.330081 kJ/mol
# Density = 1.862232 g / cm^3
# Si number density = 18.664804 Si / 1000 Ang^3
#
#
#
# Elastic Constant Matrix: (Units=GPa)
#
#
# Indices 1 2 3 4 5 6 
#
# 1 108.3876 50.2175 19.7791 -7.4116 6.2286 -2.3588
# 2 50.2175 100.5782 48.0294 2.5176 6.3735 5.3879
# 3 19.7791 48.0294 126.9849 -6.4190 -0.4732 3.4265
# 4 -7.4116 2.5176 -6.4190 29.9023 0.6234 7.0113
# 5 6.2286 6.3735 -0.4732 0.6234 35.2080 8.1556
# 6 -2.3588 5.3879 3.4265 7.0113 8.1556 30.1523
#
#
#
# Elastic Compliance Matrix: (Units=1/GPa)
#
#
# Indices 1 2 3 4 5 6 
#
# 1 0.012553 -0.006685 0.000697 0.003459 -0.001453 0.001686
# 2 -0.006685 0.016010 -0.005165 -0.003718 -0.001356 -0.001565
# 3 0.000697 -0.005165 0.009906 0.002981 0.001160 -0.001155
# 4 0.003459 -0.003718 0.002981 0.037200 0.001396 -0.008431
# 5 -0.001453 -0.001356 0.001160 0.001396 0.030909 -0.008688
# 6 0.001686 -0.001565 -0.001155 -0.008431 -0.008688 0.038018
#
#
# Mechanical properties :
#
#
# Convention : Reuss Voigt Hill
#
# Bulk Modulus (GPa) = 61.87001 63.55584 62.71293
# Shear Modulus (GPa) = 29.02093 33.58083 31.30088
#
# Velocity S-wave (km/s) = 3.94743 4.24624 4.09956
# Velocity P-wave (km/s) = 7.34821 7.62666 7.48873
#
# Compressibility (1/GPa) = 0.01616292
#
# Stress axis : x y z
#
# Youngs Moduli (GPa) = 79.66195 62.46210 100.94901
#
# Poissons Ratio (x) = 0.41758 -0.07039
# Poissons Ratio (y) = 0.53257 0.52138
# Poissons Ratio (z) = -0.05555 0.32261
#
# Static dielectric constant tensor:
#      x y z
#    x 3.646890 0.046320 0.272400 
#    y 0.046320 3.373260 0.186870 
#    z 0.272400 0.186870 3.570260 
# 
# 
# High freq. dielectric constant tensor:
#      x y z
#    x 1.725950 -0.004610 0.013840 
#    y -0.004610 1.685630 0.022300 
#    z 0.013840 0.022300 1.748810 
# 
# From -- ./inp_files/65968.got.cif
#   From: 2010.06.25/outbox.cif.g09.slc.cpg/sg2_33_cif.got.tgz:65968.got - 2010.06.27 13:26:56.
