data_PCOD8028019
_publ_section_title
;
Structure prediction by ZEFSAII (Michael W. Deem and Ramdas Pophale) SiO2 
 PCOD8028019
Probable space group: P -1
;
_chemical_formula_sum "Si O2"
_cell_formula_units_Z 16
_cell_length_a 13.985100
_cell_length_b 9.007916
_cell_length_c 8.631258
_cell_angle_alpha 81.480786
_cell_angle_beta 63.467329
_cell_angle_gamma 52.284949
_cell_volume 757.437994
_symmetry_space_group_name_H-M "P -1"
_symmetry_group_IT_number 2
_symmetry_cell_setting 'triclinic'
loop_
_space_group_symop_operation_xyz
x,y,z
-x,-y,-z
loop_
_atom_site_type_symbol
_atom_site_label
_atom_site_fract_x
_atom_site_fract_y
_atom_site_fract_z
Si Si1 0.482065 0.148962 0.610120
Si Si2 0.097819 0.874230 0.809179
Si Si3 0.416243 0.446222 0.375169
Si Si4 0.334436 0.106253 0.987825
Si Si5 0.601912 0.695862 0.892659
Si Si6 0.733811 0.109582 0.545259
Si Si7 0.849318 0.983504 0.817451
Si Si8 0.685739 0.350921 0.084321
O O1 0.414927 0.352800 0.548676
O O2 0.378354 0.177724 0.807641
O O3 0.625966 0.071165 0.594693
O O4 0.500000 0.000000 0.500000
O O5 0.158769 0.968048 0.662274
O O6 0.221993 0.677695 0.831554
O O7 0.011911 0.851882 0.749506
O O8 0.000000 0.000000 0.000000
O O9 0.347642 0.406813 0.294389
O O10 0.337583 0.667212 0.423425
O O11 0.571983 0.335913 0.230778
O O12 0.445454 0.882326 0.979536
O O13 0.308748 0.236687 0.134852
O O14 0.198417 0.130244 0.047575
O O15 0.610488 0.558618 0.035752
O O16 0.817348 0.999572 0.656337
O O17 0.775296 0.191880 0.912753
#
# Coordination Sequence:
#
# PCOD8028019 Si02
#       8
#     2   2   2   2   2   2   2   2
#     4  12  24  37  60  97 138 160 193 262 322 380
#     4  10  25  42  64  91 123 168 219 263 303 362
#     4  12  22  38  63  98 130 156 206 268 320 374
#     4  11  23  38  61  97 132 169 200 245 335 383
#     4  11  21  37  61  93 129 161 201 260 320 380
#     4  12  24  41  68  96 123 165 213 264 315 370
#     4  11  22  42  66  89 127 169 215 255 299 383
#     4  11  20  40  63  94 124 165 208 264 316 358
#
# _framework density 21.123842
#
# number of rings (size 3 to 8) (size 9 to 14) (size 15 to 20)
#    0.000    0.750    5.000    4.125    3.500    0.000 
#    0.000    0.625    0.000    0.750    0.000    0.000 
#    0.000    0.000    0.000    0.000    0.000    0.000 
#
# Total GULP energy -198342.980892 kJ/mol
# GULP energy per Si atom -12396.436306 kJ/mol
# Density = 2.107576 g / cm^3
# Si number density = 21.123842 Si / 1000 Ang^3
#
#
#
# Elastic Constant Matrix: (Units=GPa)
#
#
# Indices 1 2 3 4 5 6 
#
# 1 131.9858 33.9992 44.6410 -17.0752 13.8414 3.8590
# 2 33.9992 67.3039 31.2359 -20.7828 7.8991 5.7280
# 3 44.6410 31.2359 115.2250 -23.9832 -1.8777 -10.0752
# 4 -17.0752 -20.7828 -23.9832 39.7701 3.5696 12.5041
# 5 13.8414 7.8991 -1.8777 3.5696 32.4078 -5.1790
# 6 3.8590 5.7280 -10.0752 12.5041 -5.1790 30.1863
#
#
#
# Elastic Compliance Matrix: (Units=1/GPa)
#
#
# Indices 1 2 3 4 5 6 
#
# 1 0.010223 -0.001578 -0.003289 0.003448 -0.005261 -0.004436
# 2 -0.001578 0.024372 -0.004299 0.014532 -0.009268 -0.013468
# 3 -0.003289 -0.004299 0.011965 0.001569 0.003809 0.005233
# 4 0.003448 0.014532 0.001569 0.043613 -0.013410 -0.023041
# 5 -0.005261 -0.009268 0.003809 -0.013410 0.039626 0.016056
# 6 -0.004436 -0.013468 0.005233 -0.023041 0.016056 0.050296
#
#
# Mechanical properties :
#
#
# Convention : Reuss Voigt Hill
#
# Bulk Modulus (GPa) = 35.42721 59.36297 47.39509
# Shear Modulus (GPa) = 24.05738 34.11541 29.08639
#
# Velocity S-wave (km/s) = 3.37838 4.02309 3.71475
# Velocity P-wave (km/s) = 5.65911 7.05292 6.39411
#
# Compressibility (1/GPa) = 0.02822689
#
# Stress axis : x y z
#
# Youngs Moduli (GPa) = 97.81935 41.03093 83.58012
#
# Poissons Ratio (x) = 0.06476 0.27487
# Poissons Ratio (y) = 0.15438 0.35934
# Poissons Ratio (z) = 0.32170 0.17641
#
# Static dielectric constant tensor:
#      x y z
#    x 4.470080 -0.072890 0.217330 
#    y -0.072890 3.638490 -0.159460 
#    z 0.217330 -0.159460 4.089670 
# 
# 
# High freq. dielectric constant tensor:
#      x y z
#    x 1.838030 0.007970 0.018630 
#    y 0.007970 1.800700 -0.018850 
#    z 0.018630 -0.018850 1.832970 
# 
# From -- ./inp_files/175326.got.cif
#   From: 2010.06.25/outbox.cif.g09.slc.cpg/sg2_88_cif.got.tgz:175326.got - 2010.06.27 13:26:56.
