data_PCOD8028930
_publ_section_title
;
Structure prediction by ZEFSAII (Michael W. Deem and Ramdas Pophale) SiO2 
 PCOD8028930
Probable space group: P -1
;
_chemical_formula_sum "Si O2"
_cell_formula_units_Z 16
_cell_length_a 14.164038
_cell_length_b 14.591011
_cell_length_c 14.266372
_cell_angle_alpha 133.338431
_cell_angle_beta 160.067913
_cell_angle_gamma 47.409425
_cell_volume 725.094918
_symmetry_space_group_name_H-M "P -1"
_symmetry_group_IT_number 2
_symmetry_cell_setting 'triclinic'
loop_
_space_group_symop_operation_xyz
x,y,z
-x,-y,-z
loop_
_atom_site_type_symbol
_atom_site_label
_atom_site_fract_x
_atom_site_fract_y
_atom_site_fract_z
Si Si1 0.945539 0.861178 0.383843
Si Si2 0.321906 0.047598 0.617557
Si Si3 0.411993 0.133246 0.562688
Si Si4 0.213926 0.550618 0.066193
Si Si5 0.895082 0.890269 0.046857
Si Si6 0.352645 0.365953 0.331274
Si Si7 0.926995 0.238027 0.061177
Si Si8 0.467192 0.300435 0.189425
O O1 0.230976 0.770220 0.600116
O O2 0.778502 0.861850 0.326141
O O3 0.000000 0.000000 0.500000
O O4 0.752200 0.802759 0.085329
O O5 0.264751 0.118648 0.514942
O O6 0.651337 0.007654 0.905347
O O7 0.145886 0.926376 0.372390
O O8 0.685068 0.203418 0.879552
O O9 0.500000 0.000000 0.500000
O O10 0.207985 0.231220 0.378433
O O11 0.396402 0.634992 0.360721
O O12 0.151251 0.622297 0.959208
O O13 0.377263 0.409295 0.103672
O O14 0.915112 0.531778 0.821861
O O15 0.767642 0.767707 0.875679
O O16 0.021640 0.869749 0.046807
O O17 0.463930 0.382602 0.341143
#
# Coordination Sequence:
#
# PCOD8028930 Si02
#       8
#     2   2   2   2   2   2   2   2
#     4  12  26  44  63  90 122 166 213 250 299 355
#     4  12  23  36  59  86 125 165 204 245 304 362
#     4  12  21  36  59  91 128 157 198 250 316 368
#     4  11  23  39  63  92 124 160 202 251 317 369
#     4  11  19  34  56  88 126 156 191 244 305 377
#     4  11  21  37  62  94 123 156 203 250 315 364
#     4  11  21  36  57  92 126 157 189 249 319 374
#     4  12  24  43  65  86 124 163 211 258 296 363
#
# _framework density 22.066078000000001
#
# number of rings (size 3 to 8) (size 9 to 14) (size 15 to 20)
#    0.000    0.500    2.500    9.000    0.000    0.000 
#    0.000    0.000    0.000    4.500    0.000    0.000 
#    0.000    0.000    0.000    0.000    0.000    0.000 
#
# Total GULP energy -198428.025109 kJ/mol
# GULP energy per Si atom -12401.751569 kJ/mol
# Density = 2.201586 g / cm^3
# Si number density = 22.066078 Si / 1000 Ang^3
#
#
#
# Elastic Constant Matrix: (Units=GPa)
#
#
# Indices 1 2 3 4 5 6 
#
# 1 82.0199 33.0450 5.2898 -14.3915 4.5365 0.6140
# 2 33.0450 97.5402 6.8736 -26.3965 1.2905 -3.9802
# 3 5.2898 6.8736 78.5416 -18.0226 8.2266 -6.2731
# 4 -14.3915 -26.3965 -18.0226 34.3921 -1.1466 1.3954
# 5 4.5365 1.2905 8.2266 -1.1466 31.0700 -1.9789
# 6 0.6140 -3.9802 -6.2731 1.3954 -1.9789 24.8926
#
#
#
# Elastic Compliance Matrix: (Units=1/GPa)
#
#
# Indices 1 2 3 4 5 6 
#
# 1 0.014489 -0.004148 0.000167 0.002954 -0.001961 -0.001300
# 2 -0.004148 0.014336 0.001472 0.009953 0.000129 0.002218
# 3 0.000167 0.001472 0.015287 0.008957 -0.003593 0.003296
# 4 0.002954 0.009953 0.008957 0.042542 -0.001566 0.001267
# 5 -0.001961 0.000129 -0.003593 -0.001566 0.033482 0.001913
# 6 -0.001300 0.002218 0.003296 0.001267 0.001913 0.041471
#
#
# Mechanical properties :
#
#
# Convention : Reuss Voigt Hill
#
# Bulk Modulus (GPa) = 25.57952 38.72427 32.15189
# Shear Modulus (GPa) = 27.83085 32.26382 30.04734
#
# Velocity S-wave (km/s) = 3.55526 3.82795 3.69412
# Velocity P-wave (km/s) = 5.33578 6.09302 5.72693
#
# Compressibility (1/GPa) = 0.03909378
#
# Stress axis : x y z
#
# Youngs Moduli (GPa) = 69.01706 69.75393 65.41528
#
# Poissons Ratio (x) = 0.28935 -0.01090
# Poissons Ratio (y) = 0.28629 -0.09631
# Poissons Ratio (z) = -0.01150 -0.10270
#
# Static dielectric constant tensor:
#      x y z
#    x 3.950930 0.004930 0.149820 
#    y 0.004930 3.902340 -0.148480 
#    z 0.149820 -0.148480 4.231430 
# 
# 
# High freq. dielectric constant tensor:
#      x y z
#    x 1.849050 0.015250 0.018170 
#    y 0.015250 1.853150 -0.016440 
#    z 0.018170 -0.016440 1.887300 
# 
# From -- ./inp_files/455700.got.cif
#   From: 2010.06.25/outbox.cif.g09.slc.cpg/sg2_228_cif.got.tgz:455700.got - 2010.06.27 13:26:56.
