data_PCOD8028787
_publ_section_title
;
Structure prediction by ZEFSAII (Michael W. Deem and Ramdas Pophale) SiO2 
 PCOD8028787
Probable space group: P -1
;
_chemical_formula_sum "Si O2"
_cell_formula_units_Z 16
_cell_length_a 11.206274
_cell_length_b 12.296220
_cell_length_c 12.506596
_cell_angle_alpha 37.132945
_cell_angle_beta 73.116154
_cell_angle_gamma 100.530620
_cell_volume 693.689247
_symmetry_space_group_name_H-M "P -1"
_symmetry_group_IT_number 2
_symmetry_cell_setting 'triclinic'
loop_
_space_group_symop_operation_xyz
x,y,z
-x,-y,-z
loop_
_atom_site_type_symbol
_atom_site_label
_atom_site_fract_x
_atom_site_fract_y
_atom_site_fract_z
Si Si1 0.789726 0.265678 0.706842
Si Si2 0.527038 0.300540 0.729354
Si Si3 0.822355 0.202999 0.505060
Si Si4 0.419556 0.546189 0.640556
Si Si5 0.099335 0.375976 0.961298
Si Si6 0.705328 0.050987 0.297458
Si Si7 0.317768 0.216146 0.283903
Si Si8 0.839153 0.568232 0.854869
O O1 0.678016 0.327518 0.719357
O O2 0.763580 0.203138 0.636899
O O3 0.000000 0.500000 0.500000
O O4 0.674190 0.989255 0.011467
O O5 0.506075 0.437959 0.714282
O O6 0.612028 0.455320 0.475286
O O7 0.787724 0.329164 0.331205
O O8 0.031927 0.371790 0.317979
O O9 0.722368 0.921124 0.710743
O O10 0.226407 0.346397 0.908326
O O11 0.557395 0.837117 0.419648
O O12 0.063558 0.324815 0.137895
O O13 0.904684 0.189071 0.102142
O O14 0.665600 0.915342 0.526254
O O15 0.687810 0.253545 0.150310
O O16 0.195061 0.262668 0.304236
O O17 0.500000 0.500000 0.000000
#
# Coordination Sequence:
#
# PCOD8028787 Si02
#       8
#     2   2   2   2   2   2   2   2
#     4  11  26  47  74  99 138 186 238 295 352 410
#     4  10  26  48  66 104 136 177 243 295 350 411
#     4  11  23  45  67 100 140 184 231 288 350 419
#     4  11  25  44  73  98 140 181 230 299 346 414
#     4  11  22  44  71  96 138 190 223 284 354 417
#     4  11  25  44  68 106 140 186 235 277 351 432
#     4  12  26  40  67 107 145 184 233 279 352 431
#     4  11  24  43  70  97 145 184 227 286 344 423
#
# _framework density 23.065085
#
# number of rings (size 3 to 8) (size 9 to 14) (size 15 to 20)
#    0.000    1.000    3.750    1.875    8.750    3.000 
#    0.000    2.500    0.000    0.000    0.000    0.000 
#    0.000    0.000    0.000    0.000    0.000    0.000 
#
# Total GULP energy -198214.654194 kJ/mol
# GULP energy per Si atom -12388.415887 kJ/mol
# Density = 2.301259 g / cm^3
# Si number density = 23.065085 Si / 1000 Ang^3
#
#
#
# Elastic Constant Matrix: (Units=GPa)
#
#
# Indices 1 2 3 4 5 6 
#
# 1 66.6375 10.6460 5.7908 -9.2332 -6.5432 -19.2364
# 2 10.6460 54.7773 4.8663 -5.8200 0.2125 -18.4982
# 3 5.7908 4.8663 79.7247 -10.2349 -6.9944 -3.1555
# 4 -9.2332 -5.8200 -10.2349 40.9747 -2.1739 -4.1130
# 5 -6.5432 0.2125 -6.9944 -2.1739 46.5723 -1.8745
# 6 -19.2364 -18.4982 -3.1555 -4.1130 -1.8745 31.6100
#
#
#
# Elastic Compliance Matrix: (Units=1/GPa)
#
#
# Indices 1 2 3 4 5 6 
#
# 1 0.020099 0.001543 0.000157 0.006410 0.003711 0.014205
# 2 0.001543 0.023797 -0.000184 0.005298 0.000956 0.015593
# 3 0.000157 -0.000184 0.013285 0.003641 0.002265 0.001922
# 4 0.006410 0.005298 0.003641 0.028818 0.003223 0.011306
# 5 0.003711 0.000956 0.002265 0.003223 0.022673 0.004808
# 6 0.014205 0.015593 0.001922 0.011306 0.004808 0.051353
#
#
# Mechanical properties :
#
#
# Convention : Reuss Voigt Hill
#
# Bulk Modulus (GPa) = 16.60727 27.08285 21.84506
# Shear Modulus (GPa) = 28.23837 35.82051 32.02944
#
# Velocity S-wave (km/s) = 3.50278 3.94511 3.73051
# Velocity P-wave (km/s) = 4.85542 5.70257 5.29596
#
# Compressibility (1/GPa) = 0.06021459
#
# Stress axis : x y z
#
# Youngs Moduli (GPa) = 49.75259 42.02205 75.27163
#
# Poissons Ratio (x) = -0.06485 -0.01179
# Poissons Ratio (y) = -0.07678 0.01381
# Poissons Ratio (z) = -0.00779 0.00771
#
# Static dielectric constant tensor:
#      x y z
#    x 4.064330 -0.300150 -0.032230 
#    y -0.300150 3.935870 -0.067710 
#    z -0.032230 -0.067710 4.170780 
# 
# 
# High freq. dielectric constant tensor:
#      x y z
#    x 1.917110 -0.022290 0.003080 
#    y -0.022290 1.888080 0.001820 
#    z 0.003080 0.001820 1.924060 
# 
# From -- ./inp_files/427393.got.cif
#   From: 2010.06.25/outbox.cif.g09.slc.cpg/sg2_214_cif.got.tgz:427393.got - 2010.06.27 13:26:56.
