data_PCOD8028858
_publ_section_title
;
Structure prediction by ZEFSAII (Michael W. Deem and Ramdas Pophale) SiO2 
 PCOD8028858
Probable space group: P -1
;
_chemical_formula_sum "Si O2"
_cell_formula_units_Z 16
_cell_length_a 11.871223
_cell_length_b 19.760487
_cell_length_c 11.634361
_cell_angle_alpha 33.162735
_cell_angle_beta 114.418437
_cell_angle_gamma 136.145004
_cell_volume 894.591193
_symmetry_space_group_name_H-M "P -1"
_symmetry_group_IT_number 2
_symmetry_cell_setting 'triclinic'
loop_
_space_group_symop_operation_xyz
x,y,z
-x,-y,-z
loop_
_atom_site_type_symbol
_atom_site_label
_atom_site_fract_x
_atom_site_fract_y
_atom_site_fract_z
Si Si1 0.139956 0.252411 0.861131
Si Si2 0.375148 0.027142 0.406271
Si Si3 0.972858 0.624852 0.808560
Si Si4 0.403407 0.596595 0.910042
Si Si5 0.791275 0.619801 0.538002
Si Si6 0.447142 0.552856 0.736182
Si Si7 0.619800 0.791273 0.050924
Si Si8 0.252411 0.139958 0.746501
O O1 0.153130 0.348715 0.616806
O O2 0.252558 0.400829 0.800733
O O3 0.217368 0.174667 0.975737
O O4 0.923552 0.076447 0.058596
O O5 0.458312 0.189915 0.297347
O O6 0.500000 0.000000 0.500000
O O7 0.379266 0.081041 0.201072
O O8 0.163302 0.836697 0.626179
O O9 0.918960 0.620735 0.661378
O O10 0.810083 0.541687 0.945574
O O11 0.000000 0.500000 0.000000
O O12 0.406822 0.593178 0.779433
O O13 0.474760 0.525244 0.099802
O O14 0.573060 0.426941 0.738114
O O15 0.825334 0.782633 0.367770
O O16 0.599170 0.747440 0.454122
O O17 0.651285 0.846869 0.118651
#
# Coordination Sequence:
#
# PCOD8028858 Si02
#       8
#     2   2   2   2   2   2   2   2
#     4  11  19  32  55  84 115 149 184 235 289 339
#     4  12  22  38  60  86 113 148 192 241 283 335
#     4  12  22  38  60  86 113 148 192 241 283 335
#     4  11  24  39  56  87 116 156 193 225 290 342
#     4  11  18  33  55  85 116 143 187 241 290 328
#     4  11  22  38  57  82 127 152 182 236 281 353
#     4  11  18  33  55  85 116 143 187 241 290 328
#     4  11  19  32  55  84 115 149 184 235 289 339
#
# _framework density 17.885265
#
# number of rings (size 3 to 8) (size 9 to 14) (size 15 to 20)
#    0.000    0.750    7.500    3.750    0.000    1.000 
#    0.000    2.500    0.000    1.500    0.000    0.000 
#    0.000    0.000    0.000    0.000    0.000    0.000 
#
# Total GULP energy -198458.753710 kJ/mol
# GULP energy per Si atom -12403.672107 kJ/mol
# Density = 1.784456 g / cm^3
# Si number density = 17.885265 Si / 1000 Ang^3
#
#
#
# Elastic Constant Matrix: (Units=GPa)
#
#
# Indices 1 2 3 4 5 6 
#
# 1 78.2946 65.1868 55.6816 3.4262 -5.6860 -4.0502
# 2 65.1868 140.6130 79.1545 1.2622 -18.6811 -1.7252
# 3 55.6816 79.1545 131.2244 -5.2202 -14.8781 -2.5916
# 4 3.4262 1.2622 -5.2202 48.8221 13.2020 -5.8775
# 5 -5.6860 -18.6811 -14.8781 13.2020 27.7781 5.9891
# 6 -4.0502 -1.7252 -2.5916 -5.8775 5.9891 25.9319
#
#
#
# Elastic Compliance Matrix: (Units=1/GPa)
#
#
# Indices 1 2 3 4 5 6 
#
# 1 0.023417 -0.008383 -0.005308 -0.000438 -0.004222 0.003445
# 2 -0.008383 0.014539 -0.004520 -0.002710 0.007611 -0.003166
# 3 -0.005308 -0.004520 0.012897 0.001269 0.002191 -0.000059
# 4 -0.000438 -0.002710 0.001269 0.026086 -0.015659 0.009407
# 5 -0.004222 0.007611 0.002191 -0.015659 0.052221 -0.015544
# 6 0.003445 -0.003166 -0.000059 0.009407 -0.015544 0.044606
#
#
# Mechanical properties :
#
#
# Convention : Reuss Voigt Hill
#
# Bulk Modulus (GPa) = 69.29336 83.35308 76.32322
# Shear Modulus (GPa) = 23.25583 30.51371 26.88477
#
# Velocity S-wave (km/s) = 3.60985 4.13495 3.88129
# Velocity P-wave (km/s) = 7.49680 8.33682 7.92795
#
# Compressibility (1/GPa) = 0.01443140
#
# Stress axis : x y z
#
# Youngs Moduli (GPa) = 42.70329 68.77948 77.53518
#
# Poissons Ratio (x) = 0.57656 0.41157
# Poissons Ratio (y) = 0.35797 0.35049
# Poissons Ratio (z) = 0.22668 0.31091
#
# Static dielectric constant tensor:
#      x y z
#    x 3.036970 0.284250 -0.352130 
#    y 0.284250 3.975480 -0.395210 
#    z -0.352130 -0.395210 4.093270 
# 
# 
# High freq. dielectric constant tensor:
#      x y z
#    x 1.644870 0.013730 -0.016100 
#    y 0.013730 1.708360 -0.001580 
#    z -0.016100 -0.001580 1.708850 
# 
# From -- ./inp_files/422881.got.cif
#   From: 2010.06.25/outbox.cif.g09.slc.cpg/sg2_212_cif.got.tgz:422881.got - 2010.06.27 13:26:56.
