data_PCOD8028116
_publ_section_title
;
Structure prediction by ZEFSAII (Michael W. Deem and Ramdas Pophale) SiO2 
 PCOD8028116
Probable space group: P -1
;
_chemical_formula_sum "Si O2"
_cell_formula_units_Z 12
_cell_length_a 8.745553
_cell_length_b 8.290352
_cell_length_c 13.035845
_cell_angle_alpha 64.192784
_cell_angle_beta 59.702122
_cell_angle_gamma 34.225552
_cell_volume 458.668183
_symmetry_space_group_name_H-M "P -1"
_symmetry_group_IT_number 2
_symmetry_cell_setting 'triclinic'
loop_
_space_group_symop_operation_xyz
x,y,z
-x,-y,-z
loop_
_atom_site_type_symbol
_atom_site_label
_atom_site_fract_x
_atom_site_fract_y
_atom_site_fract_z
Si Si1 0.261085 0.181871 0.220878
Si Si2 0.315343 0.831588 0.625207
Si Si3 0.732585 0.535083 0.184331
Si Si4 0.750769 0.400723 0.000288
Si Si5 0.065939 0.614533 0.516563
Si Si6 0.260325 0.964266 0.829226
O O1 0.061096 0.315575 0.348607
O O2 0.447626 0.222826 0.151352
O O3 0.057000 0.345523 0.145714
O O4 0.497388 0.840724 0.235386
O O5 0.283752 0.649602 0.711663
O O6 0.329799 0.946451 0.691444
O O7 0.596995 0.636056 0.517163
O O8 0.051704 0.108963 0.570578
O O9 0.666425 0.600567 0.066318
O O10 0.871698 0.130994 0.095725
O O11 0.500000 0.500000 0.000000
O O12 0.000928 0.288929 0.873908
O O13 0.000000 0.500000 0.500000
#
# Coordination Sequence:
#
# PCOD8028116 Si02
#       6
#     2   2   2   2   2   2
#     4  12  27  45  70 107 147 179 235 297 350 405
#     4  11  25  45  73 100 143 189 235 284 340 425
#     4  11  28  46  69 108 144 185 230 294 357 409
#     4  10  25  47  75  99 135 190 239 279 358 429
#     4  12  25  43  73 106 138 188 242 279 344 415
#     4  10  25  43  73 102 136 185 237 291 345 419
#
# _framework density 26.162701999999999
#
# number of rings (size 3 to 8) (size 9 to 14) (size 15 to 20)
#    0.000    1.000    1.667    2.500   16.333    5.333 
#    0.000    0.000    0.000    0.000    0.000    0.000 
#    0.000    0.000    0.000    0.000    0.000    0.000 
#
# Total GULP energy -148759.320575 kJ/mol
# GULP energy per Si atom -12396.610048 kJ/mol
# Density = 2.610315 g / cm^3
# Si number density = 26.162702 Si / 1000 Ang^3
#
#
#
# Elastic Constant Matrix: (Units=GPa)
#
#
# Indices 1 2 3 4 5 6 
#
# 1 121.7834 33.9041 54.4683 10.2232 2.5622 -12.6742
# 2 33.9041 111.1185 42.3956 27.5058 -3.4709 -7.9586
# 3 54.4683 42.3956 134.1862 36.7799 -2.4110 1.9964
# 4 10.2232 27.5058 36.7799 46.7364 0.5237 -7.3909
# 5 2.5622 -3.4709 -2.4110 0.5237 36.4784 -6.4826
# 6 -12.6742 -7.9586 1.9964 -7.3909 -6.4826 51.9184
#
#
#
# Elastic Compliance Matrix: (Units=1/GPa)
#
#
# Indices 1 2 3 4 5 6 
#
# 1 0.010943 -0.002124 -0.004641 0.002968 -0.000815 0.002845
# 2 -0.002124 0.011537 -0.001356 -0.005157 0.001363 0.000738
# 3 -0.004641 -0.001356 0.012047 -0.008131 0.000597 -0.002887
# 4 0.002968 -0.005157 -0.008131 0.030908 -0.000874 0.004538
# 5 -0.000815 0.001363 0.000597 -0.000874 0.028255 0.003391
# 6 0.002845 0.000738 -0.002887 0.004538 0.003391 0.021249
#
#
# Mechanical properties :
#
#
# Convention : Reuss Voigt Hill
#
# Bulk Modulus (GPa) = 54.69365 69.84713 62.27039
# Shear Modulus (GPa) = 36.42332 42.78131 39.60231
#
# Velocity S-wave (km/s) = 3.73525 4.04815 3.89484
# Velocity P-wave (km/s) = 6.28915 6.97174 6.63922
#
# Compressibility (1/GPa) = 0.01828366
#
# Stress axis : x y z
#
# Youngs Moduli (GPa) = 91.38677 86.67971 83.00982
#
# Poissons Ratio (x) = 0.18414 0.38525
# Poissons Ratio (y) = 0.19414 0.11254
# Poissons Ratio (z) = 0.42413 0.11751
#
# Static dielectric constant tensor:
#      x y z
#    x 5.409920 0.444760 -0.315190 
#    y 0.444760 5.114810 -0.198780 
#    z -0.315190 -0.198780 5.699730 
# 
# 
# High freq. dielectric constant tensor:
#      x y z
#    x 2.055270 0.008490 -0.003820 
#    y 0.008490 2.066130 0.003360 
#    z -0.003820 0.003360 2.056910 
# 
# From -- ./inp_files/60225.got.cif
#   From: 2010.06.25/outbox.cif.g09.slc.cpg/sg2_31_cif.got.tgz:60225.got - 2010.06.27 13:26:56.
