data_PCOD8028278
_publ_section_title
;
Structure prediction by ZEFSAII (Michael W. Deem and Ramdas Pophale) SiO2 
 PCOD8028278
Probable space group: P -1
;
_chemical_formula_sum "Si O2"
_cell_formula_units_Z 16
_cell_length_a 14.216627
_cell_length_b 9.655109
_cell_length_c 13.664038
_cell_angle_alpha 84.030416
_cell_angle_beta 43.411201
_cell_angle_gamma 49.981011
_cell_volume 714.514567
_symmetry_space_group_name_H-M "P -1"
_symmetry_group_IT_number 2
_symmetry_cell_setting 'triclinic'
loop_
_space_group_symop_operation_xyz
x,y,z
-x,-y,-z
loop_
_atom_site_type_symbol
_atom_site_label
_atom_site_fract_x
_atom_site_fract_y
_atom_site_fract_z
Si Si1 0.669159 0.262373 0.955118
Si Si2 0.577744 0.462047 0.220800
Si Si3 0.934567 0.403225 0.519678
Si Si4 0.992991 0.713589 0.024371
Si Si5 0.079197 0.481911 0.785817
Si Si6 0.699855 0.930675 0.901265
Si Si7 0.541619 0.725783 0.638470
Si Si8 0.075497 0.016255 0.538656
O O1 0.951273 0.048816 0.724446
O O2 0.587660 0.170729 0.006351
O O3 0.500000 0.500000 0.000000
O O4 0.639970 0.331585 0.082937
O O5 0.471564 0.426610 0.371841
O O6 0.371465 0.757351 0.345564
O O7 0.829591 0.308607 0.083479
O O8 0.662855 0.637300 0.661550
O O9 0.000000 0.500000 0.500000
O O10 0.104759 0.200542 0.320141
O O11 0.973713 0.261184 0.589597
O O12 0.953807 0.653789 0.155915
O O13 0.126086 0.518191 0.850809
O O14 0.731558 0.986462 0.164867
O O15 0.309953 0.312597 0.552527
O O16 0.826733 0.745084 0.908985
O O17 0.500000 0.000000 0.000000
O O18 0.000000 0.000000 0.500000
#
# Coordination Sequence:
#
# PCOD8028278 Si02
#       8
#     2   2   2   2   2   2   2   2
#     4  12  24  41  69 100 143 184 222 288 347 413
#     4  12  26  42  72 103 139 185 236 281 352 415
#     4  11  25  40  67 101 135 181 226 283 353 410
#     4  11  26  44  70 100 135 190 234 280 340 419
#     4  10  25  45  68  95 141 182 231 289 343 402
#     4  11  25  40  68 100 137 176 227 284 349 413
#     4  11  23  46  66  96 138 177 235 288 337 411
#     4  12  22  44  65  99 143 178 224 286 347 413
#
# _framework density 22.392825999999999
#
# number of rings (size 3 to 8) (size 9 to 14) (size 15 to 20)
#    0.000    0.750    3.750    2.250    8.750    3.500 
#    0.000    0.000    0.000    0.000    0.000    0.000 
#    0.000    0.000    0.000    0.000    0.000    0.000 
#
# Total GULP energy -198417.734173 kJ/mol
# GULP energy per Si atom -12401.108386 kJ/mol
# Density = 2.234186 g / cm^3
# Si number density = 22.392826 Si / 1000 Ang^3
#
#
#
# Elastic Constant Matrix: (Units=GPa)
#
#
# Indices 1 2 3 4 5 6 
#
# 1 109.6050 37.5863 41.3904 -0.1683 -23.9606 17.3893
# 2 37.5863 122.8027 28.8295 3.7106 -21.0332 12.1342
# 3 41.3904 28.8295 104.2378 3.7440 -14.6471 -0.9953
# 4 -0.1683 3.7106 3.7440 43.9385 -2.1393 -4.2186
# 5 -23.9606 -21.0332 -14.6471 -2.1393 40.6030 -2.0048
# 6 17.3893 12.1342 -0.9953 -4.2186 -2.0048 34.0885
#
#
#
# Elastic Compliance Matrix: (Units=1/GPa)
#
#
# Indices 1 2 3 4 5 6 
#
# 1 0.013365 -0.001619 -0.004186 0.000222 0.005252 -0.006027
# 2 -0.001619 0.009885 -0.001608 -0.000791 0.003413 -0.002637
# 3 -0.004186 -0.001608 0.011906 -0.000547 0.001113 0.003053
# 4 0.000222 -0.000791 -0.000547 0.023213 0.000899 0.003078
# 5 0.005252 0.003413 0.001113 0.000899 0.029846 -0.001995
# 6 -0.006027 -0.002637 0.003053 0.003078 -0.001995 0.033701
#
#
# Mechanical properties :
#
#
# Convention : Reuss Voigt Hill
#
# Bulk Modulus (GPa) = 49.19377 61.36199 55.27788
# Shear Modulus (GPa) = 34.83836 38.98195 36.91016
#
# Velocity S-wave (km/s) = 3.94862 4.17684 4.06433
# Velocity P-wave (km/s) = 6.54255 7.12203 6.83844
#
# Compressibility (1/GPa) = 0.02032778
#
# Stress axis : x y z
#
# Youngs Moduli (GPa) = 74.82483 101.15955 83.99257
#
# Poissons Ratio (x) = 0.16381 0.35163
# Poissons Ratio (y) = 0.12117 0.13508
# Poissons Ratio (z) = 0.31325 0.16268
#
# Static dielectric constant tensor:
#      x y z
#    x 3.742130 0.092390 -0.208370 
#    y 0.092390 4.304600 0.041380 
#    z -0.208370 0.041380 4.100500 
# 
# 
# High freq. dielectric constant tensor:
#      x y z
#    x 1.865490 0.003820 -0.003080 
#    y 0.003820 1.895770 -0.004020 
#    z -0.003080 -0.004020 1.897250 
# 
# From -- ./inp_files/455041.got.cif
#   From: 2010.06.25/outbox.cif.g09.slc.cpg/sg2_228_cif.got.tgz:455041.got - 2010.06.27 13:26:56.
