data_PCOD8028819
_publ_section_title
;
Structure prediction by ZEFSAII (Michael W. Deem and Ramdas Pophale) SiO2 
 PCOD8028819
Probable space group: P -1
;
_chemical_formula_sum "Si O2"
_cell_formula_units_Z 14
_cell_length_a 13.863010
_cell_length_b 5.452474
_cell_length_c 8.730422
_cell_angle_alpha 89.490083
_cell_angle_beta 119.725339
_cell_angle_gamma 103.017016
_cell_volume 554.214717
_symmetry_space_group_name_H-M "P -1"
_symmetry_group_IT_number 2
_symmetry_cell_setting 'triclinic'
loop_
_space_group_symop_operation_xyz
x,y,z
-x,-y,-z
loop_
_atom_site_type_symbol
_atom_site_label
_atom_site_fract_x
_atom_site_fract_y
_atom_site_fract_z
Si Si1 0.822294 0.220344 0.546722
Si Si2 0.644449 0.980371 0.965293
Si Si3 0.859128 0.833162 0.049888
Si Si4 0.078447 0.231451 0.238335
Si Si5 0.401943 0.361323 0.808266
Si Si6 0.785799 0.424111 0.221463
Si Si7 0.438576 0.003969 0.611679
O O1 0.891035 0.489745 0.668561
O O2 0.843885 0.251327 0.378281
O O3 0.689275 0.172806 0.494033
O O4 0.863587 0.977440 0.638665
O O5 0.517261 0.894487 0.794113
O O6 0.704809 0.280406 0.018844
O O7 0.726454 0.841720 0.937202
O O8 0.642453 0.912999 0.144137
O O9 0.876733 0.651850 0.206501
O O10 0.889958 0.726001 0.915036
O O11 0.940893 0.114069 0.145268
O O12 0.294365 0.482067 0.716217
O O13 0.440007 0.292162 0.668379
O O14 0.500000 0.500000 0.000000
O O15 0.500000 0.000000 0.500000
#
# Coordination Sequence:
#
# PCOD8028819 Si02
#       7
#     2   2   2   2   2   2   2
#     4  12  27  48  73 112 153 195 243 318 381 439
#     4  11  23  43  69 105 139 195 253 301 367 460
#     4  10  27  47  77 105 140 204 250 309 374 454
#     4  11  28  51  75 107 155 194 251 316 382 452
#     4  11  21  41  67  99 145 202 247 301 364 458
#     4  11  24  43  74 103 149 192 257 298 378 447
#     4  12  25  42  73 110 151 193 247 315 383 447
#
# _framework density 25.260967000000001
#
# number of rings (size 3 to 8) (size 9 to 14) (size 15 to 20)
#    0.000    0.857    2.857    3.000    8.000    2.286 
#    0.000    4.286    0.000    0.000    0.000    0.000 
#    0.000    0.000    0.000    0.000    0.000    0.000 
#
# Total GULP energy -173461.567358 kJ/mol
# GULP energy per Si atom -12390.111954 kJ/mol
# Density = 2.520347 g / cm^3
# Si number density = 25.260967 Si / 1000 Ang^3
#
#
#
# Elastic Constant Matrix: (Units=GPa)
#
#
# Indices 1 2 3 4 5 6 
#
# 1 70.0822 12.0691 12.5352 -12.1653 -5.3513 7.4130
# 2 12.0691 87.4184 21.3365 7.3381 -6.4363 -3.7483
# 3 12.5352 21.3365 80.2431 3.6557 -5.7108 -1.0355
# 4 -12.1653 7.3381 3.6557 54.0766 0.5152 1.2522
# 5 -5.3513 -6.4363 -5.7108 0.5152 45.6511 1.1118
# 6 7.4130 -3.7483 -1.0355 1.2522 1.1118 28.0240
#
#
#
# Elastic Compliance Matrix: (Units=1/GPa)
#
#
# Indices 1 2 3 4 5 6 
#
# 1 0.016398 -0.002207 -0.002131 0.004234 0.001417 -0.004957
# 2 -0.002207 0.012798 -0.002851 -0.002103 0.001158 0.002238
# 3 -0.002131 -0.002851 0.013685 -0.001044 0.001055 0.000693
# 4 0.004234 -0.002103 -0.001044 0.019855 -0.000098 -0.002323
# 5 0.001417 0.001158 0.001055 -0.000098 0.022394 -0.001065
# 6 -0.004957 0.002238 0.000693 -0.002323 -0.001065 0.037466
#
#
# Mechanical properties :
#
#
# Convention : Reuss Voigt Hill
#
# Bulk Modulus (GPa) = 35.08523 36.62505 35.85514
# Shear Modulus (GPa) = 34.13583 38.33720 36.23651
#
# Velocity S-wave (km/s) = 3.68003 3.89992 3.79157
# Velocity P-wave (km/s) = 5.65474 5.89995 5.77864
#
# Compressibility (1/GPa) = 0.02850202
#
# Stress axis : x y z
#
# Youngs Moduli (GPa) = 60.98425 78.13945 73.07496
#
# Poissons Ratio (x) = 0.17249 0.15569
# Poissons Ratio (y) = 0.13462 0.20833
# Poissons Ratio (z) = 0.12993 0.22277
#
# Static dielectric constant tensor:
#      x y z
#    x 4.648810 0.240170 0.092890 
#    y 0.240170 4.956150 -0.083770 
#    z 0.092890 -0.083770 4.566130 
# 
# 
# High freq. dielectric constant tensor:
#      x y z
#    x 2.012480 0.005980 0.003770 
#    y 0.005980 2.017370 0.007240 
#    z 0.003770 0.007240 2.000560 
# 
# From -- ./inp_files/27674.got.cif
#   From: 2010.06.25/outbox.cif.g09.slc.cpg/sg2_14_cif.got.tgz:27674.got - 2010.06.27 13:26:56.
