data_PCOD8028291
_publ_section_title
;
Structure prediction by ZEFSAII (Michael W. Deem and Ramdas Pophale) SiO2 
 PCOD8028291
Probable space group: P -1
;
_chemical_formula_sum "Si O2"
_cell_formula_units_Z 14
_cell_length_a 15.176251
_cell_length_b 23.800764
_cell_length_c 5.517337
_cell_angle_alpha 96.019423
_cell_angle_beta 92.123243
_cell_angle_gamma 160.175589
_cell_volume 615.336883
_symmetry_space_group_name_H-M "P -1"
_symmetry_group_IT_number 2
_symmetry_cell_setting 'triclinic'
loop_
_space_group_symop_operation_xyz
x,y,z
-x,-y,-z
loop_
_atom_site_type_symbol
_atom_site_label
_atom_site_fract_x
_atom_site_fract_y
_atom_site_fract_z
Si Si1 0.790778 0.707182 0.056071
Si Si2 0.794060 0.003931 0.383051
Si Si3 0.748932 0.070728 0.064574
Si Si4 0.181729 0.164841 0.168678
Si Si5 0.755355 0.392853 0.841686
Si Si6 0.314159 0.857927 0.617465
Si Si7 0.755455 0.456690 0.372444
O O1 0.023196 0.846249 0.352313
O O2 0.500000 0.500000 0.000000
O O3 0.759519 0.753995 0.002440
O O4 0.929937 0.752595 0.885846
O O5 0.635464 0.952599 0.173952
O O6 0.011588 0.092185 0.328774
O O7 0.530907 0.810373 0.385152
O O8 0.773734 0.149342 0.197354
O O9 0.509476 0.925930 0.767203
O O10 0.488500 0.332049 0.369511
O O11 0.000000 0.000000 0.000000
O O12 0.852339 0.485198 0.648412
O O13 0.669000 0.371182 0.076932
O O14 0.000000 0.500000 0.000000
O O15 0.022802 0.655420 0.393940
O O16 0.500000 0.000000 0.500000
#
# Coordination Sequence:
#
# PCOD8028291 Si02
#       7
#     2   2   2   2   2   2   2
#     4  11  27  43  73 104 147 196 251 307 376 453
#     4  11  25  46  73  99 151 191 245 309 374 444
#     4  10  25  45  69 103 141 191 246 300 386 438
#     4  11  25  47  69 106 146 194 246 305 374 442
#     4  12  28  48  77 109 149 193 250 305 377 450
#     4  11  26  45  73 101 147 191 248 313 378 443
#     4  12  29  46  77 110 146 193 254 306 374 450
#
# _framework density 22.751764000000001
#
# number of rings (size 3 to 8) (size 9 to 14) (size 15 to 20)
#    0.000    0.857    1.429    3.000   18.000    2.286 
#    0.000    0.000    0.000    0.000    0.000    0.000 
#    0.000    0.000    0.000    0.000    0.000    0.000 
#
# Total GULP energy -173465.891187 kJ/mol
# GULP energy per Si atom -12390.420799 kJ/mol
# Density = 2.269998 g / cm^3
# Si number density = 22.751764 Si / 1000 Ang^3
#
#
#
# Elastic Constant Matrix: (Units=GPa)
#
#
# Indices 1 2 3 4 5 6 
#
# 1 119.4563 43.3506 32.8607 6.8497 23.8951 -3.4882
# 2 43.3506 147.8805 46.6963 26.8017 12.8452 -22.3599
# 3 32.8607 46.6963 102.4382 5.5079 12.4069 -6.6931
# 4 6.8497 26.8017 5.5079 48.3337 -1.6627 2.0574
# 5 23.8951 12.8452 12.4069 -1.6627 33.3858 6.1033
# 6 -3.4882 -22.3599 -6.6931 2.0574 6.1033 31.1311
#
#
#
# Elastic Compliance Matrix: (Units=1/GPa)
#
#
# Indices 1 2 3 4 5 6 
#
# 1 0.010908 -0.001819 -0.001777 -0.000600 -0.006636 0.000874
# 2 -0.001819 0.010847 -0.003104 -0.005863 -0.003470 0.007988
# 3 -0.001777 -0.003104 0.012004 0.000512 -0.002065 0.000523
# 4 -0.000600 -0.005863 0.000512 0.024425 0.004946 -0.006752
# 5 -0.006636 -0.003470 -0.002065 0.004946 0.039189 -0.011690
# 6 0.000874 0.007988 0.000523 -0.006752 -0.011690 0.040808
#
#
# Mechanical properties :
#
#
# Convention : Reuss Voigt Hill
#
# Bulk Modulus (GPa) = 49.11671 68.39892 58.75781
# Shear Modulus (GPa) = 31.57248 39.02796 35.30022
#
# Velocity S-wave (km/s) = 3.72922 4.14621 3.94323
# Velocity P-wave (km/s) = 6.33859 7.28353 6.82743
#
# Compressibility (1/GPa) = 0.02035967
#
# Stress axis : x y z
#
# Youngs Moduli (GPa) = 91.67942 92.18832 83.30866
#
# Poissons Ratio (x) = 0.16770 0.14801
# Poissons Ratio (y) = 0.16677 0.25857
# Poissons Ratio (z) = 0.16288 0.28613
#
# Static dielectric constant tensor:
#      x y z
#    x 3.752720 -0.413010 0.600020 
#    y -0.413010 3.885320 0.300300 
#    z 0.600020 0.300300 3.647820 
# 
# 
# High freq. dielectric constant tensor:
#      x y z
#    x 1.913260 0.007320 0.008130 
#    y 0.007320 1.909940 0.003660 
#    z 0.008130 0.003660 1.893730 
# 
# From -- ./inp_files/72648.got.cif
#   From: 2010.06.25/outbox.cif.g09.slc.cpg/sg2_37_cif.got.tgz:72648.got - 2010.06.27 13:26:56.
