data_PCOD8028037
_publ_section_title
;
Structure prediction by ZEFSAII (Michael W. Deem and Ramdas Pophale) SiO2 
 PCOD8028037
Probable space group: P -1
;
_chemical_formula_sum "Si O2"
_cell_formula_units_Z 14
_cell_length_a 18.946189
_cell_length_b 5.067652
_cell_length_c 14.742191
_cell_angle_alpha 62.414752
_cell_angle_beta 32.227720
_cell_angle_gamma 57.019363
_cell_volume 633.184116
_symmetry_space_group_name_H-M "P -1"
_symmetry_group_IT_number 2
_symmetry_cell_setting 'triclinic'
loop_
_space_group_symop_operation_xyz
x,y,z
-x,-y,-z
loop_
_atom_site_type_symbol
_atom_site_label
_atom_site_fract_x
_atom_site_fract_y
_atom_site_fract_z
Si Si1 0.433372 0.866900 0.512406
Si Si2 0.899399 0.884805 0.193789
Si Si3 0.660245 0.165390 0.691924
Si Si4 0.928486 0.184043 0.304445
Si Si5 0.647433 0.229396 0.892662
Si Si6 0.065121 0.775924 0.382176
Si Si7 0.487429 0.140791 0.228836
O O1 0.500000 0.500000 0.500000
O O2 0.500000 0.000000 0.500000
O O3 0.263788 0.988513 0.680816
O O4 0.499977 0.946359 0.336233
O O5 0.955852 0.505591 0.195176
O O6 0.913445 0.003073 0.259537
O O7 0.000000 0.000000 0.000000
O O8 0.788985 0.268323 0.501786
O O9 0.683131 0.029048 0.791852
O O10 0.535836 0.497791 0.776668
O O11 0.636473 0.906656 0.691700
O O12 0.047074 0.957842 0.276343
O O13 0.769375 0.374685 0.758479
O O14 0.500000 0.500000 0.000000
O O15 0.627912 0.016292 0.033097
O O16 0.000000 0.500000 0.500000
O O17 0.000000 0.000000 0.500000
#
# Coordination Sequence:
#
# PCOD8028037 Si02
#       7
#     2   2   2   2   2   2   2
#     4  12  25  44  72 100 136 178 231 290 353 412
#     4  12  27  48  74 103 136 184 238 296 355 416
#     4  11  20  40  70  98 130 182 224 268 341 417
#     4  12  23  45  75  96 141 187 235 278 355 417
#     4  10  25  42  70 104 142 179 229 281 343 412
#     4  12  27  43  69 105 144 187 235 283 340 417
#     4  11  23  41  66 100 137 177 227 277 344 406
#
# _framework density 22.110472000000001
#
# number of rings (size 3 to 8) (size 9 to 14) (size 15 to 20)
#    0.000    0.571    4.286    3.429    4.000    4.571 
#    0.000    0.000    0.000    0.000    0.000    0.000 
#    0.000    0.000    0.000    0.000    0.000    0.000 
#
# Total GULP energy -173489.446399 kJ/mol
# GULP energy per Si atom -12392.103314 kJ/mol
# Density = 2.206015 g / cm^3
# Si number density = 22.110472 Si / 1000 Ang^3
#
#
#
# Elastic Constant Matrix: (Units=GPa)
#
#
# Indices 1 2 3 4 5 6 
#
# 1 180.7748 52.2211 75.8875 2.9528 0.7247 3.1842
# 2 52.2211 104.6232 32.0343 -8.8755 -18.2924 1.3701
# 3 75.8875 32.0343 159.2892 -19.8636 6.2273 -11.0101
# 4 2.9528 -8.8755 -19.8636 24.3717 -1.1155 0.7458
# 5 0.7247 -18.2924 6.2273 -1.1155 46.9079 -2.2658
# 6 3.1842 1.3701 -11.0101 0.7458 -2.2658 39.4605
#
#
#
# Elastic Compliance Matrix: (Units=1/GPa)
#
#
# Indices 1 2 3 4 5 6 
#
# 1 0.008402 -0.003626 -0.004043 -0.005639 -0.001221 -0.001644
# 2 -0.003626 0.012844 -0.000442 0.004999 0.005239 -0.000070
# 3 -0.004043 -0.000442 0.009518 0.007953 -0.001050 0.002787
# 4 -0.005639 0.004999 0.007953 0.050069 0.002253 0.001684
# 5 -0.001221 0.005239 -0.001050 0.002253 0.023618 0.000937
# 6 -0.001644 -0.000070 0.002787 0.001684 0.000937 0.026276
#
#
# Mechanical properties :
#
#
# Convention : Reuss Voigt Hill
#
# Bulk Modulus (GPa) = 68.76115 84.99698 76.87907
# Shear Modulus (GPa) = 32.93849 41.11765 37.02807
#
# Velocity S-wave (km/s) = 3.86388 4.31704 4.09673
# Velocity P-wave (km/s) = 7.14650 7.96081 7.56462
#
# Compressibility (1/GPa) = 0.01454310
#
# Stress axis : x y z
#
# Youngs Moduli (GPa) = 119.01350 77.85489 105.06161
#
# Poissons Ratio (x) = 0.28233 0.42475
# Poissons Ratio (y) = 0.43159 0.04641
# Poissons Ratio (z) = 0.48115 0.03439
#
# Static dielectric constant tensor:
#      x y z
#    x 4.324670 -0.101480 0.310140 
#    y -0.101480 3.879610 -0.180830 
#    z 0.310140 -0.180830 4.853880 
# 
# 
# High freq. dielectric constant tensor:
#      x y z
#    x 1.884070 0.011870 0.012770 
#    y 0.011870 1.863350 -0.011560 
#    z 0.012770 -0.011560 1.883580 
# 
# From -- ./inp_files/536144.got.cif
#   From: 2010.06.25/outbox.cif.g09.slc.cpg/sg2_269_cif.got.tgz:536144.got - 2010.06.27 13:26:56.
