data_PCOD8028446
_publ_section_title
;
Structure prediction by ZEFSAII (Michael W. Deem and Ramdas Pophale) SiO2 
 PCOD8028446
Probable space group: P -1
;
_chemical_formula_sum "Si O2"
_cell_formula_units_Z 14
_cell_length_a 13.171780
_cell_length_b 8.554915
_cell_length_c 16.161037
_cell_angle_alpha 51.170711
_cell_angle_beta 27.128451
_cell_angle_gamma 62.836317
_cell_volume 619.923651
_symmetry_space_group_name_H-M "P -1"
_symmetry_group_IT_number 2
_symmetry_cell_setting 'triclinic'
loop_
_space_group_symop_operation_xyz
x,y,z
-x,-y,-z
loop_
_atom_site_type_symbol
_atom_site_label
_atom_site_fract_x
_atom_site_fract_y
_atom_site_fract_z
Si Si1 0.925841 0.455051 0.973877
Si Si2 0.264637 0.222946 0.067034
Si Si3 0.886330 0.757559 0.658755
Si Si4 0.266993 0.530992 0.441624
Si Si5 0.532821 0.064195 0.361566
Si Si6 0.688989 0.672513 0.353566
Si Si7 0.130188 0.178253 0.530660
O O1 0.932305 0.678519 0.858464
O O2 0.071543 0.326853 0.862090
O O3 0.668628 0.309023 0.188532
O O4 0.000000 0.500000 0.000000
O O5 0.304133 0.295385 0.111076
O O6 0.505401 0.296209 0.817487
O O7 0.136641 0.973038 0.233056
O O8 0.775886 0.713995 0.661829
O O9 0.086410 0.646215 0.568611
O O10 0.000000 0.000000 0.500000
O O11 0.332586 0.393429 0.512680
O O12 0.129445 0.370053 0.526214
O O13 0.299301 0.047246 0.485377
O O14 0.500000 0.000000 0.500000
O O15 0.658351 0.902848 0.283395
O O16 0.500000 0.500000 0.500000
#
# Coordination Sequence:
#
# PCOD8028446 Si02
#       7
#     2   2   2   2   2   2   2
#     4  12  24  44  69 102 139 188 230 288 356 416
#     4  11  23  46  71 101 140 183 231 285 348 408
#     4  10  25  46  71 101 140 181 237 289 341 413
#     4  12  24  47  72 102 137 184 235 281 355 412
#     4  12  23  43  68 104 140 179 233 284 352 421
#     4  12  25  42  68 102 141 182 232 291 348 422
#     4  11  24  44  71 101 140 182 231 291 338 418
#
# _framework density 22.583427
#
# number of rings (size 3 to 8) (size 9 to 14) (size 15 to 20)
#    0.000    0.571    4.286    4.286    2.000    2.857 
#    2.571    2.857    0.000    0.000    0.000    0.000 
#    0.000    0.000    0.000    0.000    0.000    0.000 
#
# Total GULP energy -173497.817191 kJ/mol
# GULP energy per Si atom -12392.701228 kJ/mol
# Density = 2.253203 g / cm^3
# Si number density = 22.583427 Si / 1000 Ang^3
#
#
#
# Elastic Constant Matrix: (Units=GPa)
#
#
# Indices 1 2 3 4 5 6 
#
# 1 120.6938 10.0568 25.1418 -8.1029 15.5970 12.5502
# 2 10.0568 80.7833 3.0728 0.2862 -10.5988 8.8804
# 3 25.1418 3.0728 93.0542 1.8864 2.9505 16.3628
# 4 -8.1029 0.2862 1.8864 35.3461 6.5648 -4.3312
# 5 15.5970 -10.5988 2.9505 6.5648 36.2104 -3.5808
# 6 12.5502 8.8804 16.3628 -4.3312 -3.5808 44.0931
#
#
#
# Elastic Compliance Matrix: (Units=1/GPa)
#
#
# Indices 1 2 3 4 5 6 
#
# 1 0.009983 -0.001676 -0.002220 0.003197 -0.005367 -0.001802
# 2 -0.001676 0.013434 0.000263 -0.001642 0.004722 -0.002104
# 3 -0.002220 0.000263 0.012089 -0.001645 -0.000057 -0.004073
# 4 0.003197 -0.001642 -0.001645 0.030739 -0.007051 0.002478
# 5 -0.005367 0.004722 -0.000057 -0.007051 0.032848 0.002573
# 6 -0.001802 -0.002104 -0.004073 0.002478 0.002573 0.025580
#
#
# Mechanical properties :
#
#
# Convention : Reuss Voigt Hill
#
# Bulk Modulus (GPa) = 35.41019 41.23047 38.32033
# Shear Modulus (GPa) = 35.37274 40.21391 37.79333
#
# Velocity S-wave (km/s) = 3.96196 4.22439 4.09528
# Velocity P-wave (km/s) = 6.05337 6.48772 6.27431
#
# Compressibility (1/GPa) = 0.02824046
#
# Stress axis : x y z
#
# Youngs Moduli (GPa) = 100.16958 74.43756 82.72060
#
# Poissons Ratio (x) = 0.12474 0.18361
# Poissons Ratio (y) = 0.16786 -0.02173
# Poissons Ratio (z) = 0.22234 -0.01955
#
# Static dielectric constant tensor:
#      x y z
#    x -16.557670 9.508630 -4.159190 
#    y 9.508630 0.357020 2.018890 
#    z -4.159190 2.018890 2.955170 
# 
# 
# High freq. dielectric constant tensor:
#      x y z
#    x 1.901640 0.003520 0.011790 
#    y 0.003520 1.907530 -0.003680 
#    z 0.011790 -0.003680 1.878560 
# 
# From -- ./inp_files/225771.got.cif
#   From: 2010.06.25/outbox.cif.g09.slc.cpg/sg2_113_cif.got.tgz:225771.got - 2010.06.27 13:26:56.
