data_PCOD8028297
_publ_section_title
;
Structure prediction by ZEFSAII (Michael W. Deem and Ramdas Pophale) SiO2 
 PCOD8028297
Probable space group: P -1
;
_chemical_formula_sum "Si O2"
_cell_formula_units_Z 16
_cell_length_a 18.510720
_cell_length_b 11.873058
_cell_length_c 8.472978
_cell_angle_alpha 50.632096
_cell_angle_beta 128.025385
_cell_angle_gamma 149.600334
_cell_volume 717.101391
_symmetry_space_group_name_H-M "P -1"
_symmetry_group_IT_number 2
_symmetry_cell_setting 'triclinic'
loop_
_space_group_symop_operation_xyz
x,y,z
-x,-y,-z
loop_
_atom_site_type_symbol
_atom_site_label
_atom_site_fract_x
_atom_site_fract_y
_atom_site_fract_z
Si Si1 0.022421 0.443450 0.916983
Si Si2 0.344308 0.598505 0.366211
Si Si3 0.453537 0.365783 0.213419
Si Si4 0.978893 0.802989 0.655985
Si Si5 0.785769 0.085245 0.323615
Si Si6 0.550178 0.084699 0.313500
Si Si7 0.456864 0.651851 0.146900
Si Si8 0.220337 0.858600 0.391013
O O1 0.914527 0.350396 0.712768
O O2 0.179840 0.699407 0.850366
O O3 0.004579 0.248359 0.100119
O O4 0.000000 0.500000 0.000000
O O5 0.414600 0.560971 0.600734
O O6 0.435440 0.858864 0.251713
O O7 0.342778 0.548291 0.224755
O O8 0.190753 0.439845 0.386621
O O9 0.407803 0.432148 0.219284
O O10 0.328377 0.099119 0.228987
O O11 0.500000 0.500000 0.000000
O O12 0.093739 0.869677 0.635280
O O13 0.000000 0.000000 0.500000
O O14 0.811732 0.089160 0.540174
O O15 0.622660 0.850640 0.258052
O O16 0.500000 0.000000 0.500000
O O17 0.707822 0.205793 0.403929
O O18 0.556727 0.256798 0.103264
#
# Coordination Sequence:
#
# PCOD8028297 Si02
#       8
#     2   2   2   2   2   2   2   2
#     4  10  25  45  69  94 136 187 225 279 350 412
#     4  11  24  44  68 103 138 178 234 279 348 409
#     4  11  25  42  71 104 141 183 223 290 351 421
#     4  11  26  42  69  99 139 182 227 278 342 417
#     4  11  24  45  73  99 138 187 227 283 345 418
#     4  11  25  40  71 107 138 174 234 296 336 403
#     4  12  23  44  75 104 140 178 232 286 353 407
#     4  11  25  46  67 104 137 181 237 282 347 415
#
# _framework density 22.312045999999999
#
# number of rings (size 3 to 8) (size 9 to 14) (size 15 to 20)
#    0.000    1.000    2.500    4.125   15.750    0.000 
#    0.000    0.625    0.000    0.000    0.000    0.000 
#    0.000    0.000    0.000    0.000    0.000    0.000 
#
# Total GULP energy -198213.926251 kJ/mol
# GULP energy per Si atom -12388.370391 kJ/mol
# Density = 2.226126 g / cm^3
# Si number density = 22.312046 Si / 1000 Ang^3
#
#
#
# Elastic Constant Matrix: (Units=GPa)
#
#
# Indices 1 2 3 4 5 6 
#
# 1 88.8790 9.8617 18.6266 8.5410 3.9460 7.7175
# 2 9.8617 52.8296 24.5335 8.0725 17.5174 -6.9610
# 3 18.6266 24.5335 109.9670 -6.2620 5.2492 -0.3798
# 4 8.5410 8.0725 -6.2620 32.9691 -3.2427 -5.7373
# 5 3.9460 17.5174 5.2492 -3.2427 39.5377 0.9531
# 6 7.7175 -6.9610 -0.3798 -5.7373 0.9531 31.9472
#
#
#
# Elastic Compliance Matrix: (Units=1/GPa)
#
#
# Indices 1 2 3 4 5 6 
#
# 1 0.012594 -0.000990 -0.002128 -0.004200 -0.000783 -0.004014
# 2 -0.000990 0.027794 -0.005886 -0.007970 -0.012212 0.005158
# 3 -0.002128 -0.005886 0.010928 0.004250 0.001716 0.000073
# 4 -0.004200 -0.007970 0.004250 0.035755 0.006185 0.005565
# 5 -0.000783 -0.012212 0.001716 0.006185 0.031115 -0.002269
# 6 -0.004014 0.005158 0.000073 0.005565 -0.002269 0.034463
#
#
# Mechanical properties :
#
#
# Convention : Reuss Voigt Hill
#
# Bulk Modulus (GPa) = 30.02377 39.74659 34.88518
# Shear Modulus (GPa) = 27.50886 34.13439 30.82163
#
# Velocity S-wave (km/s) = 3.51510 3.91559 3.72074
# Velocity P-wave (km/s) = 5.47358 6.18830 5.84188
#
# Compressibility (1/GPa) = 0.03330694
#
# Stress axis : x y z
#
# Youngs Moduli (GPa) = 79.40276 35.97917 91.51151
#
# Poissons Ratio (x) = 0.03562 0.19473
# Poissons Ratio (y) = 0.07862 0.53865
# Poissons Ratio (z) = 0.16896 0.21178
#
# Static dielectric constant tensor:
#      x y z
#    x 4.015630 0.240440 -0.140260 
#    y 0.240440 3.879060 -0.088460 
#    z -0.140260 -0.088460 4.370850 
# 
# 
# High freq. dielectric constant tensor:
#      x y z
#    x 1.879570 0.002030 -0.004070 
#    y 0.002030 1.872100 -0.014960 
#    z -0.004070 -0.014960 1.892700 
# 
# From -- ./inp_files/262825.got.cif
#   From: 2010.06.25/outbox.cif.g09.slc.cpg/sg2_132_cif.got.tgz:262825.got - 2010.06.27 13:26:56.
