data_PCOD8028014
_publ_section_title
;
Structure prediction by ZEFSAII (Michael W. Deem and Ramdas Pophale) SiO2 
 PCOD8028014
Probable space group: P -1
;
_chemical_formula_sum "Si O2"
_cell_formula_units_Z 16
_cell_length_a 5.032416
_cell_length_b 17.383358
_cell_length_c 8.398013
_cell_angle_alpha 116.465893
_cell_angle_beta 105.286119
_cell_angle_gamma 72.292455
_cell_volume 619.401546
_symmetry_space_group_name_H-M "P -1"
_symmetry_group_IT_number 2
_symmetry_cell_setting 'triclinic'
loop_
_space_group_symop_operation_xyz
x,y,z
-x,-y,-z
loop_
_atom_site_type_symbol
_atom_site_label
_atom_site_fract_x
_atom_site_fract_y
_atom_site_fract_z
Si Si1 0.751645 0.026189 0.159917
Si Si2 0.318234 0.216663 0.758964
Si Si3 0.699734 0.497338 0.246967
Si Si4 0.824490 0.133032 0.972834
Si Si5 0.256228 0.415756 0.968675
Si Si6 0.181515 0.714760 0.687411
Si Si7 0.763280 0.179134 0.521503
Si Si8 0.228759 0.392887 0.357085
O O1 0.690171 0.087368 0.363782
O O2 0.868781 0.085872 0.107684
O O3 0.967189 0.936591 0.170108
O O4 0.500000 0.000000 0.000000
O O5 0.514182 0.157561 0.869145
O O6 0.195177 0.318072 0.887770
O O7 0.500669 0.219553 0.630441
O O8 0.057146 0.168001 0.655137
O O9 0.610209 0.576300 0.179772
O O10 0.666335 0.534114 0.454300
O O11 0.024632 0.438857 0.221819
O O12 0.492960 0.429101 0.145604
O O13 0.924520 0.221934 0.118306
O O14 0.000000 0.500000 0.000000
O O15 0.192491 0.756363 0.554016
O O16 0.507452 0.672376 0.737635
O O17 0.964964 0.650537 0.591999
#
# Coordination Sequence:
#
# PCOD8028014 Si02
#       8
#     2   2   2   2   2   2   2   2
#     4  10  25  49  75 106 144 182 226 286 358 417
#     4  12  28  47  72 107 140 189 238 285 348 421
#     4  10  25  42  63  99 131 188 229 305 346 403
#     4  10  26  44  74 106 142 184 232 285 349 426
#     4  11  26  44  67  93 148 187 232 287 358 406
#     4  11  24  44  70 102 139 189 230 291 345 418
#     4  11  27  46  74 105 145 185 228 289 351 419
#     4  11  25  41  70  99 136 175 254 289 343 403
#
# _framework density 25.831385000000001
#
# number of rings (size 3 to 8) (size 9 to 14) (size 15 to 20)
#    0.000    1.250    0.000    3.000   21.000    2.000 
#    0.000    0.000    0.000    0.000    0.000    0.000 
#    0.000    0.000    0.000    0.000    0.000    0.000 
#
# Total GULP energy -198256.115237 kJ/mol
# GULP energy per Si atom -12391.007202 kJ/mol
# Density = 2.577259 g / cm^3
# Si number density = 25.831385 Si / 1000 Ang^3
#
#
#
# Elastic Constant Matrix: (Units=GPa)
#
#
# Indices 1 2 3 4 5 6 
#
# 1 93.5543 29.7372 35.8472 15.6720 16.3162 -14.7253
# 2 29.7372 127.3891 50.9944 12.2042 3.5969 -33.5813
# 3 35.8472 50.9944 138.4784 17.2438 35.7931 -17.8782
# 4 15.6720 12.2042 17.2438 37.6710 -4.1885 -2.5387
# 5 16.3162 3.5969 35.7931 -4.1885 40.8836 -5.0760
# 6 -14.7253 -33.5813 -17.8782 -2.5387 -5.0760 35.1757
#
#
#
# Elastic Compliance Matrix: (Units=1/GPa)
#
#
# Indices 1 2 3 4 5 6 
#
# 1 0.013601 -0.001522 -0.000690 -0.005202 -0.004874 0.002812
# 2 -0.001522 0.012211 -0.003851 -0.000462 0.004051 0.009615
# 3 -0.000690 -0.003851 0.012258 -0.005232 -0.010609 0.000356
# 4 -0.005202 -0.000462 -0.005232 0.032242 0.009810 -0.001535
# 5 -0.004874 0.004051 -0.010609 0.009810 0.036643 0.002431
# 6 0.002812 0.009615 0.000356 -0.001535 0.002431 0.039205
#
#
# Mechanical properties :
#
#
# Convention : Reuss Voigt Hill
#
# Bulk Modulus (GPa) = 38.54362 65.84216 52.19289
# Shear Modulus (GPa) = 29.95198 38.93560 34.44379
#
# Velocity S-wave (km/s) = 3.40887 3.88661 3.65555
# Velocity P-wave (km/s) = 5.51792 6.75910 6.16980
#
# Compressibility (1/GPa) = 0.02594463
#
# Stress axis : x y z
#
# Youngs Moduli (GPa) = 73.52396 81.89227 81.58086
#
# Poissons Ratio (x) = 0.12461 0.05628
# Poissons Ratio (y) = 0.11188 0.31418
# Poissons Ratio (z) = 0.05073 0.31538
#
# Static dielectric constant tensor:
#      x y z
#    x 4.556780 0.247810 -0.022570 
#    y 0.247810 6.509300 0.136110 
#    z -0.022570 0.136110 4.934970 
# 
# 
# High freq. dielectric constant tensor:
#      x y z
#    x 2.023950 -0.001010 -0.000350 
#    y -0.001010 2.045240 -0.007250 
#    z -0.000350 -0.007250 2.047480 
# 
# From -- ./inp_files/126430.got.cif
#   From: 2010.06.25/outbox.cif.g09.slc.cpg/sg2_64_cif.got.tgz:126430.got - 2010.06.27 13:26:56.
