data_PCOD8028779
_publ_section_title
;
Structure prediction by ZEFSAII (Michael W. Deem and Ramdas Pophale) SiO2 
 PCOD8028779
Probable space group: P -1
;
_chemical_formula_sum "Si O2"
_cell_formula_units_Z 16
_cell_length_a 8.672090
_cell_length_b 17.275676
_cell_length_c 20.492405
_cell_angle_alpha 150.853912
_cell_angle_beta 149.434807
_cell_angle_gamma 31.335712
_cell_volume 692.733540
_symmetry_space_group_name_H-M "P -1"
_symmetry_group_IT_number 2
_symmetry_cell_setting 'triclinic'
loop_
_space_group_symop_operation_xyz
x,y,z
-x,-y,-z
loop_
_atom_site_type_symbol
_atom_site_label
_atom_site_fract_x
_atom_site_fract_y
_atom_site_fract_z
Si Si1 0.862862 0.349777 0.845420
Si Si2 0.671700 0.066252 0.732038
Si Si3 0.935435 0.045716 0.086523
Si Si4 0.291385 0.009443 0.826985
Si Si5 0.295140 0.385881 0.337218
Si Si6 0.354718 0.434157 0.838621
Si Si7 0.893886 0.648005 0.622004
Si Si8 0.683447 0.157526 0.527645
O O1 0.563219 0.423166 0.841506
O O2 0.742732 0.307436 0.700319
O O3 0.137851 0.160515 0.828115
O O4 0.000000 0.500000 0.000000
O O5 0.387015 0.243013 0.730626
O O6 0.020737 0.018293 0.787724
O O7 0.536189 0.916381 0.561893
O O8 0.748195 0.081737 0.848552
O O9 0.880473 0.244348 0.223585
O O10 0.608068 0.035281 0.989855
O O11 0.000000 0.000000 0.000000
O O12 0.446548 0.814527 0.711627
O O13 0.500000 0.500000 0.500000
O O14 0.058070 0.431082 0.346957
O O15 0.036458 0.439327 0.221328
O O16 0.500000 0.500000 0.000000
O O17 0.507813 0.764177 0.551432
O O18 0.000000 0.500000 0.500000
O O19 0.000000 0.000000 0.500000
#
# Coordination Sequence:
#
# PCOD8028779 Si02
#       8
#     2   2   2   2   2   2   2   2
#     4  11  28  46  77 111 147 195 251 308 373 443
#     4  10  26  47  73 106 146 196 245 302 377 438
#     4  11  23  44  76 102 145 190 248 298 368 442
#     4  11  25  46  73 108 148 193 246 302 370 441
#     4  12  28  45  76 107 151 199 249 301 378 445
#     4  11  27  47  73 108 154 192 246 313 369 444
#     4  11  26  46  71 108 142 192 244 310 363 435
#     4  11  26  47  77 103 147 193 251 303 372 444
#
# _framework density 23.096905
#
# number of rings (size 3 to 8) (size 9 to 14) (size 15 to 20)
#    0.000    1.000    1.250    2.625   15.750    2.000 
#    0.000    0.000    0.000    0.000    0.000    0.000 
#    0.000    0.000    0.000    0.000    0.000    0.000 
#
# Total GULP energy -198307.084184 kJ/mol
# GULP energy per Si atom -12394.192761 kJ/mol
# Density = 2.304434 g / cm^3
# Si number density = 23.096905 Si / 1000 Ang^3
#
#
#
# Elastic Constant Matrix: (Units=GPa)
#
#
# Indices 1 2 3 4 5 6 
#
# 1 100.2417 38.0929 54.6978 7.9450 3.3724 5.1729
# 2 38.0929 129.5508 52.5872 4.5773 7.8605 4.5273
# 3 54.6978 52.5872 180.8994 16.0894 13.6164 4.5465
# 4 7.9450 4.5773 16.0894 39.0990 1.4396 -1.8342
# 5 3.3724 7.8605 13.6164 1.4396 43.1734 5.5451
# 6 5.1729 4.5273 4.5465 -1.8342 5.5451 36.7474
#
#
#
# Elastic Compliance Matrix: (Units=1/GPa)
#
#
# Indices 1 2 3 4 5 6 
#
# 1 0.012701 -0.002453 -0.003042 -0.001124 0.000613 -0.001258
# 2 -0.002453 0.009269 -0.001896 0.000205 -0.000850 -0.000423
# 3 -0.003042 -0.001896 0.007313 -0.002114 -0.001640 -0.000101
# 4 -0.001124 0.000205 -0.002114 0.026749 -0.000405 0.001791
# 5 0.000613 -0.000850 -0.001640 -0.000405 0.024244 -0.003457
# 6 -0.001258 -0.000423 -0.000101 0.001791 -0.003457 0.028066
#
#
# Mechanical properties :
#
#
# Convention : Reuss Voigt Hill
#
# Bulk Modulus (GPa) = 68.96402 77.93863 73.45132
# Shear Modulus (GPa) = 39.07496 41.49154 40.28325
#
# Velocity S-wave (km/s) = 4.11759 4.24301 4.18077
# Velocity P-wave (km/s) = 7.24772 7.60405 7.42802
#
# Compressibility (1/GPa) = 0.01450031
#
# Stress axis : x y z
#
# Youngs Moduli (GPa) = 78.73155 107.88299 136.74452
#
# Poissons Ratio (x) = 0.26469 0.41595
# Poissons Ratio (y) = 0.19317 0.25931
# Poissons Ratio (z) = 0.23949 0.20458
#
# Static dielectric constant tensor:
#      x y z
#    x 4.245230 0.411670 0.152710 
#    y 0.411670 7.154450 0.323490 
#    z 0.152710 0.323490 4.331480 
# 
# 
# High freq. dielectric constant tensor:
#      x y z
#    x 1.907500 0.012360 0.006650 
#    y 0.012360 1.926050 -0.002950 
#    z 0.006650 -0.002950 1.926380 
# 
# From -- ./inp_files/591242.got.cif
#   From: 2010.06.25/outbox.cif.g09.slc.cpg/sg2_296_cif.got.tgz:591242.got - 2010.06.27 13:26:56.
