data_PCOD8028503
_publ_section_title
;
Structure prediction by ZEFSAII (Michael W. Deem and Ramdas Pophale) SiO2 
 PCOD8028503
Probable space group: P -1
;
_chemical_formula_sum "Si O2"
_cell_formula_units_Z 16
_cell_length_a 8.499033
_cell_length_b 11.893944
_cell_length_c 9.209622
_cell_angle_alpha 95.271201
_cell_angle_beta 50.831275
_cell_angle_gamma 83.291322
_cell_volume 700.045497
_symmetry_space_group_name_H-M "P -1"
_symmetry_group_IT_number 2
_symmetry_cell_setting 'triclinic'
loop_
_space_group_symop_operation_xyz
x,y,z
-x,-y,-z
loop_
_atom_site_type_symbol
_atom_site_label
_atom_site_fract_x
_atom_site_fract_y
_atom_site_fract_z
Si Si1 0.987731 0.248078 0.383948
Si Si2 0.712099 0.527713 0.064910
Si Si3 0.085892 0.643687 0.849731
Si Si4 0.701399 0.347272 0.818674
Si Si5 0.102933 0.988440 0.593063
Si Si6 0.532698 0.971346 0.216404
Si Si7 0.478920 0.176020 0.074075
Si Si8 0.039024 0.113914 0.919306
O O1 0.884926 0.347736 0.340045
O O2 0.891588 0.274641 0.603681
O O3 0.938982 0.130624 0.331058
O O4 0.235640 0.234633 0.247130
O O5 0.733238 0.454899 0.194923
O O6 0.475268 0.596188 0.188721
O O7 0.783945 0.443912 0.873609
O O8 0.859090 0.617743 0.005136
O O9 0.097915 0.764158 0.934758
O O10 0.607537 0.274226 0.985428
O O11 0.344905 0.987160 0.441090
O O12 0.002167 0.098239 0.766419
O O13 0.000000 0.000000 0.500000
O O14 0.721272 0.891427 0.182821
O O15 0.566297 0.097042 0.155326
O O16 0.477836 0.904189 0.101234
O O17 0.000000 0.000000 0.000000
#
# Coordination Sequence:
#
# PCOD8028503 Si02
#       8
#     2   2   2   2   2   2   2   2
#     4  12  23  42  71 102 139 175 224 286 335 406
#     4  10  25  47  69 100 131 181 232 288 334 396
#     4  11  24  46  69  96 143 176 225 286 344 391
#     4  11  24  44  75  98 129 180 235 279 338 401
#     4  12  25  41  65 108 138 180 230 272 343 422
#     4  11  23  40  65  99 146 184 218 276 338 412
#     4  11  22  40  68 103 142 176 223 279 340 401
#     4  12  25  42  68 102 138 184 223 279 347 411
#
# _framework density 22.855656
#
# number of rings (size 3 to 8) (size 9 to 14) (size 15 to 20)
#    0.000    0.750    6.250    0.375    5.250    1.000 
#    0.000    0.000    0.000    0.000    0.000    0.000 
#    0.000    0.000    0.000    0.000    0.000    0.000 
#
# Total GULP energy -198371.008159 kJ/mol
# GULP energy per Si atom -12398.188010 kJ/mol
# Density = 2.280364 g / cm^3
# Si number density = 22.855656 Si / 1000 Ang^3
#
#
#
# Elastic Constant Matrix: (Units=GPa)
#
#
# Indices 1 2 3 4 5 6 
#
# 1 54.3651 12.4669 -2.7244 -9.5855 15.8554 -11.7645
# 2 12.4669 92.7519 12.9451 -13.7129 -1.3687 3.5097
# 3 -2.7244 12.9451 84.3033 -2.3528 -8.0496 9.1113
# 4 -9.5855 -13.7129 -2.3528 33.6253 0.4893 10.5716
# 5 15.8554 -1.3687 -8.0496 0.4893 27.1085 -1.0751
# 6 -11.7645 3.5097 9.1113 10.5716 -1.0751 40.7410
#
#
#
# Elastic Compliance Matrix: (Units=1/GPa)
#
#
# Indices 1 2 3 4 5 6 
#
# 1 0.025630 -0.003193 -0.000701 0.004180 -0.015184 0.006347
# 2 -0.003193 0.012258 -0.001357 0.004875 0.001881 -0.002890
# 3 -0.000701 -0.001357 0.012796 0.001064 0.003998 -0.003118
# 4 0.004180 0.004875 0.001064 0.035808 -0.002879 -0.008818
# 5 -0.015184 0.001881 0.003998 -0.002879 0.046967 -0.003454
# 6 0.006347 -0.002890 -0.003118 -0.008818 -0.003454 0.029521
#
#
# Mechanical properties :
#
#
# Convention : Reuss Voigt Hill
#
# Bulk Modulus (GPa) = 24.88703 30.75505 27.82104
# Shear Modulus (GPa) = 26.75555 34.21050 30.48302
#
# Velocity S-wave (km/s) = 3.42516 3.87306 3.65597
# Velocity P-wave (km/s) = 5.15313 5.78672 5.47909
#
# Compressibility (1/GPa) = 0.04018158
#
# Stress axis : x y z
#
# Youngs Moduli (GPa) = 39.01626 81.57960 78.14866
#
# Poissons Ratio (x) = 0.26052 0.05474
# Poissons Ratio (y) = 0.12460 0.10609
# Poissons Ratio (z) = 0.02733 0.11074
#
# Static dielectric constant tensor:
#      x y z
#    x 4.365450 -0.200440 0.200800 
#    y -0.200440 4.486660 -0.111880 
#    z 0.200800 -0.111880 3.754390 
# 
# 
# High freq. dielectric constant tensor:
#      x y z
#    x 1.909750 -0.005380 0.003430 
#    y -0.005380 1.907390 -0.011970 
#    z 0.003430 -0.011970 1.884680 
# 
# From -- ./inp_files/187246.got.cif
#   From: 2010.06.25/outbox.cif.g09.slc.cpg/sg2_94_cif.got.tgz:187246.got - 2010.06.27 13:26:56.
