data_PCOD8028626
_publ_section_title
;
Structure prediction by ZEFSAII (Michael W. Deem and Ramdas Pophale) SiO2 
 PCOD8028626
Probable space group: P -1
;
_chemical_formula_sum "Si O2"
_cell_formula_units_Z 16
_cell_length_a 19.553679
_cell_length_b 11.241643
_cell_length_c 16.634908
_cell_angle_alpha 149.317302
_cell_angle_beta 158.709469
_cell_angle_gamma 37.218885
_cell_volume 677.260765
_symmetry_space_group_name_H-M "P -1"
_symmetry_group_IT_number 2
_symmetry_cell_setting 'triclinic'
loop_
_space_group_symop_operation_xyz
x,y,z
-x,-y,-z
loop_
_atom_site_type_symbol
_atom_site_label
_atom_site_fract_x
_atom_site_fract_y
_atom_site_fract_z
Si Si1 0.564661 0.739364 0.836595
Si Si2 0.484153 0.251606 0.027985
Si Si3 0.940615 0.817989 0.485931
Si Si4 0.999427 0.754788 0.684815
Si Si5 0.789009 0.588863 0.496295
Si Si6 0.059132 0.291733 0.839082
Si Si7 0.738421 0.613477 0.722312
Si Si8 0.307414 0.059736 0.277439
O O1 0.426418 0.567818 0.535296
O O2 0.554089 0.994664 0.932789
O O3 0.477786 0.717393 0.817723
O O4 0.785150 0.668331 0.037507
O O5 0.268121 0.283433 0.791026
O O6 0.588938 0.451761 0.206210
O O7 0.995298 0.912997 0.691817
O O8 0.055970 0.610736 0.452070
O O9 0.951085 0.039776 0.566600
O O10 0.000000 0.500000 0.500000
O O11 0.812548 0.746965 0.532868
O O12 0.179473 0.830387 0.981479
O O13 0.816313 0.768005 0.703874
O O14 0.908067 0.492488 0.788645
O O15 0.181064 0.277261 0.045115
O O16 0.645270 0.808120 0.677301
O O17 0.500000 0.000000 0.500000
#
# Coordination Sequence:
#
# PCOD8028626 Si02
#       8
#     2   2   2   2   2   2   2   2
#     4  11  23  41  65 105 145 180 233 292 359 430
#     4  11  24  39  69 108 139 184 235 291 359 439
#     4  11  23  45  74 104 146 186 241 298 360 440
#     4  10  25  49  74 101 140 190 248 296 358 430
#     4  11  25  46  73 101 143 191 240 298 365 419
#     4  11  23  43  72 102 146 189 231 297 361 435
#     4  11  24  45  70 102 143 191 239 290 366 429
#     4  12  27  50  73 107 145 189 249 306 353 427
#
# _framework density 23.624576999999999
#
# number of rings (size 3 to 8) (size 9 to 14) (size 15 to 20)
#    0.000    1.000    5.000    0.750    5.250    1.000 
#    6.750    0.000    0.000    0.000    0.000    0.000 
#    0.000    0.000    0.000    0.000    0.000    0.000 
#
# Total GULP energy -198279.895059 kJ/mol
# GULP energy per Si atom -12392.493441 kJ/mol
# Density = 2.357081 g / cm^3
# Si number density = 23.624577 Si / 1000 Ang^3
#
#
#
# Elastic Constant Matrix: (Units=GPa)
#
#
# Indices 1 2 3 4 5 6 
#
# 1 81.9437 21.1109 42.3726 5.8460 12.8836 -4.2050
# 2 21.1109 64.2916 34.9889 -5.3359 -3.5418 0.8400
# 3 42.3726 34.9889 162.2665 2.4021 14.4148 -4.8041
# 4 5.8460 -5.3359 2.4021 39.1077 -0.3086 2.0872
# 5 12.8836 -3.5418 14.4148 -0.3086 42.1666 -2.6148
# 6 -4.2050 0.8400 -4.8041 2.0872 -2.6148 35.3435
#
#
#
# Elastic Compliance Matrix: (Units=1/GPa)
#
#
# Indices 1 2 3 4 5 6 
#
# 1 0.015601 -0.004114 -0.002737 -0.002835 -0.004108 0.001445
# 2 -0.004114 0.019378 -0.003556 0.003581 0.004043 -0.001346
# 3 -0.002737 -0.003556 0.007862 -0.000613 -0.002111 0.000708
# 4 -0.002835 0.003581 -0.000613 0.026637 0.001449 -0.001972
# 5 -0.004108 0.004043 -0.002111 0.001449 0.026103 0.000974
# 6 0.001445 -0.001346 0.000708 -0.001972 0.000974 0.028782
#
#
# Mechanical properties :
#
#
# Convention : Reuss Voigt Hill
#
# Bulk Modulus (GPa) = 45.39976 56.16073 50.78024
# Shear Modulus (GPa) = 32.78293 37.32553 35.05423
#
# Velocity S-wave (km/s) = 3.72918 3.97916 3.85620
# Velocity P-wave (km/s) = 6.14827 6.70339 6.43182
#
# Compressibility (1/GPa) = 0.02202655
#
# Stress axis : x y z
#
# Youngs Moduli (GPa) = 64.09896 51.60570 127.19742
#
# Poissons Ratio (x) = 0.21228 0.34817
# Poissons Ratio (y) = 0.26367 0.45234
# Poissons Ratio (z) = 0.17545 0.18352
#
# Static dielectric constant tensor:
#      x y z
#    x 5.532180 0.312410 0.096760 
#    y 0.312410 4.126090 0.204610 
#    z 0.096760 0.204610 4.331810 
# 
# 
# High freq. dielectric constant tensor:
#      x y z
#    x 1.941380 -0.002830 0.004180 
#    y -0.002830 1.913380 0.015020 
#    z 0.004180 0.015020 1.950890 
# 
# From -- ./inp_files/578064.got.cif
#   From: 2010.06.25/outbox.cif.g09.slc.cpg/sg2_290_cif.got.tgz:578064.got - 2010.06.27 13:26:56.
