data_PCOD8028282
_publ_section_title
;
Structure prediction by ZEFSAII (Michael W. Deem and Ramdas Pophale) SiO2 
 PCOD8028282
Probable space group: P -1
;
_chemical_formula_sum "Si O2"
_cell_formula_units_Z 16
_cell_length_a 14.021194
_cell_length_b 8.430811
_cell_length_c 13.456478
_cell_angle_alpha 137.273992
_cell_angle_beta 45.175479
_cell_angle_gamma 131.701279
_cell_volume 728.705029
_symmetry_space_group_name_H-M "P -1"
_symmetry_group_IT_number 2
_symmetry_cell_setting 'triclinic'
loop_
_space_group_symop_operation_xyz
x,y,z
-x,-y,-z
loop_
_atom_site_type_symbol
_atom_site_label
_atom_site_fract_x
_atom_site_fract_y
_atom_site_fract_z
Si Si1 0.207896 0.041854 0.503768
Si Si2 0.680684 0.837384 0.890597
Si Si3 0.397648 0.443897 0.866875
Si Si4 0.212411 0.782013 0.183252
Si Si5 0.687079 0.073798 0.198050
Si Si6 0.545962 0.837552 0.473866
Si Si7 0.115234 0.445712 0.666406
Si Si8 0.926948 0.674602 0.581512
O O1 0.303301 0.034868 0.526283
O O2 0.220627 0.313701 0.579755
O O3 0.246015 0.871695 0.313041
O O4 0.043765 0.936498 0.604838
O O5 0.530595 0.629138 0.909289
O O6 0.800605 0.703863 0.756810
O O7 0.710459 0.985006 0.833895
O O8 0.683571 0.031497 0.063904
O O9 0.443484 0.405414 0.702251
O O10 0.340884 0.184415 0.844771
O O11 0.270199 0.557703 0.012512
O O12 0.045186 0.686085 0.243312
O O13 0.571485 0.210746 0.375761
O O14 0.838362 0.267582 0.204304
O O15 0.500000 0.000000 0.500000
O O16 0.136285 0.435049 0.528180
O O17 0.000000 0.500000 0.500000
#
# Coordination Sequence:
#
# PCOD8028282 Si02
#       8
#     2   2   2   2   2   2   2   2
#     4  11  23  46  74  99 142 184 226 285 346 411
#     4  12  24  46  68 103 140 182 234 281 341 415
#     4  11  26  44  71  96 142 180 233 287 342 409
#     4  11  24  46  70 105 138 183 231 280 345 414
#     4  11  27  43  69 101 140 181 225 294 345 402
#     4  10  25  45  68  99 136 178 231 285 343 406
#     4  11  24  48  68 103 146 176 233 282 343 420
#     4  11  25  41  76 104 135 190 231 281 343 410
#
# _framework density 21.956758000000001
#
# number of rings (size 3 to 8) (size 9 to 14) (size 15 to 20)
#    0.000    1.000    2.500    3.000   12.250    2.500 
#    0.000    0.000    0.000    0.000    0.000    0.000 
#    0.000    0.000    0.000    0.000    0.000    0.000 
#
# Total GULP energy -198403.396367 kJ/mol
# GULP energy per Si atom -12400.212273 kJ/mol
# Density = 2.190678 g / cm^3
# Si number density = 21.956758 Si / 1000 Ang^3
#
#
#
# Elastic Constant Matrix: (Units=GPa)
#
#
# Indices 1 2 3 4 5 6 
#
# 1 131.3739 39.2060 53.9631 9.7179 9.8147 13.0816
# 2 39.2060 111.1112 24.7010 15.8286 6.2631 8.8055
# 3 53.9631 24.7010 149.7108 2.3832 -2.8339 5.8973
# 4 9.7179 15.8286 2.3832 30.0405 1.4803 5.1417
# 5 9.8147 6.2631 -2.8339 1.4803 37.5844 9.8611
# 6 13.0816 8.8055 5.8973 5.1417 9.8611 30.4261
#
#
#
# Elastic Compliance Matrix: (Units=1/GPa)
#
#
# Indices 1 2 3 4 5 6 
#
# 1 0.010078 -0.002391 -0.003165 -0.001280 -0.001841 -0.002215
# 2 -0.002391 0.010809 -0.000828 -0.004664 -0.000823 -0.000885
# 3 -0.003165 -0.000828 0.008001 0.000852 0.001704 -0.000646
# 4 -0.001280 -0.004664 0.000852 0.036868 0.000987 -0.004815
# 5 -0.001841 -0.000823 0.001704 0.000987 0.029700 -0.009093
# 6 -0.002215 -0.000885 -0.000646 -0.004815 -0.009093 0.037961
#
#
# Mechanical properties :
#
#
# Convention : Reuss Voigt Hill
#
# Bulk Modulus (GPa) = 62.03676 69.77069 65.90372
# Shear Modulus (GPa) = 32.99042 37.89859 35.44450
#
# Velocity S-wave (km/s) = 3.88044 4.15909 4.02218
# Velocity P-wave (km/s) = 6.95647 7.41009 7.18686
#
# Compressibility (1/GPa) = 0.01611947
#
# Stress axis : x y z
#
# Youngs Moduli (GPa) = 99.22276 92.51845 124.97954
#
# Poissons Ratio (x) = 0.22120 0.39562
# Poissons Ratio (y) = 0.23723 0.10349
# Poissons Ratio (z) = 0.31409 0.07661
#
# Static dielectric constant tensor:
#      x y z
#    x 3.862320 0.029560 0.053150 
#    y 0.029560 4.019430 -0.120790 
#    z 0.053150 -0.120790 4.473960 
# 
# 
# High freq. dielectric constant tensor:
#      x y z
#    x 1.858390 0.003670 -0.000690 
#    y 0.003670 1.865210 -0.000850 
#    z -0.000690 -0.000850 1.876850 
# 
# From -- ./inp_files/182408.got.cif
#   From: 2010.06.25/outbox.cif.g09.slc.cpg/sg2_92_cif.got.tgz:182408.got - 2010.06.27 13:26:56.
