data_PCOD8028629
_publ_section_title
;
Structure prediction by ZEFSAII (Michael W. Deem and Ramdas Pophale) SiO2 
 PCOD8028629
Probable space group: P -1
;
_chemical_formula_sum "Si O2"
_cell_formula_units_Z 16
_cell_length_a 13.856863
_cell_length_b 17.250552
_cell_length_c 25.345517
_cell_angle_alpha 19.360072
_cell_angle_beta 158.559240
_cell_angle_gamma 157.686522
_cell_volume 676.798191
_symmetry_space_group_name_H-M "P -1"
_symmetry_group_IT_number 2
_symmetry_cell_setting 'triclinic'
loop_
_space_group_symop_operation_xyz
x,y,z
-x,-y,-z
loop_
_atom_site_type_symbol
_atom_site_label
_atom_site_fract_x
_atom_site_fract_y
_atom_site_fract_z
Si Si1 0.469421 0.680164 0.624585
Si Si2 0.495011 0.770777 0.312044
Si Si3 0.970167 0.852819 0.250180
Si Si4 0.981922 0.789381 0.736540
Si Si5 0.842878 0.527167 0.117956
Si Si6 0.118844 0.004821 0.115763
Si Si7 0.355586 0.039063 0.619627
Si Si8 0.819570 0.632812 0.924664
O O1 0.293275 0.860478 0.415782
O O2 0.760810 0.787267 0.670615
O O3 0.557724 0.658472 0.743634
O O4 0.263167 0.398351 0.681880
O O5 0.500000 0.500000 0.500000
O O6 0.581120 0.938912 0.300686
O O7 0.178735 0.720799 0.163387
O O8 0.729719 0.955107 0.271654
O O9 0.908681 0.875930 0.141027
O O10 0.951820 0.085330 0.125301
O O11 0.833737 0.804351 0.594994
O O12 0.039052 0.530643 0.932250
O O13 0.812039 0.251991 0.298428
O O14 0.703044 0.491273 0.011577
O O15 0.709089 0.689838 0.981637
O O16 0.340106 0.863232 0.318261
O O17 0.000000 0.000000 0.000000
#
# Coordination Sequence:
#
# PCOD8028629 Si02
#       8
#     2   2   2   2   2   2   2   2
#     4  11  25  50  70  99 135 184 237 288 335 404
#     4  12  24  43  67 100 144 180 222 281 355 415
#     4  10  25  49  74  98 139 180 233 288 345 404
#     4  12  25  45  70 103 140 182 232 282 344 419
#     4  11  24  42  69 103 137 184 225 282 352 415
#     4  11  23  42  73 107 136 177 228 287 348 416
#     4  12  23  46  67 104 145 176 224 287 354 418
#     4  11  25  44  71  98 138 183 228 286 339 405
#
# _framework density 23.640725
#
# number of rings (size 3 to 8) (size 9 to 14) (size 15 to 20)
#    0.000    0.750    5.000    2.250    5.250    0.500 
#    4.500    2.500    0.000    0.000    0.000    0.000 
#    0.000    0.000    0.000    0.000    0.000    0.000 
#
# Total GULP energy -198263.037038 kJ/mol
# GULP energy per Si atom -12391.439815 kJ/mol
# Density = 2.358692 g / cm^3
# Si number density = 23.640725 Si / 1000 Ang^3
#
#
#
# Elastic Constant Matrix: (Units=GPa)
#
#
# Indices 1 2 3 4 5 6 
#
# 1 64.3960 24.8554 21.7000 1.3471 -0.7042 -6.8398
# 2 24.8554 85.5606 17.7639 -19.5297 2.4293 -1.0728
# 3 21.7000 17.7639 91.8914 -7.8041 -7.6748 -12.6703
# 4 1.3471 -19.5297 -7.8041 43.2185 -11.7965 -6.8293
# 5 -0.7042 2.4293 -7.6748 -11.7965 36.6340 2.5235
# 6 -6.8398 -1.0728 -12.6703 -6.8293 2.5235 30.7956
#
#
#
# Elastic Compliance Matrix: (Units=1/GPa)
#
#
# Indices 1 2 3 4 5 6 
#
# 1 0.019195 -0.005649 -0.003639 -0.003903 -0.001401 0.001819
# 2 -0.005649 0.015123 -0.000833 0.007204 0.001003 0.000445
# 3 -0.003639 -0.000833 0.013262 0.003958 0.003680 0.005196
# 4 -0.003903 0.007204 0.003958 0.031019 0.009776 0.007090
# 5 -0.001401 0.001003 0.003680 0.009776 0.031063 0.000861
# 6 0.001819 0.000445 0.005196 0.007090 0.000861 0.036531
#
#
# Mechanical properties :
#
#
# Convention : Reuss Voigt Hill
#
# Bulk Modulus (GPa) = 36.57629 41.16518 38.87073
# Shear Modulus (GPa) = 28.48246 33.96485 31.22366
#
# Velocity S-wave (km/s) = 3.47480 3.79451 3.63816
# Velocity P-wave (km/s) = 5.62177 6.05379 5.84177
#
# Compressibility (1/GPa) = 0.02734011
#
# Stress axis : x y z
#
# Youngs Moduli (GPa) = 52.09713 66.12491 75.40094
#
# Poissons Ratio (x) = 0.37354 0.27435
# Poissons Ratio (y) = 0.29430 0.06277
# Poissons Ratio (z) = 0.18956 0.05505
#
# Static dielectric constant tensor:
#      x y z
#    x 4.040660 -0.028900 0.075500 
#    y -0.028900 4.264290 0.012280 
#    z 0.075500 0.012280 4.595550 
# 
# 
# High freq. dielectric constant tensor:
#      x y z
#    x 1.916100 -0.003770 0.003210 
#    y -0.003770 1.931010 -0.003160 
#    z 0.003210 -0.003160 1.959400 
# 
# From -- ./inp_files/619745.got.cif
#   From: 2010.06.25/outbox.cif.g09.slc.cpg/sg2_310_cif.got.tgz:619745.got - 2010.06.27 13:26:56.
