data_PCOD8028517
_publ_section_title
;
Structure prediction by ZEFSAII (Michael W. Deem and Ramdas Pophale) SiO2 
 PCOD8028517
Probable space group: P -1
;
_chemical_formula_sum "Si O2"
_cell_formula_units_Z 14
_cell_length_a 24.187024
_cell_length_b 17.028478
_cell_length_c 13.448537
_cell_angle_alpha 156.406996
_cell_angle_beta 24.097832
_cell_angle_gamma 162.470732
_cell_volume 631.825115
_symmetry_space_group_name_H-M "P -1"
_symmetry_group_IT_number 2
_symmetry_cell_setting 'triclinic'
loop_
_space_group_symop_operation_xyz
x,y,z
-x,-y,-z
loop_
_atom_site_type_symbol
_atom_site_label
_atom_site_fract_x
_atom_site_fract_y
_atom_site_fract_z
Si Si1 0.535492 0.739922 0.393844
Si Si2 0.106515 0.006046 0.564916
Si Si3 0.328241 0.854645 0.536274
Si Si4 0.089771 0.286855 0.641141
Si Si5 0.039072 0.363574 0.021874
Si Si6 0.153475 0.257154 0.123753
Si Si7 0.660394 0.018856 0.722738
O O1 0.306319 0.468847 0.458991
O O2 0.585828 0.961283 0.490315
O O3 0.603492 0.865329 0.536240
O O4 0.649219 0.659920 0.088502
O O5 0.305018 0.119537 0.414164
O O6 0.036743 0.793450 0.341890
O O7 0.942208 0.830428 0.713799
O O8 0.140167 0.264782 0.774676
O O9 0.221227 0.545338 0.315915
O O10 0.182005 0.853952 0.830835
O O11 0.500000 0.000000 0.500000
O O12 0.066727 0.421937 0.924228
O O13 0.000000 0.000000 0.500000
O O14 0.143265 0.656147 0.240957
O O15 0.000000 0.000000 0.000000
O O16 0.500000 0.000000 0.000000
#
# Coordination Sequence:
#
# PCOD8028517 Si02
#       7
#     2   2   2   2   2   2   2
#     4  12  26  46  75 106 145 185 242 298 357 431
#     4  11  24  45  73  98 144 188 232 293 357 418
#     4  12  28  44  75 113 141 188 247 299 356 428
#     4  10  25  47  71 102 142 195 233 291 362 428
#     4  11  24  47  71 101 148 184 237 294 357 420
#     4  12  25  45  73 107 148 190 237 295 370 424
#     4  12  26  46  70 107 140 187 240 291 355 434
#
# _framework density 22.15803
#
# number of rings (size 3 to 8) (size 9 to 14) (size 15 to 20)
#    0.000    0.571    5.714    0.857    6.000    4.571 
#    2.571    0.000    0.000    0.000    0.000    0.000 
#    0.000    0.000    0.000    0.000    0.000    0.000 
#
# Total GULP energy -173565.533298 kJ/mol
# GULP energy per Si atom -12397.538093 kJ/mol
# Density = 2.210760 g / cm^3
# Si number density = 22.158030 Si / 1000 Ang^3
#
#
#
# Elastic Constant Matrix: (Units=GPa)
#
#
# Indices 1 2 3 4 5 6 
#
# 1 161.8985 31.1288 52.0522 -1.0936 2.2181 5.9062
# 2 31.1288 74.5650 29.8466 -0.4587 11.0844 -3.7260
# 3 52.0522 29.8466 94.4936 -6.8999 -19.3281 -2.3816
# 4 -1.0936 -0.4587 -6.8999 42.9092 -1.4164 -0.7583
# 5 2.2181 11.0844 -19.3281 -1.4164 25.5804 -4.6176
# 6 5.9062 -3.7260 -2.3816 -0.7583 -4.6176 37.4962
#
#
#
# Elastic Compliance Matrix: (Units=1/GPa)
#
#
# Indices 1 2 3 4 5 6 
#
# 1 0.008207 -0.000593 -0.005497 -0.000890 -0.005080 -0.002344
# 2 -0.000593 0.019628 -0.009209 -0.001810 -0.015602 -0.000499
# 3 -0.005497 -0.009209 0.021312 0.003970 0.021518 0.004035
# 4 -0.000890 -0.001810 0.003970 0.024105 0.005443 0.001370
# 5 -0.005080 -0.015602 0.021518 0.005443 0.064417 0.008660
# 6 -0.002344 -0.000499 0.004035 0.001370 0.008660 0.028339
#
#
# Mechanical properties :
#
#
# Convention : Reuss Voigt Hill
#
# Bulk Modulus (GPa) = 53.90948 61.89025 57.89987
# Shear Modulus (GPa) = 24.65591 35.72580 30.19085
#
# Velocity S-wave (km/s) = 3.33938 4.01972 3.69524
# Velocity P-wave (km/s) = 6.26506 7.03819 6.66285
#
# Compressibility (1/GPa) = 0.01854961
#
# Stress axis : x y z
#
# Youngs Moduli (GPa) = 121.84414 50.94697 46.92109
#
# Poissons Ratio (x) = 0.03024 0.25791
# Poissons Ratio (y) = 0.07231 0.43209
# Poissons Ratio (z) = 0.66975 0.46916
#
# Static dielectric constant tensor:
#      x y z
#    x 4.674130 0.094220 0.441780 
#    y 0.094220 4.141030 -0.045280 
#    z 0.441780 -0.045280 4.708930 
# 
# 
# High freq. dielectric constant tensor:
#      x y z
#    x 1.884430 0.001520 0.003400 
#    y 0.001520 1.874510 -0.003210 
#    z 0.003400 -0.003210 1.885470 
# 
# From -- ./inp_files/258732.got.cif
#   From: 2010.06.25/outbox.cif.g09.slc.cpg/sg2_130_cif.got.tgz:258732.got - 2010.06.27 13:26:56.
