data_PCOD8028403
_publ_section_title
;
Structure prediction by ZEFSAII (Michael W. Deem and Ramdas Pophale) SiO2 
 PCOD8028403
Probable space group: P -1
;
_chemical_formula_sum "Si O2"
_cell_formula_units_Z 12
_cell_length_a 5.046087
_cell_length_b 7.310672
_cell_length_c 13.160227
_cell_angle_alpha 82.396739
_cell_angle_beta 66.004752
_cell_angle_gamma 94.848521
_cell_volume 434.469538
_symmetry_space_group_name_H-M "P -1"
_symmetry_group_IT_number 2
_symmetry_cell_setting 'triclinic'
loop_
_space_group_symop_operation_xyz
x,y,z
-x,-y,-z
loop_
_atom_site_type_symbol
_atom_site_label
_atom_site_fract_x
_atom_site_fract_y
_atom_site_fract_z
Si Si1 0.160199 0.662102 0.237170
Si Si2 0.498311 0.623229 0.683462
Si Si3 0.591562 0.199121 0.017710
Si Si4 0.343280 0.263096 0.561995
Si Si5 0.749781 0.050342 0.638602
Si Si6 0.002469 0.650135 0.900539
O O1 0.316296 0.502189 0.272842
O O2 0.213671 0.667308 0.106534
O O3 0.307947 0.862144 0.247252
O O4 0.811866 0.637316 0.327539
O O5 0.542582 0.591333 0.557685
O O6 0.151764 0.591645 0.775812
O O7 0.622849 0.835773 0.676026
O O8 0.778358 0.179050 0.092711
O O9 0.308709 0.293810 0.082588
O O10 0.500000 0.000000 0.000000
O O11 0.607675 0.166546 0.566978
O O12 0.103177 0.097755 0.561042
O O13 0.000000 0.500000 0.000000
#
# Coordination Sequence:
#
# PCOD8028403 Si02
#       6
#     2   2   2   2   2   2
#     4  10  26  45  74 103 143 180 243 285 359 416
#     4  12  24  48  74 102 147 187 234 298 351 427
#     4  12  27  50  75 102 146 190 241 300 355 428
#     4  10  25  47  70 106 142 186 235 293 358 418
#     4  10  25  46  68 109 139 185 237 288 360 419
#     4  12  28  47  71 109 140 189 242 292 361 424
#
# _framework density 27.619885
#
# number of rings (size 3 to 8) (size 9 to 14) (size 15 to 20)
#    1.000    0.000    1.667    3.500    4.667    2.000 
#    3.000    0.000    0.000    0.000    0.000    0.000 
#    0.000    0.000    0.000    0.000    0.000    0.000 
#
# Total GULP energy -148843.274800 kJ/mol
# GULP energy per Si atom -12403.606233 kJ/mol
# Density = 2.755702 g / cm^3
# Si number density = 27.619885 Si / 1000 Ang^3
#
#
#
# Elastic Constant Matrix: (Units=GPa)
#
#
# Indices 1 2 3 4 5 6 
#
# 1 115.5851 8.8830 39.6503 20.2166 -10.7539 -0.9492
# 2 8.8830 107.3170 62.1933 21.3480 -5.8180 -10.2611
# 3 39.6503 62.1933 175.4210 33.4623 -15.5049 11.7172
# 4 20.2166 21.3480 33.4623 33.8611 8.4500 3.2162
# 5 -10.7539 -5.8180 -15.5049 8.4500 50.3868 5.4423
# 6 -0.9492 -10.2611 11.7172 3.2162 5.4423 34.0316
#
#
#
# Elastic Compliance Matrix: (Units=1/GPa)
#
#
# Indices 1 2 3 4 5 6 
#
# 1 0.010497 0.001638 -0.001523 -0.006664 0.002919 0.001474
# 2 0.001638 0.013521 -0.004335 -0.006025 0.000936 0.006035
# 3 -0.001523 -0.004335 0.009358 -0.006061 0.003564 -0.004569
# 4 -0.006664 -0.006025 -0.006061 0.046403 -0.011499 -0.002462
# 5 0.002919 0.000936 0.003564 -0.011499 0.023993 -0.003614
# 6 0.001474 0.006035 -0.004569 -0.002462 -0.003614 0.033629
#
#
# Mechanical properties :
#
#
# Convention : Reuss Voigt Hill
#
# Bulk Modulus (GPa) = 40.09995 68.86405 54.48200
# Shear Modulus (GPa) = 32.43523 42.82900 37.63211
#
# Velocity S-wave (km/s) = 3.43059 3.94211 3.69521
# Velocity P-wave (km/s) = 5.49927 6.76071 6.16235
#
# Compressibility (1/GPa) = 0.02493769
#
# Stress axis : x y z
#
# Youngs Moduli (GPa) = 95.26146 73.95730 106.85929
#
# Poissons Ratio (x) = -0.12118 0.16273
# Poissons Ratio (y) = -0.15609 0.46326
# Poissons Ratio (z) = 0.14507 0.32062
#
# Static dielectric constant tensor:
#      x y z
#    x 6.411240 0.736960 -0.034080 
#    y 0.736960 5.536670 0.356180 
#    z -0.034080 0.356180 5.627150 
# 
# 
# High freq. dielectric constant tensor:
#      x y z
#    x 2.126510 0.046480 -0.006220 
#    y 0.046480 2.158820 0.016150 
#    z -0.006220 0.016150 2.135320 
# 
# From -- ./inp_files/478961.got.cif
#   From: 2010.06.25/outbox.cif.g09.slc.cpg/sg2_240_cif.got.tgz:478961.got - 2010.06.27 13:26:56.
