data_PCOD8028001
_publ_section_title
;
Structure prediction by ZEFSAII (Michael W. Deem and Ramdas Pophale) SiO2 
 PCOD8028001
Probable space group: P -1
;
_chemical_formula_sum "Si O2"
_cell_formula_units_Z 14
_cell_length_a 8.633894
_cell_length_b 17.550926
_cell_length_c 9.662694
_cell_angle_alpha 97.811311
_cell_angle_beta 55.523540
_cell_angle_gamma 51.384539
_cell_volume 613.536046
_symmetry_space_group_name_H-M "P -1"
_symmetry_group_IT_number 2
_symmetry_cell_setting 'triclinic'
loop_
_space_group_symop_operation_xyz
x,y,z
-x,-y,-z
loop_
_atom_site_type_symbol
_atom_site_label
_atom_site_fract_x
_atom_site_fract_y
_atom_site_fract_z
Si Si1 0.782877 0.843062 0.018254
Si Si2 0.162273 0.286604 0.271772
Si Si3 0.534673 0.668647 0.015645
Si Si4 0.101360 0.027807 0.067740
Si Si5 0.039779 0.909185 0.543672
Si Si6 0.121566 0.600140 0.266900
Si Si7 0.148627 0.178368 0.720103
O O1 0.870181 0.776472 0.107626
O O2 0.993556 0.715141 0.768750
O O3 0.958412 0.866081 0.935486
O O4 0.345916 0.001042 0.247453
O O5 0.318572 0.307745 0.127820
O O6 0.874546 0.404126 0.568385
O O7 0.477998 0.129571 0.149622
O O8 0.878634 0.488393 0.808446
O O9 0.369919 0.743501 0.270045
O O10 0.208961 0.747372 0.107922
O O11 0.865068 0.103537 0.348292
O O12 0.000000 0.000000 0.000000
O O13 0.000000 0.000000 0.500000
O O14 0.810900 0.764775 0.396591
O O15 0.500000 0.500000 0.000000
O O16 0.500000 0.000000 0.500000
#
# Coordination Sequence:
#
# PCOD8028001 Si02
#       7
#     2   2   2   2   2   2   2
#     4  11  23  37  66  98 131 167 219 273 324 378
#     4  11  22  42  64  93 132 173 218 265 328 392
#     4  11  22  42  67  94 134 174 214 268 328 391
#     4  11  24  39  64 103 133 165 220 276 325 382
#     4  11  21  39  65  97 133 169 218 267 328 387
#     4  10  25  41  67  93 127 177 219 264 330 390
#     4  11  22  40  67  97 129 170 225 265 318 387
#
# _framework density 22.818546999999999
#
# number of rings (size 3 to 8) (size 9 to 14) (size 15 to 20)
#    0.000    1.143    4.286    3.857    6.000    1.143 
#    0.000    3.571    3.143    0.000    0.000    0.000 
#    0.000    0.000    0.000    0.000    0.000    0.000 
#
# Total GULP energy -173508.358469 kJ/mol
# GULP energy per Si atom -12393.454176 kJ/mol
# Density = 2.276661 g / cm^3
# Si number density = 22.818547 Si / 1000 Ang^3
#
#
#
# Elastic Constant Matrix: (Units=GPa)
#
#
# Indices 1 2 3 4 5 6 
#
# 1 134.3986 50.7195 54.7902 -17.7532 41.6770 9.7209
# 2 50.7195 112.8255 47.2659 -7.7223 22.2659 14.0797
# 3 54.7902 47.2659 153.9291 -26.4569 46.1633 5.0551
# 4 -17.7532 -7.7223 -26.4569 45.8263 -5.5784 7.6550
# 5 41.6770 22.2659 46.1633 -5.5784 48.8034 -5.1560
# 6 9.7209 14.0797 5.0551 7.6550 -5.1560 37.0585
#
#
#
# Elastic Compliance Matrix: (Units=1/GPa)
#
#
# Indices 1 2 3 4 5 6 
#
# 1 0.012142 -0.002919 0.000118 0.003862 -0.009147 -0.004163
# 2 -0.002919 0.011748 -0.002035 0.000120 -0.001312 -0.003627
# 3 0.000118 -0.002035 0.010850 0.005374 -0.009151 -0.003121
# 4 0.003862 0.000120 0.005374 0.027062 -0.006214 -0.008246
# 5 -0.009147 -0.001312 -0.009151 -0.006214 0.037978 0.010714
# 6 -0.004163 -0.003627 -0.003121 -0.008246 0.010714 0.033074
#
#
# Mechanical properties :
#
#
# Convention : Reuss Voigt Hill
#
# Bulk Modulus (GPa) = 39.89206 78.52270 59.20738
# Shear Modulus (GPa) = 33.13895 42.89615 38.01755
#
# Velocity S-wave (km/s) = 3.81502 4.34046 4.08619
# Velocity P-wave (km/s) = 6.07668 7.72049 6.94737
#
# Compressibility (1/GPa) = 0.02506765
#
# Stress axis : x y z
#
# Youngs Moduli (GPa) = 82.36173 85.12339 92.16678
#
# Poissons Ratio (x) = 0.24845 -0.01089
# Poissons Ratio (y) = 0.24039 0.18758
# Poissons Ratio (z) = -0.00974 0.17325
#
# Static dielectric constant tensor:
#      x y z
#    x 4.641910 0.112370 1.046660 
#    y 0.112370 5.362950 0.042080 
#    z 1.046660 0.042080 5.114600 
# 
# 
# High freq. dielectric constant tensor:
#      x y z
#    x 1.889560 0.019810 0.028170 
#    y 0.019810 1.897440 -0.021860 
#    z 0.028170 -0.021860 1.905220 
# 
# From -- ./inp_files/212760.got.cif
#   From: 2010.06.25/outbox.cif.g09.slc.cpg/sg2_107_cif.got.tgz:212760.got - 2010.06.27 13:26:56.
