data_PCOD8028356
_publ_section_title
;
Structure prediction by ZEFSAII (Michael W. Deem and Ramdas Pophale) SiO2 
 PCOD8028356
Probable space group: P -1
;
_chemical_formula_sum "Si O2"
_cell_formula_units_Z 16
_cell_length_a 11.309015
_cell_length_b 9.068849
_cell_length_c 14.300109
_cell_angle_alpha 58.007951
_cell_angle_beta 73.515599
_cell_angle_gamma 120.690377
_cell_volume 695.409691
_symmetry_space_group_name_H-M "P -1"
_symmetry_group_IT_number 2
_symmetry_cell_setting 'triclinic'
loop_
_space_group_symop_operation_xyz
x,y,z
-x,-y,-z
loop_
_atom_site_type_symbol
_atom_site_label
_atom_site_fract_x
_atom_site_fract_y
_atom_site_fract_z
Si Si1 0.773690 0.766466 0.584827
Si Si2 0.658608 0.536111 0.485931
Si Si3 0.650140 0.323012 0.889968
Si Si4 0.976271 0.492511 0.857008
Si Si5 0.690876 0.027748 0.600290
Si Si6 0.340566 0.879007 0.775273
Si Si7 0.365021 0.174508 0.128251
Si Si8 0.967529 0.671418 0.261632
O O1 0.787283 0.742909 0.479081
O O2 0.631560 0.461687 0.774625
O O3 0.685768 0.862707 0.582966
O O4 0.000000 0.000000 0.500000
O O5 0.500000 0.500000 0.500000
O O6 0.815905 0.661434 0.323490
O O7 0.524869 0.216644 0.653073
O O8 0.892640 0.535980 0.782946
O O9 0.550389 0.252128 0.036763
O O10 0.500000 0.000000 0.000000
O O11 0.207545 0.803392 0.741883
O O12 0.994197 0.321931 0.860014
O O13 0.812673 0.312222 0.038626
O O14 0.861977 0.370845 0.422814
O O15 0.451852 0.828693 0.731198
O O16 0.761136 0.023048 0.684208
O O17 0.500000 0.500000 0.000000
O O18 0.193374 0.978561 0.150451
#
# Coordination Sequence:
#
# PCOD8028356 Si02
#       8
#     2   2   2   2   2   2   2   2
#     4  12  27  44  71 109 142 187 240 292 349 417
#     4  11  28  47  69 102 147 187 236 293 351 420
#     4  12  24  42  73 100 143 183 232 292 353 416
#     4  11  23  44  73 104 132 188 237 288 349 429
#     4  11  24  45  71 102 142 183 235 289 353 427
#     4  10  25  45  73  99 143 187 236 284 361 425
#     4  12  24  42  68 106 141 178 232 295 355 414
#     4  11  26  44  73  98 141 186 236 286 359 422
#
# _framework density 23.008019999999998
#
# number of rings (size 3 to 8) (size 9 to 14) (size 15 to 20)
#    0.000    0.750    3.750    2.625    7.000    1.000 
#    0.000    0.625    0.000    0.000    0.000    0.000 
#    0.000    0.000    0.000    0.000    0.000    0.000 
#
# Total GULP energy -198258.744634 kJ/mol
# GULP energy per Si atom -12391.171540 kJ/mol
# Density = 2.295565 g / cm^3
# Si number density = 23.008020 Si / 1000 Ang^3
#
#
#
# Elastic Constant Matrix: (Units=GPa)
#
#
# Indices 1 2 3 4 5 6 
#
# 1 125.7047 67.6602 33.7421 5.2884 -23.1342 -16.2512
# 2 67.6602 155.7490 35.9144 -3.8621 -21.3081 -14.9035
# 3 33.7421 35.9144 74.6510 -8.1707 -15.9124 -13.8988
# 4 5.2884 -3.8621 -8.1707 35.6784 -8.3476 -8.3412
# 5 -23.1342 -21.3081 -15.9124 -8.3476 38.7641 2.4881
# 6 -16.2512 -14.9035 -13.8988 -8.3412 2.4881 47.1645
#
#
#
# Elastic Compliance Matrix: (Units=1/GPa)
#
#
# Indices 1 2 3 4 5 6 
#
# 1 0.011613 -0.003894 -0.002556 -0.001591 0.003298 0.001562
# 2 -0.003894 0.008968 -0.001612 0.002008 0.002296 0.001251
# 3 -0.002556 -0.001612 0.018365 0.007044 0.006327 0.004934
# 4 -0.001591 0.002008 0.007044 0.034213 0.009920 0.007689
# 5 0.003298 0.002296 0.006327 0.009920 0.033522 0.003712
# 6 0.001562 0.001251 0.004934 0.007689 0.003712 0.024754
#
#
# Mechanical properties :
#
#
# Convention : Reuss Voigt Hill
#
# Bulk Modulus (GPa) = 43.81929 70.08201 56.95065
# Shear Modulus (GPa) = 32.22340 38.90726 35.56533
#
# Velocity S-wave (km/s) = 3.74642 4.11668 3.93591
# Velocity P-wave (km/s) = 6.14824 7.28848 6.74251
#
# Compressibility (1/GPa) = 0.02282100
#
# Stress axis : x y z
#
# Youngs Moduli (GPa) = 86.10875 111.51157 54.45221
#
# Poissons Ratio (x) = 0.43427 0.13917
# Poissons Ratio (y) = 0.33534 0.08778
# Poissons Ratio (z) = 0.22009 0.17976
#
# Static dielectric constant tensor:
#      x y z
#    x 4.617930 -0.255250 -0.184590 
#    y -0.255250 4.560720 0.205270 
#    z -0.184590 0.205270 4.174570 
# 
# 
# High freq. dielectric constant tensor:
#      x y z
#    x 1.904600 -0.013240 -0.023350 
#    y -0.013240 1.924970 0.009440 
#    z -0.023350 0.009440 1.907390 
# 
# From -- ./inp_files/515202.got.cif
#   From: 2010.06.25/outbox.cif.g09.slc.cpg/sg2_258_cif.got.tgz:515202.got - 2010.06.27 13:26:56.
