data_PCOD8028406
_publ_section_title
;
Structure prediction by ZEFSAII (Michael W. Deem and Ramdas Pophale) SiO2 
 PCOD8028406
Probable space group: P -1
;
_chemical_formula_sum "Si O2"
_cell_formula_units_Z 14
_cell_length_a 9.475334
_cell_length_b 14.437403
_cell_length_c 8.462796
_cell_angle_alpha 38.198881
_cell_angle_beta 120.023935
_cell_angle_gamma 105.379094
_cell_volume 601.873960
_symmetry_space_group_name_H-M "P -1"
_symmetry_group_IT_number 2
_symmetry_cell_setting 'triclinic'
loop_
_space_group_symop_operation_xyz
x,y,z
-x,-y,-z
loop_
_atom_site_type_symbol
_atom_site_label
_atom_site_fract_x
_atom_site_fract_y
_atom_site_fract_z
Si Si1 0.417832 0.088896 0.564633
Si Si2 0.993194 0.444496 0.896004
Si Si3 0.598996 0.345910 0.348883
Si Si4 0.651540 0.510651 0.460699
Si Si5 0.292615 0.164800 0.044936
Si Si6 0.955986 0.248168 0.567551
Si Si7 0.907417 0.884294 0.518786
O O1 0.461964 0.247507 0.426498
O O2 0.324145 0.105501 0.320206
O O3 0.293123 0.042118 0.689600
O O4 0.586615 0.955058 0.841736
O O5 0.802906 0.453917 0.738710
O O6 0.065104 0.566476 0.670800
O O7 0.000000 0.500000 0.000000
O O8 0.087962 0.266660 0.165235
O O9 0.665968 0.385848 0.499632
O O10 0.764381 0.236171 0.502677
O O11 0.500000 0.500000 0.000000
O O12 0.500000 0.500000 0.500000
O O13 0.652011 0.675562 0.163697
O O14 0.097841 0.170882 0.879485
O O15 0.016426 0.170538 0.536296
O O16 0.000000 0.000000 0.500000
#
# Coordination Sequence:
#
# PCOD8028406 Si02
#       7
#     2   2   2   2   2   2   2
#     4  11  26  45  72  99 145 184 227 294 347 419
#     4   9  22  42  68  96 134 177 226 283 336 401
#     4  12  26  44  72 104 142 182 233 287 355 411
#     4  11  26  42  73 102 136 182 237 287 339 419
#     4  10  25  47  68 101 142 182 234 286 354 409
#     4  10  25  46  69 100 140 181 233 288 343 421
#     4  11  26  42  72 100 139 184 233 282 348 412
#
# _framework density 23.260684000000001
#
# number of rings (size 3 to 8) (size 9 to 14) (size 15 to 20)
#    0.000    1.429    1.429    0.857   18.000    3.429 
#    0.000    0.000    0.000    0.000    0.000    0.000 
#    0.000    0.000    0.000    0.000    0.000    0.000 
#
# Total GULP energy -173496.799450 kJ/mol
# GULP energy per Si atom -12392.628532 kJ/mol
# Density = 2.320774 g / cm^3
# Si number density = 23.260684 Si / 1000 Ang^3
#
#
#
# Elastic Constant Matrix: (Units=GPa)
#
#
# Indices 1 2 3 4 5 6 
#
# 1 134.3631 42.2952 7.9939 4.1356 27.7464 -0.5765
# 2 42.2952 142.1451 30.6905 -0.8564 9.6197 9.3182
# 3 7.9939 30.6905 73.3178 6.1913 21.9217 -2.6385
# 4 4.1356 -0.8564 6.1913 40.1770 3.3953 3.7823
# 5 27.7464 9.6197 21.9217 3.3953 27.9709 -0.0305
# 6 -0.5765 9.3182 -2.6385 3.7823 -0.0305 40.6166
#
#
#
# Elastic Compliance Matrix: (Units=1/GPa)
#
#
# Indices 1 2 3 4 5 6 
#
# 1 0.010948 -0.003380 0.004190 -0.000877 -0.012874 0.001275
# 2 -0.003380 0.008974 -0.004720 0.001181 0.003820 -0.002520
# 3 0.004190 -0.004720 0.021068 -0.002451 -0.018744 0.002725
# 4 -0.000877 0.001181 -0.002451 0.025713 -0.000740 -0.002838
# 5 -0.012874 0.003820 -0.018744 -0.000740 0.061987 -0.002161
# 6 0.001275 -0.002520 0.002725 -0.002838 -0.002161 0.025656
#
#
# Mechanical properties :
#
#
# Convention : Reuss Voigt Hill
#
# Bulk Modulus (GPa) = 30.14795 56.86502 43.50648
# Shear Modulus (GPa) = 28.86465 39.67600 34.27032
#
# Velocity S-wave (km/s) = 3.52649 4.13451 3.84254
# Velocity P-wave (km/s) = 5.43788 6.87692 6.19930
#
# Compressibility (1/GPa) = 0.03316975
#
# Stress axis : x y z
#
# Youngs Moduli (GPa) = 91.33934 111.43561 47.46559
#
# Poissons Ratio (x) = 0.37665 -0.19890
# Poissons Ratio (y) = 0.30872 0.22406
# Poissons Ratio (z) = -0.38275 0.52603
#
# Static dielectric constant tensor:
#      x y z
#    x 4.426180 0.402650 -0.454910 
#    y 0.402650 4.866340 -0.896260 
#    z -0.454910 -0.896260 5.827520 
# 
# 
# High freq. dielectric constant tensor:
#      x y z
#    x 1.922610 0.007830 0.015970 
#    y 0.007830 1.933390 -0.004500 
#    z 0.015970 -0.004500 1.920370 
# 
# From -- ./inp_files/178290.got.cif
#   From: 2010.06.25/outbox.cif.g09.slc.cpg/sg2_90_cif.got.tgz:178290.got - 2010.06.27 13:26:56.
