data_PCOD8028735
_publ_section_title
;
Structure prediction by ZEFSAII (Michael W. Deem and Ramdas Pophale) SiO2 
 PCOD8028735
Probable space group: P -1
;
_chemical_formula_sum "Si O2"
_cell_formula_units_Z 16
_cell_length_a 13.889735
_cell_length_b 11.729819
_cell_length_c 6.287838
_cell_angle_alpha 84.498229
_cell_angle_beta 98.991512
_cell_angle_gamma 48.039247
_cell_volume 723.873680
_symmetry_space_group_name_H-M "P -1"
_symmetry_group_IT_number 2
_symmetry_cell_setting 'triclinic'
loop_
_space_group_symop_operation_xyz
x,y,z
-x,-y,-z
loop_
_atom_site_type_symbol
_atom_site_label
_atom_site_fract_x
_atom_site_fract_y
_atom_site_fract_z
Si Si1 0.426622 0.994253 0.172582
Si Si2 0.342872 0.660176 0.919890
Si Si3 0.230286 0.949020 0.084779
Si Si4 0.111211 0.502973 0.566295
Si Si5 0.781424 0.474966 0.997814
Si Si6 0.043253 0.764699 0.244701
Si Si7 0.851229 0.112697 0.542820
Si Si8 0.646298 0.741684 0.605180
O O1 0.358149 0.140798 0.277806
O O2 0.312232 0.999021 0.058182
O O3 0.525996 0.833773 0.376733
O O4 0.500000 0.000000 0.000000
O O5 0.280860 0.776426 0.673508
O O6 0.500000 0.500000 0.000000
O O7 0.319758 0.764015 0.092241
O O8 0.260443 0.609844 0.899236
O O9 0.171885 0.981349 0.300046
O O10 0.104520 0.058975 0.859846
O O11 0.045322 0.680254 0.464095
O O12 0.217437 0.371119 0.458021
O O13 0.000000 0.500000 0.500000
O O14 0.179484 0.458982 0.829742
O O15 0.914993 0.343541 0.926507
O O16 0.653303 0.626670 0.787390
O O17 0.152670 0.775987 0.317403
O O18 0.000000 0.000000 0.500000
#
# Coordination Sequence:
#
# PCOD8028735 Si02
#       8
#     2   2   2   2   2   2   2   2
#     4  11  27  48  73  99 145 191 242 304 348 425
#     4  12  28  43  73 106 148 190 238 290 364 435
#     4  12  28  44  74 108 138 189 249 288 360 437
#     4  11  26  42  72 104 141 184 239 293 368 429
#     4  11  24  46  70 101 147 184 231 304 359 426
#     4  11  24  43  70 101 139 186 237 301 355 423
#     4  12  24  47  71 105 144 186 234 301 360 426
#     4  10  26  46  70 100 140 186 239 292 368 415
#
# _framework density 22.103303
#
# number of rings (size 3 to 8) (size 9 to 14) (size 15 to 20)
#    0.000    0.750    3.750    1.875   10.500    2.500 
#    0.000    0.000    0.000    0.000    0.000    0.000 
#    0.000    0.000    0.000    0.000    0.000    0.000 
#
# Total GULP energy -198318.024780 kJ/mol
# GULP energy per Si atom -12394.876549 kJ/mol
# Density = 2.205299 g / cm^3
# Si number density = 22.103303 Si / 1000 Ang^3
#
#
#
# Elastic Constant Matrix: (Units=GPa)
#
#
# Indices 1 2 3 4 5 6 
#
# 1 104.1829 18.7203 34.8066 6.7827 0.5089 7.9606
# 2 18.7203 100.8577 35.0640 -11.5134 -1.9109 -14.5412
# 3 34.8066 35.0640 117.1922 -8.5146 -0.9985 -7.0073
# 4 6.7827 -11.5134 -8.5146 40.2892 1.5673 4.9949
# 5 0.5089 -1.9109 -0.9985 1.5673 32.7495 0.2070
# 6 7.9606 -14.5412 -7.0073 4.9949 0.2070 32.2437
#
#
#
# Elastic Compliance Matrix: (Units=1/GPa)
#
#
# Indices 1 2 3 4 5 6 
#
# 1 0.011516 -0.001877 -0.003293 -0.002667 -0.000236 -0.003990
# 2 -0.001877 0.012194 -0.002598 0.002613 0.000505 0.004990
# 3 -0.003293 -0.002598 0.010521 0.001827 0.000122 0.001644
# 4 -0.002667 0.002613 0.001827 0.026676 -0.001015 -0.001892
# 5 -0.000236 0.000505 0.000122 -0.001015 0.030619 0.000273
# 6 -0.003990 0.004990 0.001644 -0.001892 0.000273 0.034898
#
#
# Mechanical properties :
#
#
# Convention : Reuss Voigt Hill
#
# Bulk Modulus (GPa) = 53.49469 55.49051 54.49260
# Shear Modulus (GPa) = 33.74027 36.63261 35.18644
#
# Velocity S-wave (km/s) = 3.91126 4.07546 3.99420
# Velocity P-wave (km/s) = 6.68221 6.87789 6.78076
#
# Compressibility (1/GPa) = 0.01869345
#
# Stress axis : x y z
#
# Youngs Moduli (GPa) = 86.83862 82.00755 95.05211
#
# Poissons Ratio (x) = 0.15391 0.31301
# Poissons Ratio (y) = 0.16298 0.24699
# Poissons Ratio (z) = 0.28596 0.21310
#
# Static dielectric constant tensor:
#      x y z
#    x 3.820960 0.001710 -0.183020 
#    y 0.001710 4.373360 -0.288990 
#    z -0.183020 -0.288990 4.254810 
# 
# 
# High freq. dielectric constant tensor:
#      x y z
#    x 1.852520 0.004970 -0.004470 
#    y 0.004970 1.885050 -0.002610 
#    z -0.004470 -0.002610 1.883130 
# 
# From -- ./inp_files/70838.got.cif
#   From: 2010.06.25/outbox.cif.g09.slc.cpg/sg2_36_cif.got.tgz:70838.got - 2010.06.27 13:26:56.
