data_PCOD8028032
_publ_section_title
;
Structure prediction by ZEFSAII (Michael W. Deem and Ramdas Pophale) SiO2 
 PCOD8028032
Probable space group: P -1
;
_chemical_formula_sum "Si O2"
_cell_formula_units_Z 16
_cell_length_a 12.455477
_cell_length_b 11.708237
_cell_length_c 15.192520
_cell_angle_alpha 80.303472
_cell_angle_beta 28.564744
_cell_angle_gamma 60.148470
_cell_volume 699.793506
_symmetry_space_group_name_H-M "P -1"
_symmetry_group_IT_number 2
_symmetry_cell_setting 'triclinic'
loop_
_space_group_symop_operation_xyz
x,y,z
-x,-y,-z
loop_
_atom_site_type_symbol
_atom_site_label
_atom_site_fract_x
_atom_site_fract_y
_atom_site_fract_z
Si Si1 0.446981 0.090366 0.157940
Si Si2 0.216143 0.121970 0.570153
Si Si3 0.255103 0.654790 0.971138
Si Si4 0.643795 0.774782 0.977303
Si Si5 0.804265 0.470471 0.266935
Si Si6 0.773427 0.279990 0.709457
Si Si7 0.658600 0.133363 0.172600
Si Si8 0.208410 0.280561 0.832532
O O1 0.670893 0.057756 0.080599
O O2 0.075456 0.198950 0.439898
O O3 0.626341 0.907854 0.016106
O O4 0.401114 0.201546 0.098726
O O5 0.368193 0.190745 0.434356
O O6 0.083430 0.169693 0.759058
O O7 0.891374 0.223797 0.731808
O O8 0.491414 0.921064 0.376066
O O9 0.134650 0.622036 0.981838
O O10 0.493618 0.487466 0.882350
O O11 0.448085 0.693828 0.791714
O O12 0.368517 0.789941 0.210384
O O13 0.009946 0.584093 0.765639
O O14 0.500000 0.500000 0.500000
O O15 0.663932 0.643180 0.303359
O O16 0.103296 0.313457 0.006207
O O17 0.000000 0.000000 0.000000
#
# Coordination Sequence:
#
# PCOD8028032 Si02
#       8
#     2   2   2   2   2   2   2   2
#     4  10  25  42  68 103 133 181 232 281 345 412
#     4  11  25  45  70 101 136 187 228 283 348 409
#     4  12  25  43  69 100 139 180 229 281 339 417
#     4  11  23  45  69  99 136 180 231 284 346 414
#     4  11  26  43  71  99 139 182 229 292 349 405
#     4  11  24  44  69  98 138 178 227 287 343 405
#     4  11  24  43  69  98 139 178 231 282 339 408
#     4  11  25  45  66 104 137 177 237 277 346 418
#
# _framework density 22.863887999999999
#
# number of rings (size 3 to 8) (size 9 to 14) (size 15 to 20)
#    0.000    1.000    2.500    3.375    1.750    8.000 
#    0.000    0.000    0.000    0.000    0.000    0.000 
#    0.000    0.000    0.000    0.000    0.000    0.000 
#
# Total GULP energy -198386.383976 kJ/mol
# GULP energy per Si atom -12399.148999 kJ/mol
# Density = 2.281185 g / cm^3
# Si number density = 22.863888 Si / 1000 Ang^3
#
#
#
# Elastic Constant Matrix: (Units=GPa)
#
#
# Indices 1 2 3 4 5 6 
#
# 1 115.5838 41.6446 32.6631 -7.8507 -25.8104 -12.3034
# 2 41.6446 122.0426 44.8587 -28.1801 -8.9543 -11.6062
# 3 32.6631 44.8587 87.4360 -21.4779 -13.4166 -5.5586
# 4 -7.8507 -28.1801 -21.4779 35.7403 2.4328 -12.2393
# 5 -25.8104 -8.9543 -13.4166 2.4328 42.8310 -2.8285
# 6 -12.3034 -11.6062 -5.5586 -12.2393 -2.8285 31.1821
#
#
#
# Elastic Compliance Matrix: (Units=1/GPa)
#
#
# Indices 1 2 3 4 5 6 
#
# 1 0.011959 -0.002354 -0.001816 0.000749 0.006393 0.004393
# 2 -0.002354 0.013320 -0.002664 0.011074 0.000427 0.007940
# 3 -0.001816 -0.002664 0.016506 0.008918 0.003346 0.005038
# 4 0.000749 0.011074 0.008918 0.050982 0.004409 0.026418
# 5 0.006393 0.000427 0.003346 0.004409 0.028589 0.007602
# 6 0.004393 0.007940 0.005038 0.026418 0.007602 0.048715
#
#
# Mechanical properties :
#
#
# Convention : Reuss Voigt Hill
#
# Bulk Modulus (GPa) = 35.56341 62.59946 49.08143
# Shear Modulus (GPa) = 25.89207 35.67707 30.78457
#
# Velocity S-wave (km/s) = 3.36883 3.95449 3.67335
# Velocity P-wave (km/s) = 5.54258 6.94905 6.28528
#
# Compressibility (1/GPa) = 0.02811879
#
# Stress axis : x y z
#
# Youngs Moduli (GPa) = 83.61930 75.07779 60.58373
#
# Poissons Ratio (x) = 0.17670 0.11000
# Poissons Ratio (y) = 0.19680 0.16138
# Poissons Ratio (z) = 0.15182 0.19999
#
# Static dielectric constant tensor:
#      x y z
#    x 4.325290 -0.113020 -0.119180 
#    y -0.113020 4.300170 -0.213910 
#    z -0.119180 -0.213910 3.875890 
# 
# 
# High freq. dielectric constant tensor:
#      x y z
#    x 1.912960 -0.010300 -0.012030 
#    y -0.010300 1.919210 -0.013920 
#    z -0.012030 -0.013920 1.888800 
# 
# From -- ./inp_files/519666.got.cif
#   From: 2010.06.25/outbox.cif.g09.slc.cpg/sg2_260_cif.got.tgz:519666.got - 2010.06.27 13:26:56.
