data_PCOD8028374
_publ_section_title
;
Structure prediction by ZEFSAII (Michael W. Deem and Ramdas Pophale) SiO2 
 PCOD8028374
Probable space group: P -1
;
_chemical_formula_sum "Si O2"
_cell_formula_units_Z 12
_cell_length_a 15.331658
_cell_length_b 18.764078
_cell_length_c 9.418090
_cell_angle_alpha 34.035407
_cell_angle_beta 141.703937
_cell_angle_gamma 159.677642
_cell_volume 526.263628
_symmetry_space_group_name_H-M "P -1"
_symmetry_group_IT_number 2
_symmetry_cell_setting 'triclinic'
loop_
_space_group_symop_operation_xyz
x,y,z
-x,-y,-z
loop_
_atom_site_type_symbol
_atom_site_label
_atom_site_fract_x
_atom_site_fract_y
_atom_site_fract_z
Si Si1 0.786229 0.615071 0.174951
Si Si2 0.587627 0.193609 0.631355
Si Si3 0.498861 0.494683 0.755811
Si Si4 0.109998 0.693085 0.916291
Si Si5 0.567799 0.364614 0.809549
Si Si6 0.680715 0.075982 0.718123
O O1 0.599044 0.353498 0.360285
O O2 0.731127 0.656766 0.177321
O O3 0.071301 0.786121 0.270535
O O4 0.742265 0.660481 0.896639
O O5 0.748828 0.239272 0.643960
O O6 0.294225 0.931691 0.679718
O O7 0.720450 0.256974 0.841059
O O8 0.456182 0.341286 0.851132
O O9 0.528098 0.636021 0.453736
O O10 0.871587 0.593651 0.835871
O O11 0.000000 0.500000 0.000000
O O12 0.461378 0.143622 0.019188
O O13 0.500000 0.000000 0.500000
#
# Coordination Sequence:
#
# PCOD8028374 Si02
#       6
#     2   2   2   2   2   2
#     4  11  24  46  65 100 142 175 235 278 342 411
#     4  11  24  41  71 105 133 178 220 291 354 392
#     4  10  25  46  65  94 138 193 227 275 329 412
#     4  11  22  42  71 104 137 171 229 289 343 407
#     4  11  23  45  68 100 134 184 235 272 342 411
#     4  12  25  41  73 104 139 177 223 296 353 397
#
# _framework density 22.80226
#
# number of rings (size 3 to 8) (size 9 to 14) (size 15 to 20)
#    0.000    1.000    1.667    4.500    4.667    1.333 
#   12.000    0.000    0.000    0.000    0.000    0.000 
#    0.000    0.000    0.000    0.000    0.000    0.000 
#
# Total GULP energy -148776.502300 kJ/mol
# GULP energy per Si atom -12398.041858 kJ/mol
# Density = 2.275036 g / cm^3
# Si number density = 22.802260 Si / 1000 Ang^3
#
#
#
# Elastic Constant Matrix: (Units=GPa)
#
#
# Indices 1 2 3 4 5 6 
#
# 1 144.9814 46.2315 39.9296 19.4240 -5.0767 8.0303
# 2 46.2315 125.3006 45.8491 4.0264 3.4477 16.4626
# 3 39.9296 45.8491 122.0801 7.6328 -4.3621 0.2657
# 4 19.4240 4.0264 7.6328 28.7279 -3.1056 0.0378
# 5 -5.0767 3.4477 -4.3621 -3.1056 37.5952 9.7894
# 6 8.0303 16.4626 0.2657 0.0378 9.7894 37.2840
#
#
#
# Elastic Compliance Matrix: (Units=1/GPa)
#
#
# Indices 1 2 3 4 5 6 
#
# 1 0.008905 -0.002399 -0.001649 -0.005126 0.001102 -0.001131
# 2 -0.002399 0.010564 -0.003253 0.000951 -0.000555 -0.003980
# 3 -0.001649 -0.003253 0.010040 -0.001016 0.000760 0.001522
# 4 -0.005126 0.000951 -0.001016 0.038658 0.002282 0.000053
# 5 0.001102 -0.000555 0.000760 0.002282 0.029063 -0.007631
# 6 -0.001131 -0.003980 0.001522 0.000053 -0.007631 0.030815
#
#
# Mechanical properties :
#
#
# Convention : Reuss Voigt Hill
#
# Bulk Modulus (GPa) = 67.09014 72.93140 70.01077
# Shear Modulus (GPa) = 33.87159 38.07820 35.97489
#
# Velocity S-wave (km/s) = 3.85833 4.09091 3.97632
# Velocity P-wave (km/s) = 7.02392 7.37345 7.20081
#
# Compressibility (1/GPa) = 0.01490532
#
# Stress axis : x y z
#
# Youngs Moduli (GPa) = 112.30137 94.66054 99.60111
#
# Poissons Ratio (x) = 0.22710 0.16426
# Poissons Ratio (y) = 0.26942 0.32405
# Poissons Ratio (z) = 0.18521 0.30798
#
# Static dielectric constant tensor:
#      x y z
#    x 4.380930 0.246750 0.094170 
#    y 0.246750 4.051130 0.025140 
#    z 0.094170 0.025140 4.305030 
# 
# 
# High freq. dielectric constant tensor:
#      x y z
#    x 1.918790 0.000620 0.003090 
#    y 0.000620 1.881840 0.011670 
#    z 0.003090 0.011670 1.910170 
# 
# From -- ./inp_files/20871.got.cif
#   From: 2010.06.25/outbox.cif.g09.slc.cpg/sg2_11_cif.got.tgz:20871.got - 2010.06.27 13:26:56.
