data_PCOD8028955
_publ_section_title
;
Structure prediction by ZEFSAII (Michael W. Deem and Ramdas Pophale) SiO2 
 PCOD8028955
Probable space group: P -1
;
_chemical_formula_sum "Si O2"
_cell_formula_units_Z 16
_cell_length_a 9.788558
_cell_length_b 8.941013
_cell_length_c 14.531220
_cell_angle_alpha 67.319384
_cell_angle_beta 78.936406
_cell_angle_gamma 41.765179
_cell_volume 772.054350
_symmetry_space_group_name_H-M "P -1"
_symmetry_group_IT_number 2
_symmetry_cell_setting 'triclinic'
loop_
_space_group_symop_operation_xyz
x,y,z
-x,-y,-z
loop_
_atom_site_type_symbol
_atom_site_label
_atom_site_fract_x
_atom_site_fract_y
_atom_site_fract_z
Si Si1 0.747857 0.392823 0.146982
Si Si2 0.609349 0.054127 0.923284
Si Si3 0.822403 0.907807 0.745765
Si Si4 0.627926 0.415272 0.595193
Si Si5 0.387595 0.793733 0.697094
Si Si6 0.031825 0.633434 0.026861
Si Si7 0.196944 0.398251 0.259321
Si Si8 0.009737 0.659808 0.408786
O O1 0.537475 0.665754 0.136063
O O2 0.708247 0.236215 0.202968
O O3 0.936529 0.286476 0.212499
O O4 0.799760 0.391434 0.034840
O O5 0.688427 0.942002 0.837168
O O6 0.500000 0.000000 0.000000
O O7 0.812795 0.919587 0.989950
O O8 0.804490 0.797031 0.689608
O O9 0.736550 0.155593 0.671459
O O10 0.500000 0.500000 0.500000
O O11 0.471106 0.608292 0.648619
O O12 0.806349 0.393008 0.558227
O O13 0.567601 0.746612 0.728334
O O14 0.210210 0.062770 0.615867
O O15 0.098407 0.538968 0.143164
O O16 0.000000 0.500000 0.000000
O O17 0.054049 0.594209 0.311027
O O18 0.000000 0.500000 0.500000
#
# Coordination Sequence:
#
# PCOD8028955 Si02
#       8
#     2   2   2   2   2   2   2   2
#     4  11  21  40  67  94 135 176 219 271 324 403
#     4  11  19  35  66  96 135 171 221 269 324 384
#     4  11  22  41  68 102 131 172 227 277 327 398
#     4  11  26  45  73 100 130 170 231 288 335 397
#     4  11  26  46  67  98 139 177 218 272 352 400
#     4  11  21  39  62 101 137 171 226 277 317 395
#     4  11  25  43  68  99 140 177 220 279 337 394
#     4  11  28  49  67  97 139 178 221 280 344 406
#
# _framework density 20.723928999999998
#
# number of rings (size 3 to 8) (size 9 to 14) (size 15 to 20)
#    0.000    1.000    6.250    0.000    3.500    6.000 
#    0.000    1.250    0.000    0.000    0.000    0.000 
#    0.000    0.000    0.000    0.000    0.000    0.000 
#
# Total GULP energy -198404.974974 kJ/mol
# GULP energy per Si atom -12400.310936 kJ/mol
# Density = 2.067676 g / cm^3
# Si number density = 20.723929 Si / 1000 Ang^3
#
#
#
# Elastic Constant Matrix: (Units=GPa)
#
#
# Indices 1 2 3 4 5 6 
#
# 1 127.5588 54.9808 61.6964 -4.1551 -2.0195 1.5369
# 2 54.9808 134.1391 46.9478 -29.0225 9.0907 -8.2433
# 3 61.6964 46.9478 118.5124 -16.8498 5.8394 0.4063
# 4 -4.1551 -29.0225 -16.8498 30.5636 3.8518 -4.8146
# 5 -2.0195 9.0907 5.8394 3.8518 41.2200 -2.4629
# 6 1.5369 -8.2433 0.4063 -4.8146 -2.4629 32.8055
#
#
#
# Elastic Compliance Matrix: (Units=1/GPa)
#
#
# Indices 1 2 3 4 5 6 
#
# 1 0.012638 -0.005070 -0.005713 -0.007040 0.003049 -0.002600
# 2 -0.005070 0.013053 -0.000549 0.012700 -0.003932 0.005093
# 3 -0.005713 -0.000549 0.012613 0.006074 -0.002473 0.000679
# 4 -0.007040 0.012700 0.006074 0.049783 -0.008052 0.010148
# 5 0.003049 -0.003932 -0.002473 -0.008052 0.026361 -0.000303
# 6 -0.002600 0.005093 0.000679 0.010148 -0.000303 0.033342
#
#
# Mechanical properties :
#
#
# Convention : Reuss Voigt Hill
#
# Bulk Modulus (GPa) = 63.94446 78.60669 71.27558
# Shear Modulus (GPa) = 28.46270 35.35686 31.90978
#
# Velocity S-wave (km/s) = 3.70999 4.13496 3.92823
# Velocity P-wave (km/s) = 7.01957 7.79807 7.41904
#
# Compressibility (1/GPa) = 0.01563857
#
# Stress axis : x y z
#
# Youngs Moduli (GPa) = 79.12343 76.61314 79.28461
#
# Poissons Ratio (x) = 0.38845 0.45297
# Poissons Ratio (y) = 0.40117 0.04355
# Poissons Ratio (z) = 0.45205 0.04208
#
# Static dielectric constant tensor:
#      x y z
#    x 3.925220 -0.083560 -0.021600 
#    y -0.083560 4.148040 -0.074230 
#    z -0.021600 -0.074230 4.017560 
# 
# 
# High freq. dielectric constant tensor:
#      x y z
#    x 1.809490 -0.012560 -0.013620 
#    y -0.012560 1.824790 -0.014180 
#    z -0.013620 -0.014180 1.812510 
# 
# From -- ./inp_files/208080.got.cif
#   From: 2010.06.25/outbox.cif.g09.slc.cpg/sg2_105_cif.got.tgz:208080.got - 2010.06.27 13:26:56.
