data_PCOD8028900
_publ_section_title
;
Structure prediction by ZEFSAII (Michael W. Deem and Ramdas Pophale) SiO2 
 PCOD8028900
Probable space group: P -1
;
_chemical_formula_sum "Si O2"
_cell_formula_units_Z 16
_cell_length_a 11.176240
_cell_length_b 26.946219
_cell_length_c 18.098718
_cell_angle_alpha 21.763261
_cell_angle_beta 148.737949
_cell_angle_gamma 158.950302
_cell_volume 722.942029
_symmetry_space_group_name_H-M "P -1"
_symmetry_group_IT_number 2
_symmetry_cell_setting 'triclinic'
loop_
_space_group_symop_operation_xyz
x,y,z
-x,-y,-z
loop_
_atom_site_type_symbol
_atom_site_label
_atom_site_fract_x
_atom_site_fract_y
_atom_site_fract_z
Si Si1 0.208730 0.815567 0.289880
Si Si2 0.921024 0.097778 0.521770
Si Si3 0.809831 0.496596 0.627846
Si Si4 0.102680 0.068484 0.875655
Si Si5 0.669639 0.976780 0.179733
Si Si6 0.884458 0.650465 0.008898
Si Si7 0.846542 0.071310 0.354363
Si Si8 0.837096 0.196917 0.482804
O O1 0.858766 0.612216 0.420189
O O2 0.401507 0.818796 0.320685
O O3 0.440903 0.899314 0.371339
O O4 0.164616 0.944047 0.051557
O O5 0.997785 0.165930 0.383345
O O6 0.989241 0.244832 0.413452
O O7 0.528583 0.892253 0.597573
O O8 0.175390 0.085277 0.695054
O O9 0.427263 0.298935 0.715142
O O10 0.023624 0.459248 0.766808
O O11 0.934982 0.612015 0.611270
O O12 0.815913 0.034132 0.729952
O O13 0.000000 0.000000 0.000000
O O14 0.990978 0.187973 0.090267
O O15 0.500000 0.000000 0.000000
O O16 0.500000 0.500000 0.000000
O O17 0.063855 0.757274 0.879199
O O18 0.000000 0.000000 0.500000
#
# Coordination Sequence:
#
# PCOD8028900 Si02
#       8
#     2   2   2   2   2   2   2   2
#     4  11  22  41  70 102 129 183 226 287 345 404
#     4  11  22  41  68  95 138 180 223 276 351 409
#     4  12  23  42  68 103 134 171 238 276 338 414
#     4  12  23  43  67  98 136 178 233 276 335 411
#     4  11  23  44  70 102 142 180 224 291 357 404
#     4  11  23  38  70 104 135 172 231 289 336 414
#     4  11  18  39  67  95 129 172 227 274 338 406
#     4  11  25  40  66  97 136 184 220 283 339 409
#
# _framework density 22.131788
#
# number of rings (size 3 to 8) (size 9 to 14) (size 15 to 20)
#    0.000    0.750    7.500    2.625    0.000    0.000 
#    0.000    2.500    2.750    0.000    0.000    0.000 
#    0.000    0.000    0.000    0.000    0.000    0.000 
#
# Total GULP energy -198213.904970 kJ/mol
# GULP energy per Si atom -12388.369061 kJ/mol
# Density = 2.208141 g / cm^3
# Si number density = 22.131788 Si / 1000 Ang^3
#
#
#
# Elastic Constant Matrix: (Units=GPa)
#
#
# Indices 1 2 3 4 5 6 
#
# 1 100.9585 23.9668 16.9751 -10.6121 -1.1492 6.4760
# 2 23.9668 75.8355 23.9895 0.9597 -15.3123 20.2210
# 3 16.9751 23.9895 73.4712 -7.4844 -11.5595 11.1320
# 4 -10.6121 0.9597 -7.4844 41.0546 1.9752 0.6975
# 5 -1.1492 -15.3123 -11.5595 1.9752 34.3060 8.7403
# 6 6.4760 20.2210 11.1320 0.6975 8.7403 31.2125
#
#
#
# Elastic Compliance Matrix: (Units=1/GPa)
#
#
# Indices 1 2 3 4 5 6 
#
# 1 0.011298 -0.003974 -0.001635 0.002810 -0.002476 0.001444
# 2 -0.003974 0.022245 -0.001930 -0.002267 0.013513 -0.016632
# 3 -0.001635 -0.001930 0.016779 0.002490 0.006168 -0.006177
# 4 0.002810 -0.002267 0.002490 0.025667 -0.001518 -0.000151
# 5 -0.002476 0.013513 0.006168 -0.001518 0.042982 -0.022443
# 6 0.001444 -0.016632 -0.006177 -0.000151 -0.022443 0.051005
#
#
# Mechanical properties :
#
#
# Convention : Reuss Voigt Hill
#
# Bulk Modulus (GPa) = 28.37362 42.23643 35.30503
# Shear Modulus (GPa) = 25.40657 33.67022 29.53839
#
# Velocity S-wave (km/s) = 3.39184 3.90468 3.65726
# Velocity P-wave (km/s) = 5.30920 6.28126 5.81557
#
# Compressibility (1/GPa) = 0.03524400
#
# Stress axis : x y z
#
# Youngs Moduli (GPa) = 88.51240 44.95433 59.59953
#
# Poissons Ratio (x) = 0.17864 0.09744
# Poissons Ratio (y) = 0.35173 0.11502
# Poissons Ratio (z) = 0.14470 0.08676
#
# Static dielectric constant tensor:
#      x y z
#    x 3.899290 0.005910 0.048110 
#    y 0.005910 3.973640 0.494800 
#    z 0.048110 0.494800 4.155850 
# 
# 
# High freq. dielectric constant tensor:
#      x y z
#    x 1.885310 0.017090 0.000330 
#    y 0.017090 1.863250 0.028720 
#    z 0.000330 0.028720 1.855810 
# 
# From -- ./inp_files/596470.got.cif
#   From: 2010.06.25/outbox.cif.g09.slc.cpg/sg2_299_cif.got.tgz:596470.got - 2010.06.27 13:26:56.
