data_PCOD8028809
_publ_section_title
;
Structure prediction by ZEFSAII (Michael W. Deem and Ramdas Pophale) SiO2 
 PCOD8028809
Probable space group: P -1
;
_chemical_formula_sum "Si O2"
_cell_formula_units_Z 14
_cell_length_a 21.823078
_cell_length_b 9.298991
_cell_length_c 5.046519
_cell_angle_alpha 96.931289
_cell_angle_beta 80.191879
_cell_angle_gamma 39.919788
_cell_volume 594.229088
_symmetry_space_group_name_H-M "P -1"
_symmetry_group_IT_number 2
_symmetry_cell_setting 'triclinic'
loop_
_space_group_symop_operation_xyz
x,y,z
-x,-y,-z
loop_
_atom_site_type_symbol
_atom_site_label
_atom_site_fract_x
_atom_site_fract_y
_atom_site_fract_z
Si Si1 0.057019 0.255384 0.016615
Si Si2 0.851856 0.468742 0.222569
Si Si3 0.875791 0.246405 0.650912
Si Si4 0.534229 0.101171 0.034032
Si Si5 0.406601 0.608493 0.259490
Si Si6 0.354879 0.994880 0.583297
Si Si7 0.183694 0.957666 0.342834
O O1 0.138962 0.046640 0.692670
O O2 0.000000 0.500000 0.000000
O O3 0.969146 0.301920 0.158320
O O4 0.117219 0.177186 0.229374
O O5 0.829163 0.385379 0.433931
O O6 0.765959 0.758699 0.365615
O O7 0.842595 0.428072 0.925587
O O8 0.821102 0.200900 0.773093
O O9 0.000000 0.000000 0.500000
O O10 0.440001 0.383529 0.276115
O O11 0.625794 0.949702 0.150541
O O12 0.570336 0.083647 0.716622
O O13 0.500000 0.000000 0.000000
O O14 0.380198 0.774517 0.551906
O O15 0.301944 0.792583 0.201401
O O16 0.500000 0.500000 0.000000
#
# Coordination Sequence:
#
# PCOD8028809 Si02
#       7
#     2   2   2   2   2   2   2
#     4  12  25  43  67 103 141 183 232 289 345 436
#     4  12  24  42  70 101 146 182 232 290 355 429
#     4  12  23  44  68 101 145 187 231 291 358 421
#     4  11  25  47  71 105 136 180 240 300 351 418
#     4  10  26  49  74 101 144 189 241 298 354 421
#     4  11  25  45  71 101 139 187 232 289 364 415
#     4  12  26  43  70 102 139 186 238 286 359 419
#
# _framework density 23.559937000000001
#
# number of rings (size 3 to 8) (size 9 to 14) (size 15 to 20)
#    0.000    0.571    2.857    4.286    4.000    8.000 
#    0.000    0.000    0.000    0.000    0.000    0.000 
#    0.000    0.000    0.000    0.000    0.000    0.000 
#
# Total GULP energy -173598.832252 kJ/mol
# GULP energy per Si atom -12399.916589 kJ/mol
# Density = 2.350631 g / cm^3
# Si number density = 23.559937 Si / 1000 Ang^3
#
#
#
# Elastic Constant Matrix: (Units=GPa)
#
#
# Indices 1 2 3 4 5 6 
#
# 1 142.1924 47.5144 32.9100 10.4309 3.6443 -8.1944
# 2 47.5144 131.3359 40.5257 6.3317 -2.3439 -0.7147
# 3 32.9100 40.5257 77.4101 0.6837 5.9162 0.3871
# 4 10.4309 6.3317 0.6837 46.7974 -1.0467 4.8766
# 5 3.6443 -2.3439 5.9162 -1.0467 32.6497 6.3480
# 6 -8.1944 -0.7147 0.3871 4.8766 6.3480 45.2978
#
#
#
# Elastic Compliance Matrix: (Units=1/GPa)
#
#
# Indices 1 2 3 4 5 6 
#
# 1 0.008622 -0.002314 -0.002362 -0.001797 -0.001127 0.001895
# 2 -0.002314 0.009839 -0.004297 -0.000670 0.001801 -0.000407
# 3 -0.002362 -0.004297 0.016390 0.000836 -0.002927 -0.000315
# 4 -0.001797 -0.000670 0.000836 0.022179 0.001278 -0.002910
# 5 -0.001127 0.001801 -0.002927 0.001278 0.032393 -0.004827
# 6 0.001895 -0.000407 -0.000315 -0.002910 -0.004827 0.023405
#
#
# Mechanical properties :
#
#
# Convention : Reuss Voigt Hill
#
# Bulk Modulus (GPa) = 59.15052 65.87095 62.51074
# Shear Modulus (GPa) = 36.65426 40.28154 38.46790
#
# Velocity S-wave (km/s) = 3.94863 4.13940 4.04514
# Velocity P-wave (km/s) = 6.77863 7.13202 6.95757
#
# Compressibility (1/GPa) = 0.01690602
#
# Stress axis : x y z
#
# Youngs Moduli (GPa) = 115.97665 101.63342 61.01344
#
# Poissons Ratio (x) = 0.23515 0.14411
# Poissons Ratio (y) = 0.26834 0.26218
# Poissons Ratio (z) = 0.27393 0.43673
#
# Static dielectric constant tensor:
#      x y z
#    x 4.446310 0.100050 0.077440 
#    y 0.100050 4.576140 0.340430 
#    z 0.077440 0.340430 4.161910 
# 
# 
# High freq. dielectric constant tensor:
#      x y z
#    x 1.932220 0.000170 0.006740 
#    y 0.000170 1.944150 0.007390 
#    z 0.006740 0.007390 1.931040 
# 
# From -- ./inp_files/117149.got.cif
#   From: 2010.06.25/outbox.cif.g09.slc.cpg/sg2_59_cif.got.tgz:117149.got - 2010.06.27 13:26:56.
