data_PCOD8028089
_publ_section_title
;
Structure prediction by ZEFSAII (Michael W. Deem and Ramdas Pophale) SiO2 
 PCOD8028089
Probable space group: P -1
;
_chemical_formula_sum "Si O2"
_cell_formula_units_Z 16
_cell_length_a 8.274992
_cell_length_b 12.931731
_cell_length_c 9.126929
_cell_angle_alpha 132.196557
_cell_angle_beta 111.298291
_cell_angle_gamma 80.040003
_cell_volume 670.568284
_symmetry_space_group_name_H-M "P -1"
_symmetry_group_IT_number 2
_symmetry_cell_setting 'triclinic'
loop_
_space_group_symop_operation_xyz
x,y,z
-x,-y,-z
loop_
_atom_site_type_symbol
_atom_site_label
_atom_site_fract_x
_atom_site_fract_y
_atom_site_fract_z
Si Si1 0.622950 0.546243 0.950282
Si Si2 0.085922 0.223477 0.735104
Si Si3 0.688460 0.248555 0.666311
Si Si4 0.927496 0.893349 0.687428
Si Si5 0.618131 0.241686 0.969416
Si Si6 0.987639 0.338413 0.299546
Si Si7 0.421221 0.061935 0.227116
Si Si8 0.191867 0.154134 0.011222
O O1 0.659829 0.403972 0.744968
O O2 0.500000 0.500000 0.000000
O O3 0.807981 0.629209 0.139809
O O4 0.515979 0.649164 0.914950
O O5 0.079044 0.112137 0.495881
O O6 0.195018 0.162106 0.845036
O O7 0.893470 0.241805 0.743791
O O8 0.598054 0.213372 0.760800
O O9 0.605516 0.140544 0.414145
O O10 0.730974 0.889862 0.674518
O O11 0.014285 0.757573 0.646503
O O12 0.039772 0.037188 0.908870
O O13 0.568974 0.102775 0.914022
O O14 0.812115 0.308331 0.122530
O O15 0.000000 0.500000 0.500000
O O16 0.146278 0.300978 0.209506
O O17 0.375469 0.105891 0.086474
#
# Coordination Sequence:
#
# PCOD8028089 Si02
#       8
#     2   2   2   2   2   2   2   2
#     4  10  25  43  68  98 134 176 230 284 338 420
#     4  12  25  44  71 103 138 181 229 290 351 409
#     4  11  24  42  71  99 139 180 232 286 347 407
#     4  11  22  42  71 103 138 189 236 276 340 413
#     4  11  21  43  68 103 137 183 234 282 336 412
#     4  11  23  38  70 104 140 184 234 281 342 409
#     4  11  22  44  71 102 138 183 233 286 336 410
#     4  11  23  45  68 104 143 181 230 292 342 402
#
# _framework density 23.860358000000002
#
# number of rings (size 3 to 8) (size 9 to 14) (size 15 to 20)
#    0.000    1.000    3.750    3.375    7.000    3.000 
#    2.250    1.875    0.000    0.000    0.000    0.000 
#    0.000    0.000    0.000    0.000    0.000    0.000 
#
# Total GULP energy -198426.207304 kJ/mol
# GULP energy per Si atom -12401.637957 kJ/mol
# Density = 2.380605 g / cm^3
# Si number density = 23.860358 Si / 1000 Ang^3
#
#
#
# Elastic Constant Matrix: (Units=GPa)
#
#
# Indices 1 2 3 4 5 6 
#
# 1 49.2087 29.6961 2.5843 -5.1516 18.9710 -3.1751
# 2 29.6961 135.0627 57.9489 4.5805 -0.6787 -29.5084
# 3 2.5843 57.9489 99.5528 -6.8863 18.4411 -0.3785
# 4 -5.1516 4.5805 -6.8863 52.0758 4.5744 1.6204
# 5 18.9710 -0.6787 18.4411 4.5744 40.5850 -0.7176
# 6 -3.1751 -29.5084 -0.3785 1.6204 -0.7176 36.6816
#
#
#
# Elastic Compliance Matrix: (Units=1/GPa)
#
#
# Indices 1 2 3 4 5 6 
#
# 1 0.043627 -0.020402 0.017040 0.011421 -0.030004 -0.013552
# 2 -0.020402 0.023549 -0.017233 -0.008594 0.019043 0.017752
# 3 0.017040 -0.017233 0.023941 0.008555 -0.020324 -0.012916
# 4 0.011421 -0.008594 0.008555 0.023508 -0.012145 -0.007112
# 5 -0.030004 0.019043 -0.020324 -0.012145 0.049835 0.014024
# 6 -0.013552 0.017752 -0.012916 -0.007112 0.014024 0.040825
#
#
# Mechanical properties :
#
#
# Convention : Reuss Voigt Hill
#
# Bulk Modulus (GPa) = 20.02913 51.58698 35.80805
# Shear Modulus (GPa) = 19.00297 38.77480 28.88888
#
# Velocity S-wave (km/s) = 2.82516 4.03559 3.48336
# Velocity P-wave (km/s) = 4.36516 6.58650 5.58733
#
# Compressibility (1/GPa) = 0.04992728
#
# Stress axis : x y z
#
# Youngs Moduli (GPa) = 22.92154 42.46450 41.76931
#
# Poissons Ratio (x) = 0.86636 -0.71173
# Poissons Ratio (y) = 0.46765 0.71979
# Poissons Ratio (z) = -0.39058 0.73177
#
# Static dielectric constant tensor:
#      x y z
#    x 4.229940 -0.257840 0.142040 
#    y -0.257840 4.788910 -0.007900 
#    z 0.142040 -0.007900 4.234620 
# 
# 
# High freq. dielectric constant tensor:
#      x y z
#    x 1.946970 -0.010770 0.008070 
#    y -0.010770 1.955860 0.000110 
#    z 0.008070 0.000110 1.937080 
# 
# From -- ./inp_files/190394.got.cif
#   From: 2010.06.25/outbox.cif.g09.slc.cpg/sg2_96_cif.got.tgz:190394.got - 2010.06.27 13:26:56.
