data_PCOD8028368
_publ_section_title
;
Structure prediction by ZEFSAII (Michael W. Deem and Ramdas Pophale) SiO2 
 PCOD8028368
Probable space group: P -1
;
_chemical_formula_sum "Si O2"
_cell_formula_units_Z 16
_cell_length_a 8.143990
_cell_length_b 9.247764
_cell_length_c 11.975180
_cell_angle_alpha 105.470127
_cell_angle_beta 58.610145
_cell_angle_gamma 118.295436
_cell_volume 677.669282
_symmetry_space_group_name_H-M "P -1"
_symmetry_group_IT_number 2
_symmetry_cell_setting 'triclinic'
loop_
_space_group_symop_operation_xyz
x,y,z
-x,-y,-z
loop_
_atom_site_type_symbol
_atom_site_label
_atom_site_fract_x
_atom_site_fract_y
_atom_site_fract_z
Si Si1 0.466137 0.161738 0.547594
Si Si2 0.533593 0.381334 0.373429
Si Si3 0.101977 0.231999 0.090412
Si Si4 0.997503 0.474917 0.863242
Si Si5 0.793708 0.816159 0.722885
Si Si6 0.238711 0.843405 0.247007
Si Si7 0.099717 0.689851 0.489732
Si Si8 0.704056 0.908317 0.180663
O O1 0.443152 0.207732 0.437506
O O2 0.674751 0.297767 0.551445
O O3 0.289186 0.139972 0.700074
O O4 0.500000 0.000000 0.500000
O O5 0.500000 0.500000 0.500000
O O6 0.384214 0.337719 0.309297
O O7 0.770904 0.463055 0.261291
O O8 0.107796 0.413085 0.132878
O O9 0.240089 0.207792 0.137589
O O10 0.214875 0.214574 0.934159
O O11 0.860824 0.097835 0.147238
O O12 0.846290 0.283480 0.853022
O O13 0.000000 0.500000 0.000000
O O14 0.014751 0.801129 0.617738
O O15 0.794797 0.991700 0.729706
O O16 0.085024 0.746016 0.381123
O O17 0.479775 0.888205 0.205373
O O18 0.000000 0.500000 0.500000
#
# Coordination Sequence:
#
# PCOD8028368 Si02
#       8
#     2   2   2   2   2   2   2   2
#     4  11  22  42  71  98 139 182 244 290 361 424
#     4  12  27  46  73 109 148 187 239 304 364 430
#     4  11  26  48  71 102 147 192 249 295 380 438
#     4  12  29  48  71 106 152 194 242 306 370 436
#     4  12  25  43  74 105 145 191 243 299 369 438
#     4  11  25  44  70 108 142 187 250 300 365 434
#     4  11  22  42  68 102 141 188 233 300 360 429
#     4  10  25  45  76 101 140 197 247 306 361 443
#
# _framework density 23.610334999999999
#
# number of rings (size 3 to 8) (size 9 to 14) (size 15 to 20)
#    0.000    0.750    0.000    7.875    7.000    4.000 
#    0.000    0.000    0.000    0.000    0.000    0.000 
#    0.000    0.000    0.000    0.000    0.000    0.000 
#
# Total GULP energy -198272.283111 kJ/mol
# GULP energy per Si atom -12392.017694 kJ/mol
# Density = 2.355660 g / cm^3
# Si number density = 23.610335 Si / 1000 Ang^3
#
#
#
# Elastic Constant Matrix: (Units=GPa)
#
#
# Indices 1 2 3 4 5 6 
#
# 1 80.1486 40.8090 47.7672 1.9546 11.3356 -5.2336
# 2 40.8090 146.0577 42.8302 14.2096 -1.3889 -5.7403
# 3 47.7672 42.8302 152.5291 -0.6046 -0.9586 9.5724
# 4 1.9546 14.2096 -0.6046 36.6070 -0.4061 9.6664
# 5 11.3356 -1.3889 -0.9586 -0.4061 39.0141 9.8725
# 6 -5.2336 -5.7403 9.5724 9.6664 9.8725 28.6473
#
#
#
# Elastic Compliance Matrix: (Units=1/GPa)
#
#
# Indices 1 2 3 4 5 6 
#
# 1 0.019231 -0.003254 -0.005682 -0.002114 -0.007943 0.008211
# 2 -0.003254 0.008742 -0.001631 -0.004008 0.000440 0.002903
# 3 -0.005682 -0.001631 0.009244 0.002883 0.003531 -0.006644
# 4 -0.002114 -0.004008 0.002883 0.033019 0.004656 -0.014899
# 5 -0.007943 0.000440 0.003531 0.004656 0.031915 -0.015112
# 6 0.008211 0.002903 -0.006644 -0.014899 -0.015112 0.049444
#
#
# Mechanical properties :
#
#
# Convention : Reuss Voigt Hill
#
# Bulk Modulus (GPa) = 62.17885 71.28313 66.73099
# Shear Modulus (GPa) = 28.07524 37.34227 32.70875
#
# Velocity S-wave (km/s) = 3.45209 3.98126 3.72608
# Velocity P-wave (km/s) = 6.50245 7.16875 6.84371
#
# Compressibility (1/GPa) = 0.01608264
#
# Stress axis : x y z
#
# Youngs Moduli (GPa) = 51.99804 114.38518 108.17521
#
# Poissons Ratio (x) = 0.37223 0.61470
# Poissons Ratio (y) = 0.16921 0.17644
# Poissons Ratio (z) = 0.29548 0.18657
#
# Static dielectric constant tensor:
#      x y z
#    x 3.988650 -0.019530 0.101620 
#    y -0.019530 4.295760 0.093640 
#    z 0.101620 0.093640 4.291170 
# 
# 
# High freq. dielectric constant tensor:
#      x y z
#    x 1.935560 0.004940 0.006520 
#    y 0.004940 1.950500 0.007490 
#    z 0.006520 0.007490 1.947670 
# 
# From -- ./inp_files/382537.got.cif
#   From: 2010.06.25/outbox.cif.g09.slc.cpg/sg2_192_cif.got.tgz:382537.got - 2010.06.27 13:26:56.
