data_PCOD8028700
_publ_section_title
;
Structure prediction by ZEFSAII (Michael W. Deem and Ramdas Pophale) SiO2 
 PCOD8028700
Probable space group: P -1
;
_chemical_formula_sum "Si O2"
_cell_formula_units_Z 16
_cell_length_a 15.058775
_cell_length_b 9.504769
_cell_length_c 9.610967
_cell_angle_alpha 148.748292
_cell_angle_beta 88.866830
_cell_angle_gamma 82.162924
_cell_volume 681.670749
_symmetry_space_group_name_H-M "P -1"
_symmetry_group_IT_number 2
_symmetry_cell_setting 'triclinic'
loop_
_space_group_symop_operation_xyz
x,y,z
-x,-y,-z
loop_
_atom_site_type_symbol
_atom_site_label
_atom_site_fract_x
_atom_site_fract_y
_atom_site_fract_z
Si Si1 0.226824 0.294707 0.206855
Si Si2 0.561300 0.883849 0.033565
Si Si3 0.954817 0.131894 0.755797
Si Si4 0.534387 0.316485 0.655588
Si Si5 0.147500 0.947980 0.709696
Si Si6 0.648308 0.415856 0.972532
Si Si7 0.212766 0.079535 0.323817
Si Si8 0.201136 0.321664 0.812441
O O1 0.170114 0.609231 0.425131
O O2 0.212175 0.263151 0.343338
O O3 0.333890 0.239696 0.123971
O O4 0.187341 0.061125 0.938889
O O5 0.553449 0.116399 0.351606
O O6 0.523467 0.638820 0.886746
O O7 0.500000 0.000000 0.000000
O O8 0.885551 0.976261 0.693945
O O9 0.901431 0.455757 0.993031
O O10 0.000000 0.000000 0.500000
O O11 0.036675 0.096709 0.836133
O O12 0.436952 0.331820 0.747525
O O13 0.615928 0.231070 0.697500
O O14 0.195647 0.035719 0.645878
O O15 0.720168 0.560942 0.018108
O O16 0.702585 0.212923 0.923932
O O17 0.232343 0.268044 0.607369
#
# Coordination Sequence:
#
# PCOD8028700 Si02
#       8
#     2   2   2   2   2   2   2   2
#     4  12  30  47  73 110 154 194 245 302 381 435
#     4  12  27  47  73 102 154 199 246 293 379 449
#     4  11  24  47  76 111 143 192 252 303 369 438
#     4  11  26  46  74 111 141 197 253 311 363 439
#     4  12  27  48  76 108 148 195 247 306 363 451
#     4  10  26  44  75 109 149 188 257 318 366 429
#     4  11  27  46  74 107 150 196 243 308 373 439
#     4  11  25  45  80 103 149 197 249 305 371 442
#
# _framework density 23.471744000000001
#
# number of rings (size 3 to 8) (size 9 to 14) (size 15 to 20)
#    0.000    0.750    1.250    3.750   15.750    2.000 
#    0.000    0.000    0.000    0.000    0.000    0.000 
#    0.000    0.000    0.000    0.000    0.000    0.000 
#
# Total GULP energy -198438.928626 kJ/mol
# GULP energy per Si atom -12402.433039 kJ/mol
# Density = 2.341832 g / cm^3
# Si number density = 23.471744 Si / 1000 Ang^3
#
#
#
# Elastic Constant Matrix: (Units=GPa)
#
#
# Indices 1 2 3 4 5 6 
#
# 1 138.0039 41.4168 17.4676 0.4753 -8.6249 -19.1261
# 2 41.4168 124.7708 25.7812 -7.8980 -8.1006 -1.9836
# 3 17.4676 25.7812 92.7393 -10.6366 -2.9158 2.5318
# 4 0.4753 -7.8980 -10.6366 41.7617 0.8092 3.9374
# 5 -8.6249 -8.1006 -2.9158 0.8092 33.2262 -2.4272
# 6 -19.1261 -1.9836 2.5318 3.9374 -2.4272 27.2567
#
#
#
# Elastic Compliance Matrix: (Units=1/GPa)
#
#
# Indices 1 2 3 4 5 6 
#
# 1 0.009313 -0.002671 -0.001319 -0.001640 0.002194 0.006895
# 2 -0.002671 0.009450 -0.001890 0.001414 0.001330 -0.001096
# 3 -0.001319 -0.001890 0.011966 0.002951 -0.000015 -0.002602
# 4 -0.001640 0.001414 0.002951 0.025477 -0.000813 -0.005074
# 5 0.002194 0.001330 -0.000015 -0.000813 0.031341 0.004546
# 6 0.006895 -0.001096 -0.002602 -0.005074 0.004546 0.042827
#
#
# Mechanical properties :
#
#
# Convention : Reuss Voigt Hill
#
# Bulk Modulus (GPa) = 52.71631 58.31614 55.51622
# Shear Modulus (GPa) = 33.67984 38.50547 36.09265
#
# Velocity S-wave (km/s) = 3.79213 4.05471 3.92561
# Velocity P-wave (km/s) = 6.45615 6.84252 6.65214
#
# Compressibility (1/GPa) = 0.01896946
#
# Stress axis : x y z
#
# Youngs Moduli (GPa) = 107.37656 105.81825 83.57124
#
# Poissons Ratio (x) = 0.28259 0.11023
# Poissons Ratio (y) = 0.28675 0.15797
# Poissons Ratio (z) = 0.14163 0.20002
#
# Static dielectric constant tensor:
#      x y z
#    x 1.423060 0.094150 -1.518000 
#    y 0.094150 4.510310 0.170110 
#    z -1.518000 0.170110 3.521090 
# 
# 
# High freq. dielectric constant tensor:
#      x y z
#    x 1.953110 -0.006060 0.002030 
#    y -0.006060 1.929940 0.005400 
#    z 0.002030 0.005400 1.930940 
# 
# From -- ./inp_files/299856.got.cif
#   From: 2010.06.25/outbox.cif.g09.slc.cpg/sg2_150_cif.got.tgz:299856.got - 2010.06.27 13:26:56.
