data_PCOD8028971
_publ_section_title
;
Structure prediction by ZEFSAII (Michael W. Deem and Ramdas Pophale) SiO2 
 PCOD8028971
Probable space group: P -1
;
_chemical_formula_sum "Si O2"
_cell_formula_units_Z 14
_cell_length_a 22.506637
_cell_length_b 22.871315
_cell_length_c 8.986610
_cell_angle_alpha 151.826199
_cell_angle_beta 150.977617
_cell_angle_gamma 19.196717
_cell_volume 691.478408
_symmetry_space_group_name_H-M "P -1"
_symmetry_group_IT_number 2
_symmetry_cell_setting 'triclinic'
loop_
_space_group_symop_operation_xyz
x,y,z
-x,-y,-z
loop_
_atom_site_type_symbol
_atom_site_label
_atom_site_fract_x
_atom_site_fract_y
_atom_site_fract_z
Si Si1 0.747212 0.548739 0.729074
Si Si2 0.056130 0.660684 0.600774
Si Si3 0.177937 0.775525 0.347005
Si Si4 0.574960 0.579699 0.696085
Si Si5 0.660099 0.890136 0.224795
Si Si6 0.451854 0.135951 0.579076
Si Si7 0.059797 0.425442 0.296658
O O1 0.780334 0.471801 0.462726
O O2 0.609568 0.566309 0.563637
O O3 0.673915 0.744605 0.001592
O O4 0.939487 0.405346 0.922263
O O5 0.052385 0.551737 0.462060
O O6 0.854440 0.800783 0.388146
O O7 0.092149 0.756505 0.986879
O O8 0.357546 0.709338 0.525983
O O9 0.267533 0.632580 0.363518
O O10 0.000000 0.000000 0.500000
O O11 0.600440 0.691325 0.082321
O O12 0.609835 0.024967 0.549584
O O13 0.500000 0.000000 0.000000
O O14 0.271067 0.215992 0.282851
O O15 0.500000 0.000000 0.500000
O O16 0.000000 0.500000 0.500000
#
# Coordination Sequence:
#
# PCOD8028971 Si02
#       7
#     2   2   2   2   2   2   2
#     4  11  22  40  60  95 132 168 208 262 335 391
#     4  11  22  41  63  87 131 173 210 270 325 379
#     4  11  25  47  70  91 124 175 231 272 316 386
#     4  11  24  44  68  96 129 171 222 274 317 389
#     4  11  22  36  60  99 132 164 205 261 331 396
#     4  12  20  36  62  99 127 160 211 266 325 385
#     4  11  19  36  62  92 130 169 205 257 326 390
#
# _framework density 20.246473999999999
#
# number of rings (size 3 to 8) (size 9 to 14) (size 15 to 20)
#    0.000    0.857    4.286    5.143    0.000    1.714 
#    2.571    0.714    0.000    0.000    0.000    0.000 
#    0.000    0.000    0.000    0.000    0.000    0.000 
#
# Total GULP energy -173455.370573 kJ/mol
# GULP energy per Si atom -12389.669327 kJ/mol
# Density = 2.020039 g / cm^3
# Si number density = 20.246474 Si / 1000 Ang^3
#
#
#
# Elastic Constant Matrix: (Units=GPa)
#
#
# Indices 1 2 3 4 5 6 
#
# 1 155.5104 42.6410 45.2753 6.9494 -3.7084 -18.2202
# 2 42.6410 130.5515 46.9514 -8.1360 8.6193 -6.4033
# 3 45.2753 46.9514 81.8634 -7.0075 -0.3243 -0.2329
# 4 6.9494 -8.1360 -7.0075 37.0636 -6.4356 -5.6210
# 5 -3.7084 8.6193 -0.3243 -6.4356 34.2090 1.1189
# 6 -18.2202 -6.4033 -0.2329 -5.6210 1.1189 27.0273
#
#
#
# Elastic Compliance Matrix: (Units=1/GPa)
#
#
# Indices 1 2 3 4 5 6 
#
# 1 0.008701 -0.001221 -0.004249 -0.001802 0.000704 0.005136
# 2 -0.001221 0.010237 -0.005084 0.001365 -0.002567 0.001949
# 3 -0.004249 -0.005084 0.017717 0.002797 0.001626 -0.003402
# 4 -0.001802 0.001365 0.002797 0.029778 0.004922 0.005122
# 5 0.000704 -0.002567 0.001626 0.004922 0.030909 -0.000376
# 6 0.005136 0.001949 -0.003402 0.005122 -0.000376 0.041975
#
#
# Mechanical properties :
#
#
# Convention : Reuss Voigt Hill
#
# Bulk Modulus (GPa) = 64.31559 70.85119 67.58339
# Shear Modulus (GPa) = 30.19175 35.19716 32.69446
#
# Velocity S-wave (km/s) = 3.86581 4.17398 4.02284
# Velocity P-wave (km/s) = 7.19453 7.63543 7.41825
#
# Compressibility (1/GPa) = 0.01554833
#
# Stress axis : x y z
#
# Youngs Moduli (GPa) = 114.92547 97.68482 56.44165
#
# Poissons Ratio (x) = 0.11925 0.23982
# Poissons Ratio (y) = 0.14029 0.28695
# Poissons Ratio (z) = 0.48832 0.49662
#
# Static dielectric constant tensor:
#      x y z
#    x 3.941050 -0.155670 0.107710 
#    y -0.155670 4.108640 -0.336320 
#    z 0.107710 -0.336320 3.578940 
# 
# 
# High freq. dielectric constant tensor:
#      x y z
#    x 1.799820 -0.008860 -0.008600 
#    y -0.008860 1.804200 -0.012680 
#    z -0.008600 -0.012680 1.772850 
# 
# From -- ./inp_files/255954.got.cif
#   From: 2010.06.25/outbox.cif.g09.slc.cpg/sg2_128_cif.got.tgz:255954.got - 2010.06.27 13:26:56.
