data_PCOD8028802
_publ_section_title
;
Structure prediction by ZEFSAII (Michael W. Deem and Ramdas Pophale) SiO2 
 PCOD8028802
Probable space group: P -1
;
_chemical_formula_sum "Si O2"
_cell_formula_units_Z 14
_cell_length_a 9.584620
_cell_length_b 21.928140
_cell_length_c 15.489316
_cell_angle_alpha 27.388466
_cell_angle_beta 42.231061
_cell_angle_gamma 26.425572
_cell_volume 642.246717
_symmetry_space_group_name_H-M "P -1"
_symmetry_group_IT_number 2
_symmetry_cell_setting 'triclinic'
loop_
_space_group_symop_operation_xyz
x,y,z
-x,-y,-z
loop_
_atom_site_type_symbol
_atom_site_label
_atom_site_fract_x
_atom_site_fract_y
_atom_site_fract_z
Si Si1 0.404661 0.181616 0.858164
Si Si2 0.700669 0.147864 0.017985
Si Si3 0.206624 0.382041 0.367996
Si Si4 0.575506 0.952895 0.808567
Si Si5 0.024972 0.938114 0.305187
Si Si6 0.259879 0.558462 0.608808
Si Si7 0.856563 0.146848 0.301054
O O1 0.599932 0.203659 0.696471
O O2 0.024141 0.405849 0.738187
O O3 0.525298 0.100165 0.003281
O O4 0.500000 0.000000 0.000000
O O5 0.500495 0.104745 0.165595
O O6 0.467479 0.384632 0.805735
O O7 0.814411 0.114422 0.106275
O O8 0.000000 0.000000 0.000000
O O9 0.471756 0.346323 0.244652
O O10 0.981154 0.427399 0.341921
O O11 0.366359 0.191290 0.596697
O O12 0.952189 0.806223 0.843594
O O13 0.033320 0.776774 0.487030
O O14 0.896565 0.041906 0.327396
O O15 0.500000 0.500000 0.500000
O O16 0.000000 0.000000 0.500000
#
# Coordination Sequence:
#
# PCOD8028802 Si02
#       7
#     2   2   2   2   2   2   2
#     4  12  24  41  69 105 129 174 232 278 334 400
#     4  12  21  38  68 105 132 171 220 284 338 389
#     4  11  23  44  70  91 139 186 214 277 344 391
#     4  11  21  43  67  96 138 173 221 278 332 396
#     4  12  24  43  70 101 138 172 227 281 333 402
#     4  12  21  39  69 104 134 172 219 280 342 395
#     4  10  26  49  66  94 139 191 222 272 337 406
#
# _framework density 21.798477999999999
#
# number of rings (size 3 to 8) (size 9 to 14) (size 15 to 20)
#    0.000    0.571    8.571    0.000    0.000    1.714 
#    5.143    2.143    0.000    0.000    0.000    0.000 
#    0.000    0.000    0.000    0.000    0.000    0.000 
#
# Total GULP energy -173484.857479 kJ/mol
# GULP energy per Si atom -12391.775534 kJ/mol
# Density = 2.174886 g / cm^3
# Si number density = 21.798478 Si / 1000 Ang^3
#
#
#
# Elastic Constant Matrix: (Units=GPa)
#
#
# Indices 1 2 3 4 5 6 
#
# 1 105.9476 49.5284 14.7874 -0.6353 -2.4068 -10.4593
# 2 49.5284 117.8347 34.0523 -15.5786 -1.2377 -10.2650
# 3 14.7874 34.0523 113.2521 -18.7234 10.8439 1.1866
# 4 -0.6353 -15.5786 -18.7234 28.0448 0.4141 4.9130
# 5 -2.4068 -1.2377 10.8439 0.4141 39.8014 3.3391
# 6 -10.4593 -10.2650 1.1866 4.9130 3.3391 32.5050
#
#
#
# Elastic Compliance Matrix: (Units=1/GPa)
#
#
# Indices 1 2 3 4 5 6 
#
# 1 0.012214 -0.005146 -0.000722 -0.003564 0.000576 0.002811
# 2 -0.005146 0.012062 -0.002217 0.004842 0.000496 0.001452
# 3 -0.000722 -0.002217 0.010969 0.006470 -0.003000 -0.002002
# 4 -0.003564 0.004842 0.006470 0.043712 -0.001756 -0.006281
# 5 0.000576 0.000496 -0.003000 -0.001756 0.026176 -0.001972
# 6 0.002811 0.001452 -0.002002 -0.006281 -0.001972 0.033352
#
#
# Mechanical properties :
#
#
# Convention : Reuss Voigt Hill
#
# Bulk Modulus (GPa) = 52.42174 59.30783 55.86479
# Shear Modulus (GPa) = 31.05360 35.98132 33.51746
#
# Velocity S-wave (km/s) = 3.77845 4.06721 3.92549
# Velocity P-wave (km/s) = 6.56781 7.02301 6.79922
#
# Compressibility (1/GPa) = 0.01907606
#
# Stress axis : x y z
#
# Youngs Moduli (GPa) = 81.87303 82.90682 91.16918
#
# Poissons Ratio (x) = 0.42660 0.06578
# Poissons Ratio (y) = 0.42129 0.20212
# Poissons Ratio (z) = 0.05908 0.18381
#
# Static dielectric constant tensor:
#      x y z
#    x 4.930180 -0.673850 -0.102450 
#    y -0.673850 4.459340 0.014730 
#    z -0.102450 0.014730 4.023870 
# 
# 
# High freq. dielectric constant tensor:
#      x y z
#    x 1.866380 -0.021150 0.000540 
#    y -0.021150 1.834200 -0.001380 
#    z 0.000540 -0.001380 1.864020 
# 
# From -- ./inp_files/508108.got.cif
#   From: 2010.06.25/outbox.cif.g09.slc.cpg/sg2_255_cif.got.tgz:508108.got - 2010.06.27 13:26:56.
