data_PCOD8028056
_publ_section_title
;
Structure prediction by ZEFSAII (Michael W. Deem and Ramdas Pophale) SiO2 
 PCOD8028056
Probable space group: P -1
;
_chemical_formula_sum "Si O2"
_cell_formula_units_Z 14
_cell_length_a 12.561462
_cell_length_b 5.337350
_cell_length_c 10.705480
_cell_angle_alpha 96.973777
_cell_angle_beta 130.217689
_cell_angle_gamma 95.905650
_cell_volume 528.225127
_symmetry_space_group_name_H-M "P -1"
_symmetry_group_IT_number 2
_symmetry_cell_setting 'triclinic'
loop_
_space_group_symop_operation_xyz
x,y,z
-x,-y,-z
loop_
_atom_site_type_symbol
_atom_site_label
_atom_site_fract_x
_atom_site_fract_y
_atom_site_fract_z
Si Si1 0.866776 0.029490 0.573720
Si Si2 0.486299 0.825473 0.856488
Si Si3 0.434868 0.098524 0.578899
Si Si4 0.185983 0.516592 0.616547
Si Si5 0.075023 0.503631 0.799288
Si Si6 0.928086 0.711946 0.893756
Si Si7 0.677192 0.552080 0.859884
O O1 0.841761 0.279505 0.492970
O O2 0.015107 0.187881 0.763203
O O3 0.736889 0.931044 0.570121
O O4 0.876511 0.788851 0.479618
O O5 0.357598 0.570381 0.772018
O O6 0.638847 0.756317 0.941901
O O7 0.450729 0.957371 0.711349
O O8 0.500000 0.000000 0.000000
O O9 0.523909 0.391713 0.684191
O O10 0.500000 0.000000 0.500000
O O11 0.102438 0.571810 0.679998
O O12 0.956206 0.666065 0.764267
O O13 0.222913 0.599523 0.995812
O O14 0.761507 0.667345 0.804434
O O15 0.000000 0.500000 0.000000
O O16 0.000000 0.000000 0.000000
#
# Coordination Sequence:
#
# PCOD8028056 Si02
#       7
#     2   2   2   2   2   2   2
#     4  11  25  48  68 111 146 201 249 308 374 461
#     4  11  26  45  78 113 148 197 255 319 376 449
#     4  11  25  48  73 104 154 198 252 306 381 452
#     4  11  25  45  73 105 152 197 253 303 382 452
#     4  11  25  45  74 105 149 196 248 316 378 446
#     4  10  25  43  65 103 141 183 238 296 368 435
#     4  11  25  46  75 107 145 193 253 312 378 446
#
# _framework density 26.503852999999999
#
# number of rings (size 3 to 8) (size 9 to 14) (size 15 to 20)
#    0.000    1.143    1.429    2.571   10.000    5.143 
#    2.571    0.000    0.000    0.000    0.000    0.000 
#    0.000    0.000    0.000    0.000    0.000    0.000 
#
# Total GULP energy -173475.610870 kJ/mol
# GULP energy per Si atom -12391.115062 kJ/mol
# Density = 2.644353 g / cm^3
# Si number density = 26.503853 Si / 1000 Ang^3
#
#
#
# Elastic Constant Matrix: (Units=GPa)
#
#
# Indices 1 2 3 4 5 6 
#
# 1 236.4107 38.5790 32.1177 21.9298 -24.1397 -3.3531
# 2 38.5790 95.0843 20.3590 36.4480 -13.4916 2.8638
# 3 32.1177 20.3590 69.2088 26.4536 -12.9621 6.0210
# 4 21.9298 36.4480 26.4536 43.7004 5.1466 -3.0417
# 5 -24.1397 -13.4916 -12.9621 5.1466 64.1299 6.6970
# 6 -3.3531 2.8638 6.0210 -3.0417 6.6970 44.4601
#
#
#
# Elastic Compliance Matrix: (Units=1/GPa)
#
#
# Indices 1 2 3 4 5 6 
#
# 1 0.004821 -0.001231 -0.001419 -0.000657 0.001280 0.000397
# 2 -0.001231 0.017813 0.003283 -0.017159 0.005713 -0.003719
# 3 -0.001419 0.003283 0.022189 -0.016608 0.006543 -0.005445
# 4 -0.000657 -0.017159 -0.016608 0.049593 -0.012083 0.008518
# 5 0.001280 0.005713 0.006543 -0.012083 0.020093 -0.005011
# 6 0.000397 -0.003719 -0.005445 0.008518 -0.005011 0.024837
#
#
# Mechanical properties :
#
#
# Convention : Reuss Voigt Hill
#
# Bulk Modulus (GPa) = 21.69647 64.75722 43.22684
# Shear Modulus (GPa) = 32.58577 51.10130 41.84353
#
# Velocity S-wave (km/s) = 3.51019 4.39574 3.97769
# Velocity P-wave (km/s) = 4.96311 7.08869 6.11891
#
# Compressibility (1/GPa) = 0.04609044
#
# Stress axis : x y z
#
# Youngs Moduli (GPa) = 207.43410 56.13764 45.06793
#
# Poissons Ratio (x) = 0.06908 0.06394
# Poissons Ratio (y) = 0.25527 -0.14797
# Poissons Ratio (z) = 0.29431 -0.18431
#
# Static dielectric constant tensor:
#      x y z
#    x 5.927210 0.409620 0.161020 
#    y 0.409620 4.635430 0.321890 
#    z 0.161020 0.321890 5.299430 
# 
# 
# High freq. dielectric constant tensor:
#      x y z
#    x 2.101340 0.010400 -0.000150 
#    y 0.010400 2.053410 0.008950 
#    z -0.000150 0.008950 2.070160 
# 
# From -- ./inp_files/68903.got.cif
#   From: 2010.06.25/outbox.cif.g09.slc.cpg/sg2_35_cif.got.tgz:68903.got - 2010.06.27 13:26:56.
