data_PCOD8028711
_publ_section_title
;
Structure prediction by ZEFSAII (Michael W. Deem and Ramdas Pophale) SiO2 
 PCOD8028711
Probable space group: P -1
;
_chemical_formula_sum "Si O2"
_cell_formula_units_Z 16
_cell_length_a 21.555699
_cell_length_b 8.120238
_cell_length_c 9.069706
_cell_angle_alpha 133.755169
_cell_angle_beta 44.403526
_cell_angle_gamma 136.190383
_cell_volume 716.409323
_symmetry_space_group_name_H-M "P -1"
_symmetry_group_IT_number 2
_symmetry_cell_setting 'triclinic'
loop_
_space_group_symop_operation_xyz
x,y,z
-x,-y,-z
loop_
_atom_site_type_symbol
_atom_site_label
_atom_site_fract_x
_atom_site_fract_y
_atom_site_fract_z
Si Si1 0.919090 0.489713 0.746278
Si Si2 0.829914 0.642446 0.483735
Si Si3 0.669597 0.199494 0.328140
Si Si4 0.822345 0.731955 0.867106
Si Si5 0.264294 0.010885 0.183915
Si Si6 0.398530 0.388473 0.414051
Si Si7 0.380993 0.295598 0.728441
Si Si8 0.997271 0.259557 0.936095
O O1 0.842880 0.591366 0.880940
O O2 0.000000 0.500000 0.500000
O O3 0.847936 0.199281 0.726458
O O4 0.975624 0.673991 0.899217
O O5 0.776748 0.368372 0.324707
O O6 0.856762 0.625253 0.598126
O O7 0.751748 0.755816 0.706003
O O8 0.925098 0.815148 0.328119
O O9 0.617393 0.378336 0.486027
O O10 0.613425 0.967645 0.396851
O O11 0.680205 0.080720 0.083450
O O12 0.707940 0.677578 0.020858
O O13 0.887903 0.033495 0.963993
O O14 0.335932 0.118815 0.270734
O O15 0.364271 0.320642 0.598997
O O16 0.515493 0.469638 0.252126
O O17 0.000000 0.500000 0.000000
#
# Coordination Sequence:
#
# PCOD8028711 Si02
#       8
#     2   2   2   2   2   2   2   2
#     4  12  26  42  66 104 138 178 226 286 346 409
#     4  11  23  43  66 100 135 179 225 279 339 410
#     4  11  22  46  71 101 138 185 230 283 346 408
#     4  12  25  41  68  99 135 179 230 281 342 414
#     4  11  23  45  70  98 137 180 230 283 340 411
#     4  10  26  45  71 101 142 181 232 291 341 414
#     4  11  24  47  68 104 139 181 235 286 348 407
#     4  12  24  43  69  97 137 181 224 278 344 414
#
# _framework density 22.333601000000002
#
# number of rings (size 3 to 8) (size 9 to 14) (size 15 to 20)
#    0.000    0.750    2.500    4.875    5.250    0.500 
#    2.250    1.875    0.000    0.000    0.000    0.000 
#    0.000    0.000    0.000    0.000    0.000    0.000 
#
# Total GULP energy -198330.296264 kJ/mol
# GULP energy per Si atom -12395.643517 kJ/mol
# Density = 2.228277 g / cm^3
# Si number density = 22.333601 Si / 1000 Ang^3
#
#
#
# Elastic Constant Matrix: (Units=GPa)
#
#
# Indices 1 2 3 4 5 6 
#
# 1 99.7800 21.5763 51.2065 -4.0438 14.9656 -0.3989
# 2 21.5763 79.3034 29.3573 -10.8265 4.1008 8.5706
# 3 51.2065 29.3573 121.8793 -6.0729 14.3480 16.0109
# 4 -4.0438 -10.8265 -6.0729 33.6501 0.1879 -3.0131
# 5 14.9656 4.1008 14.3480 0.1879 33.6287 -0.8020
# 6 -0.3989 8.5706 16.0109 -3.0131 -0.8020 48.1380
#
#
#
# Elastic Compliance Matrix: (Units=1/GPa)
#
#
# Indices 1 2 3 4 5 6 
#
# 1 0.013598 -0.001800 -0.005114 0.000340 -0.003602 0.002095
# 2 -0.001800 0.014690 -0.002372 0.003939 -0.000038 -0.001596
# 3 -0.005114 -0.002372 0.011706 0.000433 -0.002516 -0.003528
# 4 0.000340 0.003939 0.000433 0.031207 -0.000965 0.001095
# 5 -0.003602 -0.000038 -0.002516 -0.000965 0.032454 0.001294
# 6 0.002095 -0.001596 -0.003528 0.001095 0.001294 0.022339
#
#
# Mechanical properties :
#
#
# Convention : Reuss Voigt Hill
#
# Bulk Modulus (GPa) = 46.68025 56.13813 51.40919
# Shear Modulus (GPa) = 32.95852 36.33821 34.64837
#
# Velocity S-wave (km/s) = 3.84570 4.03806 3.94306
# Velocity P-wave (km/s) = 6.37699 6.85070 6.61808
#
# Compressibility (1/GPa) = 0.02142233
#
# Stress axis : x y z
#
# Youngs Moduli (GPa) = 73.53962 68.07463 85.42736
#
# Poissons Ratio (x) = 0.12256 0.43685
# Poissons Ratio (y) = 0.13240 0.20259
# Poissons Ratio (z) = 0.37606 0.16144
#
# Static dielectric constant tensor:
#      x y z
#    x 4.288070 0.123090 0.055920 
#    y 0.123090 4.619350 -0.137290 
#    z 0.055920 -0.137290 3.707640 
# 
# 
# High freq. dielectric constant tensor:
#      x y z
#    x 1.896960 0.002270 0.007830 
#    y 0.002270 1.882670 -0.000810 
#    z 0.007830 -0.000810 1.876040 
# 
# From -- ./inp_files/110972.got.cif
#   From: 2010.06.25/outbox.cif.g09.slc.cpg/sg2_56_cif.got.tgz:110972.got - 2010.06.27 13:26:56.
