data_PCOD8028268
_publ_section_title
;
Structure prediction by ZEFSAII (Michael W. Deem and Ramdas Pophale) SiO2 
 PCOD8028268
Probable space group: P -1
;
_chemical_formula_sum "Si O2"
_cell_formula_units_Z 16
_cell_length_a 20.373137
_cell_length_b 11.581338
_cell_length_c 11.076625
_cell_angle_alpha 148.104514
_cell_angle_beta 136.699551
_cell_angle_gamma 30.046594
_cell_volume 691.171355
_symmetry_space_group_name_H-M "P -1"
_symmetry_group_IT_number 2
_symmetry_cell_setting 'triclinic'
loop_
_space_group_symop_operation_xyz
x,y,z
-x,-y,-z
loop_
_atom_site_type_symbol
_atom_site_label
_atom_site_fract_x
_atom_site_fract_y
_atom_site_fract_z
Si Si1 0.489598 0.716817 0.976033
Si Si2 0.133077 0.924142 0.874137
Si Si3 0.690401 0.124588 0.579116
Si Si4 0.298780 0.311166 0.662769
Si Si5 0.378438 0.031093 0.869445
Si Si6 0.273110 0.128540 0.224130
Si Si7 0.171590 0.707006 0.214941
Si Si8 0.847188 0.279666 0.530871
O O1 0.589052 0.369351 0.762777
O O2 0.383649 0.917171 0.906814
O O3 0.572004 0.807439 0.198962
O O4 0.397777 0.806220 0.047201
O O5 0.193387 0.670804 0.831723
O O6 0.197864 0.788614 0.706964
O O7 0.979743 0.117744 0.839682
O O8 0.169192 0.115625 0.127279
O O9 0.795777 0.142826 0.697003
O O10 0.761048 0.800923 0.442590
O O11 0.610599 0.177060 0.399732
O O12 0.332250 0.182107 0.457934
O O13 0.247082 0.374624 0.975989
O O14 0.500000 0.000000 0.000000
O O15 0.193253 0.404962 0.267688
O O16 0.214926 0.696804 0.402555
O O17 0.000000 0.000000 0.500000
#
# Coordination Sequence:
#
# PCOD8028268 Si02
#       8
#     2   2   2   2   2   2   2   2
#     4  12  25  44  69 105 136 177 231 283 340 405
#     4  10  25  45  68 101 137 182 233 274 336 407
#     4  12  26  42  71 101 139 184 220 282 346 395
#     4  11  25  47  66 100 141 178 234 278 334 410
#     4  12  24  43  68 104 139 174 227 282 340 407
#     4  11  24  43  74  99 137 184 220 286 343 397
#     4  11  24  43  69 103 138 177 226 282 339 411
#     4   9  21  40  64  99 136 173 220 276 333 403
#
# _framework density 23.149107000000001
#
# number of rings (size 3 to 8) (size 9 to 14) (size 15 to 20)
#    0.000    1.000    3.750    1.500    1.750    9.500 
#    0.000    4.375    0.000    0.000    0.000    0.000 
#    0.000    0.000    0.000    0.000    0.000    0.000 
#
# Total GULP energy -198310.467165 kJ/mol
# GULP energy per Si atom -12394.404198 kJ/mol
# Density = 2.309642 g / cm^3
# Si number density = 23.149107 Si / 1000 Ang^3
#
#
#
# Elastic Constant Matrix: (Units=GPa)
#
#
# Indices 1 2 3 4 5 6 
#
# 1 83.6226 46.7218 27.3286 8.2320 3.2258 -0.5415
# 2 46.7218 100.6944 44.4189 7.4257 4.2952 9.6143
# 3 27.3286 44.4189 99.6077 -5.5452 -4.5277 -8.0939
# 4 8.2320 7.4257 -5.5452 35.2239 5.1133 3.2428
# 5 3.2258 4.2952 -4.5277 5.1133 36.7090 3.7490
# 6 -0.5415 9.6143 -8.0939 3.2428 3.7490 38.7357
#
#
#
# Elastic Compliance Matrix: (Units=1/GPa)
#
#
# Indices 1 2 3 4 5 6 
#
# 1 0.016684 -0.007062 -0.001449 -0.002727 -0.000640 0.001974
# 2 -0.007062 0.016584 -0.006054 -0.002142 -0.001239 -0.005181
# 3 -0.001449 -0.006054 0.013708 0.003168 0.001685 0.003919
# 4 -0.002727 -0.002142 0.003168 0.030551 -0.003264 -0.001086
# 5 -0.000640 -0.001239 0.001685 -0.003264 0.028290 -0.001814
# 6 0.001974 -0.005181 0.003919 -0.001086 -0.001814 0.028215
#
#
# Mechanical properties :
#
#
# Convention : Reuss Voigt Hill
#
# Bulk Modulus (GPa) = 56.03687 57.87369 56.95528
# Shear Modulus (GPa) = 29.56641 33.16408 31.36525
#
# Velocity S-wave (km/s) = 3.57769 3.78911 3.68492
# Velocity P-wave (km/s) = 6.42853 6.64815 6.53926
#
# Compressibility (1/GPa) = 0.01784539
#
# Stress axis : x y z
#
# Youngs Moduli (GPa) = 59.93902 60.29875 72.94962
#
# Poissons Ratio (x) = 0.42584 0.10568
# Poissons Ratio (y) = 0.42330 0.44167
# Poissons Ratio (z) = 0.08683 0.36508
#
# Static dielectric constant tensor:
#      x y z
#    x 4.231850 0.421560 -0.312490 
#    y 0.421560 3.973290 -0.130680 
#    z -0.312490 -0.130680 4.336700 
# 
# 
# High freq. dielectric constant tensor:
#      x y z
#    x 1.909210 0.021100 -0.012610 
#    y 0.021100 1.909600 -0.001530 
#    z -0.012610 -0.001530 1.923030 
# 
# From -- ./inp_files/427292.got.cif
#   From: 2010.06.25/outbox.cif.g09.slc.cpg/sg2_214_cif.got.tgz:427292.got - 2010.06.27 13:26:56.
