data_PCOD8028516
_publ_section_title
;
Structure prediction by ZEFSAII (Michael W. Deem and Ramdas Pophale) SiO2 
 PCOD8028516
Probable space group: P -1
;
_chemical_formula_sum "Si O2"
_cell_formula_units_Z 16
_cell_length_a 19.508016
_cell_length_b 5.311864
_cell_length_c 8.317964
_cell_angle_alpha 89.999956
_cell_angle_beta 111.312209
_cell_angle_gamma 65.893304
_cell_volume 721.708553
_symmetry_space_group_name_H-M "P -1"
_symmetry_group_IT_number 2
_symmetry_cell_setting 'triclinic'
loop_
_space_group_symop_operation_xyz
x,y,z
-x,-y,-z
loop_
_atom_site_type_symbol
_atom_site_label
_atom_site_fract_x
_atom_site_fract_y
_atom_site_fract_z
Si Si1 0.592858 0.860713 0.020155
Si Si2 0.591063 0.363407 0.514768
Si Si3 0.833798 0.499304 0.692604
Si Si4 0.158172 0.012743 0.919568
Si Si5 0.094122 0.108816 0.225530
Si Si6 0.904637 0.393045 0.101185
Si Si7 0.346486 0.730271 0.091409
Si Si8 0.348610 0.227084 0.588257
O O1 0.656139 0.765792 0.222841
O O2 0.607516 0.588939 0.928248
O O3 0.500000 0.000000 0.000000
O O4 0.607516 0.088514 0.928248
O O5 0.500000 0.500000 0.500000
O O6 0.654394 0.268409 0.716289
O O7 0.603014 0.594709 0.419572
O O8 0.603014 0.096252 0.419571
O O9 0.877099 0.683711 0.655102
O O10 0.739570 0.640645 0.567368
O O11 0.877099 0.184994 0.655102
O O12 0.844314 0.483530 0.895020
O O13 0.138962 0.041556 0.092729
O O14 0.253026 0.870460 0.954503
O O15 0.116064 0.327969 0.810577
O O16 0.116065 0.823838 0.810577
O O17 0.997109 0.254337 0.117414
#
# Coordination Sequence:
#
# PCOD8028516 Si02
#       8
#     2   2   2   2   2   2   2   2
#     4  12  26  46  64  88 124 173 216 251 309 391
#     4  12  23  40  64  94 121 154 202 265 324 371
#     4  10  18  30  49  78 112 148 191 239 289 344
#     4  10  18  30  50  81 116 148 191 244 296 347
#     4  10  18  30  52  86 122 154 190 246 305 360
#     4  10  17  30  51  86 122 154 190 246 304 360
#     4  12  24  41  65  93 125 163 208 265 316 367
#     4  12  24  41  63  90 126 164 204 260 315 372
#
# _framework density 22.169613999999999
#
# number of rings (size 3 to 8) (size 9 to 14) (size 15 to 20)
#    0.000    1.000    0.000   12.000    0.000    0.000 
#    0.000    0.000    0.000    0.000    0.000   29.750 
#    0.000    0.000    0.000    0.000    0.000    0.000 
#
# Total GULP energy -198373.510242 kJ/mol
# GULP energy per Si atom -12398.344390 kJ/mol
# Density = 2.211916 g / cm^3
# Si number density = 22.169614 Si / 1000 Ang^3
#
#
#
# Elastic Constant Matrix: (Units=GPa)
#
#
# Indices 1 2 3 4 5 6 
#
# 1 98.0979 56.6915 -8.6992 -8.0686 15.4260 10.4600
# 2 56.6915 198.8523 1.2903 10.1285 6.5747 46.5843
# 3 -8.6992 1.2903 37.3827 -1.7929 -2.8554 5.2952
# 4 -8.0686 10.1285 -1.7929 -16.7579 -21.7662 3.3574
# 5 15.4260 6.5747 -2.8554 -21.7662 20.9308 -8.2515
# 6 10.4600 46.5843 5.2952 3.3574 -8.2515 51.7604
#
#
#
# Elastic Compliance Matrix: (Units=1/GPa)
#
#
# Indices 1 2 3 4 5 6 
#
# 1 0.013993 -0.003474 0.003005 0.001156 -0.008155 -0.001384
# 2 -0.003474 0.007160 0.000008 0.003140 0.001316 -0.005736
# 3 0.003005 0.000008 0.027689 -0.002251 -0.002222 -0.003655
# 4 0.001156 0.003140 -0.002251 -0.022753 -0.028107 -0.005834
# 5 -0.008155 0.001316 -0.002222 -0.028107 0.026497 0.006738
# 6 -0.001384 -0.005736 -0.003655 -0.005834 0.006738 0.026588
#
#
# Mechanical properties :
#
#
# Convention : Reuss Voigt Hill
#
# Bulk Modulus (GPa) = 20.86824 48.09980 34.48402
# Shear Modulus (GPa) = 52.04544 30.19001 41.11773
#
# Velocity S-wave (km/s) = 4.85046 3.69423 4.31128
# Velocity P-wave (km/s) = 6.38770 6.31979 6.35384
#
# Compressibility (1/GPa) = 0.04791971
#
# Stress axis : x y z
#
# Youngs Moduli (GPa) = 71.46465 139.67393 36.11491
#
# Poissons Ratio (x) = 0.48522 -0.10852
# Poissons Ratio (y) = 0.24826 -0.00029
# Poissons Ratio (z) = -0.21473 -0.00114
#
# Static dielectric constant tensor:
#      x y z
#    x 4.193320 0.863130 0.169720 
#    y 0.863130 5.719160 0.007730 
#    z 0.169720 0.007730 3.695180 
# 
# 
# High freq. dielectric constant tensor:
#      x y z
#    x 1.877690 0.017510 0.024730 
#    y 0.017510 1.910570 -0.007860 
#    z 0.024730 -0.007860 1.822680 
# 
# From -- ./inp_files/322656.got.cif
#   From: 2010.06.25/outbox.cif.g09.slc.cpg/sg2_162_cif.got.tgz:322656.got - 2010.06.27 13:26:56.
