data_PCOD8028994
_publ_section_title
;
Structure prediction by ZEFSAII (Michael W. Deem and Ramdas Pophale) SiO2 
 PCOD8028994
Probable space group: P -1
;
_chemical_formula_sum "Si O2"
_cell_formula_units_Z 14
_cell_length_a 14.026814
_cell_length_b 8.920557
_cell_length_c 6.818934
_cell_angle_alpha 90.912123
_cell_angle_beta 55.666979
_cell_angle_gamma 67.462977
_cell_volume 619.908684
_symmetry_space_group_name_H-M "P -1"
_symmetry_group_IT_number 2
_symmetry_cell_setting 'triclinic'
loop_
_space_group_symop_operation_xyz
x,y,z
-x,-y,-z
loop_
_atom_site_type_symbol
_atom_site_label
_atom_site_fract_x
_atom_site_fract_y
_atom_site_fract_z
Si Si1 0.368890 0.546858 0.035884
Si Si2 0.140336 0.032704 0.153398
Si Si3 0.252854 0.683576 0.564024
Si Si4 0.319610 0.376415 0.740707
Si Si5 0.921472 0.949727 0.340951
Si Si6 0.607193 0.224039 0.308142
Si Si7 0.907473 0.694874 0.059861
O O1 0.350475 0.403502 0.931857
O O2 0.351411 0.691368 0.910658
O O3 0.500000 0.500000 0.000000
O O4 0.257946 0.621641 0.334265
O O5 0.158543 0.033361 0.365332
O O6 0.070630 0.912963 0.200880
O O7 0.051297 0.226876 0.175040
O O8 0.277274 0.968523 0.868217
O O9 0.232872 0.555299 0.729817
O O10 0.383952 0.690474 0.492549
O O11 0.140289 0.878760 0.716285
O O12 0.458427 0.257311 0.465220
O O13 0.238071 0.275063 0.822125
O O14 0.911665 0.797293 0.245734
O O15 0.000000 0.500000 0.000000
#
# Coordination Sequence:
#
# PCOD8028994 Si02
#       7
#     2   2   2   2   2   2   2
#     4  11  19  37  65 102 131 168 215 266 312 377
#     4  11  25  44  71  95 125 170 232 267 312 393
#     4  11  20  39  69  96 127 169 221 261 314 379
#     4  11  25  38  66 104 137 168 211 264 326 394
#     4  11  25  45  70  94 122 175 225 272 315 380
#     4  11  21  38  66 103 125 166 219 265 318 384
#     4  12  28  46  65  93 137 174 208 270 338 384
#
# _framework density 22.583970000000001
#
# number of rings (size 3 to 8) (size 9 to 14) (size 15 to 20)
#    0.000    0.857    5.714    2.143    4.000    2.286 
#    0.000    0.714    0.000    0.000    0.000    0.000 
#    0.000    0.000    0.000    0.000    0.000    0.000 
#
# Total GULP energy -173437.352525 kJ/mol
# GULP energy per Si atom -12388.382323 kJ/mol
# Density = 2.253257 g / cm^3
# Si number density = 22.583970 Si / 1000 Ang^3
#
#
#
# Elastic Constant Matrix: (Units=GPa)
#
#
# Indices 1 2 3 4 5 6 
#
# 1 134.3217 38.9695 55.5212 4.6988 14.2751 23.0212
# 2 38.9695 100.3553 35.6128 3.6424 14.9697 6.0176
# 3 55.5212 35.6128 114.4210 1.9474 18.4593 7.0732
# 4 4.6988 3.6424 1.9474 31.6077 -3.7806 4.5109
# 5 14.2751 14.9697 18.4593 -3.7806 33.1011 -5.8206
# 6 23.0212 6.0176 7.0732 4.5109 -5.8206 30.3075
#
#
#
# Elastic Compliance Matrix: (Units=1/GPa)
#
#
# Indices 1 2 3 4 5 6 
#
# 1 0.011342 -0.002067 -0.003842 -0.000478 -0.003251 -0.007862
# 2 -0.002067 0.012172 -0.002105 -0.001287 -0.003741 -0.000882
# 3 -0.003842 -0.002105 0.011943 -0.000389 -0.004129 -0.000186
# 4 -0.000478 -0.001287 -0.000389 0.032862 0.004164 -0.003382
# 5 -0.003251 -0.003741 -0.004129 0.004164 0.037991 0.010852
# 6 -0.007862 -0.000882 -0.000186 -0.003382 0.010852 0.041773
#
#
# Mechanical properties :
#
#
# Convention : Reuss Voigt Hill
#
# Bulk Modulus (GPa) = 51.46945 67.70055 59.58500
# Shear Modulus (GPa) = 29.31040 33.60290 31.45665
#
# Velocity S-wave (km/s) = 3.60646 3.86153 3.73617
# Velocity P-wave (km/s) = 6.33892 7.06571 6.71215
#
# Compressibility (1/GPa) = 0.01942900
#
# Stress axis : x y z
#
# Youngs Moduli (GPa) = 88.16721 82.15450 83.72972
#
# Poissons Ratio (x) = 0.16984 0.32165
# Poissons Ratio (y) = 0.18227 0.17628
# Poissons Ratio (z) = 0.33870 0.17296
#
# Static dielectric constant tensor:
#      x y z
#    x 2.545430 0.671450 -1.253880 
#    y 0.671450 3.609890 0.741500 
#    z -1.253880 0.741500 2.835270 
# 
# 
# High freq. dielectric constant tensor:
#      x y z
#    x 1.890030 -0.022000 0.010110 
#    y -0.022000 1.884200 -0.002980 
#    z 0.010110 -0.002980 1.887650 
# 
# From -- ./inp_files/92588.got.cif
#   From: 2010.06.25/outbox.cif.g09.slc.cpg/sg2_47_cif.got.tgz:92588.got - 2010.06.27 13:26:56.
