data_PCOD8028498
_publ_section_title
;
Structure prediction by ZEFSAII (Michael W. Deem and Ramdas Pophale) SiO2 
 PCOD8028498
Probable space group: P -1
;
_chemical_formula_sum "Si O2"
_cell_formula_units_Z 14
_cell_length_a 9.159570
_cell_length_b 12.723870
_cell_length_c 10.748908
_cell_angle_alpha 96.583981
_cell_angle_beta 84.172688
_cell_angle_gamma 149.667679
_cell_volume 628.468013
_symmetry_space_group_name_H-M "P -1"
_symmetry_group_IT_number 2
_symmetry_cell_setting 'triclinic'
loop_
_space_group_symop_operation_xyz
x,y,z
-x,-y,-z
loop_
_atom_site_type_symbol
_atom_site_label
_atom_site_fract_x
_atom_site_fract_y
_atom_site_fract_z
Si Si1 0.315758 0.076703 0.471432
Si Si2 0.257882 0.504772 0.986745
Si Si3 0.663570 0.674944 0.411578
Si Si4 0.334010 0.383607 0.175041
Si Si5 0.235419 0.707353 0.150439
Si Si6 0.106129 0.603258 0.638479
Si Si7 0.785641 0.097159 0.297037
O O1 0.396145 0.241769 0.537553
O O2 0.545462 0.190756 0.360096
O O3 0.353590 0.021046 0.576276
O O4 0.004896 0.867453 0.409901
O O5 0.230713 0.394528 0.073542
O O6 0.336441 0.666015 0.061679
O O7 0.514226 0.630142 0.886495
O O8 0.946859 0.324203 0.921933
O O9 0.500000 0.500000 0.500000
O O10 0.559792 0.586486 0.269661
O O11 0.037848 0.169674 0.245947
O O12 0.035814 0.554487 0.264058
O O13 0.528808 0.946998 0.199210
O O14 0.035692 0.682421 0.678660
O O15 0.000000 0.500000 0.500000
#
# Coordination Sequence:
#
# PCOD8028498 Si02
#       7
#     2   2   2   2   2   2   2
#     4  11  25  39  66 109 136 179 218 274 360 412
#     4  10  25  47  67  96 135 189 228 288 332 396
#     4  11  24  42  69  99 142 172 226 285 341 412
#     4  11  23  45  72  95 138 182 228 282 345 397
#     4  11  25  46  70  99 141 173 239 284 336 405
#     4  12  25  41  70 103 140 175 220 283 350 408
#     4  12  24  42  73 103 136 180 226 281 348 416
#
# _framework density 22.276391
#
# number of rings (size 3 to 8) (size 9 to 14) (size 15 to 20)
#    0.000    0.857    4.286    2.143    4.000    1.143 
#    0.000    0.000    0.000    0.000    0.000    0.000 
#    0.000    0.000    0.000    0.000    0.000    0.000 
#
# Total GULP energy -173638.595224 kJ/mol
# GULP energy per Si atom -12402.756802 kJ/mol
# Density = 2.222569 g / cm^3
# Si number density = 22.276391 Si / 1000 Ang^3
#
#
#
# Elastic Constant Matrix: (Units=GPa)
#
#
# Indices 1 2 3 4 5 6 
#
# 1 109.6619 29.7873 48.0390 8.1493 -8.8106 14.6228
# 2 29.7873 102.9756 51.8173 9.5747 -9.0748 12.7180
# 3 48.0390 51.8173 111.4799 13.1896 -5.0450 16.4842
# 4 8.1493 9.5747 13.1896 32.4617 12.5761 -1.3629
# 5 -8.8106 -9.0748 -5.0450 12.5761 39.7537 -11.5243
# 6 14.6228 12.7180 16.4842 -1.3629 -11.5243 33.8679
#
#
#
# Elastic Compliance Matrix: (Units=1/GPa)
#
#
# Indices 1 2 3 4 5 6 
#
# 1 0.011681 -0.000720 -0.004061 -0.001883 0.001855 -0.002241
# 2 -0.000720 0.013172 -0.005179 -0.002685 0.002657 -0.001318
# 3 -0.004061 -0.005179 0.013982 -0.003169 -0.000270 -0.003326
# 4 -0.001883 -0.002685 -0.003169 0.038625 -0.013564 0.000303
# 5 0.001855 0.002657 -0.000270 -0.013564 0.033047 0.009032
# 6 -0.002241 -0.001318 -0.003326 0.000303 0.009032 0.035694
#
#
# Mechanical properties :
#
#
# Convention : Reuss Voigt Hill
#
# Bulk Modulus (GPa) = 52.86877 64.82272 58.84575
# Shear Modulus (GPa) = 28.99758 34.18158 31.58958
#
# Velocity S-wave (km/s) = 3.61185 3.92143 3.76982
# Velocity P-wave (km/s) = 6.41705 7.04741 6.73960
#
# Compressibility (1/GPa) = 0.01891476
#
# Stress axis : x y z
#
# Youngs Moduli (GPa) = 85.60701 75.91696 71.51936
#
# Poissons Ratio (x) = 0.05468 0.29043
# Poissons Ratio (y) = 0.06166 0.37043
# Poissons Ratio (z) = 0.34764 0.39321
#
# Static dielectric constant tensor:
#      x y z
#    x 4.209030 0.279060 -0.160330 
#    y 0.279060 4.152380 -0.004400 
#    z -0.160330 -0.004400 4.249850 
# 
# 
# High freq. dielectric constant tensor:
#      x y z
#    x 1.886730 0.019000 -0.005010 
#    y 0.019000 1.874330 0.002130 
#    z -0.005010 0.002130 1.883200 
# 
# From -- ./inp_files/77445.got.cif
#   From: 2010.06.25/outbox.cif.g09.slc.cpg/sg2_39_cif.got.tgz:77445.got - 2010.06.27 13:26:56.
