data_PCOD8028666
_publ_section_title
;
Structure prediction by ZEFSAII (Michael W. Deem and Ramdas Pophale) SiO2 
 PCOD8028666
Probable space group: P -1
;
_chemical_formula_sum "Si O2"
_cell_formula_units_Z 14
_cell_length_a 7.579068
_cell_length_b 13.214188
_cell_length_c 11.209349
_cell_angle_alpha 48.845245
_cell_angle_beta 82.117458
_cell_angle_gamma 80.255582
_cell_volume 832.570228
_symmetry_space_group_name_H-M "P -1"
_symmetry_group_IT_number 2
_symmetry_cell_setting 'triclinic'
loop_
_space_group_symop_operation_xyz
x,y,z
-x,-y,-z
loop_
_atom_site_type_symbol
_atom_site_label
_atom_site_fract_x
_atom_site_fract_y
_atom_site_fract_z
Si Si1 0.174963 0.607474 0.498820
Si Si2 0.979138 0.722140 0.853972
Si Si3 0.427674 0.794945 0.435623
Si Si4 0.780684 0.611738 0.520700
Si Si5 0.317332 0.856913 0.647958
Si Si6 0.643936 0.920980 0.699667
Si Si7 0.025979 0.478052 0.208128
O O1 0.292751 0.731458 0.407086
O O2 0.273286 0.501823 0.478087
O O3 0.974306 0.660877 0.427482
O O4 0.152380 0.533706 0.686267
O O5 0.796039 0.815874 0.823112
O O6 0.957733 0.636877 0.803825
O O7 0.137177 0.816963 0.753982
O O8 0.018713 0.626279 0.038259
O O9 0.630888 0.737870 0.432976
O O10 0.378569 0.760229 0.604514
O O11 0.407909 0.957781 0.294130
O O12 0.799163 0.547570 0.702380
O O13 0.470598 0.844388 0.744880
O O14 0.287026 0.012806 0.481558
#
# Coordination Sequence:
#
# PCOD8028666 Si02
#       7
#     2   2   2   2   2   2   2
#     4   9  18  33  52  74  92 129 161 201 244 263
#     4  11  18  33  48  72 107 127 153 188 249 296
#     4  10  17  30  52  75  93 120 166 202 241 269
#     4   9  18  33  50  74  97 119 169 204 227 285
#     4   9  18  30  48  74  97 128 158 194 241 278
#     4   9  20  30  48  73  99 127 162 197 230 292
#     4   9  19  32  49  73 100 130 154 193 241 295
#
# _framework density 16.815397999999998
#
# number of rings (size 3 to 8) (size 9 to 14) (size 15 to 20)
#    1.714    0.857    1.429    1.714    0.000    1.143 
#    2.571    2.143    0.000    1.714    0.000    0.000 
#    0.000    0.000    0.000    0.000    0.000    0.000 
#
# Total GULP energy -173459.255844 kJ/mol
# GULP energy per Si atom -12389.946846 kJ/mol
# Density = 1.677713 g / cm^3
# Si number density = 16.815398 Si / 1000 Ang^3
#
#
#
# Elastic Constant Matrix: (Units=GPa)
#
#
# Indices 1 2 3 4 5 6 
#
# 1 89.2273 43.6231 18.2946 -18.1556 17.7493 4.8649
# 2 43.6231 99.2330 26.0888 -8.5742 17.0497 8.1769
# 3 18.2946 26.0888 43.2496 -10.7541 8.6280 -4.6451
# 4 -18.1556 -8.5742 -10.7541 20.0454 -5.8762 1.7856
# 5 17.7493 17.0497 8.6280 -5.8762 13.6869 -6.2830
# 6 4.8649 8.1769 -4.6451 1.7856 -6.2830 27.5243
#
#
#
# Elastic Compliance Matrix: (Units=1/GPa)
#
#
# Indices 1 2 3 4 5 6 
#
# 1 0.019542 -0.003597 -0.000304 0.010975 -0.019441 -0.007586
# 2 -0.003597 0.017142 -0.007265 -0.004358 -0.018385 -0.009597
# 3 -0.000304 -0.007265 0.031886 0.012450 -0.002453 0.006226
# 4 0.010975 -0.004358 0.012450 0.068360 0.012656 -0.000090
# 5 -0.019441 -0.018385 -0.002453 0.012656 0.147087 0.041239
# 6 -0.007586 -0.009597 0.006226 -0.000090 0.041239 0.050994
#
#
# Mechanical properties :
#
#
# Convention : Reuss Voigt Hill
#
# Bulk Modulus (GPa) = 21.62751 45.30253 33.46502
# Shear Modulus (GPa) = 13.41359 21.83156 17.62257
#
# Velocity S-wave (km/s) = 2.82742 3.60711 3.24080
# Velocity P-wave (km/s) = 4.85270 6.65942 5.82652
#
# Compressibility (1/GPa) = 0.04623740
#
# Stress axis : x y z
#
# Youngs Moduli (GPa) = 51.17100 58.33706 31.36132
#
# Poissons Ratio (x) = 0.20986 0.00954
# Poissons Ratio (y) = 0.18408 0.22785
# Poissons Ratio (z) = 0.01556 0.42383
#
# Static dielectric constant tensor:
#      x y z
#    x 3.009080 0.089620 0.056420 
#    y 0.089620 3.089870 0.000370 
#    z 0.056420 0.000370 2.745270 
# 
# 
# High freq. dielectric constant tensor:
#      x y z
#    x 1.647300 0.009470 0.008330 
#    y 0.009470 1.650410 -0.006240 
#    z 0.008330 -0.006240 1.597030 
# 
# From -- ./inp_files/386694.got.cif
#   From: 2010.06.25/outbox.cif.g09.slc.cpg/sg2_194_cif.got.tgz:386694.got - 2010.06.27 13:26:56.
