data_PCOD8028782
_publ_section_title
;
Structure prediction by ZEFSAII (Michael W. Deem and Ramdas Pophale) SiO2 
 PCOD8028782
Probable space group: P -1
;
_chemical_formula_sum "Si O2"
_cell_formula_units_Z 14
_cell_length_a 11.056851
_cell_length_b 11.279710
_cell_length_c 12.270518
_cell_angle_alpha 40.172137
_cell_angle_beta 101.752709
_cell_angle_gamma 70.407872
_cell_volume 607.971733
_symmetry_space_group_name_H-M "P -1"
_symmetry_group_IT_number 2
_symmetry_cell_setting 'triclinic'
loop_
_space_group_symop_operation_xyz
x,y,z
-x,-y,-z
loop_
_atom_site_type_symbol
_atom_site_label
_atom_site_fract_x
_atom_site_fract_y
_atom_site_fract_z
Si Si1 0.084745 0.167101 0.162429
Si Si2 0.798778 0.339541 0.163594
Si Si3 0.713683 0.095757 0.175220
Si Si4 0.059017 0.640547 0.422923
Si Si5 0.579510 0.935949 0.678665
Si Si6 0.803694 0.581228 0.621890
Si Si7 0.723899 0.405375 0.339338
O O1 0.221044 0.180457 0.207063
O O2 0.941466 0.297163 0.146324
O O3 0.222610 0.828999 0.409069
O O4 0.967067 0.347716 0.905067
O O5 0.714926 0.251825 0.156817
O O6 0.867453 0.220572 0.386018
O O7 0.614431 0.691048 0.906277
O O8 0.794213 0.811940 0.438567
O O9 0.502639 0.329116 0.917445
O O10 0.867185 0.978223 0.189563
O O11 0.142722 0.599795 0.348581
O O12 0.224587 0.473804 0.665039
O O13 0.000000 0.500000 0.500000
O O14 0.500000 0.000000 0.500000
O O15 0.412705 0.232499 0.510321
#
# Coordination Sequence:
#
# PCOD8028782 Si02
#       7
#     2   2   2   2   2   2   2
#     4  12  28  43  72 107 147 185 230 290 368 415
#     4  12  25  45  75 106 143 181 239 295 354 418
#     4  11  25  48  76 105 142 184 242 296 349 422
#     4  10  26  47  75 102 142 188 244 291 344 420
#     4  12  26  44  70 109 149 183 231 294 362 425
#     4  11  27  48  72 103 146 187 238 288 356 417
#     4  12  26  45  75 109 139 189 239 295 352 419
#
# _framework density 23.027384000000001
#
# number of rings (size 3 to 8) (size 9 to 14) (size 15 to 20)
#    0.000    0.571    4.286    2.143    6.000    4.000 
#    0.000    1.429    0.000    0.000    0.000    0.000 
#    0.000    0.000    0.000    0.000    0.000    0.000 
#
# Total GULP energy -173567.440302 kJ/mol
# GULP energy per Si atom -12397.674307 kJ/mol
# Density = 2.297497 g / cm^3
# Si number density = 23.027384 Si / 1000 Ang^3
#
#
#
# Elastic Constant Matrix: (Units=GPa)
#
#
# Indices 1 2 3 4 5 6 
#
# 1 101.7452 64.7626 68.1088 21.2275 23.9663 10.9582
# 2 64.7626 172.5783 67.3086 30.1285 17.3225 -3.1664
# 3 68.1088 67.3086 155.6986 18.0986 7.8291 8.4140
# 4 21.2275 30.1285 18.0986 31.8738 9.7849 2.0207
# 5 23.9663 17.3225 7.8291 9.7849 37.0773 -0.3065
# 6 10.9582 -3.1664 8.4140 2.0207 -0.3065 48.3222
#
#
#
# Elastic Compliance Matrix: (Units=1/GPa)
#
#
# Indices 1 2 3 4 5 6 
#
# 1 0.019021 -0.003514 -0.005811 -0.003182 -0.008614 -0.003453
# 2 -0.003514 0.008709 -0.001744 -0.004991 -0.000096 0.001879
# 3 -0.005811 -0.001744 0.009698 -0.000798 0.002731 -0.000434
# 4 -0.003182 -0.004991 -0.000798 0.040637 -0.006177 -0.001205
# 5 -0.008614 -0.000096 0.002731 -0.006177 0.033654 0.001943
# 6 -0.003453 0.001879 -0.000434 -0.001205 0.001943 0.021739
#
#
# Mechanical properties :
#
#
# Convention : Reuss Voigt Hill
#
# Bulk Modulus (GPa) = 65.41298 92.26466 78.83882
# Shear Modulus (GPa) = 31.11539 38.77747 34.94643
#
# Velocity S-wave (km/s) = 3.67990 4.10807 3.89987
# Velocity P-wave (km/s) = 6.82084 7.91556 7.38850
#
# Compressibility (1/GPa) = 0.01528749
#
# Stress axis : x y z
#
# Youngs Moduli (GPa) = 52.57454 114.82408 103.11627
#
# Poissons Ratio (x) = 0.40353 0.59925
# Poissons Ratio (y) = 0.18477 0.17985
# Poissons Ratio (z) = 0.30553 0.20027
#
# Static dielectric constant tensor:
#      x y z
#    x 4.168290 -0.565480 0.276700 
#    y -0.565480 4.731640 0.134780 
#    z 0.276700 0.134780 3.890150 
# 
# 
# High freq. dielectric constant tensor:
#      x y z
#    x 1.912920 -0.007320 0.007220 
#    y -0.007320 1.915040 -0.006940 
#    z 0.007220 -0.006940 1.919920 
# 
# From -- ./inp_files/427411.got.cif
#   From: 2010.06.25/outbox.cif.g09.slc.cpg/sg2_214_cif.got.tgz:427411.got - 2010.06.27 13:26:56.
