data_PCOD8028614
_publ_section_title
;
Structure prediction by ZEFSAII (Michael W. Deem and Ramdas Pophale) SiO2 
 PCOD8028614
Probable space group: P -1
;
_chemical_formula_sum "Si O2"
_cell_formula_units_Z 12
_cell_length_a 9.768310
_cell_length_b 15.430485
_cell_length_c 5.083102
_cell_angle_alpha 119.644472
_cell_angle_beta 91.611285
_cell_angle_gamma 48.077709
_cell_volume 437.968556
_symmetry_space_group_name_H-M "P -1"
_symmetry_group_IT_number 2
_symmetry_cell_setting 'triclinic'
loop_
_space_group_symop_operation_xyz
x,y,z
-x,-y,-z
loop_
_atom_site_type_symbol
_atom_site_label
_atom_site_fract_x
_atom_site_fract_y
_atom_site_fract_z
Si Si1 0.370900 0.525735 0.789071
Si Si2 0.246532 0.790240 0.811867
Si Si3 0.691553 0.874970 0.136074
Si Si4 0.958347 0.455019 0.177600
Si Si5 0.973278 0.134144 0.617422
Si Si6 0.659271 0.044688 0.968249
O O1 0.556833 0.393919 0.385372
O O2 0.268195 0.472836 0.755926
O O3 0.500000 0.500000 0.000000
O O4 0.172519 0.706318 0.981844
O O5 0.109355 0.824025 0.619591
O O6 0.089786 0.915685 0.234709
O O7 0.345245 0.837444 0.779998
O O8 0.583094 0.853265 0.901074
O O9 0.500000 0.000000 0.500000
O O10 0.880373 0.725031 0.081566
O O11 0.772325 0.922415 0.028107
O O12 0.000000 0.500000 0.500000
O O13 0.000000 0.500000 0.000000
O O14 0.212527 0.040499 0.439794
#
# Coordination Sequence:
#
# PCOD8028614 Si02
#       6
#     2   2   2   2   2   2
#     4  10  25  48  79 110 157 203 262 321 396 460
#     4  11  25  44  73 109 147 197 253 316 382 462
#     4  11  28  47  78 107 155 208 255 326 391 466
#     4  12  30  51  82 116 159 207 269 327 395 473
#     4  11  25  44  73 109 150 198 250 317 386 457
#     4  11  26  46  73 111 153 200 261 316 394 467
#
# _framework density 27.399228999999998
#
# number of rings (size 3 to 8) (size 9 to 14) (size 15 to 20)
#    0.000    1.000    0.000    3.500   16.333    5.333 
#    0.000    0.000    0.000    0.000    0.000    0.000 
#    0.000    0.000    0.000    0.000    0.000    0.000 
#
# Total GULP energy -148676.565633 kJ/mol
# GULP energy per Si atom -12389.713803 kJ/mol
# Density = 2.733687 g / cm^3
# Si number density = 27.399229 Si / 1000 Ang^3
#
#
#
# Elastic Constant Matrix: (Units=GPa)
#
#
# Indices 1 2 3 4 5 6 
#
# 1 164.9844 30.4095 54.0433 -7.9462 -14.5056 -6.2155
# 2 30.4095 143.3434 40.2291 1.5321 -19.1672 3.7012
# 3 54.0433 40.2291 153.6694 -8.6733 -27.8507 3.3647
# 4 -7.9462 1.5321 -8.6733 50.6828 1.1055 -4.1300
# 5 -14.5056 -19.1672 -27.8507 1.1055 39.5156 -4.3440
# 6 -6.2155 3.7012 3.3647 -4.1300 -4.3440 32.8204
#
#
#
# Elastic Compliance Matrix: (Units=1/GPa)
#
#
# Indices 1 2 3 4 5 6 
#
# 1 0.007101 -0.000856 -0.002101 0.000914 0.000893 0.001890
# 2 -0.000856 0.007894 -0.001334 -0.000711 0.002521 -0.000671
# 3 -0.002101 -0.001334 0.008475 0.001031 0.004483 -0.000393
# 4 0.000914 -0.000711 0.001031 0.020287 0.000454 0.002760
# 5 0.000893 0.002521 0.004483 0.000454 0.030389 0.003504
# 6 0.001890 -0.000671 -0.000393 0.002760 0.003504 0.031754
#
#
# Mechanical properties :
#
#
# Convention : Reuss Voigt Hill
#
# Bulk Modulus (GPa) = 67.17046 79.04011 73.10528
# Shear Modulus (GPa) = 41.86023 47.09142 44.47582
#
# Velocity S-wave (km/s) = 3.91293 4.15023 4.03333
# Velocity P-wave (km/s) = 6.70697 7.20251 6.95915
#
# Compressibility (1/GPa) = 0.01488750
#
# Stress axis : x y z
#
# Youngs Moduli (GPa) = 140.82632 126.67426 117.99448
#
# Poissons Ratio (x) = 0.10842 0.24793
# Poissons Ratio (y) = 0.12054 0.15743
# Poissons Ratio (z) = 0.29591 0.16901
#
# Static dielectric constant tensor:
#      x y z
#    x 8.899780 -0.925770 -0.528500 
#    y -0.925770 5.414270 0.772310 
#    z -0.528500 0.772310 5.610650 
# 
# 
# High freq. dielectric constant tensor:
#      x y z
#    x 2.145300 0.017100 -0.005660 
#    y 0.017100 2.112790 0.014210 
#    z -0.005660 0.014210 2.140100 
# 
# From -- ./inp_files/40210.got.cif
#   From: 2010.06.25/outbox.cif.g09.slc.cpg/sg2_21_cif.got.tgz:40210.got - 2010.06.27 13:26:56.
