data_PCOD8028916
_publ_section_title
;
Structure prediction by ZEFSAII (Michael W. Deem and Ramdas Pophale) SiO2 
 PCOD8028916
Probable space group: P -1
;
_chemical_formula_sum "Si O2"
_cell_formula_units_Z 16
_cell_length_a 10.110234
_cell_length_b 22.071122
_cell_length_c 8.864781
_cell_angle_alpha 126.729126
_cell_angle_beta 149.747348
_cell_angle_gamma 62.658795
_cell_volume 790.669233
_symmetry_space_group_name_H-M "P -1"
_symmetry_group_IT_number 2
_symmetry_cell_setting 'triclinic'
loop_
_space_group_symop_operation_xyz
x,y,z
-x,-y,-z
loop_
_atom_site_type_symbol
_atom_site_label
_atom_site_fract_x
_atom_site_fract_y
_atom_site_fract_z
Si Si1 0.790555 0.974686 0.935832
Si Si2 0.662773 0.401282 0.790556
Si Si3 0.401075 0.796198 0.051073
Si Si4 0.671902 0.951024 0.436972
Si Si5 0.889288 0.809761 0.757983
Si Si6 0.664741 0.364493 0.391661
Si Si7 0.874156 0.657883 0.660333
Si Si8 0.187865 0.422284 0.838281
O O1 0.741129 0.982579 0.720205
O O2 0.839969 0.889653 0.902784
O O3 0.518010 0.998853 0.769178
O O4 0.036720 0.035131 0.332053
O O5 0.657274 0.369951 0.570788
O O6 0.391592 0.370984 0.558507
O O7 0.700151 0.492221 0.969291
O O8 0.890276 0.370061 0.059841
O O9 0.535993 0.863235 0.173594
O O10 0.625025 0.775604 0.355554
O O11 0.299319 0.721875 0.742459
O O12 0.150516 0.823385 0.929995
O O13 0.925032 0.750105 0.837449
O O14 0.914606 0.421512 0.659407
O O15 0.395988 0.387838 0.096743
O O16 0.871288 0.627553 0.442713
#
# Coordination Sequence:
#
# PCOD8028916 Si02
#       8
#     2   2   2   2   2   2   2   2
#     4   9  16  27  44  76 108 144 173 227 280 327
#     4  12  26  40  61  87 118 149 196 243 289 343
#     4  11  19  33  53  81 111 150 184 233 278 340
#     4   9  16  26  45  74 112 138 177 225 284 322
#     4  11  20  33  55  78 115 148 188 227 281 338
#     4  12  23  41  61  88 115 154 193 238 293 342
#     4  12  23  41  59  88 116 154 190 241 291 341
#     4  12  23  43  64  84 113 153 197 242 290 343
#
# _framework density 20.236024
#
# number of rings (size 3 to 8) (size 9 to 14) (size 15 to 20)
#    0.000    1.000    2.500    8.250    0.000    0.000 
#    0.000    0.000    0.000    0.000    0.000    5.250 
#    0.000    0.000    0.000    0.000    0.000    0.000 
#
# Total GULP energy -198377.510028 kJ/mol
# GULP energy per Si atom -12398.594377 kJ/mol
# Density = 2.018997 g / cm^3
# Si number density = 20.236024 Si / 1000 Ang^3
#
#
#
# Elastic Constant Matrix: (Units=GPa)
#
#
# Indices 1 2 3 4 5 6 
#
# 1 131.9857 54.3246 38.6332 -26.3188 18.9240 41.7184
# 2 54.3246 167.1577 49.9518 -13.5249 5.6279 37.7137
# 3 38.6332 49.9518 108.2786 -18.3312 17.5003 9.1842
# 4 -26.3188 -13.5249 -18.3312 51.9354 5.9004 -1.3967
# 5 18.9240 5.6279 17.5003 5.9004 33.8598 0.6171
# 6 41.7184 37.7137 9.1842 -1.3967 0.6171 35.7046
#
#
#
# Elastic Compliance Matrix: (Units=1/GPa)
#
#
# Indices 1 2 3 4 5 6 
#
# 1 0.017371 0.000325 -0.001507 0.008983 -0.010189 -0.019725
# 2 0.000325 0.008979 -0.003315 0.001090 0.000013 -0.008969
# 3 -0.001507 -0.003315 0.012653 0.003559 -0.005807 0.002247
# 4 0.008983 0.001090 0.003559 0.026340 -0.011425 -0.011335
# 5 -0.010189 0.000013 -0.005807 -0.011425 0.039995 0.012248
# 6 -0.019725 -0.008969 0.002247 -0.011335 0.012248 0.059295
#
#
# Mechanical properties :
#
#
# Convention : Reuss Voigt Hill
#
# Bulk Modulus (GPa) = 33.32384 77.02680 55.17532
# Shear Modulus (GPa) = 27.22887 41.93411 34.58149
#
# Velocity S-wave (km/s) = 3.67217 4.55714 4.13838
# Velocity P-wave (km/s) = 5.87223 8.11399 7.08237
#
# Compressibility (1/GPa) = 0.03000855
#
# Stress axis : x y z
#
# Youngs Moduli (GPa) = 57.56833 111.37694 79.03293
#
# Poissons Ratio (x) = -0.03622 0.11912
# Poissons Ratio (y) = -0.01872 0.26198
# Poissons Ratio (z) = 0.08677 0.36919
#
# Static dielectric constant tensor:
#      x y z
#    x 3.410550 -0.041200 0.331060 
#    y -0.041200 3.874020 -0.161970 
#    z 0.331060 -0.161970 3.945020 
# 
# 
# High freq. dielectric constant tensor:
#      x y z
#    x 1.741750 -0.000360 0.032300 
#    y -0.000360 1.810920 -0.008170 
#    z 0.032300 -0.008170 1.808690 
# 
# From -- ./inp_files/226061.got.cif
#   From: 2010.06.25/outbox.cif.g09.slc.cpg/sg2_114_cif.got.tgz:226061.got - 2010.06.27 13:26:56.
