data_PCOD8028990
_publ_section_title
;
Structure prediction by ZEFSAII (Michael W. Deem and Ramdas Pophale) SiO2 
 PCOD8028990
Probable space group: P -1
;
_chemical_formula_sum "Si O2"
_cell_formula_units_Z 14
_cell_length_a 8.887370
_cell_length_b 6.817960
_cell_length_c 11.423186
_cell_angle_alpha 91.611874
_cell_angle_beta 117.228949
_cell_angle_gamma 89.604272
_cell_volume 615.213108
_symmetry_space_group_name_H-M "P -1"
_symmetry_group_IT_number 2
_symmetry_cell_setting 'triclinic'
loop_
_space_group_symop_operation_xyz
x,y,z
-x,-y,-z
loop_
_atom_site_type_symbol
_atom_site_label
_atom_site_fract_x
_atom_site_fract_y
_atom_site_fract_z
Si Si1 0.806098 0.453257 0.409941
Si Si2 0.806778 0.429323 0.790774
Si Si3 0.166298 0.523309 0.846049
Si Si4 0.156044 0.879300 0.006002
Si Si5 0.532921 0.727065 0.422575
Si Si6 0.561066 0.149072 0.359479
Si Si7 0.318948 0.270547 0.085244
O O1 0.764211 0.480174 0.259308
O O2 0.695312 0.599132 0.450242
O O3 0.754928 0.232072 0.432126
O O4 0.000000 0.500000 0.500000
O O5 0.779872 0.254297 0.868952
O O6 0.639657 0.403218 0.650964
O O7 0.817839 0.636739 0.869595
O O8 0.984059 0.409099 0.784841
O O9 0.135228 0.747670 0.880049
O O10 0.311770 0.414289 0.972612
O O11 0.290067 0.049880 0.027191
O O12 0.000000 0.000000 0.000000
O O13 0.547288 0.792749 0.563447
O O14 0.546986 0.914309 0.343324
O O15 0.491857 0.262300 0.220922
#
# Coordination Sequence:
#
# PCOD8028990 Si02
#       7
#     2   2   2   2   2   2   2
#     4  12  28  48  67  95 139 177 213 278 345 389
#     4  11  20  39  68  99 129 171 230 264 317 395
#     4  11  25  39  66 106 136 171 218 267 335 402
#     4  11  19  37  63 101 136 174 219 268 319 387
#     4  11  25  45  72  98 127 175 235 272 316 402
#     4  11  25  46  72  98 128 177 227 274 327 389
#     4  11  21  39  70  98 132 170 220 273 324 384
#
# _framework density 22.756340000000002
#
# number of rings (size 3 to 8) (size 9 to 14) (size 15 to 20)
#    0.000    0.857    5.714    2.143    2.000    2.286 
#    0.000    1.429    0.000    0.000    0.000    0.000 
#    0.000    0.000    0.000    0.000    0.000    0.000 
#
# Total GULP energy -173460.644312 kJ/mol
# GULP energy per Si atom -12390.046022 kJ/mol
# Density = 2.270455 g / cm^3
# Si number density = 22.756340 Si / 1000 Ang^3
#
#
#
# Elastic Constant Matrix: (Units=GPa)
#
#
# Indices 1 2 3 4 5 6 
#
# 1 85.9973 35.4224 30.8668 -0.7734 6.7728 18.5326
# 2 35.4224 143.0472 31.5925 -3.0733 0.4191 12.7121
# 3 30.8668 31.5925 84.9840 -1.4809 2.4216 3.4852
# 4 -0.7734 -3.0733 -1.4809 27.3121 0.9949 0.2526
# 5 6.7728 0.4191 2.4216 0.9949 31.1802 -4.8301
# 6 18.5326 12.7121 3.4852 0.2526 -4.8301 24.9367
#
#
#
# Elastic Compliance Matrix: (Units=1/GPa)
#
#
# Indices 1 2 3 4 5 6 
#
# 1 0.017249 -0.002109 -0.004832 0.000291 -0.005224 -0.012084
# 2 -0.002109 0.008215 -0.002185 0.000763 0.000137 -0.002297
# 3 -0.004832 -0.002185 0.014214 0.000348 0.000396 0.002791
# 4 0.000291 0.000763 0.000348 0.036793 -0.001478 -0.001313
# 5 -0.005224 0.000137 0.000396 -0.001478 0.034851 0.010523
# 6 -0.012084 -0.002297 0.002791 -0.001313 0.010523 0.051914
#
#
# Mechanical properties :
#
#
# Convention : Reuss Voigt Hill
#
# Bulk Modulus (GPa) = 46.66592 56.64354 51.65473
# Shear Modulus (GPa) = 26.50690 31.09558 28.80124
#
# Velocity S-wave (km/s) = 3.41664 3.70057 3.56144
# Velocity P-wave (km/s) = 6.00965 6.57300 6.29763
#
# Compressibility (1/GPa) = 0.02142891
#
# Stress axis : x y z
#
# Youngs Moduli (GPa) = 57.97332 121.72183 70.35226
#
# Poissons Ratio (x) = 0.25670 0.33991
# Poissons Ratio (y) = 0.12226 0.15369
# Poissons Ratio (z) = 0.28010 0.26591
#
# Static dielectric constant tensor:
#      x y z
#    x 3.848080 0.294640 -0.028700 
#    y 0.294640 6.545480 -0.215460 
#    z -0.028700 -0.215460 4.159940 
# 
# 
# High freq. dielectric constant tensor:
#      x y z
#    x 1.875050 0.007950 0.000420 
#    y 0.007950 1.911180 0.001420 
#    z 0.000420 0.001420 1.896760 
# 
# From -- ./inp_files/409082.got.cif
#   From: 2010.06.25/outbox.cif.g09.slc.cpg/sg2_205_cif.got.tgz:409082.got - 2010.06.27 13:26:56.
