data_PCOD8028875
_publ_section_title
;
Structure prediction by ZEFSAII (Michael W. Deem and Ramdas Pophale) SiO2 
 PCOD8028875
Probable space group: P -1
;
_chemical_formula_sum "Si O2"
_cell_formula_units_Z 14
_cell_length_a 11.520383
_cell_length_b 10.796436
_cell_length_c 13.845596
_cell_angle_alpha 45.768412
_cell_angle_beta 123.062201
_cell_angle_gamma 145.458805
_cell_volume 697.847270
_symmetry_space_group_name_H-M "P -1"
_symmetry_group_IT_number 2
_symmetry_cell_setting 'triclinic'
loop_
_space_group_symop_operation_xyz
x,y,z
-x,-y,-z
loop_
_atom_site_type_symbol
_atom_site_label
_atom_site_fract_x
_atom_site_fract_y
_atom_site_fract_z
Si Si1 0.245057 0.624744 0.352270
Si Si2 0.258602 0.516914 0.618339
Si Si3 0.943705 0.886489 0.401772
Si Si4 0.994505 0.267263 0.811683
Si Si5 0.276790 0.304107 0.052446
Si Si6 0.627285 0.621365 0.731086
Si Si7 0.435823 0.278997 0.655616
O O1 0.279958 0.681109 0.453904
O O2 0.131313 0.688002 0.224806
O O3 0.465501 0.803928 0.300350
O O4 0.112256 0.326592 0.436196
O O5 0.484549 0.655188 0.671668
O O6 0.123711 0.230868 0.673382
O O7 0.143253 0.482159 0.678934
O O8 0.813730 0.941564 0.339263
O O9 0.183083 0.142809 0.377222
O O10 0.832407 0.981586 0.851390
O O11 0.136119 0.318499 0.930827
O O12 0.297405 0.383867 0.129543
O O13 0.500000 0.500000 0.000000
O O14 0.511470 0.370670 0.751215
O O15 0.500000 0.500000 0.500000
#
# Coordination Sequence:
#
# PCOD8028875 Si02
#       7
#     2   2   2   2   2   2   2
#     4   9  19  37  52  83 114 143 169 218 280 317
#     4   9  18  33  55  82 112 135 172 223 272 319
#     4   8  18  32  55  81 110 141 171 215 272 309
#     4  11  21  38  56  76 116 142 175 226 271 315
#     4  11  23  37  57  79 102 147 189 220 261 321
#     4  11  18  35  58  82 106 142 186 217 260 320
#     4   9  18  34  54  80 114 141 176 215 265 326
#
# _framework density 20.061696000000001
#
# number of rings (size 3 to 8) (size 9 to 14) (size 15 to 20)
#    0.857    1.429    4.286    0.429    0.000    2.286 
#    2.571    2.143    0.000    1.714    0.000    0.000 
#    0.000    0.000    0.000    0.000    0.000    0.000 
#
# Total GULP energy -173434.076841 kJ/mol
# GULP energy per Si atom -12388.148346 kJ/mol
# Density = 2.001603 g / cm^3
# Si number density = 20.061696 Si / 1000 Ang^3
#
#
#
# Elastic Constant Matrix: (Units=GPa)
#
#
# Indices 1 2 3 4 5 6 
#
# 1 124.0188 24.1517 44.1939 5.9450 27.0962 22.0479
# 2 24.1517 58.5443 24.1653 9.2335 6.2533 17.0756
# 3 44.1939 24.1653 82.2438 18.7985 9.3341 -3.7181
# 4 5.9450 9.2335 18.7985 22.3220 1.4284 -5.5120
# 5 27.0962 6.2533 9.3341 1.4284 34.6934 14.5802
# 6 22.0479 17.0756 -3.7181 -5.5120 14.5802 27.6460
#
#
#
# Elastic Compliance Matrix: (Units=1/GPa)
#
#
# Indices 1 2 3 4 5 6 
#
# 1 0.013173 0.000823 -0.007298 0.000209 -0.004443 -0.009611
# 2 0.000823 0.028838 -0.008200 -0.012202 0.007857 -0.026147
# 3 -0.007298 -0.008200 0.021712 -0.009162 -0.004266 0.014228
# 4 0.000209 -0.012202 -0.009162 0.063662 -0.007751 0.022919
# 5 -0.004443 0.007857 -0.004266 -0.007751 0.043406 -0.026320
# 6 -0.009611 -0.026147 0.014228 0.022919 -0.026320 0.080351
#
#
# Mechanical properties :
#
#
# Convention : Reuss Voigt Hill
#
# Bulk Modulus (GPa) = 29.09387 49.98094 39.53741
# Shear Modulus (GPa) = 17.12620 28.41868 22.77244
#
# Velocity S-wave (km/s) = 2.92494 3.76781 3.37281
# Velocity P-wave (km/s) = 5.09321 6.62542 5.90919
#
# Compressibility (1/GPa) = 0.03437150
#
# Stress axis : x y z
#
# Youngs Moduli (GPa) = 75.91258 34.67631 46.05770
#
# Poissons Ratio (x) = -0.02854 0.33615
# Poissons Ratio (y) = -0.06248 0.37770
# Poissons Ratio (z) = 0.55404 0.28436
#
# Static dielectric constant tensor:
#      x y z
#    x 3.817580 0.336060 -0.172240 
#    y 0.336060 3.431750 0.236000 
#    z -0.172240 0.236000 3.371740 
# 
# 
# High freq. dielectric constant tensor:
#      x y z
#    x 1.784730 0.032500 -0.013630 
#    y 0.032500 1.760980 0.031680 
#    z -0.013630 0.031680 1.751090 
# 
# From -- ./inp_files/517711.got.cif
#   From: 2010.06.25/outbox.cif.g09.slc.cpg/sg2_259_cif.got.tgz:517711.got - 2010.06.27 13:26:56.
