data_PCOD8028715
_publ_section_title
;
Structure prediction by ZEFSAII (Michael W. Deem and Ramdas Pophale) SiO2 
 PCOD8028715
Probable space group: P -1
;
_chemical_formula_sum "Si O2"
_cell_formula_units_Z 12
_cell_length_a 9.406073
_cell_length_b 8.884581
_cell_length_c 7.399186
_cell_angle_alpha 80.108280
_cell_angle_beta 51.181569
_cell_angle_gamma 71.394735
_cell_volume 456.262080
_symmetry_space_group_name_H-M "P -1"
_symmetry_group_IT_number 2
_symmetry_cell_setting 'triclinic'
loop_
_space_group_symop_operation_xyz
x,y,z
-x,-y,-z
loop_
_atom_site_type_symbol
_atom_site_label
_atom_site_fract_x
_atom_site_fract_y
_atom_site_fract_z
Si Si1 0.559000 0.226123 0.460283
Si Si2 0.935482 0.611507 0.697846
Si Si3 0.791262 0.885218 0.233477
Si Si4 0.743130 0.255610 0.645823
Si Si5 0.721717 0.939794 0.857193
Si Si6 0.197659 0.657478 0.028929
O O1 0.344015 0.227856 0.583336
O O2 0.559114 0.287456 0.655434
O O3 0.633526 0.338545 0.241849
O O4 0.707142 0.050437 0.370768
O O5 0.774783 0.772599 0.741177
O O6 0.000000 0.500000 0.500000
O O7 0.107894 0.681959 0.609833
O O8 0.862483 0.506012 0.926348
O O9 0.784158 0.915545 0.019918
O O10 0.008385 0.805670 0.134982
O O11 0.818350 0.067333 0.667613
O O12 0.708844 0.348343 0.844503
O O13 0.500000 0.000000 0.000000
#
# Coordination Sequence:
#
# PCOD8028715 Si02
#       6
#     2   2   2   2   2   2
#     4  11  24  43  71 108 144 191 239 299 360 427
#     4  10  26  45  71 107 145 193 235 300 370 425
#     4  11  25  42  72 110 143 186 245 302 357 428
#     4  11  24  44  75 100 139 197 244 287 357 438
#     4  12  24  46  75 107 143 189 249 299 351 439
#     4  11  25  48  67 106 148 187 239 303 362 430
#
# _framework density 26.300671999999999
#
# number of rings (size 3 to 8) (size 9 to 14) (size 15 to 20)
#    0.000    1.000    3.333    2.000    7.000    2.667 
#    3.000    3.333    0.000    0.000    0.000    0.000 
#    0.000    0.000    0.000    0.000    0.000    0.000 
#
# Total GULP energy -148712.826894 kJ/mol
# GULP energy per Si atom -12392.735574 kJ/mol
# Density = 2.624081 g / cm^3
# Si number density = 26.300672 Si / 1000 Ang^3
#
#
#
# Elastic Constant Matrix: (Units=GPa)
#
#
# Indices 1 2 3 4 5 6 
#
# 1 101.8199 6.8212 35.0285 -5.4808 15.6471 19.9092
# 2 6.8212 103.3690 13.5041 -26.1825 -0.2868 30.2992
# 3 35.0285 13.5041 95.6122 -39.1361 2.5179 15.6727
# 4 -5.4808 -26.1825 -39.1361 65.7877 2.8642 -11.3397
# 5 15.6471 -0.2868 2.5179 2.8642 33.5603 -3.7873
# 6 19.9092 30.2992 15.6727 -11.3397 -3.7873 20.0973
#
#
#
# Elastic Compliance Matrix: (Units=1/GPa)
#
#
# Indices 1 2 3 4 5 6 
#
# 1 0.017810 0.007274 -0.003346 -0.002183 -0.011114 -0.029327
# 2 0.007274 0.022328 0.003189 0.004444 -0.008612 -0.042471
# 3 -0.003346 0.003189 0.016648 0.009323 -0.001530 -0.009505
# 4 -0.002183 0.004444 0.009323 0.022503 -0.001496 0.000608
# 5 -0.011114 -0.008612 -0.001530 -0.001496 0.038718 0.031639
# 6 -0.029327 -0.042471 -0.009505 0.000608 0.031639 0.156558
#
#
# Mechanical properties :
#
#
# Convention : Reuss Voigt Hill
#
# Bulk Modulus (GPa) = 14.08029 45.72319 29.90174
# Shear Modulus (GPa) = 17.60540 40.25223 28.92881
#
# Velocity S-wave (km/s) = 2.59006 3.91636 3.32011
# Velocity P-wave (km/s) = 3.78283 6.15411 5.10797
#
# Compressibility (1/GPa) = 0.07102129
#
# Stress axis : x y z
#
# Youngs Moduli (GPa) = 56.14924 44.78665 60.06558
#
# Poissons Ratio (x) = -0.32579 0.20096
# Poissons Ratio (y) = -0.40845 -0.19154
# Poissons Ratio (z) = 0.18786 -0.14282
#
# Static dielectric constant tensor:
#      x y z
#    x 5.372170 0.752360 0.034430 
#    y 0.752360 5.839110 -0.599670 
#    z 0.034430 -0.599670 5.090030 
# 
# 
# High freq. dielectric constant tensor:
#      x y z
#    x 2.046310 0.022170 -0.005340 
#    y 0.022170 2.053130 -0.024330 
#    z -0.005340 -0.024330 2.058960 
# 
# From -- ./inp_files/157812.got.cif
#   From: 2010.06.25/outbox.cif.g09.slc.cpg/sg2_79_cif.got.tgz:157812.got - 2010.06.27 13:26:56.
