data_PCOD8028082
_publ_section_title
;
Structure prediction by ZEFSAII (Michael W. Deem and Ramdas Pophale) SiO2 
 PCOD8028082
Probable space group: P -1
;
_chemical_formula_sum "Si O2"
_cell_formula_units_Z 14
_cell_length_a 23.593205
_cell_length_b 9.843605
_cell_length_c 9.778933
_cell_angle_alpha 127.534567
_cell_angle_beta 24.316439
_cell_angle_gamma 135.460675
_cell_volume 649.515811
_symmetry_space_group_name_H-M "P -1"
_symmetry_group_IT_number 2
_symmetry_cell_setting 'triclinic'
loop_
_space_group_symop_operation_xyz
x,y,z
-x,-y,-z
loop_
_atom_site_type_symbol
_atom_site_label
_atom_site_fract_x
_atom_site_fract_y
_atom_site_fract_z
Si Si1 0.509173 0.703761 0.133180
Si Si2 0.611362 0.927080 0.773259
Si Si3 0.218807 0.559472 0.870450
Si Si4 0.954391 0.144630 0.107190
Si Si5 0.321565 0.964963 0.859716
Si Si6 0.338334 0.371163 0.705399
Si Si7 0.119894 0.021239 0.128972
O O1 0.342858 0.650609 0.530872
O O2 0.663031 0.846219 0.974260
O O3 0.500000 0.500000 0.000000
O O4 0.527198 0.827943 0.036260
O O5 0.636485 0.771610 0.536799
O O6 0.786630 0.109284 0.511267
O O7 0.500000 0.000000 0.000000
O O8 0.198567 0.751660 0.066751
O O9 0.290154 0.511312 0.815964
O O10 0.067396 0.370636 0.032517
O O11 0.959864 0.115108 0.912713
O O12 0.000000 0.000000 0.000000
O O13 0.500000 0.000000 0.500000
O O14 0.254816 0.974568 0.862578
O O15 0.500000 0.500000 0.500000
O O16 0.202988 0.246854 0.036140
O O17 0.000000 0.000000 0.500000
#
# Coordination Sequence:
#
# PCOD8028082 Si02
#       7
#     2   2   2   2   2   2   2
#     4  11  22  42  70  99 135 179 233 275 345 415
#     4  11  26  42  69 103 133 182 234 287 336 415
#     4  11  23  43  70  98 137 190 221 286 349 410
#     4  11  23  48  69  97 145 186 227 281 355 409
#     4  10  25  43  68 101 138 176 229 287 341 408
#     4  11  23  43  68  96 139 183 228 279 349 408
#     4  11  26  43  70 101 137 181 233 287 342 411
#
# _framework density 21.554517000000001
#
# number of rings (size 3 to 8) (size 9 to 14) (size 15 to 20)
#    0.000    1.143    4.286    1.714   14.000    0.571 
#    2.571    1.429    0.000    0.000    0.000    0.000 
#    0.000    0.000    0.000    0.000    0.000    0.000 
#
# Total GULP energy -173450.432801 kJ/mol
# GULP energy per Si atom -12389.316629 kJ/mol
# Density = 2.150546 g / cm^3
# Si number density = 21.554517 Si / 1000 Ang^3
#
#
#
# Elastic Constant Matrix: (Units=GPa)
#
#
# Indices 1 2 3 4 5 6 
#
# 1 169.8776 69.4619 47.8384 -16.4158 -9.3018 -10.4911
# 2 69.4619 178.3519 29.8050 -31.8619 -6.9844 16.9705
# 3 47.8384 29.8050 98.9165 -32.2052 0.7881 -10.8056
# 4 -16.4158 -31.8619 -32.2052 39.6731 -4.8823 -4.5305
# 5 -9.3018 -6.9844 0.7881 -4.8823 36.8028 -8.8810
# 6 -10.4911 16.9705 -10.8056 -4.5305 -8.8810 41.6148
#
#
#
# Elastic Compliance Matrix: (Units=1/GPa)
#
#
# Indices 1 2 3 4 5 6 
#
# 1 0.008191 -0.003037 -0.003058 -0.000944 0.002124 0.002860
# 2 -0.003037 0.007982 0.000397 0.005189 0.000652 -0.003213
# 3 -0.003058 0.000397 0.016275 0.013088 0.001928 0.005129
# 4 -0.000944 0.005189 0.013088 0.041374 0.007690 0.007190
# 5 0.002124 0.000652 0.001928 0.007690 0.030785 0.008177
# 6 0.002860 -0.003213 0.005129 0.007190 0.008177 0.029921
#
#
# Mechanical properties :
#
#
# Convention : Reuss Voigt Hill
#
# Bulk Modulus (GPa) = 47.50276 82.37295 64.93786
# Shear Modulus (GPa) = 32.69233 43.62085 38.15659
#
# Velocity S-wave (km/s) = 3.89874 4.50349 4.21198
# Velocity P-wave (km/s) = 6.50793 8.08337 7.33806
#
# Compressibility (1/GPa) = 0.02105141
#
# Stress axis : x y z
#
# Youngs Moduli (GPa) = 122.08164 125.28931 61.44342
#
# Poissons Ratio (x) = 0.38047 0.18792
# Poissons Ratio (y) = 0.37073 -0.02438
# Poissons Ratio (z) = 0.37337 -0.04972
#
# Static dielectric constant tensor:
#      x y z
#    x 4.183690 -0.116060 0.074570 
#    y -0.116060 4.722970 -0.082690 
#    z 0.074570 -0.082690 3.675310 
# 
# 
# High freq. dielectric constant tensor:
#      x y z
#    x 1.859660 0.000140 -0.001080 
#    y 0.000140 1.866800 -0.015930 
#    z -0.001080 -0.015930 1.830400 
# 
# From -- ./inp_files/343728.got.cif
#   From: 2010.06.25/outbox.cif.g09.slc.cpg/sg2_172_cif.got.tgz:343728.got - 2010.06.27 13:26:56.
