data_PCOD8028598
_publ_section_title
;
Structure prediction by ZEFSAII (Michael W. Deem and Ramdas Pophale) SiO2 
 PCOD8028598
Probable space group: P -1
;
_chemical_formula_sum "Si O2"
_cell_formula_units_Z 14
_cell_length_a 17.958852
_cell_length_b 9.736709
_cell_length_c 4.865322
_cell_angle_alpha 82.061846
_cell_angle_beta 95.884622
_cell_angle_gamma 38.216513
_cell_volume 489.367113
_symmetry_space_group_name_H-M "P -1"
_symmetry_group_IT_number 2
_symmetry_cell_setting 'triclinic'
loop_
_space_group_symop_operation_xyz
x,y,z
-x,-y,-z
loop_
_atom_site_type_symbol
_atom_site_label
_atom_site_fract_x
_atom_site_fract_y
_atom_site_fract_z
Si Si1 0.753891 0.228527 0.813248
Si Si2 0.612966 0.561719 0.164519
Si Si3 0.406922 0.768828 0.368134
Si Si4 0.320618 0.097904 0.635104
Si Si5 0.713996 0.671377 0.931894
Si Si6 0.994986 0.135983 0.254774
Si Si7 0.930489 0.672755 0.672029
O O1 0.685030 0.437338 0.517886
O O2 0.733151 0.094344 0.770641
O O3 0.907418 0.036748 0.922167
O O4 0.690904 0.342089 0.056063
O O5 0.459471 0.766466 0.108860
O O6 0.610623 0.722693 0.008909
O O7 0.500000 0.500000 0.500000
O O8 0.434848 0.825304 0.633802
O O9 0.291352 0.180817 0.919698
O O10 0.214413 0.159649 0.440720
O O11 0.323796 0.235058 0.419725
O O12 0.849694 0.387830 0.044877
O O13 0.056363 0.181083 0.401390
O O14 0.000000 0.000000 0.500000
O O15 0.000000 0.500000 0.500000
O O16 0.000000 0.500000 0.000000
#
# Coordination Sequence:
#
# PCOD8028598 Si02
#       7
#     2   2   2   2   2   2   2
#     4  11  24  43  71 101 137 184 230 293 349 414
#     4  11  25  45  67 100 142 181 235 290 348 412
#     4  10  25  48  74 102 134 185 244 295 353 425
#     4  12  25  46  71 102 139 189 237 290 358 433
#     4  12  27  44  70 105 146 184 234 289 364 433
#     4  12  25  45  73 112 146 188 239 298 364 427
#     4  12  24  46  70 101 145 192 235 292 362 441
#
# _framework density 28.608376
#
# number of rings (size 3 to 8) (size 9 to 14) (size 15 to 20)
#    0.000    0.571    5.714    1.286    0.000    8.571 
#    0.000    0.000    0.000    0.000    0.000    0.000 
#    0.000    0.000    0.000    0.000    0.000    0.000 
#
# Total GULP energy -173462.630612 kJ/mol
# GULP energy per Si atom -12390.187901 kJ/mol
# Density = 2.854326 g / cm^3
# Si number density = 28.608376 Si / 1000 Ang^3
#
#
#
# Elastic Constant Matrix: (Units=GPa)
#
#
# Indices 1 2 3 4 5 6 
#
# 1 121.2558 0.1754 -10.0945 -14.9781 -38.0382 -0.7944
# 2 0.1754 147.4332 15.8826 12.8457 -12.5977 -0.4971
# 3 -10.0945 15.8826 95.6502 27.1511 -18.4467 -7.9846
# 4 -14.9781 12.8457 27.1511 34.5322 1.2001 -4.5438
# 5 -38.0382 -12.5977 -18.4467 1.2001 31.5974 5.1832
# 6 -0.7944 -0.4971 -7.9846 -4.5438 5.1832 44.2161
#
#
#
# Elastic Compliance Matrix: (Units=1/GPa)
#
#
# Indices 1 2 3 4 5 6 
#
# 1 0.016196 0.001275 0.005570 0.001184 0.023428 -0.001313
# 2 0.001275 0.007404 0.000689 -0.003010 0.005115 -0.000678
# 3 0.005570 0.000689 0.017961 -0.012592 0.017952 -0.000047
# 4 0.001184 -0.003010 -0.012592 0.041210 -0.009187 0.003025
# 5 0.023428 0.005115 0.017952 -0.009187 0.073681 -0.005861
# 6 -0.001313 -0.000678 -0.000047 0.003025 -0.005861 0.023574
#
#
# Mechanical properties :
#
#
# Convention : Reuss Voigt Hill
#
# Bulk Modulus (GPa) = 17.65873 41.80733 29.73303
# Shear Modulus (GPa) = 27.19841 45.96086 36.57964
#
# Velocity S-wave (km/s) = 3.08671 4.01253 3.57968
# Velocity P-wave (km/s) = 4.34623 6.00938 5.24415
#
# Compressibility (1/GPa) = 0.05662922
#
# Stress axis : x y z
#
# Youngs Moduli (GPa) = 61.74391 135.06228 55.67717
#
# Poissons Ratio (x) = -0.17220 -0.31012
# Poissons Ratio (y) = -0.07872 -0.03839
# Poissons Ratio (z) = -0.34391 -0.09312
#
# Static dielectric constant tensor:
#      x y z
#    x 6.918780 -0.154360 -0.393710 
#    y -0.154360 5.586450 -0.397910 
#    z -0.393710 -0.397910 12.200620 
# 
# 
# High freq. dielectric constant tensor:
#      x y z
#    x 2.176810 -0.001460 -0.015030 
#    y -0.001460 2.193130 0.014790 
#    z -0.015030 0.014790 2.160410 
# 
# From -- ./inp_files/117042.got.cif
#   From: 2010.06.25/outbox.cif.g09.slc.cpg/sg2_59_cif.got.tgz:117042.got - 2010.06.27 13:26:56.
