data_PCOD8028924
_publ_section_title
;
Structure prediction by ZEFSAII (Michael W. Deem and Ramdas Pophale) SiO2 
 PCOD8028924
Probable space group: P -1
;
_chemical_formula_sum "Si O2"
_cell_formula_units_Z 14
_cell_length_a 15.356288
_cell_length_b 23.298219
_cell_length_c 23.345148
_cell_angle_alpha 162.762581
_cell_angle_beta 17.121765
_cell_angle_gamma 154.125443
_cell_volume 720.521233
_symmetry_space_group_name_H-M "P -1"
_symmetry_group_IT_number 2
_symmetry_cell_setting 'triclinic'
loop_
_space_group_symop_operation_xyz
x,y,z
-x,-y,-z
loop_
_atom_site_type_symbol
_atom_site_label
_atom_site_fract_x
_atom_site_fract_y
_atom_site_fract_z
Si Si1 0.283080 0.185542 0.787216
Si Si2 0.651494 0.479393 0.807527
Si Si3 0.557947 0.278761 0.931754
Si Si4 0.355469 0.130428 0.555749
Si Si5 0.278804 0.458586 0.826386
Si Si6 0.994246 0.150333 0.209643
Si Si7 0.873603 0.256027 0.206086
O O1 0.426482 0.386294 0.903431
O O2 0.245822 0.165897 0.723650
O O3 0.500000 0.000000 0.500000
O O4 0.947153 0.207547 0.046364
O O5 0.442179 0.549131 0.950514
O O6 0.890305 0.289705 0.461162
O O7 0.819641 0.659057 0.890387
O O8 0.692341 0.342490 0.967796
O O9 0.210912 0.257711 0.137428
O O10 0.742274 0.073940 0.598966
O O11 0.215020 0.295467 0.756781
O O12 0.715945 0.117539 0.313121
O O13 0.572346 0.402213 0.547971
O O14 0.000000 0.500000 0.000000
O O15 0.159191 0.943953 0.932125
#
# Coordination Sequence:
#
# PCOD8028924 Si02
#       7
#     2   2   2   2   2   2   2
#     4  11  21  38  60 100 132 156 187 248 327 388
#     4  11  20  33  62  96 129 158 189 242 333 381
#     4  12  20  37  63  91 122 162 204 258 309 363
#     4  11  22  38  63  91 128 153 199 255 313 368
#     4  12  27  43  60  86 121 173 224 254 286 349
#     4  11  19  33  62  97 123 149 191 257 325 364
#     4  12  22  39  62  94 132 156 198 256 308 376
#
# _framework density 19.430378000000001
#
# number of rings (size 3 to 8) (size 9 to 14) (size 15 to 20)
#    0.000    0.571   10.000    2.143    0.000    0.571 
#    0.000    0.714    0.000    0.857    0.000    0.000 
#    0.000    0.000    0.000    0.000    0.000    0.000 
#
# Total GULP energy -173514.529063 kJ/mol
# GULP energy per Si atom -12393.894933 kJ/mol
# Density = 1.938615 g / cm^3
# Si number density = 19.430378 Si / 1000 Ang^3
#
#
#
# Elastic Constant Matrix: (Units=GPa)
#
#
# Indices 1 2 3 4 5 6 
#
# 1 108.2209 42.3860 49.0418 -3.8688 -4.8466 -9.2846
# 2 42.3860 78.6090 31.0125 17.5060 -3.9514 -10.6730
# 3 49.0418 31.0125 62.5556 7.7406 -1.7995 1.2942
# 4 -3.8688 17.5060 7.7406 26.4135 0.9362 5.6399
# 5 -4.8466 -3.9514 -1.7995 0.9362 31.0492 1.8687
# 6 -9.2846 -10.6730 1.2942 5.6399 1.8687 36.4402
#
#
#
# Elastic Compliance Matrix: (Units=1/GPa)
#
#
# Indices 1 2 3 4 5 6 
#
# 1 0.017897 -0.007130 -0.011799 0.010515 0.000812 0.001222
# 2 -0.007130 0.022908 -0.003799 -0.016782 0.001634 0.007541
# 3 -0.011799 -0.003799 0.028005 -0.006535 -0.000259 -0.004089
# 4 0.010515 -0.016782 -0.006535 0.054720 -0.001899 -0.010376
# 5 0.000812 0.001634 -0.000259 -0.001899 0.032625 -0.000684
# 6 0.001222 0.007541 -0.004089 -0.010376 -0.000684 0.031749
#
#
# Mechanical properties :
#
#
# Convention : Reuss Voigt Hill
#
# Bulk Modulus (GPa) = 42.82088 54.91845 48.86967
# Shear Modulus (GPa) = 20.73442 27.24359 23.98901
#
# Velocity S-wave (km/s) = 3.27021 3.74854 3.51752
# Velocity P-wave (km/s) = 6.02868 6.86010 6.45779
#
# Compressibility (1/GPa) = 0.02335309
#
# Stress axis : x y z
#
# Youngs Moduli (GPa) = 55.87578 43.65269 35.70779
#
# Poissons Ratio (x) = 0.31125 0.42131
# Poissons Ratio (y) = 0.39841 0.13567
# Poissons Ratio (z) = 0.65927 0.16586
#
# Static dielectric constant tensor:
#      x y z
#    x 3.632650 -0.159320 0.424850 
#    y -0.159320 3.658870 0.339590 
#    z 0.424850 0.339590 3.398630 
# 
# 
# High freq. dielectric constant tensor:
#      x y z
#    x 1.760230 -0.020850 0.039410 
#    y -0.020850 1.756140 0.040940 
#    z 0.039410 0.040940 1.726780 
# 
# From -- ./inp_files/455454.got.cif
#   From: 2010.06.25/outbox.cif.g09.slc.cpg/sg2_228_cif.got.tgz:455454.got - 2010.06.27 13:26:56.
