data_PCOD8028784
_publ_section_title
;
Structure prediction by ZEFSAII (Michael W. Deem and Ramdas Pophale) SiO2 
 PCOD8028784
Probable space group: P -1
;
_chemical_formula_sum "Si O2"
_cell_formula_units_Z 10
_cell_length_a 8.608841
_cell_length_b 10.197219
_cell_length_c 6.637557
_cell_angle_alpha 54.257619
_cell_angle_beta 73.512758
_cell_angle_gamma 45.392904
_cell_volume 328.548196
_symmetry_space_group_name_H-M "P -1"
_symmetry_group_IT_number 2
_symmetry_cell_setting 'triclinic'
loop_
_space_group_symop_operation_xyz
x,y,z
-x,-y,-z
loop_
_atom_site_type_symbol
_atom_site_label
_atom_site_fract_x
_atom_site_fract_y
_atom_site_fract_z
Si Si1 0.953696 0.926849 0.884832
Si Si2 0.638259 0.287370 0.370833
Si Si3 0.703300 0.841222 0.412327
Si Si4 0.878448 0.604190 0.194350
Si Si5 0.468166 0.295074 0.036639
O O1 0.716531 0.141063 0.673417
O O2 0.155643 0.831555 0.748090
O O3 0.974663 0.717721 0.083082
O O4 0.000000 0.000000 0.000000
O O5 0.456194 0.316876 0.268982
O O6 0.526514 0.539322 0.233415
O O7 0.693647 0.715571 0.346157
O O8 0.937179 0.662758 0.602064
O O9 0.500000 0.000000 0.500000
O O10 0.683923 0.033631 0.132752
O O11 0.761159 0.644980 0.988284
#
# Coordination Sequence:
#
# PCOD8028784 Si02
#       5
#     2   2   2   2   2
#     4  11  25  48  77 113 158 209 265 330 397 473
#     4  10  26  47  75 112 163 209 257 330 405 466
#     4  11  26  46  78 118 160 201 263 335 391 468
#     4  11  27  48  82 116 154 212 270 321 396 481
#     4  11  25  50  74 116 156 207 268 321 395 477
#
# _framework density 30.436934999999998
#
# number of rings (size 3 to 8) (size 9 to 14) (size 15 to 20)
#    0.000    1.200    0.000    3.000   14.000    1.600 
#    0.000    3.000    0.000    0.000    0.000    0.000 
#    0.000    0.000    0.000    0.000    0.000    0.000 
#
# Total GULP energy -123901.181479 kJ/mol
# GULP energy per Si atom -12390.118148 kJ/mol
# Density = 3.036766 g / cm^3
# Si number density = 30.436935 Si / 1000 Ang^3
#
#
#
# Elastic Constant Matrix: (Units=GPa)
#
#
# Indices 1 2 3 4 5 6 
#
# 1 157.9764 50.3172 84.1259 -16.3405 43.6292 38.3239
# 2 50.3172 175.1390 88.0566 -37.9801 3.4218 16.8697
# 3 84.1259 88.0566 259.6717 -46.9074 28.0113 21.6509
# 4 -16.3405 -37.9801 -46.9074 65.6404 6.0644 -10.1876
# 5 43.6292 3.4218 28.0113 6.0644 56.7405 -2.5976
# 6 38.3239 16.8697 21.6509 -10.1876 -2.5976 38.6204
#
#
#
# Elastic Compliance Matrix: (Units=1/GPa)
#
#
# Indices 1 2 3 4 5 6 
#
# 1 0.013568 -0.001604 -0.001680 0.000253 -0.010104 -0.012435
# 2 -0.001604 0.007579 -0.001722 0.002636 0.001346 0.000032
# 3 -0.001680 -0.001722 0.005678 0.002778 -0.001711 -0.000146
# 4 0.000253 0.002636 0.002778 0.019449 -0.003716 0.001921
# 5 -0.010104 0.001346 -0.001711 -0.003716 0.027068 0.011238
# 6 -0.012435 0.000032 -0.000146 0.001921 0.011238 0.039563
#
#
# Mechanical properties :
#
#
# Convention : Reuss Voigt Hill
#
# Bulk Modulus (GPa) = 59.47420 115.30960 87.39190
# Shear Modulus (GPa) = 38.90414 56.88608 47.89511
#
# Velocity S-wave (km/s) = 3.57905 4.32786 3.97115
# Velocity P-wave (km/s) = 6.05492 7.93353 7.05702
#
# Compressibility (1/GPa) = 0.01681401
#
# Stress axis : x y z
#
# Youngs Moduli (GPa) = 73.70042 131.95170 176.12442
#
# Poissons Ratio (x) = 0.21161 0.29580
# Poissons Ratio (y) = 0.11819 0.30331
# Poissons Ratio (z) = 0.12378 0.22724
#
# Static dielectric constant tensor:
#      x y z
#    x 6.188300 0.132050 -0.575710 
#    y 0.132050 6.251880 -0.241070 
#    z -0.575710 -0.241070 7.094240 
# 
# 
# High freq. dielectric constant tensor:
#      x y z
#    x 2.240890 0.001520 -0.012340 
#    y 0.001520 2.285070 0.000350 
#    z -0.012340 0.000350 2.277350 
# 
# From -- ./inp_files/175072.got.cif
#   From: 2010.06.25/outbox.cif.g09.slc.cpg/sg2_88_cif.got.tgz:175072.got - 2010.06.27 13:26:56.
