data_PCOD8028624
_publ_section_title
;
Structure prediction by ZEFSAII (Michael W. Deem and Ramdas Pophale) SiO2 
 PCOD8028624
Probable space group: P -1
;
_chemical_formula_sum "Si O2"
_cell_formula_units_Z 16
_cell_length_a 15.485003
_cell_length_b 5.683231
_cell_length_c 8.399649
_cell_angle_alpha 73.615498
_cell_angle_beta 98.499660
_cell_angle_gamma 74.224501
_cell_volume 661.995894
_symmetry_space_group_name_H-M "P -1"
_symmetry_group_IT_number 2
_symmetry_cell_setting 'triclinic'
loop_
_space_group_symop_operation_xyz
x,y,z
-x,-y,-z
loop_
_atom_site_type_symbol
_atom_site_label
_atom_site_fract_x
_atom_site_fract_y
_atom_site_fract_z
Si Si1 0.481043 0.640805 0.213486
Si Si2 0.668225 0.648298 0.219967
Si Si3 0.302393 0.805207 0.935846
Si Si4 0.425400 0.860952 0.493457
Si Si5 0.928668 0.760906 0.487030
Si Si6 0.250495 0.302652 0.461498
Si Si7 0.996298 0.116556 0.213695
Si Si8 0.146147 0.725620 0.107835
O O1 0.556009 0.774626 0.152612
O O2 0.426226 0.749484 0.338971
O O3 0.549608 0.348377 0.318513
O O4 0.404637 0.649268 0.060417
O O5 0.710732 0.394525 0.166582
O O6 0.699524 0.553380 0.429561
O O7 0.702783 0.898573 0.158918
O O8 0.220334 0.846136 0.032897
O O9 0.500000 0.000000 0.500000
O O10 0.322451 0.044962 0.459817
O O11 0.823751 0.772753 0.436497
O O12 0.948940 0.751813 0.683058
O O13 0.000000 0.500000 0.500000
O O14 0.939346 0.992645 0.340792
O O15 0.203767 0.468535 0.264679
O O16 0.076262 0.915605 0.173754
O O17 0.919666 0.321327 0.042627
#
# Coordination Sequence:
#
# PCOD8028624 Si02
#       8
#     2   2   2   2   2   2   2   2
#     4  11  26  46  76 107 155 203 252 314 383 446
#     4  12  28  49  75 111 156 202 256 314 382 455
#     4  12  29  48  78 111 153 202 261 316 380 459
#     4  11  24  46  74 115 153 195 253 319 377 454
#     4  11  24  47  78 106 145 192 246 311 387 454
#     4  12  26  46  80 108 147 204 253 311 386 463
#     4  10  25  49  73 105 150 188 249 317 386 451
#     4  11  26  47  73 111 144 197 252 318 380 456
#
# _framework density 24.169336999999999
#
# number of rings (size 3 to 8) (size 9 to 14) (size 15 to 20)
#    0.000    0.750    2.500    3.000    8.750    1.500 
#    0.000    0.000    0.000    0.000    0.000    0.000 
#    0.000    0.000    0.000    0.000    0.000    0.000 
#
# Total GULP energy -198285.385788 kJ/mol
# GULP energy per Si atom -12392.836612 kJ/mol
# Density = 2.411433 g / cm^3
# Si number density = 24.169337 Si / 1000 Ang^3
#
#
#
# Elastic Constant Matrix: (Units=GPa)
#
#
# Indices 1 2 3 4 5 6 
#
# 1 139.3860 28.8008 33.2011 0.8299 4.0043 -17.8669
# 2 28.8008 118.7477 54.5254 1.2103 10.2187 -4.9035
# 3 33.2011 54.5254 135.6575 11.0896 22.7285 -8.0470
# 4 0.8299 1.2103 11.0896 32.0343 0.1425 5.7363
# 5 4.0043 10.2187 22.7285 0.1425 45.6594 -3.1075
# 6 -17.8669 -4.9035 -8.0470 5.7363 -3.1075 34.6568
#
#
#
# Elastic Compliance Matrix: (Units=1/GPa)
#
#
# Indices 1 2 3 4 5 6 
#
# 1 0.008236 -0.001267 -0.001326 -0.000402 0.000486 0.003869
# 2 -0.001267 0.010563 -0.003992 0.001068 -0.000289 -0.000288
# 3 -0.001326 -0.003992 0.010357 -0.003632 -0.004040 0.001396
# 4 -0.000402 0.001068 -0.003632 0.033578 0.001066 -0.006361
# 5 0.000486 -0.000289 -0.004040 0.001066 0.024016 0.001248
# 6 0.003869 -0.000288 0.001396 -0.006361 0.001248 0.032297
#
#
# Mechanical properties :
#
#
# Convention : Reuss Voigt Hill
#
# Bulk Modulus (GPa) = 62.54661 69.64955 66.09808
# Shear Modulus (GPa) = 36.35157 40.95436 38.65296
#
# Velocity S-wave (km/s) = 3.88240 4.12087 4.00341
# Velocity P-wave (km/s) = 6.78469 7.17788 6.98405
#
# Compressibility (1/GPa) = 0.01598808
#
# Stress axis : x y z
#
# Youngs Moduli (GPa) = 121.41484 94.66590 96.55425
#
# Poissons Ratio (x) = 0.11993 0.12799
# Poissons Ratio (y) = 0.15382 0.38542
# Poissons Ratio (z) = 0.16095 0.37789
#
# Static dielectric constant tensor:
#      x y z
#    x -0.640210 -3.089580 1.616170 
#    y -3.089580 2.241600 0.953540 
#    z 1.616170 0.953540 4.140740 
# 
# 
# High freq. dielectric constant tensor:
#      x y z
#    x 1.987040 -0.004230 0.003200 
#    y -0.004230 1.944760 0.008670 
#    z 0.003200 0.008670 1.975010 
# 
# From -- ./inp_files/288524.got.cif
#   From: 2010.06.25/outbox.cif.g09.slc.cpg/sg2_145_cif.got.tgz:288524.got - 2010.06.27 13:26:56.
