data_PCOD8028589
_publ_section_title
;
Structure prediction by ZEFSAII (Michael W. Deem and Ramdas Pophale) SiO2 
 PCOD8028589
Probable space group: P -1
;
_chemical_formula_sum "Si O2"
_cell_formula_units_Z 16
_cell_length_a 8.703534
_cell_length_b 15.342828
_cell_length_c 14.739600
_cell_angle_alpha 152.728290
_cell_angle_beta 70.226323
_cell_angle_gamma 92.634298
_cell_volume 684.766013
_symmetry_space_group_name_H-M "P -1"
_symmetry_group_IT_number 2
_symmetry_cell_setting 'triclinic'
loop_
_space_group_symop_operation_xyz
x,y,z
-x,-y,-z
loop_
_atom_site_type_symbol
_atom_site_label
_atom_site_fract_x
_atom_site_fract_y
_atom_site_fract_z
Si Si1 0.868231 0.115999 0.925857
Si Si2 0.034163 0.312737 0.202012
Si Si3 0.932151 0.651235 0.243019
Si Si4 0.347808 0.492728 0.805524
Si Si5 0.259031 0.158274 0.197912
Si Si6 0.687541 0.185308 0.747576
Si Si7 0.737026 0.114391 0.467454
Si Si8 0.264744 0.302797 0.978047
O O1 0.795260 0.960777 0.826544
O O2 0.955348 0.171259 0.044586
O O3 0.684339 0.358157 0.139981
O O4 0.038889 0.971533 0.681100
O O5 0.837416 0.574395 0.506507
O O6 0.165559 0.165155 0.126371
O O7 0.184169 0.318752 0.109607
O O8 0.755071 0.641989 0.313221
O O9 0.111887 0.549397 0.185460
O O10 0.861684 0.911951 0.476927
O O11 0.000000 0.500000 0.000000
O O12 0.587087 0.299452 0.591896
O O13 0.253200 0.661594 0.070256
O O14 0.500000 0.000000 0.000000
O O15 0.665155 0.241026 0.696677
O O16 0.480180 0.254169 0.897355
O O17 0.723616 0.895113 0.268415
#
# Coordination Sequence:
#
# PCOD8028589 Si02
#       8
#     2   2   2   2   2   2   2   2
#     4  11  26  46  69 103 141 179 222 289 343 409
#     4  10  25  48  72 104 136 175 223 285 352 411
#     4  12  23  43  65  93 141 186 236 282 328 394
#     4  12  26  39  67 103 135 188 239 274 333 404
#     4  11  27  47  78 103 131 170 230 284 359 422
#     4  12  26  41  69 100 143 194 234 281 330 395
#     4  11  23  45  65  99 147 186 234 274 341 400
#     4  11  23  43  71  97 141 186 225 284 341 397
#
# _framework density 23.365645000000001
#
# number of rings (size 3 to 8) (size 9 to 14) (size 15 to 20)
#    0.000    0.750    5.000    1.875    5.250    5.500 
#    0.000    0.000    0.000    0.000    0.000    0.000 
#    0.000    0.000    0.000    0.000    0.000    0.000 
#
# Total GULP energy -198511.348953 kJ/mol
# GULP energy per Si atom -12406.959310 kJ/mol
# Density = 2.331246 g / cm^3
# Si number density = 23.365645 Si / 1000 Ang^3
#
#
#
# Elastic Constant Matrix: (Units=GPa)
#
#
# Indices 1 2 3 4 5 6 
#
# 1 54.8018 19.5471 35.9785 2.5990 -5.9620 0.0441
# 2 19.5471 88.7837 13.1797 12.3576 -12.6619 -8.7421
# 3 35.9785 13.1797 85.7873 6.1613 -13.8866 -2.6471
# 4 2.5990 12.3576 6.1613 43.7365 -10.5769 -3.3336
# 5 -5.9620 -12.6619 -13.8866 -10.5769 38.4213 2.0472
# 6 0.0441 -8.7421 -2.6471 -3.3336 2.0472 38.2279
#
#
#
# Elastic Compliance Matrix: (Units=1/GPa)
#
#
# Indices 1 2 3 4 5 6 
#
# 1 0.026905 -0.004750 -0.010828 0.000904 -0.000963 -0.001737
# 2 -0.004750 0.013266 0.000716 -0.002629 0.003026 0.002697
# 3 -0.010828 0.000716 0.016887 -0.000798 0.004384 0.001041
# 4 0.000904 -0.002629 -0.000798 0.025174 0.005850 0.001224
# 5 -0.000963 0.003026 0.004384 0.005850 0.030075 -0.000104
# 6 -0.001737 0.002697 0.001041 0.001224 -0.000104 0.026962
#
#
# Mechanical properties :
#
#
# Convention : Reuss Voigt Hill
#
# Bulk Modulus (GPa) = 36.58568 40.75370 38.66969
# Shear Modulus (GPa) = 28.07336 34.78831 31.43083
#
# Velocity S-wave (km/s) = 3.47000 3.86277 3.67164
# Velocity P-wave (km/s) = 5.63439 6.11345 5.87880
#
# Compressibility (1/GPa) = 0.02733310
#
# Stress axis : x y z
#
# Youngs Moduli (GPa) = 37.16846 75.38066 59.21691
#
# Poissons Ratio (x) = 0.35807 0.64121
# Poissons Ratio (y) = 0.17655 -0.04240
# Poissons Ratio (z) = 0.40246 -0.05397
#
# Static dielectric constant tensor:
#      x y z
#    x 4.229000 -0.048750 0.035740 
#    y -0.048750 4.174920 0.181290 
#    z 0.035740 0.181290 4.374680 
# 
# 
# High freq. dielectric constant tensor:
#      x y z
#    x 1.929640 -0.006830 -0.000300 
#    y -0.006830 1.922370 0.016010 
#    z -0.000300 0.016010 1.932770 
# 
# From -- ./inp_files/505752.got.cif
#   From: 2010.06.25/outbox.cif.g09.slc.cpg/sg2_253_cif.got.tgz:505752.got - 2010.06.27 13:26:56.
