data_PCOD8028304
_publ_section_title
;
Structure prediction by ZEFSAII (Michael W. Deem and Ramdas Pophale) SiO2 
 PCOD8028304
Probable space group: P -1
;
_chemical_formula_sum "Si O2"
_cell_formula_units_Z 16
_cell_length_a 8.512000
_cell_length_b 15.000409
_cell_length_c 9.344618
_cell_angle_alpha 78.790209
_cell_angle_beta 107.446638
_cell_angle_gamma 48.018723
_cell_volume 702.780705
_symmetry_space_group_name_H-M "P -1"
_symmetry_group_IT_number 2
_symmetry_cell_setting 'triclinic'
loop_
_space_group_symop_operation_xyz
x,y,z
-x,-y,-z
loop_
_atom_site_type_symbol
_atom_site_label
_atom_site_fract_x
_atom_site_fract_y
_atom_site_fract_z
Si Si1 0.370575 0.203734 0.889961
Si Si2 0.146532 0.062344 0.222905
Si Si3 0.291699 0.782027 0.148220
Si Si4 0.405248 0.022790 0.759668
Si Si5 0.094177 0.790979 0.606524
Si Si6 0.376603 0.499799 0.835035
Si Si7 0.997984 0.503432 0.827926
Si Si8 0.595504 0.223419 0.511469
O O1 0.530434 0.207431 0.840087
O O2 0.288072 0.156774 0.777857
O O3 0.116861 0.359181 0.842127
O O4 0.555202 0.083739 0.100877
O O5 0.920219 0.191209 0.230819
O O6 0.319591 0.071691 0.211194
O O7 0.336513 0.910633 0.402456
O O8 0.000876 0.079492 0.040210
O O9 0.402316 0.641796 0.155663
O O10 0.295983 0.766431 0.325471
O O11 0.202187 0.081582 0.566225
O O12 0.233287 0.636276 0.654813
O O13 0.256710 0.804277 0.580190
O O14 0.167767 0.516276 0.825037
O O15 0.500000 0.500000 0.000000
O O16 0.712627 0.635281 0.640548
O O17 0.000000 0.500000 0.000000
#
# Coordination Sequence:
#
# PCOD8028304 Si02
#       8
#     2   2   2   2   2   2   2   2
#     4  10  25  45  70 101 140 178 230 285 350 399
#     4  12  25  45  73  99 141 182 233 286 347 406
#     4  11  25  46  72  99 144 183 228 284 343 417
#     4  11  25  44  72 103 136 180 236 287 343 408
#     4  12  27  43  70 102 144 178 233 288 340 414
#     4  11  24  47  69 102 138 181 229 285 346 401
#     4  11  27  45  73  99 142 183 230 283 349 415
#     4  12  27  45  71 105 138 187 231 279 350 411
#
# _framework density 22.766701000000001
#
# number of rings (size 3 to 8) (size 9 to 14) (size 15 to 20)
#    0.000    0.750    2.500    3.375   10.500    2.500 
#    0.000    0.000    0.000    0.000    0.000    0.000 
#    0.000    0.000    0.000    0.000    0.000    0.000 
#
# Total GULP energy -198482.435324 kJ/mol
# GULP energy per Si atom -12405.152208 kJ/mol
# Density = 2.271488 g / cm^3
# Si number density = 22.766701 Si / 1000 Ang^3
#
#
#
# Elastic Constant Matrix: (Units=GPa)
#
#
# Indices 1 2 3 4 5 6 
#
# 1 70.4232 20.3734 18.7204 3.8862 3.8119 -7.9779
# 2 20.3734 102.3046 26.4000 -4.8737 -4.2879 0.9316
# 3 18.7204 26.4000 104.9455 -4.2024 6.6260 0.2021
# 4 3.8862 -4.8737 -4.2024 36.2435 -3.6369 -5.1035
# 5 3.8119 -4.2879 6.6260 -3.6369 39.8742 0.2507
# 6 -7.9779 0.9316 0.2021 -5.1035 0.2507 32.3938
#
#
#
# Elastic Compliance Matrix: (Units=1/GPa)
#
#
# Indices 1 2 3 4 5 6 
#
# 1 0.016239 -0.002881 -0.002152 -0.002016 -0.001712 0.003791
# 2 -0.002881 0.011122 -0.002345 0.001626 0.002014 -0.000774
# 3 -0.002152 -0.002345 0.010649 0.000925 -0.001729 -0.000370
# 4 -0.002016 0.001626 0.000925 0.028980 0.002832 0.003995
# 5 -0.001712 0.002014 -0.001729 0.002832 0.026006 -0.000224
# 6 0.003791 -0.000774 -0.000370 0.003995 -0.000224 0.032459
#
#
# Mechanical properties :
#
#
# Convention : Reuss Voigt Hill
#
# Bulk Modulus (GPa) = 43.00027 45.40677 44.20352
# Shear Modulus (GPa) = 33.79227 35.84759 34.81993
#
# Velocity S-wave (km/s) = 3.85682 3.97238 3.91503
# Velocity P-wave (km/s) = 6.22590 6.40526 6.31622
#
# Compressibility (1/GPa) = 0.02325567
#
# Stress axis : x y z
#
# Youngs Moduli (GPa) = 61.58105 89.90862 93.90235
#
# Poissons Ratio (x) = 0.25902 0.20207
# Poissons Ratio (y) = 0.17741 0.22017
# Poissons Ratio (z) = 0.13252 0.21080
#
# Static dielectric constant tensor:
#      x y z
#    x 3.934540 -0.005990 -0.123960 
#    y -0.005990 4.357310 -0.034070 
#    z -0.123960 -0.034070 4.169970 
# 
# 
# High freq. dielectric constant tensor:
#      x y z
#    x 1.895770 -0.000010 -0.003750 
#    y -0.000010 1.913560 -0.002530 
#    z -0.003750 -0.002530 1.909270 
# 
# From -- ./inp_files/207010.got.cif
#   From: 2010.06.25/outbox.cif.g09.slc.cpg/sg2_104_cif.got.tgz:207010.got - 2010.06.27 13:26:56.
