data_PCOD8028965
_publ_section_title
;
Structure prediction by ZEFSAII (Michael W. Deem and Ramdas Pophale) SiO2 
 PCOD8028965
Probable space group: P -1
;
_chemical_formula_sum "Si O2"
_cell_formula_units_Z 14
_cell_length_a 15.834558
_cell_length_b 9.608394
_cell_length_c 12.415852
_cell_angle_alpha 70.281374
_cell_angle_beta 27.129736
_cell_angle_gamma 61.307731
_cell_volume 736.307190
_symmetry_space_group_name_H-M "P -1"
_symmetry_group_IT_number 2
_symmetry_cell_setting 'triclinic'
loop_
_space_group_symop_operation_xyz
x,y,z
-x,-y,-z
loop_
_atom_site_type_symbol
_atom_site_label
_atom_site_fract_x
_atom_site_fract_y
_atom_site_fract_z
Si Si1 0.052864 0.298062 0.567177
Si Si2 0.320304 0.451075 0.478099
Si Si3 0.905724 0.305067 0.153860
Si Si4 0.229531 0.663701 0.939543
Si Si5 0.092870 0.024092 0.723355
Si Si6 0.304348 0.132150 0.634995
Si Si7 0.272215 0.518150 0.276894
O O1 0.230108 0.360539 0.330253
O O2 0.899197 0.330731 0.631470
O O3 0.151188 0.102360 0.530152
O O4 0.918967 0.388796 0.802738
O O5 0.159998 0.545237 0.728786
O O6 0.540508 0.443713 0.259212
O O7 0.347233 0.266280 0.483502
O O8 0.239399 0.547096 0.433946
O O9 0.791558 0.369803 0.153155
O O10 0.854060 0.164234 0.304801
O O11 0.147542 0.228163 0.882608
O O12 0.147251 0.860725 0.003394
O O13 0.219387 0.035879 0.679002
O O14 0.500000 0.000000 0.500000
O O15 0.500000 0.500000 0.000000
#
# Coordination Sequence:
#
# PCOD8028965 Si02
#       7
#     2   2   2   2   2   2   2
#     4   9  20  34  60  80 108 144 202 236 267 327
#     4  12  21  34  55  91 112 145 190 240 288 330
#     4  11  21  34  55  84 124 144 174 241 296 333
#     4   9  18  35  56  82 111 150 185 225 283 350
#     4   9  18  37  53  78 109 149 187 219 283 341
#     4  11  21  34  56  82 114 151 193 221 275 353
#     4  11  19  36  58  85 106 151 200 240 271 333
#
# _framework density 19.013802999999999
#
# number of rings (size 3 to 8) (size 9 to 14) (size 15 to 20)
#    0.857    0.857    2.857    4.286    0.000    0.000 
#    0.000    0.714    0.000    0.857    0.000    0.000 
#    0.000    0.000    0.000    0.000    0.000    0.000 
#
# Total GULP energy -173435.997882 kJ/mol
# GULP energy per Si atom -12388.285563 kJ/mol
# Density = 1.897053 g / cm^3
# Si number density = 19.013803 Si / 1000 Ang^3
#
#
#
# Elastic Constant Matrix: (Units=GPa)
#
#
# Indices 1 2 3 4 5 6 
#
# 1 116.0158 33.5061 36.3928 3.9453 -2.1261 -25.6680
# 2 33.5061 65.9080 19.1664 -9.0924 1.7257 -13.3969
# 3 36.3928 19.1664 72.4806 -11.8231 -17.2153 -5.4200
# 4 3.9453 -9.0924 -11.8231 28.2286 -2.6831 2.3052
# 5 -2.1261 1.7257 -17.2153 -2.6831 31.2241 -1.4424
# 6 -25.6680 -13.3969 -5.4200 2.3052 -1.4424 27.5757
#
#
#
# Elastic Compliance Matrix: (Units=1/GPa)
#
#
# Indices 1 2 3 4 5 6 
#
# 1 0.014736 -0.004113 -0.007492 -0.007690 -0.003065 0.010729
# 2 -0.004113 0.019712 -0.002402 0.005340 -0.002017 0.004724
# 3 -0.007492 -0.002402 0.022853 0.011403 0.013021 -0.003921
# 4 -0.007690 0.005340 0.011403 0.044307 0.009019 -0.005554
# 5 -0.003065 -0.002017 0.013021 0.009019 0.039886 0.000059
# 6 0.010729 0.004724 -0.003921 -0.005554 0.000059 0.048242
#
#
# Mechanical properties :
#
#
# Convention : Reuss Voigt Hill
#
# Bulk Modulus (GPa) = 34.14303 48.05946 41.10124
# Shear Modulus (GPa) = 21.97680 28.42828 25.20254
#
# Velocity S-wave (km/s) = 3.40344 3.87090 3.64467
# Velocity P-wave (km/s) = 5.78278 6.73123 6.27495
#
# Compressibility (1/GPa) = 0.02928855
#
# Stress axis : x y z
#
# Youngs Moduli (GPa) = 67.85919 50.73089 43.75743
#
# Poissons Ratio (x) = 0.20865 0.32782
# Poissons Ratio (y) = 0.27909 0.10511
# Poissons Ratio (z) = 0.50838 0.12186
#
# Static dielectric constant tensor:
#      x y z
#    x 3.542110 -0.285830 -0.103530 
#    y -0.285830 3.357490 -0.247430 
#    z -0.103530 -0.247430 3.416100 
# 
# 
# High freq. dielectric constant tensor:
#      x y z
#    x 1.743180 -0.024920 -0.013730 
#    y -0.024920 1.719750 -0.028830 
#    z -0.013730 -0.028830 1.719230 
# 
# From -- ./inp_files/447291.got.cif
#   From: 2010.06.25/outbox.cif.g09.slc.cpg/sg2_224_cif.got.tgz:447291.got - 2010.06.27 13:26:56.
