data_PCOD8028785
_publ_section_title
;
Structure prediction by ZEFSAII (Michael W. Deem and Ramdas Pophale) SiO2 
 PCOD8028785
Probable space group: P -1
;
_chemical_formula_sum "Si O2"
_cell_formula_units_Z 14
_cell_length_a 5.231104
_cell_length_b 25.320810
_cell_length_c 14.492654
_cell_angle_alpha 18.751741
_cell_angle_beta 81.897206
_cell_angle_gamma 89.367835
_cell_volume 563.923811
_symmetry_space_group_name_H-M "P -1"
_symmetry_group_IT_number 2
_symmetry_cell_setting 'triclinic'
loop_
_space_group_symop_operation_xyz
x,y,z
-x,-y,-z
loop_
_atom_site_type_symbol
_atom_site_label
_atom_site_fract_x
_atom_site_fract_y
_atom_site_fract_z
Si Si1 0.186903 0.706852 0.287750
Si Si2 0.039700 0.729857 0.717626
Si Si3 0.542590 0.517019 0.670165
Si Si4 0.868254 0.127879 0.333203
Si Si5 0.457574 0.574606 0.780190
Si Si6 0.662355 0.884928 0.369242
Si Si7 0.588379 0.229341 0.029615
O O1 0.343349 0.625100 0.486073
O O2 0.853688 0.614059 0.453202
O O3 0.302521 0.689041 0.210212
O O4 0.258890 0.907309 0.987064
O O5 0.959354 0.752724 0.789411
O O6 0.369852 0.789805 0.595241
O O7 0.914556 0.847436 0.467208
O O8 0.882392 0.516802 0.060935
O O9 0.579095 0.506292 0.797626
O O10 0.413540 0.330756 0.925645
O O11 0.845562 0.259092 0.037492
O O12 0.568298 0.983723 0.623428
O O13 0.000000 0.000000 0.500000
O O14 0.594261 0.790044 0.427276
O O15 0.500000 0.500000 0.000000
#
# Coordination Sequence:
#
# PCOD8028785 Si02
#       7
#     2   2   2   2   2   2   2
#     4  12  27  48  71 101 147 197 237 281 350 426
#     4  11  23  43  73 106 141 176 234 300 363 410
#     4  12  29  46  72 104 142 195 240 283 350 435
#     4  11  24  39  75 106 142 182 234 298 360 411
#     4  10  26  47  77 106 141 179 239 306 364 408
#     4  11  24  46  73 103 141 187 236 291 356 418
#     4  11  26  45  69 106 146 185 238 292 354 419
#
# _framework density 24.826048
#
# number of rings (size 3 to 8) (size 9 to 14) (size 15 to 20)
#    0.000    0.857    1.429    3.857   12.000    3.429 
#    0.000    0.000    0.000    0.000    0.000    0.000 
#    0.000    0.000    0.000    0.000    0.000    0.000 
#
# Total GULP energy -173454.524063 kJ/mol
# GULP energy per Si atom -12389.608862 kJ/mol
# Density = 2.476954 g / cm^3
# Si number density = 24.826048 Si / 1000 Ang^3
#
#
#
# Elastic Constant Matrix: (Units=GPa)
#
#
# Indices 1 2 3 4 5 6 
#
# 1 78.2539 7.1147 -2.3672 1.3336 11.8663 6.7208
# 2 7.1147 171.5511 38.0905 -17.0604 5.5235 -0.8307
# 3 -2.3672 38.0905 68.3178 -16.3197 20.2738 10.0402
# 4 1.3336 -17.0604 -16.3197 49.7690 -4.4886 -3.0873
# 5 11.8663 5.5235 20.2738 -4.4886 33.5465 -0.8365
# 6 6.7208 -0.8307 10.0402 -3.0873 -0.8365 38.1115
#
#
#
# Elastic Compliance Matrix: (Units=1/GPa)
#
#
# Indices 1 2 3 4 5 6 
#
# 1 0.014467 -0.001283 0.003858 -0.000465 -0.007395 -0.003796
# 2 -0.001283 0.006951 -0.004552 0.001236 0.002269 0.001727
# 3 0.003858 -0.004552 0.023686 0.004360 -0.014521 -0.006985
# 4 -0.000465 0.001236 0.004360 0.022032 0.000292 0.000751
# 5 -0.007395 0.002269 -0.014521 0.000292 0.041018 0.006103
# 6 -0.003796 0.001727 -0.006985 0.000751 0.006103 0.028981
#
#
# Mechanical properties :
#
#
# Convention : Reuss Voigt Hill
#
# Bulk Modulus (GPa) = 24.30086 44.86655 34.58371
# Shear Modulus (GPa) = 32.29824 42.63771 37.46797
#
# Velocity S-wave (km/s) = 3.61083 4.14872 3.88908
# Velocity P-wave (km/s) = 5.21477 6.40787 5.84186
#
# Compressibility (1/GPa) = 0.04115080
#
# Stress axis : x y z
#
# Youngs Moduli (GPa) = 69.12059 143.85735 42.21856
#
# Poissons Ratio (x) = 0.18458 -0.16287
# Poissons Ratio (y) = 0.08869 0.19217
# Poissons Ratio (z) = -0.26666 0.65482
#
# Static dielectric constant tensor:
#      x y z
#    x 5.837080 1.042710 -2.494420 
#    y 1.042710 5.744550 -2.129980 
#    z -2.494420 -2.129980 8.183320 
# 
# 
# High freq. dielectric constant tensor:
#      x y z
#    x 1.990140 0.002010 -0.012850 
#    y 0.002010 2.007990 -0.024340 
#    z -0.012850 -0.024340 1.986970 
# 
# From -- ./inp_files/486141.got.cif
#   From: 2010.06.25/outbox.cif.g09.slc.cpg/sg2_244_cif.got.tgz:486141.got - 2010.06.27 13:26:56.
