data_PCOD8028343
_publ_section_title
;
Structure prediction by ZEFSAII (Michael W. Deem and Ramdas Pophale) SiO2 
 PCOD8028343
Probable space group: P -1
;
_chemical_formula_sum "Si O2"
_cell_formula_units_Z 16
_cell_length_a 6.512463
_cell_length_b 14.861555
_cell_length_c 11.782937
_cell_angle_alpha 130.964110
_cell_angle_beta 90.365339
_cell_angle_gamma 114.243925
_cell_volume 719.567403
_symmetry_space_group_name_H-M "P -1"
_symmetry_group_IT_number 2
_symmetry_cell_setting 'triclinic'
loop_
_space_group_symop_operation_xyz
x,y,z
-x,-y,-z
loop_
_atom_site_type_symbol
_atom_site_label
_atom_site_fract_x
_atom_site_fract_y
_atom_site_fract_z
Si Si1 0.524869 0.175506 0.040068
Si Si2 0.366138 0.771861 0.569912
Si Si3 0.849924 0.135406 0.165455
Si Si4 0.678348 0.981989 0.567466
Si Si5 0.576883 0.662422 0.652709
Si Si6 0.802286 0.777452 0.278369
Si Si7 0.960726 0.365645 0.754626
Si Si8 0.656204 0.319662 0.926372
O O1 0.728823 0.146138 0.058362
O O2 0.553120 0.312084 0.219179
O O3 0.564518 0.201864 0.927119
O O4 0.256907 0.030628 0.944089
O O5 0.206244 0.790991 0.674400
O O6 0.555461 0.926372 0.643589
O O7 0.507719 0.706642 0.572613
O O8 0.183556 0.662404 0.384774
O O9 0.139202 0.227880 0.229105
O O10 0.721211 0.866596 0.419438
O O11 0.500000 0.000000 0.500000
O O12 0.943831 0.124456 0.708051
O O13 0.500000 0.500000 0.500000
O O14 0.851085 0.685601 0.290693
O O15 0.579680 0.675176 0.106747
O O16 0.762997 0.282795 0.787257
O O17 0.118297 0.533640 0.905326
#
# Coordination Sequence:
#
# PCOD8028343 Si02
#       8
#     2   2   2   2   2   2   2   2
#     4  10  25  47  68 100 132 184 226 283 343 405
#     4  11  25  41  71  98 137 177 226 285 342 401
#     4  10  25  45  72  96 139 173 233 286 341 401
#     4  11  23  40  64  98 138 173 226 280 334 409
#     4  11  27  46  72 103 131 177 236 287 346 406
#     4  11  23  39  64  96 135 179 226 267 336 416
#     4  11  25  44  63 102 142 178 228 278 344 417
#     4  11  25  42  68  95 143 183 226 279 344 403
#
# _framework density 22.235582999999998
#
# number of rings (size 3 to 8) (size 9 to 14) (size 15 to 20)
#    0.000    1.250    2.500    0.750   10.500    2.000 
#    2.250    0.000    0.000    0.000    0.000    0.000 
#    0.000    0.000    0.000    0.000    0.000    0.000 
#
# Total GULP energy -198352.258775 kJ/mol
# GULP energy per Si atom -12397.016173 kJ/mol
# Density = 2.218497 g / cm^3
# Si number density = 22.235583 Si / 1000 Ang^3
#
#
#
# Elastic Constant Matrix: (Units=GPa)
#
#
# Indices 1 2 3 4 5 6 
#
# 1 108.8120 36.8887 27.6933 -1.5882 18.7372 -9.5617
# 2 36.8887 94.6632 15.3032 -7.0586 9.1911 -12.9941
# 3 27.6933 15.3032 75.9898 7.0047 21.6184 -6.3068
# 4 -1.5882 -7.0586 7.0047 36.6854 -6.1655 1.0824
# 5 18.7372 9.1911 21.6184 -6.1655 40.1361 7.3175
# 6 -9.5617 -12.9941 -6.3068 1.0824 7.3175 33.6526
#
#
#
# Elastic Compliance Matrix: (Units=1/GPa)
#
#
# Indices 1 2 3 4 5 6 
#
# 1 0.011873 -0.003573 -0.002195 -0.000512 -0.004074 0.002485
# 2 -0.003573 0.012923 -0.000806 0.002155 -0.001260 0.004028
# 3 -0.002195 -0.000806 0.017924 -0.005524 -0.010172 0.004814
# 4 -0.000512 0.002155 -0.005524 0.030124 0.007902 -0.003036
# 5 -0.004074 -0.001260 -0.010172 0.007902 0.035916 -0.011614
# 6 0.002485 0.004028 0.004814 -0.003036 -0.011614 0.035502
#
#
# Mechanical properties :
#
#
# Convention : Reuss Voigt Hill
#
# Bulk Modulus (GPa) = 33.81663 48.80393 41.31028
# Shear Modulus (GPa) = 29.89262 35.40015 32.64638
#
# Velocity S-wave (km/s) = 3.67053 3.99438 3.83587
# Velocity P-wave (km/s) = 5.76238 6.57797 6.18364
#
# Compressibility (1/GPa) = 0.02957125
#
# Stress axis : x y z
#
# Youngs Moduli (GPa) = 84.22824 77.38437 55.79039
#
# Poissons Ratio (x) = 0.27652 0.12244
# Poissons Ratio (y) = 0.30098 0.04496
# Poissons Ratio (z) = 0.18486 0.06237
#
# Static dielectric constant tensor:
#      x y z
#    x 4.325110 -0.041350 0.091920 
#    y -0.041350 4.021870 0.057890 
#    z 0.091920 0.057890 4.006060 
# 
# 
# High freq. dielectric constant tensor:
#      x y z
#    x 1.887890 -0.003190 0.007480 
#    y -0.003190 1.869100 0.007460 
#    z 0.007480 0.007460 1.880580 
# 
# From -- ./inp_files/95567.got.cif
#   From: 2010.06.25/outbox.cif.g09.slc.cpg/sg2_48_cif.got.tgz:95567.got - 2010.06.27 13:26:56.
