data_PCOD8028872
_publ_section_title
;
Structure prediction by ZEFSAII (Michael W. Deem and Ramdas Pophale) SiO2 
 PCOD8028872
Probable space group: P -1
;
_chemical_formula_sum "Si O2"
_cell_formula_units_Z 14
_cell_length_a 11.694886
_cell_length_b 6.523173
_cell_length_c 14.933652
_cell_angle_alpha 89.027020
_cell_angle_beta 47.406799
_cell_angle_gamma 59.428501
_cell_volume 618.429602
_symmetry_space_group_name_H-M "P -1"
_symmetry_group_IT_number 2
_symmetry_cell_setting 'triclinic'
loop_
_space_group_symop_operation_xyz
x,y,z
-x,-y,-z
loop_
_atom_site_type_symbol
_atom_site_label
_atom_site_fract_x
_atom_site_fract_y
_atom_site_fract_z
Si Si1 0.635168 0.539996 0.237229
Si Si2 0.466583 0.717457 0.141136
Si Si3 0.912082 0.660830 0.638159
Si Si4 0.234987 0.580772 0.169207
Si Si5 0.607004 0.967911 0.352935
Si Si6 0.877608 0.079063 0.247193
Si Si7 0.289367 0.587488 0.496137
O O1 0.644821 0.523383 0.124504
O O2 0.833034 0.232721 0.174853
O O3 0.393856 0.686767 0.388607
O O4 0.666384 0.740937 0.253787
O O5 0.336977 0.621833 0.195361
O O6 0.320918 0.036631 0.247915
O O7 0.583527 0.677236 0.987605
O O8 0.907273 0.474455 0.712578
O O9 0.000000 0.500000 0.500000
O O10 0.056881 0.723730 0.590422
O O11 0.107056 0.860386 0.172572
O O12 0.821317 0.891289 0.265984
O O13 0.445829 0.265820 0.389366
O O14 0.500000 0.000000 0.500000
O O15 0.718481 0.343755 0.395604
#
# Coordination Sequence:
#
# PCOD8028872 Si02
#       7
#     2   2   2   2   2   2   2
#     4  11  23  39  65 100 135 166 220 271 330 391
#     4  11  26  47  67  95 134 181 218 274 326 393
#     4  12  25  41  70 102 130 169 225 276 330 391
#     4  11  26  47  69  92 136 179 223 267 331 395
#     4  11  18  34  59  95 135 169 204 270 333 376
#     4  11  22  38  64  97 128 175 215 265 327 390
#     4  11  21  35  62  99 130 167 212 272 327 383
#
# _framework density 22.637982999999998
#
# number of rings (size 3 to 8) (size 9 to 14) (size 15 to 20)
#    0.000    0.857    4.286    3.857    2.000    2.857 
#    0.000    0.714    0.000    0.000    0.000    0.000 
#    0.000    0.000    0.000    0.000    0.000    0.000 
#
# Total GULP energy -173501.828118 kJ/mol
# GULP energy per Si atom -12392.987723 kJ/mol
# Density = 2.258646 g / cm^3
# Si number density = 22.637983 Si / 1000 Ang^3
#
#
#
# Elastic Constant Matrix: (Units=GPa)
#
#
# Indices 1 2 3 4 5 6 
#
# 1 128.1361 43.3616 21.1920 -0.7668 19.8126 6.4928
# 2 43.3616 93.1148 27.7384 8.3130 12.5414 -2.9330
# 3 21.1920 27.7384 79.1631 6.0697 14.7543 4.8148
# 4 -0.7668 8.3130 6.0697 27.9682 0.9999 -2.7059
# 5 19.8126 12.5414 14.7543 0.9999 34.3849 -0.2098
# 6 6.4928 -2.9330 4.8148 -2.7059 -0.2098 42.7583
#
#
#
# Elastic Compliance Matrix: (Units=1/GPa)
#
#
# Indices 1 2 3 4 5 6 
#
# 1 0.010023 -0.004168 -0.000479 0.001602 -0.004107 -0.001673
# 2 -0.004168 0.014240 -0.003504 -0.003372 -0.001180 0.001785
# 3 -0.000479 -0.003504 0.015205 -0.002294 -0.004916 -0.002049
# 4 0.001602 -0.003372 -0.002294 0.037500 0.000213 0.002158
# 5 -0.004107 -0.001180 -0.004916 0.000213 0.033990 0.001277
# 6 -0.001673 0.001785 -0.002049 0.002158 0.001277 0.024137
#
#
# Mechanical properties :
#
#
# Convention : Reuss Voigt Hill
#
# Bulk Modulus (GPa) = 43.16408 53.88868 48.52638
# Shear Modulus (GPa) = 31.42309 34.89709 33.16009
#
# Velocity S-wave (km/s) = 3.72972 3.93049 3.83142
# Velocity P-wave (km/s) = 6.13647 6.66742 6.40745
#
# Compressibility (1/GPa) = 0.02316741
#
# Stress axis : x y z
#
# Youngs Moduli (GPa) = 99.77062 70.22363 65.76821
#
# Poissons Ratio (x) = 0.29266 0.03148
# Poissons Ratio (y) = 0.41580 0.23046
# Poissons Ratio (z) = 0.04775 0.24608
#
# Static dielectric constant tensor:
#      x y z
#    x 4.159060 -0.002470 0.004860 
#    y -0.002470 3.824770 -0.016630 
#    z 0.004860 -0.016630 3.773900 
# 
# 
# High freq. dielectric constant tensor:
#      x y z
#    x 1.906330 0.004890 0.007740 
#    y 0.004890 1.887090 0.008420 
#    z 0.007740 0.008420 1.871070 
# 
# From -- ./inp_files/67497.got.cif
#   From: 2010.06.25/outbox.cif.g09.slc.cpg/sg2_34_cif.got.tgz:67497.got - 2010.06.27 13:26:56.
