data_PCOD8028841
_publ_section_title
;
Structure prediction by ZEFSAII (Michael W. Deem and Ramdas Pophale) SiO2 
 PCOD8028841
Probable space group: P -1
;
_chemical_formula_sum "Si O2"
_cell_formula_units_Z 16
_cell_length_a 10.713008
_cell_length_b 19.090098
_cell_length_c 11.563619
_cell_angle_alpha 142.720086
_cell_angle_beta 62.235548
_cell_angle_gamma 142.790482
_cell_volume 769.917436
_symmetry_space_group_name_H-M "P -1"
_symmetry_group_IT_number 2
_symmetry_cell_setting 'triclinic'
loop_
_space_group_symop_operation_xyz
x,y,z
-x,-y,-z
loop_
_atom_site_type_symbol
_atom_site_label
_atom_site_fract_x
_atom_site_fract_y
_atom_site_fract_z
Si Si1 0.388480 0.987764 0.863295
Si Si2 0.289966 0.996512 0.172694
Si Si3 0.208450 0.205627 0.236138
Si Si4 0.911891 0.613793 0.506283
Si Si5 0.871093 0.808068 0.244659
Si Si6 0.419083 0.673942 0.901264
Si Si7 0.512203 0.360171 0.518588
Si Si8 0.557527 0.461499 0.076267
O O1 0.614901 0.059422 0.885697
O O2 0.181968 0.768826 0.621641
O O3 0.446424 0.118325 0.908428
O O4 0.300412 0.996487 0.027955
O O5 0.028943 0.846302 0.131805
O O6 0.448939 0.207958 0.425241
O O7 0.437581 0.340397 0.235113
O O8 0.282448 0.218376 0.350005
O O9 0.121475 0.277618 0.375208
O O10 0.000000 0.000000 0.000000
O O11 0.831157 0.481669 0.259319
O O12 0.750609 0.480927 0.511003
O O13 0.797126 0.662187 0.178734
O O14 0.635748 0.702594 0.148758
O O15 0.000000 0.000000 0.500000
O O16 0.390154 0.619668 0.976532
O O17 0.551353 0.501976 0.758616
#
# Coordination Sequence:
#
# PCOD8028841 Si02
#       8
#     2   2   2   2   2   2   2   2
#     4  11  24  39  60  90 128 170 192 241 308 367
#     4  11  23  42  59  87 130 164 206 241 297 372
#     4  11  18  28  55  92 125 154 187 248 314 356
#     4  11  19  34  55  92 126 154 197 245 308 363
#     4  11  25  43  65  91 121 158 206 258 305 354
#     4  11  21  36  58  93 123 150 204 246 307 364
#     4  11  19  34  59  92 125 154 198 254 307 362
#     4  11  23  39  65  96 115 157 203 261 312 348
#
# _framework density 20.781448999999999
#
# number of rings (size 3 to 8) (size 9 to 14) (size 15 to 20)
#    0.000    1.000    7.500    1.500    1.750    1.500 
#    2.250    0.625    0.000    1.500    0.000    0.000 
#    0.000    0.000    0.000    0.000    0.000    0.000 
#
# Total GULP energy -198329.397103 kJ/mol
# GULP energy per Si atom -12395.587319 kJ/mol
# Density = 2.073415 g / cm^3
# Si number density = 20.781449 Si / 1000 Ang^3
#
#
#
# Elastic Constant Matrix: (Units=GPa)
#
#
# Indices 1 2 3 4 5 6 
#
# 1 62.1353 41.8757 20.1416 10.0431 -5.0054 -20.2822
# 2 41.8757 101.2615 31.0398 20.7055 -2.7494 -22.9823
# 3 20.1416 31.0398 103.7130 22.4912 19.2623 -5.0735
# 4 10.0431 20.7055 22.4912 29.6231 1.6806 -1.9153
# 5 -5.0054 -2.7494 19.2623 1.6806 24.0722 5.5345
# 6 -20.2822 -22.9823 -5.0735 -1.9153 5.5345 34.0944
#
#
#
# Elastic Compliance Matrix: (Units=1/GPa)
#
#
# Indices 1 2 3 4 5 6 
#
# 1 0.025416 -0.007217 -0.003039 -0.000964 0.004901 0.008953
# 2 -0.007217 0.016229 -0.001780 -0.007223 0.000942 0.005823
# 3 -0.003039 -0.001780 0.014890 -0.008282 -0.012343 0.000747
# 4 -0.000964 -0.007223 -0.008282 0.044914 0.003554 -0.004729
# 5 0.004901 0.000942 -0.012343 0.003554 0.053868 -0.006830
# 6 0.008953 0.005823 0.000747 -0.004729 -0.006830 0.039536
#
#
# Mechanical properties :
#
#
# Convention : Reuss Voigt Hill
#
# Bulk Modulus (GPa) = 30.80320 50.35822 40.58071
# Shear Modulus (GPa) = 21.76326 29.16147 25.46237
#
# Velocity S-wave (km/s) = 3.23963 3.75006 3.50415
# Velocity P-wave (km/s) = 5.37105 6.56014 5.99515
#
# Compressibility (1/GPa) = 0.03246416
#
# Stress axis : x y z
#
# Youngs Moduli (GPa) = 39.34555 61.61641 67.15935
#
# Poissons Ratio (x) = 0.44467 0.20412
# Poissons Ratio (y) = 0.28394 0.11951
# Poissons Ratio (z) = 0.11958 0.10965
#
# Static dielectric constant tensor:
#      x y z
#    x 3.656390 -0.183160 0.155820 
#    y -0.183160 3.904380 0.577140 
#    z 0.155820 0.577140 4.443670 
# 
# 
# High freq. dielectric constant tensor:
#      x y z
#    x 1.797730 -0.020130 0.005690 
#    y -0.020130 1.788850 0.028220 
#    z 0.005690 0.028220 1.815520 
# 
# From -- ./inp_files/438677.got.cif
#   From: 2010.06.25/outbox.cif.g09.slc.cpg/sg2_220_cif.got.tgz:438677.got - 2010.06.27 13:26:56.
