data_PCOD8028522
_publ_section_title
;
Structure prediction by ZEFSAII (Michael W. Deem and Ramdas Pophale) SiO2 
 PCOD8028522
Probable space group: P -1
;
_chemical_formula_sum "Si O2"
_cell_formula_units_Z 16
_cell_length_a 14.943370
_cell_length_b 11.808884
_cell_length_c 9.714898
_cell_angle_alpha 96.802389
_cell_angle_beta 109.257924
_cell_angle_gamma 29.553944
_cell_volume 744.193382
_symmetry_space_group_name_H-M "P -1"
_symmetry_group_IT_number 2
_symmetry_cell_setting 'triclinic'
loop_
_space_group_symop_operation_xyz
x,y,z
-x,-y,-z
loop_
_atom_site_type_symbol
_atom_site_label
_atom_site_fract_x
_atom_site_fract_y
_atom_site_fract_z
Si Si1 0.911346 0.437202 0.537312
Si Si2 0.907907 0.199442 0.394332
Si Si3 0.330418 0.312434 0.033334
Si Si4 0.384860 0.792595 0.924830
Si Si5 0.070621 0.674712 0.194913
Si Si6 0.491794 0.551963 0.214278
Si Si7 0.722232 0.780248 0.264279
Si Si8 0.095168 0.905587 0.185926
O O1 0.109205 0.304547 0.635312
O O2 0.993794 0.230543 0.485068
O O3 0.813870 0.514769 0.649453
O O4 0.736712 0.677615 0.385666
O O5 0.664154 0.457055 0.335595
O O6 0.000000 0.000000 0.500000
O O7 0.951431 0.134234 0.244430
O O8 0.432477 0.310768 0.006707
O O9 0.139453 0.553468 0.064970
O O10 0.496128 0.075071 0.182748
O O11 0.235168 0.330167 0.873807
O O12 0.405891 0.681837 0.792790
O O13 0.384324 0.715378 0.048123
O O14 0.170650 0.088715 0.863364
O O15 0.121707 0.753172 0.243281
O O16 0.318758 0.725085 0.268127
O O17 0.000000 0.000000 0.000000
#
# Coordination Sequence:
#
# PCOD8028522 Si02
#       8
#     2   2   2   2   2   2   2   2
#     4  11  24  47  68  97 143 180 220 284 352 393
#     4  12  25  43  67  98 144 183 214 275 349 412
#     4  11  24  44  74  99 125 180 238 283 335 396
#     4  11  20  38  64 101 138 166 219 278 338 393
#     4  12  23  40  71  99 136 173 221 285 335 407
#     4  11  22  36  65  98 139 182 211 272 336 408
#     4  10  25  47  71  96 132 182 232 287 337 399
#     4  12  23  40  66 106 135 176 228 270 334 419
#
# _framework density 21.499790000000001
#
# number of rings (size 3 to 8) (size 9 to 14) (size 15 to 20)
#    0.000    0.750    6.250    1.500    1.750    1.500 
#    2.250    0.000    0.000    0.000    0.000    0.000 
#    0.000    0.000    0.000    0.000    0.000    0.000 
#
# Total GULP energy -198402.175137 kJ/mol
# GULP energy per Si atom -12400.135946 kJ/mol
# Density = 2.145086 g / cm^3
# Si number density = 21.499790 Si / 1000 Ang^3
#
#
#
# Elastic Constant Matrix: (Units=GPa)
#
#
# Indices 1 2 3 4 5 6 
#
# 1 111.6169 38.9927 46.5196 3.9863 1.9833 4.4236
# 2 38.9927 84.8610 24.0173 7.2712 5.8908 -9.1746
# 3 46.5196 24.0173 86.5422 -0.6003 4.1508 -3.4993
# 4 3.9863 7.2712 -0.6003 33.4347 8.3164 -1.3599
# 5 1.9833 5.8908 4.1508 8.3164 39.2825 1.4505
# 6 4.4236 -9.1746 -3.4993 -1.3599 1.4505 39.6163
#
#
#
# Elastic Compliance Matrix: (Units=1/GPa)
#
#
# Indices 1 2 3 4 5 6 
#
# 1 0.013252 -0.004715 -0.005999 -0.001042 0.001010 -0.003174
# 2 -0.004715 0.015070 -0.001432 -0.002198 -0.001548 0.003871
# 3 -0.005999 -0.001432 0.015336 0.001759 -0.001542 0.001810
# 4 -0.001042 -0.002198 0.001759 0.032248 -0.006672 0.001114
# 5 0.001010 -0.001548 -0.001542 -0.006672 0.027281 -0.001835
# 6 -0.003174 0.003871 0.001810 0.001114 -0.001835 0.026758
#
#
# Mechanical properties :
#
#
# Convention : Reuss Voigt Hill
#
# Bulk Modulus (GPa) = 51.63656 55.78659 53.71158
# Shear Modulus (GPa) = 31.11522 34.03275 32.57398
#
# Velocity S-wave (km/s) = 3.80838 3.98293 3.89663
# Velocity P-wave (km/s) = 6.58845 6.86698 6.72916
#
# Compressibility (1/GPa) = 0.01936612
#
# Stress axis : x y z
#
# Youngs Moduli (GPa) = 75.46222 66.35585 65.20440
#
# Poissons Ratio (x) = 0.31288 0.39114
# Poissons Ratio (y) = 0.35582 0.09339
# Poissons Ratio (z) = 0.45268 0.09503
#
# Static dielectric constant tensor:
#      x y z
#    x 4.063580 0.082300 -0.126600 
#    y 0.082300 3.937780 -0.084370 
#    z -0.126600 -0.084370 4.054500 
# 
# 
# High freq. dielectric constant tensor:
#      x y z
#    x 1.853500 0.006320 -0.008990 
#    y 0.006320 1.827400 -0.006020 
#    z -0.008990 -0.006020 1.846330 
# 
# From -- ./inp_files/307570.got.cif
#   From: 2010.06.25/outbox.cif.g09.slc.cpg/sg2_154_cif.got.tgz:307570.got - 2010.06.27 13:26:56.
