data_PCOD8028211
_publ_section_title
;
Structure prediction by ZEFSAII (Michael W. Deem and Ramdas Pophale) SiO2 
 PCOD8028211
Probable space group: P -1
;
_chemical_formula_sum "Si O2"
_cell_formula_units_Z 14
_cell_length_a 8.686696
_cell_length_b 10.513318
_cell_length_c 11.430867
_cell_angle_alpha 56.878756
_cell_angle_beta 113.922409
_cell_angle_gamma 135.595521
_cell_volume 611.569406
_symmetry_space_group_name_H-M "P -1"
_symmetry_group_IT_number 2
_symmetry_cell_setting 'triclinic'
loop_
_space_group_symop_operation_xyz
x,y,z
-x,-y,-z
loop_
_atom_site_type_symbol
_atom_site_label
_atom_site_fract_x
_atom_site_fract_y
_atom_site_fract_z
Si Si1 0.400263 0.190488 0.270445
Si Si2 0.504177 0.223216 0.537993
Si Si3 0.746284 0.201680 0.247822
Si Si4 0.180226 0.568239 0.271603
Si Si5 0.241141 0.846793 0.977081
Si Si6 0.059666 0.062880 0.851752
Si Si7 0.495571 0.518670 0.274360
O O1 0.491925 0.157782 0.432621
O O2 0.557522 0.216864 0.205317
O O3 0.411520 0.380426 0.200326
O O4 0.152708 0.002781 0.252930
O O5 0.736641 0.342889 0.617124
O O6 0.459744 0.379497 0.442414
O O7 0.330781 0.019151 0.657288
O O8 0.955779 0.343035 0.326401
O O9 0.815802 0.273484 0.100053
O O10 0.125413 0.694214 0.126362
O O11 0.360165 0.588267 0.234231
O O12 0.500000 0.000000 0.000000
O O13 0.142816 0.955301 0.878142
O O14 0.250620 0.297028 0.769510
O O15 0.000000 0.000000 0.000000
#
# Coordination Sequence:
#
# PCOD8028211 Si02
#       7
#     2   2   2   2   2   2   2
#     4  10  27  44  67 106 137 179 231 275 350 401
#     4  10  25  44  72 101 141 177 234 282 339 410
#     4  12  25  45  71 101 143 183 226 286 337 414
#     4  12  25  45  74 100 140 182 232 283 342 404
#     4  12  24  46  70 104 136 180 236 277 345 403
#     4  12  26  47  74  98 143 180 224 293 339 409
#     4  10  25  45  67 106 133 180 230 279 343 406
#
# _framework density 22.891922000000001
#
# number of rings (size 3 to 8) (size 9 to 14) (size 15 to 20)
#    0.857    0.000    2.857    3.000    4.000    1.714 
#    0.000    0.000    0.000    0.000    0.000    0.000 
#    0.000    0.000    0.000    0.000    0.000    0.000 
#
# Total GULP energy -173461.278934 kJ/mol
# GULP energy per Si atom -12390.091352 kJ/mol
# Density = 2.283982 g / cm^3
# Si number density = 22.891922 Si / 1000 Ang^3
#
#
#
# Elastic Constant Matrix: (Units=GPa)
#
#
# Indices 1 2 3 4 5 6 
#
# 1 88.6318 27.0172 11.0594 5.5481 -3.7386 8.4801
# 2 27.0172 166.5268 35.4808 7.9584 7.5836 25.4863
# 3 11.0594 35.4808 80.8347 10.7334 11.2200 -3.1871
# 4 5.5481 7.9584 10.7334 40.7276 -8.0670 1.0323
# 5 -3.7386 7.5836 11.2200 -8.0670 15.9713 0.6028
# 6 8.4801 25.4863 -3.1871 1.0323 0.6028 36.0640
#
#
#
# Elastic Compliance Matrix: (Units=1/GPa)
#
#
# Indices 1 2 3 4 5 6 
#
# 1 0.012382 -0.001541 -0.001822 0.000150 0.005065 -0.002072
# 2 -0.001541 0.007870 -0.003048 -0.000816 -0.002165 -0.005409
# 3 -0.001822 -0.003048 0.017021 -0.006618 -0.014450 0.004518
# 4 0.000150 -0.000816 -0.006618 0.030538 0.020544 -0.001261
# 5 0.005065 -0.002165 -0.014450 0.020544 0.085465 -0.002955
# 6 -0.002072 -0.005409 0.004518 -0.001261 -0.002955 0.032523
#
#
# Mechanical properties :
#
#
# Convention : Reuss Voigt Hill
#
# Bulk Modulus (GPa) = 40.89968 53.67869 47.28918
# Shear Modulus (GPa) = 24.18128 36.04832 30.11480
#
# Velocity S-wave (km/s) = 3.25364 3.97258 3.63095
# Velocity P-wave (km/s) = 5.65863 6.67394 6.18715
#
# Compressibility (1/GPa) = 0.02445007
#
# Stress axis : x y z
#
# Youngs Moduli (GPa) = 80.76023 127.06624 58.75210
#
# Poissons Ratio (x) = 0.19585 0.10706
# Poissons Ratio (y) = 0.12448 0.17907
# Poissons Ratio (z) = 0.14716 0.38729
#
# Static dielectric constant tensor:
#      x y z
#    x 3.878780 -0.081170 0.026510 
#    y -0.081170 4.316660 0.047550 
#    z 0.026510 0.047550 4.089700 
# 
# 
# High freq. dielectric constant tensor:
#      x y z
#    x 1.887180 -0.012210 0.001690 
#    y -0.012210 1.921700 0.003960 
#    z 0.001690 0.003960 1.898520 
# 
# From -- ./inp_files/341038.got.cif
#   From: 2010.06.25/outbox.cif.g09.slc.cpg/sg2_171_cif.got.tgz:341038.got - 2010.06.27 13:26:56.
