data_PCOD8028728
_publ_section_title
;
Structure prediction by ZEFSAII (Michael W. Deem and Ramdas Pophale) SiO2 
 PCOD8028728
Probable space group: P -1
;
_chemical_formula_sum "Si O2"
_cell_formula_units_Z 16
_cell_length_a 11.490850
_cell_length_b 9.493525
_cell_length_c 9.514632
_cell_angle_alpha 118.901595
_cell_angle_beta 127.509190
_cell_angle_gamma 68.587491
_cell_volume 717.047480
_symmetry_space_group_name_H-M "P -1"
_symmetry_group_IT_number 2
_symmetry_cell_setting 'triclinic'
loop_
_space_group_symop_operation_xyz
x,y,z
-x,-y,-z
loop_
_atom_site_type_symbol
_atom_site_label
_atom_site_fract_x
_atom_site_fract_y
_atom_site_fract_z
Si Si1 0.635994 0.730686 0.576119
Si Si2 0.851240 0.937067 0.185374
Si Si3 0.421763 0.645145 0.922102
Si Si4 0.659647 0.650840 0.874644
Si Si5 0.855052 0.475861 0.469862
Si Si6 0.287505 0.930280 0.124233
Si Si7 0.152587 0.804208 0.468690
Si Si8 0.688258 0.295876 0.730145
O O1 0.629335 0.657757 0.690959
O O2 0.777060 0.645600 0.554300
O O3 0.488000 0.695786 0.368352
O O4 0.642172 0.922251 0.679302
O O5 0.021406 0.890332 0.320010
O O6 0.788410 0.076274 0.314667
O O7 0.760966 0.783726 0.067316
O O8 0.837896 0.002284 0.046841
O O9 0.503520 0.672956 0.849820
O O10 0.255507 0.607069 0.752866
O O11 0.500000 0.500000 0.000000
O O12 0.414979 0.814267 0.083087
O O13 0.741285 0.472715 0.882194
O O14 0.899996 0.354877 0.573601
O O15 0.000000 0.500000 0.500000
O O16 0.223493 0.825308 0.151817
O O17 0.285203 0.759438 0.437164
#
# Coordination Sequence:
#
# PCOD8028728 Si02
#       8
#     2   2   2   2   2   2   2   2
#     4  11  24  45  68 110 138 186 238 292 361 420
#     4  10  26  46  67 105 144 185 242 291 361 426
#     4  12  24  44  70 108 141 184 239 291 360 421
#     4  11  23  42  74 101 140 182 235 297 341 434
#     4  12  26  46  74 102 144 192 239 292 361 433
#     4  11  25  44  67 107 144 184 233 300 349 419
#     4  11  25  47  71 101 142 194 238 290 366 425
#     4  12  23  43  74 101 145 184 235 299 350 429
#
# _framework density 22.313725000000002
#
# number of rings (size 3 to 8) (size 9 to 14) (size 15 to 20)
#    0.000    0.750    5.000    1.500    3.500    4.000 
#    4.500    0.000    0.000    0.000    0.000    0.000 
#    0.000    0.000    0.000    0.000    0.000    0.000 
#
# Total GULP energy -198435.591224 kJ/mol
# GULP energy per Si atom -12402.224452 kJ/mol
# Density = 2.226294 g / cm^3
# Si number density = 22.313725 Si / 1000 Ang^3
#
#
#
# Elastic Constant Matrix: (Units=GPa)
#
#
# Indices 1 2 3 4 5 6 
#
# 1 132.7806 46.9434 49.1469 6.2515 -18.7570 4.7160
# 2 46.9434 165.4963 57.5072 14.3364 -7.3427 15.0971
# 3 49.1469 57.5072 106.7624 16.1008 -4.7477 7.2403
# 4 6.2515 14.3364 16.1008 50.3899 -2.9540 -9.5360
# 5 -18.7570 -7.3427 -4.7477 -2.9540 36.7597 0.6168
# 6 4.7160 15.0971 7.2403 -9.5360 0.6168 36.7857
#
#
#
# Elastic Compliance Matrix: (Units=1/GPa)
#
#
# Indices 1 2 3 4 5 6 
#
# 1 0.010004 -0.001404 -0.003759 0.000640 0.004388 0.000126
# 2 -0.001404 0.007968 -0.003193 -0.001596 0.000383 -0.002882
# 3 -0.003759 -0.003193 0.013377 -0.003279 -0.001064 -0.001673
# 4 0.000640 -0.001596 -0.003279 0.022682 0.001289 0.007076
# 5 0.004388 0.000383 -0.001064 0.001289 0.029497 -0.000671
# 6 0.000126 -0.002882 -0.001673 0.007076 -0.000671 0.030526
#
#
# Mechanical properties :
#
#
# Convention : Reuss Voigt Hill
#
# Bulk Modulus (GPa) = 68.31296 79.13714 73.72505
# Shear Modulus (GPa) = 36.86085 41.54986 39.20536
#
# Velocity S-wave (km/s) = 4.06881 4.31986 4.19621
# Velocity P-wave (km/s) = 7.26325 7.77330 7.52260
#
# Compressibility (1/GPa) = 0.01463851
#
# Stress axis : x y z
#
# Youngs Moduli (GPa) = 99.95836 125.50011 74.75281
#
# Poissons Ratio (x) = 0.17617 0.28101
# Poissons Ratio (y) = 0.14031 0.23866
# Poissons Ratio (z) = 0.37576 0.40068
#
# Static dielectric constant tensor:
#      x y z
#    x 3.749050 0.017860 -0.259470 
#    y 0.017860 4.394560 0.098660 
#    z -0.259470 0.098660 4.054920 
# 
# 
# High freq. dielectric constant tensor:
#      x y z
#    x 1.855890 -0.000520 -0.022020 
#    y -0.000520 1.902850 0.003610 
#    z -0.022020 0.003610 1.886050 
# 
# From -- ./inp_files/245664.got.cif
#   From: 2010.06.25/outbox.cif.g09.slc.cpg/sg2_123_cif.got.tgz:245664.got - 2010.06.27 13:26:56.
