data_PCOD8028683
_publ_section_title
;
Structure prediction by ZEFSAII (Michael W. Deem and Ramdas Pophale) SiO2 
 PCOD8028683
Probable space group: P -1
;
_chemical_formula_sum "Si O2"
_cell_formula_units_Z 14
_cell_length_a 12.294158
_cell_length_b 15.781247
_cell_length_c 12.061984
_cell_angle_alpha 144.551949
_cell_angle_beta 45.314591
_cell_angle_gamma 153.833390
_cell_volume 594.942416
_symmetry_space_group_name_H-M "P -1"
_symmetry_group_IT_number 2
_symmetry_cell_setting 'triclinic'
loop_
_space_group_symop_operation_xyz
x,y,z
-x,-y,-z
loop_
_atom_site_type_symbol
_atom_site_label
_atom_site_fract_x
_atom_site_fract_y
_atom_site_fract_z
Si Si1 0.282095 0.846757 0.582588
Si Si2 0.105788 0.500994 0.677959
Si Si3 0.984772 0.318796 0.789240
Si Si4 0.879967 0.043882 0.012710
Si Si5 0.382962 0.393910 0.152543
Si Si6 0.474572 0.788667 0.551277
Si Si7 0.109078 0.352813 0.972693
O O1 0.288963 0.978976 0.811763
O O2 0.290997 0.701498 0.490333
O O3 0.024494 0.681984 0.526411
O O4 0.500000 0.000000 0.500000
O O5 0.369226 0.751137 0.708585
O O6 0.153733 0.434031 0.679651
O O7 0.923232 0.498476 0.832103
O O8 0.063486 0.279755 0.796473
O O9 0.723338 0.068171 0.661757
O O10 0.000000 0.500000 0.000000
O O11 0.164109 0.244033 0.061111
O O12 0.905781 0.118221 0.946316
O O13 0.731953 0.778671 0.842107
O O14 0.506099 0.638571 0.362142
O O15 0.607169 0.473738 0.017869
#
# Coordination Sequence:
#
# PCOD8028683 Si02
#       7
#     2   2   2   2   2   2   2
#     4  12  22  41  76 102 136 173 227 288 337 399
#     4  11  22  43  71 103 133 176 235 279 338 400
#     4  10  26  44  68 101 134 180 234 281 329 404
#     4  11  24  45  68 105 139 178 222 277 350 408
#     4  11  26  42  70 104 140 178 219 285 346 401
#     4  12  24  44  70 103 136 178 228 286 336 398
#     4  11  24  44  69  96 142 183 226 274 342 404
#
# _framework density 23.531689
#
# number of rings (size 3 to 8) (size 9 to 14) (size 15 to 20)
#    0.000    0.857    4.286    2.571    2.000    7.429 
#    0.000    1.429    0.000    0.000    0.000    0.000 
#    0.000    0.000    0.000    0.000    0.000    0.000 
#
# Total GULP energy -173467.313362 kJ/mol
# GULP energy per Si atom -12390.522383 kJ/mol
# Density = 2.347813 g / cm^3
# Si number density = 23.531689 Si / 1000 Ang^3
#
#
#
# Elastic Constant Matrix: (Units=GPa)
#
#
# Indices 1 2 3 4 5 6 
#
# 1 94.7003 39.6067 32.8169 -15.7869 4.7934 -44.1957
# 2 39.6067 122.9133 31.4126 -15.9689 0.2530 -43.9626
# 3 32.8169 31.4126 77.1369 8.1635 -8.3513 -17.2119
# 4 -15.7869 -15.9689 8.1635 47.1361 -5.1495 0.7224
# 5 4.7934 0.2530 -8.3513 -5.1495 32.4587 -13.9884
# 6 -44.1957 -43.9626 -17.2119 0.7224 -13.9884 52.9412
#
#
#
# Elastic Compliance Matrix: (Units=1/GPa)
#
#
# Indices 1 2 3 4 5 6 
#
# 1 0.022578 0.003067 -0.006778 0.010041 0.005307 0.020457
# 2 0.003067 0.014255 -0.003976 0.006954 0.005782 0.014538
# 3 -0.006778 -0.003976 0.018110 -0.006304 0.003842 -0.001971
# 4 0.010041 0.006954 -0.006304 0.028610 0.007256 0.013635
# 5 0.005307 0.005782 0.003842 0.007256 0.041296 0.021293
# 6 0.020457 0.014538 -0.001971 0.013635 0.021293 0.052838
#
#
# Mechanical properties :
#
#
# Convention : Reuss Voigt Hill
#
# Bulk Modulus (GPa) = 25.27202 55.82477 40.54839
# Shear Modulus (GPa) = 24.24241 39.23481 31.73861
#
# Velocity S-wave (km/s) = 3.21316 4.08771 3.67653
# Velocity P-wave (km/s) = 4.95265 6.78630 5.94065
#
# Compressibility (1/GPa) = 0.03956946
#
# Stress axis : x y z
#
# Youngs Moduli (GPa) = 44.29085 70.15073 55.21795
#
# Poissons Ratio (x) = -0.21518 0.37427
# Poissons Ratio (y) = -0.13586 0.21956
# Poissons Ratio (z) = 0.30021 0.27893
#
# Static dielectric constant tensor:
#      x y z
#    x 4.592320 -0.379350 0.154850 
#    y -0.379350 4.464900 -0.198380 
#    z 0.154850 -0.198380 4.021600 
# 
# 
# High freq. dielectric constant tensor:
#      x y z
#    x 1.924970 -0.026130 -0.001720 
#    y -0.026130 1.949050 -0.008950 
#    z -0.001720 -0.008950 1.904390 
# 
# From -- ./inp_files/433306.got.cif
#   From: 2010.06.25/outbox.cif.g09.slc.cpg/sg2_217_cif.got.tgz:433306.got - 2010.06.27 13:26:56.
