data_PCOD8028586
_publ_section_title
;
Structure prediction by ZEFSAII (Michael W. Deem and Ramdas Pophale) SiO2 
 PCOD8028586
Probable space group: P -1
;
_chemical_formula_sum "Si O2"
_cell_formula_units_Z 14
_cell_length_a 14.461483
_cell_length_b 13.036213
_cell_length_c 9.239671
_cell_angle_alpha 120.207294
_cell_angle_beta 41.768318
_cell_angle_gamma 149.602966
_cell_volume 533.908518
_symmetry_space_group_name_H-M "P -1"
_symmetry_group_IT_number 2
_symmetry_cell_setting 'triclinic'
loop_
_space_group_symop_operation_xyz
x,y,z
-x,-y,-z
loop_
_atom_site_type_symbol
_atom_site_label
_atom_site_fract_x
_atom_site_fract_y
_atom_site_fract_z
Si Si1 0.906008 0.130896 0.033973
Si Si2 0.726631 0.710837 0.484169
Si Si3 0.214095 0.879976 0.538308
Si Si4 0.321729 0.698009 0.341955
Si Si5 0.755149 0.260082 0.050087
Si Si6 0.349153 0.623373 0.951420
Si Si7 0.069215 0.323422 0.560428
O O1 0.873957 0.088635 0.214478
O O2 0.620503 0.960576 0.190222
O O3 0.015829 0.100539 0.786828
O O4 0.121031 0.392232 0.960240
O O5 0.500000 0.500000 0.500000
O O6 0.636820 0.774990 0.690976
O O7 0.754781 0.650245 0.552788
O O8 0.143365 0.688451 0.521872
O O9 0.076789 0.829671 0.519610
O O10 0.525665 0.102500 0.321855
O O11 0.236217 0.561875 0.487960
O O12 0.300208 0.588723 0.155940
O O13 0.651627 0.242625 0.008299
O O14 0.000000 0.500000 0.000000
O O15 0.851088 0.197937 0.848123
#
# Coordination Sequence:
#
# PCOD8028586 Si02
#       7
#     2   2   2   2   2   2   2
#     4  11  24  45  68 101 142 183 228 288 342 413
#     4  10  25  48  71  99 142 186 235 287 344 419
#     4  12  24  44  70 110 143 174 238 292 343 417
#     4  12  24  43  74 105 141 183 230 292 352 405
#     4  12  24  42  73 104 138 186 232 286 353 412
#     4  11  24  47  69 101 145 181 233 293 343 413
#     4  12  24  44  73 102 139 187 231 285 353 412
#
# _framework density 26.221720000000001
#
# number of rings (size 3 to 8) (size 9 to 14) (size 15 to 20)
#    0.000    0.571    2.857    6.429    2.000    1.143 
#    0.000    3.571    0.000    0.000    0.000    0.000 
#    0.000    0.000    0.000    0.000    0.000    0.000 
#
# Total GULP energy -173469.514822 kJ/mol
# GULP energy per Si atom -12390.679630 kJ/mol
# Density = 2.616204 g / cm^3
# Si number density = 26.221720 Si / 1000 Ang^3
#
#
#
# Elastic Constant Matrix: (Units=GPa)
#
#
# Indices 1 2 3 4 5 6 
#
# 1 127.9617 26.3988 35.3076 5.1383 -16.4852 21.3747
# 2 26.3988 60.8713 25.2239 4.5650 -4.6723 22.8960
# 3 35.3076 25.2239 169.7381 4.7058 -3.5925 10.5647
# 4 5.1383 4.5650 4.7058 37.2869 -1.0763 6.2575
# 5 -16.4852 -4.6723 -3.5925 -1.0763 34.9451 -1.9347
# 6 21.3747 22.8960 10.5647 6.2575 -1.9347 30.0211
#
#
#
# Elastic Compliance Matrix: (Units=1/GPa)
#
#
# Indices 1 2 3 4 5 6 
#
# 1 0.009894 -0.001436 -0.001436 -0.000021 0.004040 -0.005179
# 2 -0.001436 0.024371 -0.002260 0.000352 0.001432 -0.016751
# 3 -0.001436 -0.002260 0.006499 -0.000444 -0.000296 0.000532
# 4 -0.000021 0.000352 -0.000444 0.027834 0.000524 -0.005866
# 5 0.004040 0.001432 -0.000296 0.000524 0.030589 -0.002003
# 6 -0.005179 -0.016751 0.000532 -0.005866 -0.002003 0.050678
#
#
# Mechanical properties :
#
#
# Convention : Reuss Voigt Hill
#
# Bulk Modulus (GPa) = 32.78684 59.15909 45.97297
# Shear Modulus (GPa) = 29.36061 38.56000 33.96031
#
# Velocity S-wave (km/s) = 3.34983 3.83892 3.60268
# Velocity P-wave (km/s) = 5.24334 6.50075 5.90561
#
# Compressibility (1/GPa) = 0.03050004
#
# Stress axis : x y z
#
# Youngs Moduli (GPa) = 101.07328 41.03183 153.87209
#
# Poissons Ratio (x) = 0.05892 0.22099
# Poissons Ratio (y) = 0.14513 0.34773
# Poissons Ratio (z) = 0.14516 0.09273
#
# Static dielectric constant tensor:
#      x y z
#    x 4.752060 0.261620 -0.084570 
#    y 0.261620 4.602870 0.173650 
#    z -0.084570 0.173650 5.885590 
# 
# 
# High freq. dielectric constant tensor:
#      x y z
#    x 2.035350 0.033260 0.004210 
#    y 0.033260 2.040890 -0.007230 
#    z 0.004210 -0.007230 2.075130 
# 
# From -- ./inp_files/242376.got.cif
#   From: 2010.06.25/outbox.cif.g09.slc.cpg/sg2_122_cif.got.tgz:242376.got - 2010.06.27 13:26:56.
