data_PCOD8028512
_publ_section_title
;
Structure prediction by ZEFSAII (Michael W. Deem and Ramdas Pophale) SiO2 
 PCOD8028512
Probable space group: P -1
;
_chemical_formula_sum "Si O2"
_cell_formula_units_Z 12
_cell_length_a 5.332211
_cell_length_b 17.505195
_cell_length_c 13.079347
_cell_angle_alpha 27.390188
_cell_angle_beta 78.243434
_cell_angle_gamma 81.236723
_cell_volume 548.758027
_symmetry_space_group_name_H-M "P -1"
_symmetry_group_IT_number 2
_symmetry_cell_setting 'triclinic'
loop_
_space_group_symop_operation_xyz
x,y,z
-x,-y,-z
loop_
_atom_site_type_symbol
_atom_site_label
_atom_site_fract_x
_atom_site_fract_y
_atom_site_fract_z
Si Si1 0.794152 0.823469 0.588429
Si Si2 0.997879 0.310599 0.692986
Si Si3 0.339504 0.822453 0.498705
Si Si4 0.873542 0.196692 0.056078
Si Si5 0.462086 0.813333 0.263067
Si Si6 0.669033 0.807565 0.854476
O O1 0.555734 0.733486 0.652823
O O2 0.732402 0.825981 0.709320
O O3 0.058241 0.733491 0.652868
O O4 0.833498 0.010907 0.322233
O O5 0.777842 0.277732 0.666543
O O6 0.000000 0.500000 0.500000
O O7 0.276751 0.277320 0.666744
O O8 0.935631 0.192417 0.936061
O O9 0.399259 0.806972 0.394338
O O10 0.341327 0.013981 0.303518
O O11 0.610258 0.289046 0.989912
O O12 0.110617 0.289046 0.989887
O O13 0.500000 0.000000 0.000000
#
# Coordination Sequence:
#
# PCOD8028512 Si02
#       6
#     2   2   2   2   2   2
#     4  10  17  30  51  86 119 146 185 250 308 352
#     4  12  26  43  61  88 127 172 209 245 306 381
#     4  10  18  29  49  80 115 145 181 238 303 350
#     4  10  18  32  51  76 110 149 194 239 285 350
#     4  12  23  40  64  92 122 160 209 267 309 351
#     4  10  18  30  52  86 117 146 188 251 307 350
#
# _framework density 21.867560999999998
#
# number of rings (size 3 to 8) (size 9 to 14) (size 15 to 20)
#    0.000    1.333    0.000   12.000    0.000    0.000 
#    0.000    0.000    0.000    0.000    0.000   39.667 
#    0.000    0.000    0.000    0.000    0.000    0.000 
#
# Total GULP energy -148741.221144 kJ/mol
# GULP energy per Si atom -12395.101762 kJ/mol
# Density = 2.181779 g / cm^3
# Si number density = 21.867561 Si / 1000 Ang^3
#
#
#
# Elastic Constant Matrix: (Units=GPa)
#
#
# Indices 1 2 3 4 5 6 
#
# 1 290.4310 106.6321 28.5362 19.2552 7.2323 -6.9013
# 2 106.6321 197.8213 46.9173 45.8471 1.5754 -1.3116
# 3 28.5362 46.9173 20.3907 7.0087 -0.4456 1.3137
# 4 19.2552 45.8471 7.0087 48.3950 4.4713 1.1938
# 5 7.2323 1.5754 -0.4456 4.4713 -10.5669 6.9657
# 6 -6.9013 -1.3116 1.3137 1.1938 6.9657 46.0140
#
#
#
# Elastic Compliance Matrix: (Units=1/GPa)
#
#
# Indices 1 2 3 4 5 6 
#
# 1 0.004240 -0.002065 -0.001193 0.000175 0.002836 0.000177
# 2 -0.002065 0.015258 -0.029108 -0.009360 -0.000983 0.001348
# 3 -0.001193 -0.029108 0.113516 0.012347 -0.007029 -0.003506
# 4 0.000175 -0.009360 0.012347 0.026997 0.007979 -0.002501
# 5 0.002836 -0.000983 -0.007029 0.007979 -0.080843 0.012629
# 6 0.000177 0.001348 -0.003506 -0.002501 0.012629 0.020051
#
#
# Mechanical properties :
#
#
# Convention : Reuss Voigt Hill
#
# Bulk Modulus (GPa) = 14.64519 96.97937 55.81228
# Shear Modulus (GPa) = 26.77923 38.53891 32.65907
#
# Velocity S-wave (km/s) = 3.50324 4.20262 3.86877
# Velocity P-wave (km/s) = 4.80368 8.24586 6.74794
#
# Compressibility (1/GPa) = 0.06828181
#
# Stress axis : x y z
#
# Youngs Moduli (GPa) = 235.82343 65.54091 8.80932
#
# Poissons Ratio (x) = 0.13533 0.01051
# Poissons Ratio (y) = 0.48693 0.25642
# Poissons Ratio (z) = 0.28138 1.90778
#
# Static dielectric constant tensor:
#      x y z
#    x 16.736640 -0.818080 0.361070 
#    y -0.818080 3.939930 0.318060 
#    z 0.361070 0.318060 3.444190 
# 
# 
# High freq. dielectric constant tensor:
#      x y z
#    x 1.910110 -0.004250 0.005220 
#    y -0.004250 1.859160 0.039770 
#    z 0.005220 0.039770 1.803090 
# 
# From -- ./inp_files/24392.got.cif
#   From: 2010.06.25/outbox.cif.g09.slc.cpg/sg2_13_cif.got.tgz:24392.got - 2010.06.27 13:26:56.
