data_PCOD8028045
_publ_section_title
;
Structure prediction by ZEFSAII (Michael W. Deem and Ramdas Pophale) SiO2 
 PCOD8028045
Probable space group: P -1
;
_chemical_formula_sum "Si O2"
_cell_formula_units_Z 14
_cell_length_a 12.264873
_cell_length_b 9.196084
_cell_length_c 8.641299
_cell_angle_alpha 66.598469
_cell_angle_beta 49.949029
_cell_angle_gamma 54.595046
_cell_volume 607.633577
_symmetry_space_group_name_H-M "P -1"
_symmetry_group_IT_number 2
_symmetry_cell_setting 'triclinic'
loop_
_space_group_symop_operation_xyz
x,y,z
-x,-y,-z
loop_
_atom_site_type_symbol
_atom_site_label
_atom_site_fract_x
_atom_site_fract_y
_atom_site_fract_z
Si Si1 0.683120 0.843665 0.728109
Si Si2 0.179982 0.502653 0.071907
Si Si3 0.189693 0.329342 0.644881
Si Si4 0.394716 0.984307 0.742174
Si Si5 0.317004 0.550261 0.609418
Si Si6 0.812974 0.107671 0.603717
Si Si7 0.339307 0.681294 0.036862
O O1 0.702914 0.698632 0.899543
O O2 0.772099 0.742147 0.533729
O O3 0.492789 0.966877 0.818672
O O4 0.755100 0.965070 0.675183
O O5 0.202707 0.639187 0.108439
O O6 0.997617 0.535608 0.228439
O O7 0.228264 0.524085 0.847684
O O8 0.229137 0.168234 0.802002
O O9 0.297001 0.430248 0.541740
O O10 0.500000 0.000000 0.500000
O O11 0.367364 0.808758 0.832681
O O12 0.500000 0.500000 0.500000
O O13 0.226436 0.756510 0.558923
O O14 0.724852 0.211656 0.793022
O O15 0.000000 0.000000 0.500000
O O16 0.500000 0.500000 0.000000
#
# Coordination Sequence:
#
# PCOD8028045 Si02
#       7
#     2   2   2   2   2   2   2
#     4  11  24  47  72 103 142 192 238 299 364 431
#     4  12  26  44  76 105 145 191 243 299 369 425
#     4  11  25  47  74 104 145 190 242 302 364 433
#     4  10  25  42  74 100 141 181 251 293 357 421
#     4  12  28  46  73 107 148 193 244 298 367 437
#     4  12  28  47  73 108 148 188 244 305 361 427
#     4  12  26  48  75 106 147 196 244 293 365 445
#
# _framework density 23.040203999999999
#
# number of rings (size 3 to 8) (size 9 to 14) (size 15 to 20)
#    0.000    0.571    1.429    5.143   14.000    1.143 
#    0.000    0.000    0.000    0.000    0.000    0.000 
#    0.000    0.000    0.000    0.000    0.000    0.000 
#
# Total GULP energy -173630.962126 kJ/mol
# GULP energy per Si atom -12402.211580 kJ/mol
# Density = 2.298776 g / cm^3
# Si number density = 23.040204 Si / 1000 Ang^3
#
#
#
# Elastic Constant Matrix: (Units=GPa)
#
#
# Indices 1 2 3 4 5 6 
#
# 1 142.9102 64.1593 34.4282 -7.8213 -14.4696 9.0335
# 2 64.1593 103.2585 50.4160 -18.8241 -4.4526 11.1045
# 3 34.4282 50.4160 109.0891 -15.9041 9.5546 3.1096
# 4 -7.8213 -18.8241 -15.9041 58.4317 1.8486 1.8114
# 5 -14.4696 -4.4526 9.5546 1.8486 39.3056 -4.4215
# 6 9.0335 11.1045 3.1096 1.8114 -4.4215 61.0690
#
#
#
# Elastic Compliance Matrix: (Units=1/GPa)
#
#
# Indices 1 2 3 4 5 6 
#
# 1 0.010144 -0.005865 -0.000906 -0.000879 0.003318 -0.000122
# 2 -0.005865 0.016817 -0.005463 0.003184 0.000704 -0.001956
# 3 -0.000906 -0.005463 0.012573 0.001665 -0.004071 0.000143
# 4 -0.000879 0.003184 0.001665 0.018555 -0.001374 -0.001184
# 5 0.003318 0.000704 -0.004071 -0.001374 0.027983 0.001655
# 6 -0.000122 -0.001956 0.000143 -0.001184 0.001655 0.016896
#
#
# Mechanical properties :
#
#
# Convention : Reuss Voigt Hill
#
# Bulk Modulus (GPa) = 66.37479 72.58500 69.47989
# Shear Modulus (GPa) = 37.74762 45.51154 41.62958
#
# Velocity S-wave (km/s) = 4.05203 4.44927 4.25529
# Velocity P-wave (km/s) = 7.12480 7.61358 7.37324
#
# Compressibility (1/GPa) = 0.01506596
#
# Stress axis : x y z
#
# Youngs Moduli (GPa) = 98.57831 59.46441 79.53661
#
# Poissons Ratio (x) = 0.34874 0.07210
# Poissons Ratio (y) = 0.57813 0.43449
# Poissons Ratio (z) = 0.08936 0.32484
#
# Static dielectric constant tensor:
#      x y z
#    x 4.660940 -0.215360 0.102100 
#    y -0.215360 4.698830 -0.322070 
#    z 0.102100 -0.322070 4.214380 
# 
# 
# High freq. dielectric constant tensor:
#      x y z
#    x 1.929250 -0.003240 0.001710 
#    y -0.003240 1.922060 -0.017410 
#    z 0.001710 -0.017410 1.913570 
# 
# From -- ./inp_files/226630.got.cif
#   From: 2010.06.25/outbox.cif.g09.slc.cpg/sg2_114_cif.got.tgz:226630.got - 2010.06.27 13:26:56.
