data_PCOD8028870
_publ_section_title
;
Structure prediction by ZEFSAII (Michael W. Deem and Ramdas Pophale) SiO2 
 PCOD8028870
Probable space group: P -1
;
_chemical_formula_sum "Si O2"
_cell_formula_units_Z 16
_cell_length_a 11.546684
_cell_length_b 22.072484
_cell_length_c 21.310736
_cell_angle_alpha 19.592704
_cell_angle_beta 150.953910
_cell_angle_gamma 153.236481
_cell_volume 800.257869
_symmetry_space_group_name_H-M "P -1"
_symmetry_group_IT_number 2
_symmetry_cell_setting 'triclinic'
loop_
_space_group_symop_operation_xyz
x,y,z
-x,-y,-z
loop_
_atom_site_type_symbol
_atom_site_label
_atom_site_fract_x
_atom_site_fract_y
_atom_site_fract_z
Si Si1 0.972934 0.302277 0.995264
Si Si2 0.232233 0.743936 0.665875
Si Si3 0.835221 0.437073 0.395842
Si Si4 0.301453 0.273889 0.622673
Si Si5 0.769396 0.255321 0.803755
Si Si6 0.600890 0.842592 0.086993
Si Si7 0.104717 0.232181 0.805468
Si Si8 0.597109 0.832731 0.635322
O O1 0.153734 0.536257 0.867442
O O2 0.912731 0.263758 0.930005
O O3 0.710518 0.241253 0.970798
O O4 0.121577 0.173301 0.216160
O O5 0.437238 0.753062 0.701097
O O6 0.976435 0.755024 0.505437
O O7 0.360496 0.938953 0.581110
O O8 0.793612 0.616224 0.235942
O O9 0.558126 0.305808 0.360258
O O10 0.072588 0.533697 0.362747
O O11 0.889150 0.287347 0.614015
O O12 0.500000 0.500000 0.500000
O O13 0.456413 0.186537 0.735339
O O14 0.254275 0.181429 0.759003
O O15 0.754830 0.082980 0.916536
O O16 0.650706 0.725259 0.167001
O O17 0.000000 0.000000 0.000000
#
# Coordination Sequence:
#
# PCOD8028870 Si02
#       8
#     2   2   2   2   2   2   2   2
#     4  11  22  37  58  94 128 158 190 235 301 371
#     4  11  21  34  58  86 125 167 190 230 296 366
#     4  11  24  41  64  87 120 158 201 255 302 350
#     4  11  18  34  57  92 125 152 194 245 306 356
#     4  11  20  35  61  94 124 155 190 249 311 361
#     4  11  21  36  62  89 122 156 199 256 302 352
#     4  11  24  44  64  90 112 154 213 260 302 344
#     4  11  23  39  55  89 130 163 196 233 292 374
#
# _framework density 19.993556000000002
#
# number of rings (size 3 to 8) (size 9 to 14) (size 15 to 20)
#    0.000    1.000    5.000    4.875    0.000    2.000 
#    0.000    0.625    0.000    1.500    0.000    0.000 
#    0.000    0.000    0.000    0.000    0.000    0.000 
#
# Total GULP energy -198317.482124 kJ/mol
# GULP energy per Si atom -12394.842633 kJ/mol
# Density = 1.994805 g / cm^3
# Si number density = 19.993556 Si / 1000 Ang^3
#
#
#
# Elastic Constant Matrix: (Units=GPa)
#
#
# Indices 1 2 3 4 5 6 
#
# 1 85.4895 34.8982 21.7636 -4.9810 19.5682 -9.8404
# 2 34.8982 77.7976 27.5500 -16.0565 13.5725 -6.8788
# 3 21.7636 27.5500 88.0037 -20.4908 10.5153 -9.0870
# 4 -4.9810 -16.0565 -20.4908 40.3057 2.8760 3.0806
# 5 19.5682 13.5725 10.5153 2.8760 28.1124 -5.0328
# 6 -9.8404 -6.8788 -9.0870 3.0806 -5.0328 23.6355
#
#
#
# Elastic Compliance Matrix: (Units=1/GPa)
#
#
# Indices 1 2 3 4 5 6 
#
# 1 0.016288 -0.005343 -0.001206 -0.000423 -0.007694 0.003179
# 2 -0.005343 0.018116 -0.002452 0.005609 -0.004614 0.000392
# 3 -0.001206 -0.002452 0.014628 0.006352 -0.003594 0.002815
# 4 -0.000423 0.005609 0.006352 0.030960 -0.008298 -0.001904
# 5 -0.007694 -0.004614 -0.003594 -0.008298 0.046243 0.005000
# 6 0.003179 0.000392 0.002815 -0.001904 0.005000 0.046142
#
#
# Mechanical properties :
#
#
# Convention : Reuss Voigt Hill
#
# Bulk Modulus (GPa) = 32.22736 46.63494 39.43115
# Shear Modulus (GPa) = 24.90986 29.54930 27.22958
#
# Velocity S-wave (km/s) = 3.53355 3.84857 3.69442
# Velocity P-wave (km/s) = 5.72729 6.56691 6.16142
#
# Compressibility (1/GPa) = 0.03102954
#
# Stress axis : x y z
#
# Youngs Moduli (GPa) = 61.39445 55.19894 68.36072
#
# Poissons Ratio (x) = 0.29494 0.08246
# Poissons Ratio (y) = 0.32804 0.16764
# Poissons Ratio (z) = 0.07405 0.13536
#
# Static dielectric constant tensor:
#      x y z
#    x 3.526890 -0.086810 0.181530 
#    y -0.086810 3.519410 -0.405190 
#    z 0.181530 -0.405190 3.939640 
# 
# 
# High freq. dielectric constant tensor:
#      x y z
#    x 1.764450 0.013140 0.018850 
#    y 0.013140 1.772760 -0.025740 
#    z 0.018850 -0.025740 1.792630 
# 
# From -- ./inp_files/427897.got.cif
#   From: 2010.06.25/outbox.cif.g09.slc.cpg/sg2_214_cif.got.tgz:427897.got - 2010.06.27 13:26:56.
