data_PCOD8028840
_publ_section_title
;
Structure prediction by ZEFSAII (Michael W. Deem and Ramdas Pophale) SiO2 
 PCOD8028840
Probable space group: P -1
;
_chemical_formula_sum "Si O2"
_cell_formula_units_Z 14
_cell_length_a 12.674006
_cell_length_b 10.165512
_cell_length_c 20.294446
_cell_angle_alpha 42.936453
_cell_angle_beta 155.498221
_cell_angle_gamma 144.723959
_cell_volume 625.609015
_symmetry_space_group_name_H-M "P -1"
_symmetry_group_IT_number 2
_symmetry_cell_setting 'triclinic'
loop_
_space_group_symop_operation_xyz
x,y,z
-x,-y,-z
loop_
_atom_site_type_symbol
_atom_site_label
_atom_site_fract_x
_atom_site_fract_y
_atom_site_fract_z
Si Si1 0.682132 0.882565 0.131150
Si Si2 0.504796 0.293728 0.110461
Si Si3 0.012291 0.947233 0.426276
Si Si4 0.678654 0.185151 0.684914
Si Si5 0.881227 0.649066 0.579709
Si Si6 0.974145 0.956620 0.858676
Si Si7 0.208780 0.376559 0.018437
O O1 0.440956 0.645526 0.046633
O O2 0.821541 0.846931 0.288687
O O3 0.973215 0.030828 0.194481
O O4 0.500000 0.000000 0.000000
O O5 0.356050 0.246638 0.115719
O O6 0.837680 0.359839 0.280239
O O7 0.500000 0.500000 0.000000
O O8 0.306165 0.070694 0.036188
O O9 0.347000 0.990010 0.593038
O O10 0.052041 0.188499 0.379251
O O11 0.810807 0.756438 0.437278
O O12 0.638801 0.384173 0.556223
O O13 0.803487 0.082762 0.739296
O O14 0.900717 0.300854 0.831727
O O15 0.823663 0.699453 0.895489
#
# Coordination Sequence:
#
# PCOD8028840 Si02
#       7
#     2   2   2   2   2   2   2
#     4  12  26  44  61  90 130 171 210 258 318 378
#     4  11  17  38  70  94 122 164 213 260 303 362
#     4  11  26  39  63  94 128 166 207 258 317 377
#     4  11  21  41  66  94 123 160 211 261 311 371
#     4  11  21  41  64  92 127 164 208 261 314 370
#     4  11  22  38  65  94 125 164 214 261 309 369
#     4  11  22  39  68  96 123 164 215 260 308 371
#
# _framework density 22.378195000000002
#
# number of rings (size 3 to 8) (size 9 to 14) (size 15 to 20)
#    0.000    0.857    4.286    5.571    0.000    3.429 
#    0.000    5.000    0.000    0.000    0.000    0.000 
#    0.000    0.000    0.000    0.000    0.000    0.000 
#
# Total GULP energy -173508.262075 kJ/mol
# GULP energy per Si atom -12393.447291 kJ/mol
# Density = 2.232726 g / cm^3
# Si number density = 22.378195 Si / 1000 Ang^3
#
#
#
# Elastic Constant Matrix: (Units=GPa)
#
#
# Indices 1 2 3 4 5 6 
#
# 1 108.2305 31.0366 26.9540 -10.3690 -13.4929 5.2641
# 2 31.0366 52.4832 12.5784 -14.9877 0.4239 10.5656
# 3 26.9540 12.5784 80.1739 6.2301 -3.4630 -7.0412
# 4 -10.3690 -14.9877 6.2301 32.9086 2.9845 -3.5256
# 5 -13.4929 0.4239 -3.4630 2.9845 30.7355 -4.0555
# 6 5.2641 10.5656 -7.0412 -3.5256 -4.0555 33.4484
#
#
#
# Elastic Compliance Matrix: (Units=1/GPa)
#
#
# Indices 1 2 3 4 5 6 
#
# 1 0.012609 -0.006462 -0.003077 0.001159 0.005186 0.000160
# 2 -0.006462 0.028982 -0.004284 0.011601 -0.005973 -0.008541
# 3 -0.003077 -0.004284 0.015074 -0.005419 0.001543 0.004627
# 4 0.001159 0.011601 -0.005419 0.037266 -0.004085 -0.001555
# 5 0.005186 -0.005973 0.001543 -0.004085 0.036171 0.005350
# 6 0.000160 -0.008541 0.004627 -0.001555 0.005350 0.034028
#
#
# Mechanical properties :
#
#
# Convention : Reuss Voigt Hill
#
# Bulk Modulus (GPa) = 34.46102 42.44728 38.45415
# Shear Modulus (GPa) = 24.82010 30.77307 27.79659
#
# Velocity S-wave (km/s) = 3.33396 3.71231 3.52821
# Velocity P-wave (km/s) = 5.50029 6.11427 5.81539
#
# Compressibility (1/GPa) = 0.02901829
#
# Stress axis : x y z
#
# Youngs Moduli (GPa) = 79.30984 34.50361 66.34097
#
# Poissons Ratio (x) = 0.22296 0.20415
# Poissons Ratio (y) = 0.51249 0.28422
# Poissons Ratio (z) = 0.24405 0.14782
#
# Static dielectric constant tensor:
#      x y z
#    x 4.473130 0.530700 -0.105330 
#    y 0.530700 4.149060 0.039490 
#    z -0.105330 0.039490 3.570100 
# 
# 
# High freq. dielectric constant tensor:
#      x y z
#    x 1.895780 0.019560 0.003530 
#    y 0.019560 1.879050 -0.020290 
#    z 0.003530 -0.020290 1.858200 
# 
# From -- ./inp_files/314531.got.cif
#   From: 2010.06.25/outbox.cif.g09.slc.cpg/sg2_158_cif.got.tgz:314531.got - 2010.06.27 13:26:56.
