data_PCOD8028449
_publ_section_title
;
Structure prediction by ZEFSAII (Michael W. Deem and Ramdas Pophale) SiO2 
 PCOD8028449
Probable space group: P -1
;
_chemical_formula_sum "Si O2"
_cell_formula_units_Z 16
_cell_length_a 5.916368
_cell_length_b 16.866343
_cell_length_c 20.135168
_cell_angle_alpha 159.956046
_cell_angle_beta 82.961722
_cell_angle_gamma 95.930447
_cell_volume 683.048131
_symmetry_space_group_name_H-M "P -1"
_symmetry_group_IT_number 2
_symmetry_cell_setting 'triclinic'
loop_
_space_group_symop_operation_xyz
x,y,z
-x,-y,-z
loop_
_atom_site_type_symbol
_atom_site_label
_atom_site_fract_x
_atom_site_fract_y
_atom_site_fract_z
Si Si1 0.696505 0.812042 0.360630
Si Si2 0.745159 0.065117 0.333359
Si Si3 0.854673 0.053724 0.873071
Si Si4 0.625853 0.288461 0.945976
Si Si5 0.037712 0.969377 0.366419
Si Si6 0.458108 0.819682 0.766834
Si Si7 0.098147 0.181743 0.090061
Si Si8 0.345950 0.535267 0.429492
O O1 0.795919 0.853349 0.463591
O O2 0.500000 0.000000 0.500000
O O3 0.903911 0.823996 0.311054
O O4 0.585194 0.563771 0.162936
O O5 0.857520 0.111243 0.437394
O O6 0.574024 0.279912 0.484673
O O7 0.611741 0.827270 0.154861
O O8 0.938119 0.058750 0.264774
O O9 0.697858 0.218157 0.962055
O O10 0.707562 0.847120 0.746375
O O11 0.947325 0.214038 0.055003
O O12 0.818087 0.213046 0.826715
O O13 0.297907 0.672022 0.607740
O O14 0.477875 0.678882 0.725682
O O15 0.349785 0.075976 0.980184
O O16 0.121077 0.426020 0.318967
O O17 0.000000 0.000000 0.000000
#
# Coordination Sequence:
#
# PCOD8028449 Si02
#       8
#     2   2   2   2   2   2   2   2
#     4  11  25  47  75 106 136 173 223 274 336 416
#     4  11  24  46  68 102 134 182 223 276 339 393
#     4  11  23  45  65  94 138 177 225 278 342 388
#     4  11  24  47  70  99 143 175 219 283 337 406
#     4  10  25  46  71 105 135 178 225 265 347 405
#     4  11  24  47  61  97 136 180 229 282 333 392
#     4  12  25  42  65  97 128 180 234 283 336 390
#     4  11  24  42  70  93 138 177 229 280 332 394
#
# _framework density 23.424409000000001
#
# number of rings (size 3 to 8) (size 9 to 14) (size 15 to 20)
#    0.000    1.000    3.750    1.500    1.750    9.000 
#    6.750    0.000    0.000    0.000    0.000    0.000 
#    0.000    0.000    0.000    0.000    0.000    0.000 
#
# Total GULP energy -198334.855590 kJ/mol
# GULP energy per Si atom -12395.928474 kJ/mol
# Density = 2.337109 g / cm^3
# Si number density = 23.424409 Si / 1000 Ang^3
#
#
#
# Elastic Constant Matrix: (Units=GPa)
#
#
# Indices 1 2 3 4 5 6 
#
# 1 106.6426 53.6549 52.8039 -1.9424 19.9210 -17.2916
# 2 53.6549 119.0656 59.6747 -2.2134 16.6462 -31.1334
# 3 52.8039 59.6747 127.4485 7.7435 32.1068 -9.7938
# 4 -1.9424 -2.2134 7.7435 42.6564 -9.9647 9.7078
# 5 19.9210 16.6462 32.1068 -9.9647 42.8278 -6.6130
# 6 -17.2916 -31.1334 -9.7938 9.7078 -6.6130 50.6422
#
#
#
# Elastic Compliance Matrix: (Units=1/GPa)
#
#
# Indices 1 2 3 4 5 6 
#
# 1 0.013498 -0.003853 -0.003151 0.000180 -0.002174 0.001312
# 2 -0.003853 0.014090 -0.004737 0.000143 0.000907 0.006522
# 3 -0.003151 -0.004737 0.013562 -0.004389 -0.008126 -0.001585
# 4 0.000180 0.000143 -0.004389 0.027401 0.008784 -0.004805
# 5 -0.002174 0.000907 -0.008126 0.008784 0.032263 0.000773
# 6 0.001312 0.006522 -0.001585 -0.004805 0.000773 0.024919
#
#
# Mechanical properties :
#
#
# Convention : Reuss Voigt Hill
#
# Bulk Modulus (GPa) = 56.59896 76.15820 66.37858
# Shear Modulus (GPa) = 32.23635 39.69349 35.96492
#
# Velocity S-wave (km/s) = 3.71372 4.12094 3.92262
# Velocity P-wave (km/s) = 6.52716 7.43140 6.99391
#
# Compressibility (1/GPa) = 0.01766817
#
# Stress axis : x y z
#
# Youngs Moduli (GPa) = 74.08518 70.97017 73.73721
#
# Poissons Ratio (x) = 0.27345 0.23232
# Poissons Ratio (y) = 0.28546 0.34931
# Poissons Ratio (z) = 0.23341 0.33620
#
# Static dielectric constant tensor:
#      x y z
#    x 4.586150 -0.223690 -0.171200 
#    y -0.223690 4.463480 -0.179350 
#    z -0.171200 -0.179350 4.657910 
# 
# 
# High freq. dielectric constant tensor:
#      x y z
#    x 1.923140 -0.017940 0.019940 
#    y -0.017940 1.936120 -0.007690 
#    z 0.019940 -0.007690 1.916850 
# 
# From -- ./inp_files/584081.got.cif
#   From: 2010.06.25/outbox.cif.g09.slc.cpg/sg2_293_cif.got.tgz:584081.got - 2010.06.27 13:26:56.
