data_PCOD8028061
_publ_section_title
;
Structure prediction by ZEFSAII (Michael W. Deem and Ramdas Pophale) SiO2 
 PCOD8028061
Probable space group: P -1
;
_chemical_formula_sum "Si O2"
_cell_formula_units_Z 14
_cell_length_a 15.709492
_cell_length_b 15.878832
_cell_length_c 5.351348
_cell_angle_alpha 72.425305
_cell_angle_beta 111.943761
_cell_angle_gamma 152.948357
_cell_volume 561.604255
_symmetry_space_group_name_H-M "P -1"
_symmetry_group_IT_number 2
_symmetry_cell_setting 'triclinic'
loop_
_space_group_symop_operation_xyz
x,y,z
-x,-y,-z
loop_
_atom_site_type_symbol
_atom_site_label
_atom_site_fract_x
_atom_site_fract_y
_atom_site_fract_z
Si Si1 0.838200 0.433182 0.307963
Si Si2 0.350097 0.783510 0.223255
Si Si3 0.556530 0.622231 0.146045
Si Si4 0.813616 0.000546 0.976625
Si Si5 0.220279 0.330079 0.384005
Si Si6 0.039429 0.293284 0.587277
Si Si7 0.268598 0.902913 0.911747
O O1 0.683820 0.300045 0.486250
O O2 0.905896 0.593217 0.230302
O O3 0.000000 0.500000 0.500000
O O4 0.754553 0.341940 0.026862
O O5 0.577818 0.975073 0.253604
O O6 0.277213 0.821940 0.161948
O O7 0.362155 0.493114 0.184986
O O8 0.700213 0.699951 0.437218
O O9 0.668770 0.796007 0.975224
O O10 0.500000 0.500000 0.000000
O O11 0.692231 0.977308 0.987762
O O12 0.002475 0.135336 0.223440
O O13 0.886136 0.091085 0.701186
O O14 0.219850 0.393566 0.572139
O O15 0.942736 0.271033 0.285677
#
# Coordination Sequence:
#
# PCOD8028061 Si02
#       7
#     2   2   2   2   2   2   2
#     4  12  25  43  72 102 145 195 245 301 362 427
#     4  11  26  44  70 101 146 196 250 302 358 434
#     4  11  25  46  75 102 139 183 240 293 377 444
#     4  11  25  45  70 101 145 184 238 304 366 441
#     4  10  25  46  69 104 139 185 237 298 365 450
#     4  11  25  43  70 101 145 183 244 297 369 428
#     4  10  25  43  66 100 140 189 242 301 363 425
#
# _framework density 24.928587
#
# number of rings (size 3 to 8) (size 9 to 14) (size 15 to 20)
#    0.000    1.143    1.429    2.571    8.000    9.143 
#    0.000    0.000    0.000    0.000    0.000    0.000 
#    0.000    0.000    0.000    0.000    0.000    0.000 
#
# Total GULP energy -173629.147570 kJ/mol
# GULP energy per Si atom -12402.081969 kJ/mol
# Density = 2.487185 g / cm^3
# Si number density = 24.928587 Si / 1000 Ang^3
#
#
#
# Elastic Constant Matrix: (Units=GPa)
#
#
# Indices 1 2 3 4 5 6 
#
# 1 152.0549 60.9102 28.5913 -11.0866 -13.8105 -10.5113
# 2 60.9102 127.8687 29.0374 -28.3355 -4.5387 -24.4881
# 3 28.5913 29.0374 69.8736 -19.7654 -12.0588 -4.3126
# 4 -11.0866 -28.3355 -19.7654 42.4468 2.0919 -3.4066
# 5 -13.8105 -4.5387 -12.0588 2.0919 30.3834 -1.2141
# 6 -10.5113 -24.4881 -4.3126 -3.4066 -1.2141 36.4980
#
#
#
# Elastic Compliance Matrix: (Units=1/GPa)
#
#
# Indices 1 2 3 4 5 6 
#
# 1 0.008635 -0.004010 -0.001844 -0.001450 0.002675 -0.000468
# 2 -0.004010 0.013375 -0.001223 0.008012 -0.000526 0.008405
# 3 -0.001844 -0.001223 0.018780 0.007292 0.006001 0.001748
# 4 -0.001450 0.008012 0.007292 0.032563 0.001546 0.008910
# 5 0.002675 -0.000526 0.006001 0.001546 0.036424 0.002482
# 6 -0.000468 0.008405 0.001748 0.008910 0.002482 0.034024
#
#
# Mechanical properties :
#
#
# Convention : Reuss Voigt Hill
#
# Bulk Modulus (GPa) = 37.54401 65.20833 51.37617
# Shear Modulus (GPa) = 29.96994 37.28287 33.62641
#
# Velocity S-wave (km/s) = 3.47108 3.87148 3.67673
# Velocity P-wave (km/s) = 5.58192 6.79701 6.21921
#
# Compressibility (1/GPa) = 0.02663541
#
# Stress axis : x y z
#
# Youngs Moduli (GPa) = 115.81240 74.76686 53.24709
#
# Poissons Ratio (x) = 0.29984 0.09819
# Poissons Ratio (y) = 0.46445 0.06512
# Poissons Ratio (z) = 0.21356 0.09143
#
# Static dielectric constant tensor:
#      x y z
#    x 4.761730 0.170530 0.066950 
#    y 0.170530 4.326220 -0.157060 
#    z 0.066950 -0.157060 4.427910 
# 
# 
# High freq. dielectric constant tensor:
#      x y z
#    x 2.007560 0.013480 0.000480 
#    y 0.013480 1.981260 -0.007000 
#    z 0.000480 -0.007000 1.992890 
# 
# From -- ./inp_files/47612.got.cif
#   From: 2010.06.25/outbox.cif.g09.slc.cpg/sg2_24_cif.got.tgz:47612.got - 2010.06.27 13:26:56.
