data_PCOD8028421
_publ_section_title
;
Structure prediction by ZEFSAII (Michael W. Deem and Ramdas Pophale) SiO2 
 PCOD8028421
Probable space group: P -1
;
_chemical_formula_sum "Si O2"
_cell_formula_units_Z 14
_cell_length_a 5.336068
_cell_length_b 11.740829
_cell_length_c 8.589874
_cell_angle_alpha 83.698789
_cell_angle_beta 94.111434
_cell_angle_gamma 101.134935
_cell_volume 524.129613
_symmetry_space_group_name_H-M "P -1"
_symmetry_group_IT_number 2
_symmetry_cell_setting 'triclinic'
loop_
_space_group_symop_operation_xyz
x,y,z
-x,-y,-z
loop_
_atom_site_type_symbol
_atom_site_label
_atom_site_fract_x
_atom_site_fract_y
_atom_site_fract_z
Si Si1 0.300332 0.330484 0.879695
Si Si2 0.178933 0.981079 0.150495
Si Si3 0.547197 0.551214 0.746556
Si Si4 0.251718 0.786029 0.995501
Si Si5 0.231736 0.596778 0.441857
Si Si6 0.073988 0.208518 0.610186
Si Si7 0.149300 0.206750 0.254328
O O1 0.335531 0.473635 0.862241
O O2 0.527338 0.289738 0.996541
O O3 0.013850 0.275341 0.925412
O O4 0.312115 0.284064 0.706717
O O5 0.364408 0.901080 0.090685
O O6 0.021392 0.918370 0.300091
O O7 0.304931 0.111679 0.197328
O O8 0.000000 0.000000 0.000000
O O9 0.450687 0.606394 0.580022
O O10 0.698517 0.448752 0.717361
O O11 0.724842 0.661463 0.822221
O O12 0.148727 0.815343 0.813928
O O13 0.162016 0.723256 0.406615
O O14 0.000000 0.500000 0.500000
O O15 0.163661 0.194218 0.440814
#
# Coordination Sequence:
#
# PCOD8028421 Si02
#       7
#     2   2   2   2   2   2   2
#     4  11  23  44  71  99 136 190 229 279 351 421
#     4   9  21  44  67  96 139 182 231 282 350 409
#     4  11  22  36  65  99 141 177 230 282 349 410
#     4  10  25  46  69  97 141 187 232 281 351 410
#     4  11  20  39  62 102 141 176 216 284 352 409
#     4  11  21  41  74  99 132 181 237 285 340 409
#     4  11  23  41  64 104 137 176 233 295 336 406
#
# _framework density 26.710948999999999
#
# number of rings (size 3 to 8) (size 9 to 14) (size 15 to 20)
#    0.000    1.429    2.857    3.000    0.000    2.286 
#    0.000   23.571    0.000    0.000    0.000    0.000 
#    0.000    0.000    0.000    0.000    0.000    0.000 
#
# Total GULP energy -173458.879493 kJ/mol
# GULP energy per Si atom -12389.919964 kJ/mol
# Density = 2.665015 g / cm^3
# Si number density = 26.710949 Si / 1000 Ang^3
#
#
#
# Elastic Constant Matrix: (Units=GPa)
#
#
# Indices 1 2 3 4 5 6 
#
# 1 61.0526 22.8256 6.9817 8.2241 12.6892 -11.9649
# 2 22.8256 180.5336 34.4854 4.5920 -1.6130 9.6030
# 3 6.9817 34.4854 101.0397 3.0267 6.4964 -3.2195
# 4 8.2241 4.5920 3.0267 54.9111 2.0354 -2.3775
# 5 12.6892 -1.6130 6.4964 2.0354 28.4412 -0.2592
# 6 -11.9649 9.6030 -3.2195 -2.3775 -0.2592 39.6380
#
#
#
# Elastic Compliance Matrix: (Units=1/GPa)
#
#
# Indices 1 2 3 4 5 6 
#
# 1 0.021163 -0.003175 0.000525 -0.002277 -0.009515 0.007001
# 2 -0.003175 0.006538 -0.002241 -0.000150 0.002285 -0.002718
# 3 0.000525 -0.002241 0.010865 -0.000319 -0.002806 0.001546
# 4 -0.002277 -0.000150 -0.000319 0.018611 -0.000248 0.000438
# 5 -0.009515 0.002285 -0.002806 -0.000248 0.040163 -0.003406
# 6 0.007001 -0.002718 0.001546 0.000438 -0.003406 0.028130
#
#
# Mechanical properties :
#
#
# Convention : Reuss Voigt Hill
#
# Bulk Modulus (GPa) = 34.74424 52.35682 43.55053
# Shear Modulus (GPa) = 34.51945 43.15362 38.83653
#
# Velocity S-wave (km/s) = 3.59880 4.02379 3.81721
# Velocity P-wave (km/s) = 5.50493 6.42118 5.98063
#
# Compressibility (1/GPa) = 0.02878175
#
# Stress axis : x y z
#
# Youngs Moduli (GPa) = 47.25241 152.96343 92.03922
#
# Poissons Ratio (x) = 0.48572 -0.04828
# Poissons Ratio (y) = 0.15005 0.20625
# Poissons Ratio (z) = -0.02479 0.34278
#
# Static dielectric constant tensor:
#      x y z
#    x 5.248370 -0.043300 0.545160 
#    y -0.043300 5.771950 -0.056340 
#    z 0.545160 -0.056340 6.054300 
# 
# 
# High freq. dielectric constant tensor:
#      x y z
#    x 2.043050 0.009040 -0.007130 
#    y 0.009040 2.086610 -0.005790 
#    z -0.007130 -0.005790 2.096500 
# 
# From -- ./inp_files/131671.got.cif
#   From: 2010.06.25/outbox.cif.g09.slc.cpg/sg2_66_cif.got.tgz:131671.got - 2010.06.27 13:26:56.
