data_PCOD8028133
_publ_section_title
;
Structure prediction by ZEFSAII (Michael W. Deem and Ramdas Pophale) SiO2 
 PCOD8028133
Probable space group: P -1
;
_chemical_formula_sum "Si O2"
_cell_formula_units_Z 16
_cell_length_a 26.372536
_cell_length_b 14.470515
_cell_length_c 9.104235
_cell_angle_alpha 129.340230
_cell_angle_beta 138.646817
_cell_angle_gamma 19.624907
_cell_volume 727.916796
_symmetry_space_group_name_H-M "P -1"
_symmetry_group_IT_number 2
_symmetry_cell_setting 'triclinic'
loop_
_space_group_symop_operation_xyz
x,y,z
-x,-y,-z
loop_
_atom_site_type_symbol
_atom_site_label
_atom_site_fract_x
_atom_site_fract_y
_atom_site_fract_z
Si Si1 0.908478 0.622048 0.771143
Si Si2 0.938562 0.186117 0.669980
Si Si3 0.525748 0.832804 0.953634
Si Si4 0.121906 0.026395 0.173760
Si Si5 0.202289 0.801033 0.415433
Si Si6 0.874943 0.591901 0.223432
Si Si7 0.422255 0.769112 0.456435
Si Si8 0.874755 0.398081 0.459628
O O1 0.854804 0.565198 0.546025
O O2 0.078054 0.439974 0.870085
O O3 0.723414 0.963992 0.702284
O O4 0.000000 0.500000 0.000000
O O5 0.806552 0.316868 0.643163
O O6 0.850472 0.412679 0.599349
O O7 0.000000 0.000000 0.500000
O O8 0.108861 0.995361 0.946570
O O9 0.532129 0.716773 0.732572
O O10 0.342710 0.074065 0.897065
O O11 0.711873 0.558184 0.181259
O O12 0.500000 0.000000 0.000000
O O13 0.937735 0.365373 0.158760
O O14 0.131225 0.909403 0.199546
O O15 0.312128 0.836340 0.395610
O O16 0.423595 0.518361 0.598818
O O17 0.080980 0.063860 0.516278
O O18 0.000000 0.500000 0.500000
#
# Coordination Sequence:
#
# PCOD8028133 Si02
#       8
#     2   2   2   2   2   2   2   2
#     4  11  23  45  69  98 135 175 215 273 336 398
#     4  10  25  44  62  93 134 176 222 267 329 395
#     4  12  23  40  68 104 135 166 223 278 328 400
#     4  11  22  43  69  95 131 175 224 273 329 392
#     4  11  25  43  69  96 131 176 224 272 333 386
#     4  11  21  41  68 101 130 167 222 276 333 394
#     4  11  25  41  67 105 131 165 228 275 325 398
#     4  11  24  44  67  97 136 178 215 275 336 390
#
# _framework density 21.980533000000001
#
# number of rings (size 3 to 8) (size 9 to 14) (size 15 to 20)
#    0.000    1.000    3.750    3.750    7.000    1.000 
#    0.000    7.500    0.000    0.000    0.000    0.000 
#    0.000    0.000    0.000    0.000    0.000    0.000 
#
# Total GULP energy -198222.256231 kJ/mol
# GULP energy per Si atom -12388.891014 kJ/mol
# Density = 2.193050 g / cm^3
# Si number density = 21.980533 Si / 1000 Ang^3
#
#
#
# Elastic Constant Matrix: (Units=GPa)
#
#
# Indices 1 2 3 4 5 6 
#
# 1 118.4934 45.3974 30.3421 -18.9913 -18.9645 3.9930
# 2 45.3974 117.2985 27.9522 -16.2686 -1.5813 -20.8188
# 3 30.3421 27.9522 106.3365 -1.4104 -15.6713 -7.7352
# 4 -18.9913 -16.2686 -1.4104 28.5756 3.4459 4.4032
# 5 -18.9645 -1.5813 -15.6713 3.4459 41.3570 -1.5484
# 6 3.9930 -20.8188 -7.7352 4.4032 -1.5484 25.9731
#
#
#
# Elastic Compliance Matrix: (Units=1/GPa)
#
#
# Indices 1 2 3 4 5 6 
#
# 1 0.012726 -0.004757 -0.002234 0.006274 0.004013 -0.007259
# 2 -0.004757 0.012875 -0.001581 0.002812 -0.002149 0.009975
# 3 -0.002234 -0.001581 0.011158 -0.002727 0.003485 0.003070
# 4 0.006274 0.002812 -0.002727 0.041884 -0.001791 -0.006730
# 5 0.004013 -0.002149 0.003485 -0.001791 0.027431 0.000637
# 6 -0.007259 0.009975 0.003070 -0.006730 0.000637 0.049706
#
#
# Mechanical properties :
#
#
# Convention : Reuss Voigt Hill
#
# Bulk Modulus (GPa) = 50.98243 61.05686 56.01964
# Shear Modulus (GPa) = 27.86089 35.07693 31.46891
#
# Velocity S-wave (km/s) = 3.56409 3.99910 3.78785
# Velocity P-wave (km/s) = 6.33891 7.01154 6.68369
#
# Compressibility (1/GPa) = 0.01961460
#
# Stress axis : x y z
#
# Youngs Moduli (GPa) = 78.57680 77.67216 89.62259
#
# Poissons Ratio (x) = 0.36950 0.20025
# Poissons Ratio (y) = 0.37380 0.14166
# Poissons Ratio (z) = 0.17557 0.12277
#
# Static dielectric constant tensor:
#      x y z
#    x 4.404410 0.272340 0.011370 
#    y 0.272340 4.143700 -0.011340 
#    z 0.011370 -0.011340 3.850630 
# 
# 
# High freq. dielectric constant tensor:
#      x y z
#    x 1.884240 0.006970 0.000980 
#    y 0.006970 1.858500 0.000210 
#    z 0.000980 0.000210 1.852590 
# 
# From -- ./inp_files/357444.got.cif
#   From: 2010.06.25/outbox.cif.g09.slc.cpg/sg2_179_cif.got.tgz:357444.got - 2010.06.27 13:26:56.
