data_PCOD8028526
_publ_section_title
;
Structure prediction by ZEFSAII (Michael W. Deem and Ramdas Pophale) SiO2 
 PCOD8028526
Probable space group: P -1
;
_chemical_formula_sum "Si O2"
_cell_formula_units_Z 14
_cell_length_a 17.225151
_cell_length_b 20.020291
_cell_length_c 8.291861
_cell_angle_alpha 128.099202
_cell_angle_beta 39.348344
_cell_angle_gamma 159.310615
_cell_volume 563.650820
_symmetry_space_group_name_H-M "P -1"
_symmetry_group_IT_number 2
_symmetry_cell_setting 'triclinic'
loop_
_space_group_symop_operation_xyz
x,y,z
-x,-y,-z
loop_
_atom_site_type_symbol
_atom_site_label
_atom_site_fract_x
_atom_site_fract_y
_atom_site_fract_z
Si Si1 0.542953 0.795949 0.680636
Si Si2 0.845949 0.228061 0.217167
Si Si3 0.832148 0.062001 0.163745
Si Si4 0.438546 0.888933 0.803249
Si Si5 0.549175 0.624259 0.275533
Si Si6 0.738707 0.732294 0.780778
Si Si7 0.571270 0.312360 0.938927
O O1 0.345406 0.743886 0.832027
O O2 0.414728 0.623649 0.570356
O O3 0.512420 0.785468 0.904627
O O4 0.900561 0.033041 0.409348
O O5 0.971105 0.211829 0.022025
O O6 0.838275 0.253921 0.081832
O O7 0.500000 0.000000 0.500000
O O8 0.063023 0.431863 0.272169
O O9 0.743563 0.062470 0.462942
O O10 0.090674 0.157389 0.929095
O O11 0.518862 0.812719 0.241010
O O12 0.500000 0.000000 0.000000
O O13 0.342567 0.415249 0.362942
O O14 0.530948 0.620671 0.106221
O O15 0.635343 0.733631 0.812621
#
# Coordination Sequence:
#
# PCOD8028526 Si02
#       7
#     2   2   2   2   2   2   2
#     4  12  25  43  69 107 147 179 230 294 351 426
#     4  10  25  47  71  99 138 191 237 287 341 419
#     4  11  22  46  74 101 142 180 241 290 347 422
#     4  11  25  47  72  96 141 188 236 291 344 413
#     4  11  23  41  73 107 138 188 228 288 358 414
#     4  11  23  42  69 108 143 183 229 286 362 416
#     4  12  25  42  71 109 142 186 228 290 362 417
#
# _framework density 24.838072
#
# number of rings (size 3 to 8) (size 9 to 14) (size 15 to 20)
#    0.000    0.857    4.286    2.571    0.000    5.714 
#    0.000    2.857    0.000    0.000    0.000    0.000 
#    0.000    0.000    0.000    0.000    0.000    0.000 
#
# Total GULP energy -173582.770806 kJ/mol
# GULP energy per Si atom -12398.769343 kJ/mol
# Density = 2.478154 g / cm^3
# Si number density = 24.838072 Si / 1000 Ang^3
#
#
#
# Elastic Constant Matrix: (Units=GPa)
#
#
# Indices 1 2 3 4 5 6 
#
# 1 189.8291 37.0573 23.9080 18.2549 -8.3177 -17.2109
# 2 37.0573 137.6391 28.9171 23.2260 -2.0116 0.0879
# 3 23.9080 28.9171 63.9848 24.8636 -1.1979 -8.6345
# 4 18.2549 23.2260 24.8636 42.3204 -3.7577 -1.3268
# 5 -8.3177 -2.0116 -1.1979 -3.7577 24.9200 0.7652
# 6 -17.2109 0.0879 -8.6345 -1.3268 0.7652 32.3773
#
#
#
# Elastic Compliance Matrix: (Units=1/GPa)
#
#
# Indices 1 2 3 4 5 6 
#
# 1 0.006064 -0.001234 -0.000805 -0.001231 0.001610 0.002924
# 2 -0.001234 0.008597 -0.002559 -0.002747 -0.000210 -0.001469
# 3 -0.000805 -0.002559 0.022086 -0.011177 -0.001254 0.005041
# 4 -0.001231 -0.002747 -0.011177 0.032498 0.003804 -0.002386
# 5 0.001610 -0.000210 -0.001254 0.003804 0.041171 -0.000295
# 6 0.002924 -0.001469 0.005041 -0.002386 -0.000295 0.033697
#
#
# Mechanical properties :
#
#
# Convention : Reuss Voigt Hill
#
# Bulk Modulus (GPa) = 36.29666 63.46864 49.88265
# Shear Modulus (GPa) = 30.77054 40.02825 35.39940
#
# Velocity S-wave (km/s) = 3.52354 4.01879 3.77929
# Velocity P-wave (km/s) = 5.58559 6.86605 6.25865
#
# Compressibility (1/GPa) = 0.02755075
#
# Stress axis : x y z
#
# Youngs Moduli (GPa) = 164.90137 116.32426 45.27734
#
# Poissons Ratio (x) = 0.14357 0.03646
# Poissons Ratio (y) = 0.20352 0.11585
# Poissons Ratio (z) = 0.13278 0.29764
#
# Static dielectric constant tensor:
#      x y z
#    x 5.427590 -0.168130 -0.236110 
#    y -0.168130 4.409870 0.070150 
#    z -0.236110 0.070150 3.894700 
# 
# 
# High freq. dielectric constant tensor:
#      x y z
#    x 2.018070 -0.007970 -0.010260 
#    y -0.007970 1.992120 0.003720 
#    z -0.010260 0.003720 1.950920 
# 
# From -- ./inp_files/337784.got.cif
#   From: 2010.06.25/outbox.cif.g09.slc.cpg/sg2_169_cif.got.tgz:337784.got - 2010.06.27 13:26:56.
