data_PCOD8028067
_publ_section_title
;
Structure prediction by ZEFSAII (Michael W. Deem and Ramdas Pophale) SiO2 
 PCOD8028067
Probable space group: P -1
;
_chemical_formula_sum "Si O2"
_cell_formula_units_Z 12
_cell_length_a 11.878110
_cell_length_b 12.215486
_cell_length_c 8.828630
_cell_angle_alpha 59.573618
_cell_angle_beta 98.030371
_cell_angle_gamma 144.543691
_cell_volume 537.050605
_symmetry_space_group_name_H-M "P -1"
_symmetry_group_IT_number 2
_symmetry_cell_setting 'triclinic'
loop_
_space_group_symop_operation_xyz
x,y,z
-x,-y,-z
loop_
_atom_site_type_symbol
_atom_site_label
_atom_site_fract_x
_atom_site_fract_y
_atom_site_fract_z
Si Si1 0.492281 0.000776 0.246448
Si Si2 0.803939 0.392160 0.284177
Si Si3 0.686726 0.014518 0.033843
Si Si4 0.873505 0.889021 0.713872
Si Si5 0.405872 0.546807 0.836288
Si Si6 0.708395 0.736040 0.265267
O O1 0.724380 0.250345 0.212049
O O2 0.269534 0.766244 0.476916
O O3 0.444584 0.079471 0.080886
O O4 0.529212 0.910687 0.215526
O O5 0.664836 0.387123 0.285693
O O6 0.076468 0.675485 0.134793
O O7 0.734081 0.912137 0.129117
O O8 0.684584 0.818694 0.720646
O O9 0.728697 0.619267 0.916096
O O10 0.000000 0.000000 0.500000
O O11 0.060275 0.097608 0.733771
O O12 0.330489 0.363440 0.834256
O O13 0.500000 0.500000 0.500000
#
# Coordination Sequence:
#
# PCOD8028067 Si02
#       6
#     2   2   2   2   2   2
#     4  10  25  43  66  96 121 175 221 264 315 382
#     4  11  23  44  69  92 130 165 221 267 321 378
#     4  11  24  44  66  91 135 168 215 267 321 379
#     4  11  24  42  62  96 133 169 214 258 325 392
#     4  11  25  41  67  99 131 169 211 267 333 387
#     4  12  24  42  67  99 136 171 211 266 331 391
#
# _framework density 22.344263999999999
#
# number of rings (size 3 to 8) (size 9 to 14) (size 15 to 20)
#    0.000    1.000    3.333    2.500    4.667    0.000 
#    0.000    6.667    0.000    0.000    0.000    0.000 
#    0.000    0.000    0.000    0.000    0.000    0.000 
#
# Total GULP energy -148826.125138 kJ/mol
# GULP energy per Si atom -12402.177095 kJ/mol
# Density = 2.229341 g / cm^3
# Si number density = 22.344264 Si / 1000 Ang^3
#
#
#
# Elastic Constant Matrix: (Units=GPa)
#
#
# Indices 1 2 3 4 5 6 
#
# 1 64.4731 32.7442 14.0338 10.8359 -2.2668 6.0551
# 2 32.7442 94.3512 41.1172 12.0823 3.8225 14.1114
# 3 14.0338 41.1172 127.3408 9.1936 -13.8718 -1.0778
# 4 10.8359 12.0823 9.1936 36.0126 6.7093 -2.8721
# 5 -2.2668 3.8225 -13.8718 6.7093 24.8433 -11.8680
# 6 6.0551 14.1114 -1.0778 -2.8721 -11.8680 36.8803
#
#
#
# Elastic Compliance Matrix: (Units=1/GPa)
#
#
# Indices 1 2 3 4 5 6 
#
# 1 0.019750 -0.006984 0.000975 -0.004730 0.005038 0.000711
# 2 -0.006984 0.017683 -0.006153 -0.000956 -0.011039 -0.009426
# 3 0.000975 -0.006153 0.011136 -0.002608 0.010712 0.005764
# 4 -0.004730 -0.000956 -0.002608 0.032116 -0.010292 0.000255
# 5 0.005038 -0.011039 0.010712 -0.010292 0.062108 0.022894
# 6 0.000711 -0.009426 0.005764 0.000255 0.022894 0.038160
#
#
# Mechanical properties :
#
#
# Convention : Reuss Voigt Hill
#
# Bulk Modulus (GPa) = 41.24528 51.32840 46.28684
# Shear Modulus (GPa) = 23.43455 32.76525 28.09990
#
# Velocity S-wave (km/s) = 3.24202 3.83349 3.55010
# Velocity P-wave (km/s) = 5.70205 6.52807 6.12899
#
# Compressibility (1/GPa) = 0.02424520
#
# Stress axis : x y z
#
# Youngs Moduli (GPa) = 50.63181 56.55045 89.79636
#
# Poissons Ratio (x) = 0.39493 -0.08752
# Poissons Ratio (y) = 0.35360 0.55255
# Poissons Ratio (z) = -0.04935 0.34798
#
# Static dielectric constant tensor:
#      x y z
#    x 3.619680 0.290850 0.202080 
#    y 0.290850 4.193880 0.024280 
#    z 0.202080 0.024280 3.869340 
# 
# 
# High freq. dielectric constant tensor:
#      x y z
#    x 1.868080 0.018170 -0.005150 
#    y 0.018170 1.887460 0.007460 
#    z -0.005150 0.007460 1.896870 
# 
# From -- ./inp_files/243783.got.cif
#   From: 2010.06.25/outbox.cif.g09.slc.cpg/sg2_122_cif.got.tgz:243783.got - 2010.06.27 13:26:56.
