data_PCOD8028248
_publ_section_title
;
Structure prediction by ZEFSAII (Michael W. Deem and Ramdas Pophale) SiO2 
 PCOD8028248
Probable space group: P -1
;
_chemical_formula_sum "Si O2"
_cell_formula_units_Z 14
_cell_length_a 12.141895
_cell_length_b 13.897810
_cell_length_c 7.826557
_cell_angle_alpha 58.867254
_cell_angle_beta 108.996760
_cell_angle_gamma 148.763069
_cell_volume 565.671731
_symmetry_space_group_name_H-M "P -1"
_symmetry_group_IT_number 2
_symmetry_cell_setting 'triclinic'
loop_
_space_group_symop_operation_xyz
x,y,z
-x,-y,-z
loop_
_atom_site_type_symbol
_atom_site_label
_atom_site_fract_x
_atom_site_fract_y
_atom_site_fract_z
Si Si1 0.163548 0.396646 0.555654
Si Si2 0.361618 0.785562 0.704239
Si Si3 0.805371 0.039036 0.204814
Si Si4 0.944184 0.336628 0.790987
Si Si5 0.582452 0.775916 0.648448
Si Si6 0.989209 0.013337 0.783355
Si Si7 0.649186 0.261228 0.874756
O O1 0.382245 0.561701 0.632501
O O2 0.098015 0.222778 0.606319
O O3 0.207878 0.511555 0.309206
O O4 0.961845 0.282918 0.670874
O O5 0.497397 0.781224 0.756608
O O6 0.136296 0.588016 0.663145
O O7 0.500000 0.000000 0.500000
O O8 0.295590 0.744237 0.906721
O O9 0.730701 0.980854 0.416678
O O10 0.878706 0.972369 0.265046
O O11 0.603992 0.911458 0.098465
O O12 0.985866 0.280192 0.019772
O O13 0.712191 0.213822 0.812275
O O14 0.736630 0.804889 0.779345
O O15 0.000000 0.000000 0.000000
#
# Coordination Sequence:
#
# PCOD8028248 Si02
#       7
#     2   2   2   2   2   2   2
#     4  10  25  45  69 106 134 182 230 278 352 402
#     4  11  25  43  67 104 139 180 228 282 343 411
#     4  11  24  45  67 105 133 183 229 281 344 403
#     4  11  23  43  68 101 141 175 223 286 347 407
#     4  10  25  45  66 102 141 177 230 287 337 407
#     4  12  24  45  73  99 140 181 233 281 339 412
#     4  11  24  42  71 100 138 180 226 285 340 414
#
# _framework density 24.749336
#
# number of rings (size 3 to 8) (size 9 to 14) (size 15 to 20)
#    0.000    1.143    1.429    3.429    4.000    5.143 
#    2.571    0.000    0.000    0.000    0.000    0.000 
#    0.000    0.000    0.000    0.000    0.000    0.000 
#
# Total GULP energy -173582.467391 kJ/mol
# GULP energy per Si atom -12398.747671 kJ/mol
# Density = 2.469301 g / cm^3
# Si number density = 24.749336 Si / 1000 Ang^3
#
#
#
# Elastic Constant Matrix: (Units=GPa)
#
#
# Indices 1 2 3 4 5 6 
#
# 1 141.8191 42.7065 24.6682 -13.5113 14.7903 21.8631
# 2 42.7065 63.2367 1.3681 -2.3946 6.6106 10.1069
# 3 24.6682 1.3681 101.5881 -11.2614 -2.8846 -0.3766
# 4 -13.5113 -2.3946 -11.2614 33.5470 -1.2870 9.0855
# 5 14.7903 6.6106 -2.8846 -1.2870 41.9222 -3.1631
# 6 21.8631 10.1069 -0.3766 9.0855 -3.1631 31.6619
#
#
#
# Elastic Compliance Matrix: (Units=1/GPa)
#
#
# Indices 1 2 3 4 5 6 
#
# 1 0.011264 -0.005712 -0.002194 0.005390 -0.003654 -0.007893
# 2 -0.005712 0.020218 0.001089 0.000184 -0.001294 -0.002679
# 3 -0.002194 0.001089 0.010701 0.002659 0.001472 0.000679
# 4 0.005390 0.000184 0.002659 0.036736 -0.001711 -0.014461
# 5 -0.003654 -0.001294 0.001472 -0.001711 0.025851 0.006028
# 6 -0.007893 -0.002679 0.000679 -0.014461 0.006028 0.042649
#
#
# Mechanical properties :
#
#
# Convention : Reuss Voigt Hill
#
# Bulk Modulus (GPa) = 35.02871 49.34773 42.18822
# Shear Modulus (GPa) = 29.31339 37.28629 33.29984
#
# Velocity S-wave (km/s) = 3.44526 3.88565 3.67206
# Velocity P-wave (km/s) = 5.47819 6.33351 5.92131
#
# Compressibility (1/GPa) = 0.02854801
#
# Stress axis : x y z
#
# Youngs Moduli (GPa) = 88.77543 49.46043 93.45097
#
# Poissons Ratio (x) = 0.28253 0.20502
# Poissons Ratio (y) = 0.50711 -0.10172
# Poissons Ratio (z) = 0.19476 -0.05384
#
# Static dielectric constant tensor:
#      x y z
#    x 4.739460 0.269160 0.009080 
#    y 0.269160 4.359630 -0.245280 
#    z 0.009080 -0.245280 4.665090 
# 
# 
# High freq. dielectric constant tensor:
#      x y z
#    x 1.988700 0.013600 -0.003120 
#    y 0.013600 1.969010 -0.009720 
#    z -0.003120 -0.009720 1.999790 
# 
# From -- ./inp_files/258610.got.cif
#   From: 2010.06.25/outbox.cif.g09.slc.cpg/sg2_130_cif.got.tgz:258610.got - 2010.06.27 13:26:56.
