data_PCOD8028063
_publ_section_title
;
Structure prediction by ZEFSAII (Michael W. Deem and Ramdas Pophale) SiO2 
 PCOD8028063
Probable space group: P -1
;
_chemical_formula_sum "Si O2"
_cell_formula_units_Z 14
_cell_length_a 11.633077
_cell_length_b 8.630961
_cell_length_c 16.045939
_cell_angle_alpha 141.245846
_cell_angle_beta 123.838118
_cell_angle_gamma 39.545897
_cell_volume 638.098763
_symmetry_space_group_name_H-M "P -1"
_symmetry_group_IT_number 2
_symmetry_cell_setting 'triclinic'
loop_
_space_group_symop_operation_xyz
x,y,z
-x,-y,-z
loop_
_atom_site_type_symbol
_atom_site_label
_atom_site_fract_x
_atom_site_fract_y
_atom_site_fract_z
Si Si1 0.636849 0.637337 0.044803
Si Si2 0.495730 0.730925 0.354735
Si Si3 0.023462 0.761716 0.095855
Si Si4 0.691265 0.339477 0.111731
Si Si5 0.105309 0.120062 0.386638
Si Si6 0.802605 0.138755 0.505794
Si Si7 0.450812 0.736721 0.682814
O O1 0.721044 0.483887 0.105435
O O2 0.575010 0.991066 0.158891
O O3 0.778871 0.420480 0.938475
O O4 0.456702 0.693003 0.981545
O O5 0.628202 0.569806 0.262039
O O6 0.565356 0.473567 0.348988
O O7 0.500000 0.000000 0.500000
O O8 0.289347 0.911897 0.318915
O O9 0.999621 0.990992 0.258960
O O10 0.879116 0.986393 0.059927
O O11 0.000000 0.500000 0.000000
O O12 0.000000 0.500000 0.500000
O O13 0.164744 0.051021 0.477390
O O14 0.647322 0.525487 0.626438
O O15 0.715014 0.075267 0.371094
O O16 0.000000 0.000000 0.500000
#
# Coordination Sequence:
#
# PCOD8028063 Si02
#       7
#     2   2   2   2   2   2   2
#     4  11  26  47  69 103 136 184 233 291 349 417
#     4  11  24  44  71  99 140 184 229 292 350 412
#     4  12  27  46  72 103 143 187 233 286 351 427
#     4  11  26  45  71  99 139 182 233 287 350 412
#     4  11  26  45  69 106 139 178 238 286 347 422
#     4  10  25  43  66 101 134 178 223 282 343 406
#     4  10  25  44  69 100 137 176 236 281 343 419
#
# _framework density 21.940176999999998
#
# number of rings (size 3 to 8) (size 9 to 14) (size 15 to 20)
#    0.000    1.143    1.429    2.143   18.000    1.143 
#    0.000    0.000    0.000    0.000    0.000    0.000 
#    0.000    0.000    0.000    0.000    0.000    0.000 
#
# Total GULP energy -173525.552545 kJ/mol
# GULP energy per Si atom -12394.682325 kJ/mol
# Density = 2.189024 g / cm^3
# Si number density = 21.940177 Si / 1000 Ang^3
#
#
#
# Elastic Constant Matrix: (Units=GPa)
#
#
# Indices 1 2 3 4 5 6 
#
# 1 80.5737 26.9417 37.0242 5.0304 1.2772 -2.8952
# 2 26.9417 122.8206 49.4232 3.7459 12.8212 -2.5584
# 3 37.0242 49.4232 154.6674 11.3544 13.9381 17.1932
# 4 5.0304 3.7459 11.3544 30.9988 4.0914 -1.0599
# 5 1.2772 12.8212 13.9381 4.0914 35.6272 5.8520
# 6 -2.8952 -2.5584 17.1932 -1.0599 5.8520 40.8949
#
#
#
# Elastic Compliance Matrix: (Units=1/GPa)
#
#
# Indices 1 2 3 4 5 6 
#
# 1 0.014635 -0.002008 -0.003116 -0.001082 0.001209 0.002019
# 2 -0.002008 0.010005 -0.002728 0.000564 -0.002863 0.002055
# 3 -0.003116 -0.002728 0.008825 -0.002342 -0.001440 -0.003956
# 4 -0.001082 0.000564 -0.002342 0.033767 -0.003507 0.002320
# 5 0.001209 -0.002863 -0.001440 -0.003507 0.030673 -0.003968
# 6 0.002019 0.002055 -0.003956 0.002320 -0.003968 0.027016
#
#
# Mechanical properties :
#
#
# Convention : Reuss Voigt Hill
#
# Bulk Modulus (GPa) = 56.30347 64.98221 60.64284
# Shear Modulus (GPa) = 34.11947 37.81569 35.96758
#
# Velocity S-wave (km/s) = 3.94777 4.15611 4.05328
# Velocity P-wave (km/s) = 6.81893 7.26038 7.04312
#
# Compressibility (1/GPa) = 0.01776089
#
# Stress axis : x y z
#
# Youngs Moduli (GPa) = 68.32940 99.95302 113.31945
#
# Poissons Ratio (x) = 0.20067 0.35308
# Poissons Ratio (y) = 0.13718 0.30916
# Poissons Ratio (z) = 0.21290 0.27269
#
# Static dielectric constant tensor:
#      x y z
#    x 4.121900 -0.142060 -0.068010 
#    y -0.142060 4.393220 -0.150790 
#    z -0.068010 -0.150790 3.953250 
# 
# 
# High freq. dielectric constant tensor:
#      x y z
#    x 1.862700 -0.007420 -0.006740 
#    y -0.007420 1.878210 -0.000400 
#    z -0.006740 -0.000400 1.867420 
# 
# From -- ./inp_files/346050.got.cif
#   From: 2010.06.25/outbox.cif.g09.slc.cpg/sg2_174_cif.got.tgz:346050.got - 2010.06.27 13:26:56.
