data_PCOD8028707
_publ_section_title
;
Structure prediction by ZEFSAII (Michael W. Deem and Ramdas Pophale) SiO2 
 PCOD8028707
Probable space group: P -1
;
_chemical_formula_sum "Si O2"
_cell_formula_units_Z 12
_cell_length_a 5.025476
_cell_length_b 12.415505
_cell_length_c 8.510776
_cell_angle_alpha 91.129206
_cell_angle_beta 100.124382
_cell_angle_gamma 119.321905
_cell_volume 452.301894
_symmetry_space_group_name_H-M "P -1"
_symmetry_group_IT_number 2
_symmetry_cell_setting 'triclinic'
loop_
_space_group_symop_operation_xyz
x,y,z
-x,-y,-z
loop_
_atom_site_type_symbol
_atom_site_label
_atom_site_fract_x
_atom_site_fract_y
_atom_site_fract_z
Si Si1 0.596190 0.660490 0.094860
Si Si2 0.584086 0.081170 0.230924
Si Si3 0.225480 0.515727 0.754675
Si Si4 0.301698 0.815357 0.086924
Si Si5 0.812916 0.874019 0.573530
Si Si6 0.581054 0.393061 0.543525
O O1 0.614159 0.574620 0.238045
O O2 0.499777 0.752965 0.168522
O O3 0.929956 0.723000 0.043943
O O4 0.327105 0.580576 0.936740
O O5 0.479990 0.129764 0.370559
O O6 0.948423 0.125274 0.274247
O O7 0.373717 0.931067 0.208453
O O8 0.545993 0.137848 0.067375
O O9 0.307082 0.614385 0.625176
O O10 0.850518 0.427423 0.703935
O O11 0.693370 0.748417 0.453515
O O12 0.000000 0.000000 0.500000
O O13 0.500000 0.500000 0.500000
#
# Coordination Sequence:
#
# PCOD8028707 Si02
#       6
#     2   2   2   2   2   2
#     4  11  25  43  76 107 149 193 253 316 374 448
#     4  11  25  47  72 108 147 197 250 308 380 448
#     4  10  26  45  69 111 147 198 246 314 379 449
#     4  11  24  44  76 107 149 194 247 316 379 446
#     4  12  28  48  76 107 151 201 251 310 372 449
#     4  11  27  46  76 106 152 199 253 306 383 449
#
# _framework density 26.530951000000002
#
# number of rings (size 3 to 8) (size 9 to 14) (size 15 to 20)
#    0.000    1.000    0.000    4.500   14.000    5.333 
#    0.000    0.000    0.000    0.000    0.000    0.000 
#    0.000    0.000    0.000    0.000    0.000    0.000 
#
# Total GULP energy -148776.117398 kJ/mol
# GULP energy per Si atom -12398.009783 kJ/mol
# Density = 2.647057 g / cm^3
# Si number density = 26.530951 Si / 1000 Ang^3
#
#
#
# Elastic Constant Matrix: (Units=GPa)
#
#
# Indices 1 2 3 4 5 6 
#
# 1 129.5130 56.4778 38.3647 -6.2623 21.8863 -5.6125
# 2 56.4778 187.2476 54.1220 9.2695 8.4070 -0.8167
# 3 38.3647 54.1220 125.6395 -1.7094 30.3099 0.9741
# 4 -6.2623 9.2695 -1.7094 31.7056 7.9052 6.6663
# 5 21.8863 8.4070 30.3099 7.9052 44.8860 2.4149
# 6 -5.6125 -0.8167 0.9741 6.6663 2.4149 43.2535
#
#
#
# Elastic Compliance Matrix: (Units=1/GPa)
#
#
# Indices 1 2 3 4 5 6 
#
# 1 0.010183 -0.002836 -0.000719 0.003761 -0.004663 0.000965
# 2 -0.002836 0.007078 -0.002856 -0.003475 0.002586 0.000221
# 3 -0.000719 -0.002856 0.011196 0.003198 -0.007212 -0.000490
# 4 0.003761 -0.003475 0.003198 0.036868 -0.009577 -0.004797
# 5 -0.004663 0.002586 -0.007212 -0.009577 0.030658 -0.000629
# 6 0.000965 0.000221 -0.000490 -0.004797 -0.000629 0.024034
#
#
# Mechanical properties :
#
#
# Convention : Reuss Voigt Hill
#
# Bulk Modulus (GPa) = 63.95932 82.25877 73.10905
# Shear Modulus (GPa) = 36.21840 43.53138 39.87489
#
# Velocity S-wave (km/s) = 3.69878 4.05505 3.88101
# Velocity P-wave (km/s) = 6.51161 7.27988 6.90644
#
# Compressibility (1/GPa) = 0.01563494
#
# Stress axis : x y z
#
# Youngs Moduli (GPa) = 98.20681 141.27691 89.31626
#
# Poissons Ratio (x) = 0.40067 0.06423
# Poissons Ratio (y) = 0.27852 0.25508
# Poissons Ratio (z) = 0.07062 0.40347
#
# Static dielectric constant tensor:
#      x y z
#    x 4.753590 -0.066190 -0.001010 
#    y -0.066190 5.214280 -0.254800 
#    z -0.001010 -0.254800 5.124030 
# 
# 
# High freq. dielectric constant tensor:
#      x y z
#    x 2.069120 -0.004130 0.000830 
#    y -0.004130 2.084560 -0.013290 
#    z 0.000830 -0.013290 2.079820 
# 
# From -- ./inp_files/90126.got.cif
#   From: 2010.06.25/outbox.cif.g09.slc.cpg/sg2_46_cif.got.tgz:90126.got - 2010.06.27 13:26:56.
