data_PCOD8028109
_publ_section_title
;
Structure prediction by ZEFSAII (Michael W. Deem and Ramdas Pophale) SiO2 
 PCOD8028109
Probable space group: P -1
;
_chemical_formula_sum "Si O2"
_cell_formula_units_Z 16
_cell_length_a 9.615444
_cell_length_b 14.932746
_cell_length_c 8.292896
_cell_angle_alpha 96.679222
_cell_angle_beta 96.881644
_cell_angle_gamma 141.936530
_cell_volume 684.320479
_symmetry_space_group_name_H-M "P -1"
_symmetry_group_IT_number 2
_symmetry_cell_setting 'triclinic'
loop_
_space_group_symop_operation_xyz
x,y,z
-x,-y,-z
loop_
_atom_site_type_symbol
_atom_site_label
_atom_site_fract_x
_atom_site_fract_y
_atom_site_fract_z
Si Si1 0.872164 0.526053 0.780183
Si Si2 0.556549 0.535556 0.706410
Si Si3 0.806379 0.228403 0.357372
Si Si4 0.687331 0.001582 0.125698
Si Si5 0.680546 0.951645 0.742604
Si Si6 0.971754 0.731974 0.308467
Si Si7 0.125584 0.125122 0.183471
Si Si8 0.783550 0.297403 0.841641
O O1 0.713650 0.532710 0.787808
O O2 0.718489 0.354688 0.744762
O O3 0.995199 0.594495 0.633446
O O4 0.089615 0.622294 0.953711
O O5 0.500000 0.500000 0.500000
O O6 0.314036 0.404803 0.750916
O O7 0.693546 0.699872 0.808759
O O8 0.572387 0.150711 0.393516
O O9 0.918549 0.211682 0.485919
O O10 0.748323 0.140393 0.167088
O O11 0.472189 0.880812 0.197193
O O12 0.637979 0.944960 0.925470
O O13 0.910686 0.059529 0.238789
O O14 0.723843 0.868752 0.689747
O O15 0.910641 0.127270 0.750836
O O16 0.038025 0.669886 0.232031
O O17 0.000000 0.000000 0.000000
#
# Coordination Sequence:
#
# PCOD8028109 Si02
#       8
#     2   2   2   2   2   2   2   2
#     4  11  25  46  71  97 138 189 231 285 359 417
#     4  12  26  50  70 101 150 191 225 293 366 421
#     4  12  22  44  69  95 141 185 231 290 352 417
#     4  11  21  45  68  93 139 178 233 286 350 412
#     4  11  24  42  70 103 136 185 234 295 341 418
#     4  12  27  42  67 108 138 179 239 289 355 418
#     4  10  25  43  71 102 133 187 238 280 350 417
#     4  11  26  42  70 105 130 182 240 291 343 417
#
# _framework density 23.380859000000001
#
# number of rings (size 3 to 8) (size 9 to 14) (size 15 to 20)
#    0.000    0.750    5.000    1.500    5.250    3.000 
#    0.000    1.250    0.000    0.000    0.000    0.000 
#    0.000    0.000    0.000    0.000    0.000    0.000 
#
# Total GULP energy -198294.599890 kJ/mol
# GULP energy per Si atom -12393.412493 kJ/mol
# Density = 2.332764 g / cm^3
# Si number density = 23.380859 Si / 1000 Ang^3
#
#
#
# Elastic Constant Matrix: (Units=GPa)
#
#
# Indices 1 2 3 4 5 6 
#
# 1 176.4949 81.8819 10.2830 -9.4817 14.9843 1.7533
# 2 81.8819 161.0362 27.7705 -14.1860 1.1234 9.0866
# 3 10.2830 27.7705 30.3400 -6.6895 -1.7407 -2.5955
# 4 -9.4817 -14.1860 -6.6895 22.6725 7.1808 3.0668
# 5 14.9843 1.1234 -1.7407 7.1808 25.8503 -3.4501
# 6 1.7533 9.0866 -2.5955 3.0668 -3.4501 55.4926
#
#
#
# Elastic Compliance Matrix: (Units=1/GPa)
#
#
# Indices 1 2 3 4 5 6 
#
# 1 0.008057 -0.004028 0.001291 0.002883 -0.005212 -0.000018
# 2 -0.004028 0.009824 -0.007226 0.002436 0.000488 -0.001924
# 3 0.001291 -0.007226 0.041072 0.007591 0.000580 0.002680
# 4 0.002883 0.002436 0.007591 0.055076 -0.017131 -0.004244
# 5 -0.005212 0.000488 0.000580 -0.017131 0.047013 0.003982
# 6 -0.000018 -0.001924 0.002680 -0.004244 0.003982 0.018943
#
#
# Mechanical properties :
#
#
# Convention : Reuss Voigt Hill
#
# Bulk Modulus (GPa) = 25.62294 67.52687 46.57490
# Shear Modulus (GPa) = 23.48300 37.33214 30.40757
#
# Velocity S-wave (km/s) = 3.17262 4.00020 3.61020
# Velocity P-wave (km/s) = 4.93998 7.09080 6.11076
#
# Compressibility (1/GPa) = 0.03902753
#
# Stress axis : x y z
#
# Youngs Moduli (GPa) = 124.11717 101.79428 24.34726
#
# Poissons Ratio (x) = 0.41003 -0.03144
# Poissons Ratio (y) = 0.49995 0.17594
# Poissons Ratio (z) = -0.16028 0.73557
#
# Static dielectric constant tensor:
#      x y z
#    x 4.927290 0.034870 0.239870 
#    y 0.034870 4.320720 0.015030 
#    z 0.239870 0.015030 4.030600 
# 
# 
# High freq. dielectric constant tensor:
#      x y z
#    x 1.946420 0.003830 0.008620 
#    y 0.003830 1.930770 0.001610 
#    z 0.008620 0.001610 1.901770 
# 
# From -- ./inp_files/207811.got.cif
#   From: 2010.06.25/outbox.cif.g09.slc.cpg/sg2_104_cif.got.tgz:207811.got - 2010.06.27 13:26:56.
