data_PCOD8028887
_publ_section_title
;
Structure prediction by ZEFSAII (Michael W. Deem and Ramdas Pophale) SiO2 
 PCOD8028887
Probable space group: P -1
;
_chemical_formula_sum "Si O2"
_cell_formula_units_Z 12
_cell_length_a 9.181115
_cell_length_b 11.655154
_cell_length_c 11.239266
_cell_angle_alpha 112.291888
_cell_angle_beta 58.207270
_cell_angle_gamma 140.432793
_cell_volume 650.345707
_symmetry_space_group_name_H-M "P -1"
_symmetry_group_IT_number 2
_symmetry_cell_setting 'triclinic'
loop_
_space_group_symop_operation_xyz
x,y,z
-x,-y,-z
loop_
_atom_site_type_symbol
_atom_site_label
_atom_site_fract_x
_atom_site_fract_y
_atom_site_fract_z
Si Si1 0.246632 0.971722 0.372934
Si Si2 0.791662 0.735743 0.872875
Si Si3 0.311932 0.769763 0.388377
Si Si4 0.743316 0.166875 0.320349
Si Si5 0.442489 0.338622 0.816393
Si Si6 0.955957 0.959523 0.306605
O O1 0.551982 0.137667 0.302223
O O2 0.135216 0.950695 0.286070
O O3 0.167473 0.787547 0.367294
O O4 0.152140 0.010055 0.533357
O O5 0.554723 0.535579 0.845618
O O6 0.009835 0.751999 0.819409
O O7 0.874869 0.876112 0.793267
O O8 0.716035 0.769123 0.037757
O O9 0.183997 0.706046 0.549079
O O10 0.328535 0.639659 0.278878
O O11 0.601071 0.969775 0.358025
O O12 0.266149 0.231628 0.736084
#
# Coordination Sequence:
#
# PCOD8028887 Si02
#       6
#     2   2   2   2   2   2
#     4   9  18  32  60  84 104 138 175 218 271 321
#     4  11  22  35  55  80 106 143 183 215 258 316
#     4   9  15  34  55  80 102 133 184 211 257 313
#     4   9  15  34  55  80 102 133 184 211 257 313
#     4  11  22  35  55  80 106 143 183 215 258 316
#     4  11  18  37  56  77 118 135 166 228 271 311
#
# _framework density 18.451726000000001
#
# number of rings (size 3 to 8) (size 9 to 14) (size 15 to 20)
#    1.000    1.000    5.000    0.500    0.000    0.667 
#    0.000    8.333    0.000    4.000    0.000    0.000 
#    0.000    0.000    0.000    0.000    0.000    0.000 
#
# Total GULP energy -148704.769610 kJ/mol
# GULP energy per Si atom -12392.064134 kJ/mol
# Density = 1.840973 g / cm^3
# Si number density = 18.451726 Si / 1000 Ang^3
#
#
#
# Elastic Constant Matrix: (Units=GPa)
#
#
# Indices 1 2 3 4 5 6 
#
# 1 141.5778 20.1000 34.2836 5.0040 4.3880 6.8783
# 2 20.1000 26.6605 2.4004 1.1762 7.0110 3.7450
# 3 34.2836 2.4004 76.3574 8.0315 -9.3552 2.8180
# 4 5.0040 1.1762 8.0315 22.7080 -0.4336 -4.8609
# 5 4.3880 7.0110 -9.3552 -0.4336 22.2230 1.9760
# 6 6.8783 3.7450 2.8180 -4.8609 1.9760 12.4287
#
#
#
# Elastic Compliance Matrix: (Units=1/GPa)
#
#
# Indices 1 2 3 4 5 6 
#
# 1 0.008998 -0.005676 -0.003845 -0.000896 -0.001398 -0.002526
# 2 -0.005676 0.046717 0.000315 -0.003763 -0.012628 -0.010471
# 3 -0.003845 0.000315 0.016630 -0.006049 0.008021 -0.005378
# 4 -0.000896 -0.003763 -0.006049 0.051562 -0.002268 0.023528
# 5 -0.001398 -0.012628 0.008021 -0.002268 0.053176 -0.006581
# 6 -0.002526 -0.010471 -0.005378 0.023528 -0.006581 0.096479
#
#
# Mechanical properties :
#
#
# Convention : Reuss Voigt Hill
#
# Bulk Modulus (GPa) = 18.54153 39.79598 29.16876
# Shear Modulus (GPa) = 16.13151 23.99273 20.06212
#
# Velocity S-wave (km/s) = 2.95999 3.60988 3.30096
# Velocity P-wave (km/s) = 4.66396 6.24415 5.51098
#
# Compressibility (1/GPa) = 0.05393299
#
# Stress axis : x y z
#
# Youngs Moduli (GPa) = 111.13703 21.40553 60.13083
#
# Poissons Ratio (x) = 0.12149 0.23122
# Poissons Ratio (y) = 0.63077 -0.01893
# Poissons Ratio (z) = 0.42736 -0.00674
#
# Static dielectric constant tensor:
#      x y z
#    x 3.468460 0.047840 -0.160450 
#    y 0.047840 3.088440 0.056510 
#    z -0.160450 0.056510 3.329540 
# 
# 
# High freq. dielectric constant tensor:
#      x y z
#    x 1.701010 0.004990 -0.019410 
#    y 0.004990 1.692960 0.006360 
#    z -0.019410 0.006360 1.711990 
# 
# From -- ./inp_files/299975.got.cif
#   From: 2010.06.25/outbox.cif.g09.slc.cpg/sg2_150_cif.got.tgz:299975.got - 2010.06.27 13:26:56.
