data_PCOD8028375
_publ_section_title
;
Structure prediction by ZEFSAII (Michael W. Deem and Ramdas Pophale) SiO2 
 PCOD8028375
Probable space group: P -1
;
_chemical_formula_sum "Si O2"
_cell_formula_units_Z 10
_cell_length_a 4.993357
_cell_length_b 8.220389
_cell_length_c 11.158955
_cell_angle_alpha 62.347769
_cell_angle_beta 95.002334
_cell_angle_gamma 120.379922
_cell_volume 343.433938
_symmetry_space_group_name_H-M "P -1"
_symmetry_group_IT_number 2
_symmetry_cell_setting 'triclinic'
loop_
_space_group_symop_operation_xyz
x,y,z
-x,-y,-z
loop_
_atom_site_type_symbol
_atom_site_label
_atom_site_fract_x
_atom_site_fract_y
_atom_site_fract_z
Si Si1 0.365089 0.518611 0.758966
Si Si2 0.662641 0.897047 0.133384
Si Si3 0.971362 0.249499 0.399487
Si Si4 0.350540 0.254226 0.057849
Si Si5 0.584773 0.039370 0.672962
O O1 0.227313 0.276088 0.788065
O O2 0.084240 0.562312 0.712626
O O3 0.674368 0.685642 0.636930
O O4 0.459603 0.497517 0.913448
O O5 0.404655 0.840160 0.245837
O O6 0.534664 0.858946 0.001129
O O7 0.971838 0.134359 0.082883
O O8 0.725829 0.026485 0.396247
O O9 0.900748 0.200789 0.555340
O O10 0.447103 0.191769 0.212406
#
# Coordination Sequence:
#
# PCOD8028375 Si02
#       5
#     2   2   2   2   2
#     4  10  25  46  66 100 135 167 230 275 315 393
#     4   9  22  42  71  95 130 176 224 270 327 392
#     4  11  28  44  64 104 137 171 219 273 336 388
#     4   9  22  42  71  95 130 176 224 270 327 392
#     4  11  25  42  70  90 141 179 214 268 342 395
#
# _framework density 29.11768
#
# number of rings (size 3 to 8) (size 9 to 14) (size 15 to 20)
#    1.200    0.800    0.000    0.600   11.200    4.800 
#    0.000    0.000    0.000    0.000    0.000    0.000 
#    0.000    0.000    0.000    0.000    0.000    0.000 
#
# Total GULP energy -123958.037724 kJ/mol
# GULP energy per Si atom -12395.803772 kJ/mol
# Density = 2.905141 g / cm^3
# Si number density = 29.117680 Si / 1000 Ang^3
#
#
#
# Elastic Constant Matrix: (Units=GPa)
#
#
# Indices 1 2 3 4 5 6 
#
# 1 57.0333 14.5659 18.4097 10.9032 -14.1376 -5.1569
# 2 14.5659 81.3552 65.1279 -5.3618 -1.6290 -20.1116
# 3 18.4097 65.1279 191.6563 20.0869 -17.8319 -28.0875
# 4 10.9032 -5.3618 20.0869 43.6755 -2.7859 -13.1388
# 5 -14.1376 -1.6290 -17.8319 -2.7859 41.7065 3.0198
# 6 -5.1569 -20.1116 -28.0875 -13.1388 3.0198 36.4165
#
#
#
# Elastic Compliance Matrix: (Units=1/GPa)
#
#
# Indices 1 2 3 4 5 6 
#
# 1 0.021461 -0.005305 0.000761 -0.006588 0.007117 -0.002271
# 2 -0.005305 0.021705 -0.006818 0.009838 -0.003922 0.009852
# 3 0.000761 -0.006818 0.008357 -0.004383 0.003204 0.000941
# 4 -0.006588 0.009838 -0.004383 0.031412 -0.002542 0.012664
# 5 0.007117 -0.003922 0.003204 -0.002542 0.027573 -0.001890
# 6 -0.002271 0.009852 0.000941 0.012664 -0.001890 0.038030
#
#
# Mechanical properties :
#
#
# Convention : Reuss Voigt Hill
#
# Bulk Modulus (GPa) = 34.72322 58.47243 46.59782
# Shear Modulus (GPa) = 27.64522 39.82245 33.73384
#
# Velocity S-wave (km/s) = 3.08463 3.70217 3.40742
# Velocity P-wave (km/s) = 4.96363 6.19676 5.61415
#
# Compressibility (1/GPa) = 0.02879917
#
# Stress axis : x y z
#
# Youngs Moduli (GPa) = 46.59586 46.07174 119.66109
#
# Poissons Ratio (x) = 0.24439 -0.09107
# Poissons Ratio (y) = 0.24717 0.81591
# Poissons Ratio (z) = -0.03546 0.31414
#
# Static dielectric constant tensor:
#      x y z
#    x 4.671300 -0.597680 0.001050 
#    y -0.597680 5.545780 0.119950 
#    z 0.001050 0.119950 5.790360 
# 
# 
# High freq. dielectric constant tensor:
#      x y z
#    x 2.160050 -0.033140 0.012940 
#    y -0.033140 2.217810 -0.003530 
#    z 0.012940 -0.003530 2.231070 
# 
# From -- ./inp_files/19675.got.cif
#   From: 2010.06.25/outbox.cif.g09.slc.cpg/sg2_10_cif.got.tgz:19675.got - 2010.06.27 13:26:56.
