data_PCOD8028505
_publ_section_title
;
Structure prediction by ZEFSAII (Michael W. Deem and Ramdas Pophale) SiO2 
 PCOD8028505
Probable space group: P -1
;
_chemical_formula_sum "Si O2"
_cell_formula_units_Z 14
_cell_length_a 11.104916
_cell_length_b 8.125736
_cell_length_c 9.284375
_cell_angle_alpha 106.778958
_cell_angle_beta 80.135669
_cell_angle_gamma 131.978333
_cell_volume 596.010292
_symmetry_space_group_name_H-M "P -1"
_symmetry_group_IT_number 2
_symmetry_cell_setting 'triclinic'
loop_
_space_group_symop_operation_xyz
x,y,z
-x,-y,-z
loop_
_atom_site_type_symbol
_atom_site_label
_atom_site_fract_x
_atom_site_fract_y
_atom_site_fract_z
Si Si1 0.124848 0.493522 0.056168
Si Si2 0.812703 0.871116 0.485689
Si Si3 0.302150 0.921959 0.630139
Si Si4 0.697363 0.588731 0.185383
Si Si5 0.159630 0.974191 0.914668
Si Si6 0.674855 0.713271 0.777637
Si Si7 0.683885 0.325890 0.669174
O O1 0.222658 0.675926 0.213790
O O2 0.258002 0.553248 0.927851
O O3 0.030038 0.239253 0.075819
O O4 0.000000 0.500000 0.000000
O O5 0.739540 0.637078 0.358461
O O6 0.710640 0.813219 0.635894
O O7 0.781408 0.009262 0.431751
O O8 0.000000 0.000000 0.500000
O O9 0.259056 0.703614 0.502429
O O10 0.228368 0.865654 0.792133
O O11 0.492598 0.123423 0.664722
O O12 0.805469 0.831413 0.143818
O O13 0.508751 0.450541 0.172183
O O14 0.232860 0.072379 0.081786
O O15 0.733540 0.570645 0.732042
#
# Coordination Sequence:
#
# PCOD8028505 Si02
#       7
#     2   2   2   2   2   2   2
#     4  12  28  44  68 108 143 182 233 300 355 403
#     4  11  25  41  70 106 141 176 233 295 341 409
#     4  10  25  47  69 102 140 188 230 284 354 420
#     4  11  23  45  69 101 136 184 238 282 347 424
#     4  11  23  45  71 101 133 185 238 283 350 413
#     4  12  23  44  77 102 135 188 239 282 344 421
#     4  11  24  45  72  95 146 180 237 280 354 419
#
# _framework density 23.489526000000001
#
# number of rings (size 3 to 8) (size 9 to 14) (size 15 to 20)
#    0.000    0.857    4.286    3.000    8.000    1.714 
#    2.571    1.429    0.000    0.000    0.000    0.000 
#    0.000    0.000    0.000    0.000    0.000    0.000 
#
# Total GULP energy -173490.868712 kJ/mol
# GULP energy per Si atom -12392.204908 kJ/mol
# Density = 2.343606 g / cm^3
# Si number density = 23.489526 Si / 1000 Ang^3
#
#
#
# Elastic Constant Matrix: (Units=GPa)
#
#
# Indices 1 2 3 4 5 6 
#
# 1 102.0786 37.9459 39.3379 10.2195 -3.7296 18.8044
# 2 37.9459 62.8753 42.3294 10.5391 0.7841 13.4836
# 3 39.3379 42.3294 190.0228 28.4011 -31.1584 8.9941
# 4 10.2195 10.5391 28.4011 44.6436 0.5848 5.7087
# 5 -3.7296 0.7841 -31.1584 0.5848 50.4821 5.5913
# 6 18.8044 13.4836 8.9941 5.7087 5.5913 21.2530
#
#
#
# Elastic Compliance Matrix: (Units=1/GPa)
#
#
# Indices 1 2 3 4 5 6 
#
# 1 0.014028 -0.006027 -0.000880 -0.000151 0.001539 -0.008579
# 2 -0.006027 0.023993 -0.004050 -0.000739 -0.002498 -0.007320
# 3 -0.000880 -0.004050 0.007712 -0.003790 0.004820 -0.000165
# 4 -0.000151 -0.000739 -0.003790 0.025571 -0.002183 -0.004087
# 5 0.001539 -0.002498 0.004820 -0.002183 0.023791 -0.007489
# 6 -0.008579 -0.007320 -0.000165 -0.004087 -0.007489 0.062425
#
#
# Mechanical properties :
#
#
# Convention : Reuss Voigt Hill
#
# Bulk Modulus (GPa) = 41.98511 66.02259 54.00385
# Shear Modulus (GPa) = 26.68459 38.96662 32.82560
#
# Velocity S-wave (km/s) = 3.37415 4.07737 3.74231
# Velocity P-wave (km/s) = 5.75262 7.09471 6.45862
#
# Compressibility (1/GPa) = 0.02381797
#
# Stress axis : x y z
#
# Youngs Moduli (GPa) = 71.28586 41.67858 129.67625
#
# Poissons Ratio (x) = 0.25121 0.11417
# Poissons Ratio (y) = 0.42966 0.52514
# Poissons Ratio (z) = 0.06276 0.16878
#
# Static dielectric constant tensor:
#      x y z
#    x 4.177240 0.120470 -0.386110 
#    y 0.120470 4.044770 0.184790 
#    z -0.386110 0.184790 5.280200 
# 
# 
# High freq. dielectric constant tensor:
#      x y z
#    x 1.926520 0.019870 -0.013360 
#    y 0.019870 1.907920 0.015690 
#    z -0.013360 0.015690 1.962440 
# 
# From -- ./inp_files/183728.got.cif
#   From: 2010.06.25/outbox.cif.g09.slc.cpg/sg2_92_cif.got.tgz:183728.got - 2010.06.27 13:26:56.
