data_PCOD8028223
_publ_section_title
;
Structure prediction by ZEFSAII (Michael W. Deem and Ramdas Pophale) SiO2 
 PCOD8028223
Probable space group: P -1
;
_chemical_formula_sum "Si O2"
_cell_formula_units_Z 14
_cell_length_a 12.156629
_cell_length_b 9.639266
_cell_length_c 15.392136
_cell_angle_alpha 28.050860
_cell_angle_beta 44.182184
_cell_angle_gamma 54.505965
_cell_volume 583.568520
_symmetry_space_group_name_H-M "P -1"
_symmetry_group_IT_number 2
_symmetry_cell_setting 'triclinic'
loop_
_space_group_symop_operation_xyz
x,y,z
-x,-y,-z
loop_
_atom_site_type_symbol
_atom_site_label
_atom_site_fract_x
_atom_site_fract_y
_atom_site_fract_z
Si Si1 0.623454 0.937824 0.039443
Si Si2 0.319955 0.946438 0.653946
Si Si3 0.194075 0.277197 0.092230
Si Si4 0.857160 0.309032 0.825107
Si Si5 0.186063 0.217637 0.725643
Si Si6 0.835055 0.976499 0.476985
Si Si7 0.336334 0.811636 0.386017
O O1 0.520158 0.789797 0.264039
O O2 0.735599 0.227000 0.858104
O O3 0.500000 0.000000 0.000000
O O4 0.747001 0.741414 0.032635
O O5 0.500000 0.000000 0.500000
O O6 0.321115 0.189242 0.594917
O O7 0.214707 0.033311 0.587912
O O8 0.252851 0.610404 0.908734
O O9 0.279425 0.048702 0.223368
O O10 0.004887 0.196022 0.262427
O O11 0.849600 0.639949 0.682720
O O12 0.038183 0.278101 0.714574
O O13 0.831781 0.089669 0.042569
O O14 0.231856 0.488414 0.615728
O O15 0.696328 0.087958 0.552841
#
# Coordination Sequence:
#
# PCOD8028223 Si02
#       7
#     2   2   2   2   2   2   2
#     4  10  25  44  73 106 145 190 237 297 364 426
#     4  12  29  45  71 106 147 187 241 296 362 425
#     4  11  24  47  71 101 146 185 239 289 364 425
#     4  11  26  45  76 103 146 186 248 290 361 426
#     4  11  26  47  73 107 144 190 239 298 355 436
#     4  12  27  45  75 106 142 193 238 301 355 424
#     4  11  25  45  75 105 144 185 241 297 362 418
#
# _framework density 23.990328000000002
#
# number of rings (size 3 to 8) (size 9 to 14) (size 15 to 20)
#    0.000    0.857    1.429    3.429   16.000    2.286 
#    0.000    0.000    0.000    0.000    0.000    0.000 
#    0.000    0.000    0.000    0.000    0.000    0.000 
#
# Total GULP energy -173459.134538 kJ/mol
# GULP energy per Si atom -12389.938181 kJ/mol
# Density = 2.393573 g / cm^3
# Si number density = 23.990328 Si / 1000 Ang^3
#
#
#
# Elastic Constant Matrix: (Units=GPa)
#
#
# Indices 1 2 3 4 5 6 
#
# 1 -401.0958 -1.2020 -103.8817 -200.1603 -348.6631 -145.6761
# 2 -1.2020 150.0507 31.6687 3.2250 -11.2048 8.4780
# 3 -103.8817 31.6687 85.6875 -68.1985 -95.4511 -44.4459
# 4 -200.1603 3.2250 -68.1985 -32.6154 -132.9886 -62.9319
# 5 -348.6631 -11.2048 -95.4511 -132.9886 -197.2945 -101.3468
# 6 -145.6761 8.4780 -44.4459 -62.9319 -101.3468 -20.8510
#
#
#
# Elastic Compliance Matrix: (Units=1/GPa)
#
#
# Indices 1 2 3 4 5 6 
#
# 1 0.007571 0.001021 -0.003884 -0.004400 -0.004871 -0.007245
# 2 0.001021 0.007644 -0.002572 -0.001877 0.002263 -0.003878
# 3 -0.003884 -0.002572 0.010196 0.003241 -0.001790 0.003276
# 4 -0.004400 -0.001877 0.003241 0.020655 -0.008394 0.001530
# 5 -0.004871 0.002263 -0.001790 -0.008394 0.015362 -0.010564
# 6 -0.007245 -0.003878 0.003276 0.001530 -0.010564 0.040825
#
#
# Mechanical properties :
#
#
# Convention : Reuss Voigt Hill
#
# Bulk Modulus (GPa) = 68.77295 -34.68749 17.04273
# Shear Modulus (GPa) = 42.38374 -56.28168 -6.94897
#
# Velocity S-wave (km/s) = 4.20777 -4.84882 -1.70378
# Velocity P-wave (km/s) = 7.23439 6.77041 1.80248
#
# Compressibility (1/GPa) = 0.01454060
#
# Stress axis : x y z
#
# Youngs Moduli (GPa) = 132.08381 130.82575 98.07309
#
# Poissons Ratio (x) = -0.13353 0.38095
# Poissons Ratio (y) = -0.13481 0.25220
# Poissons Ratio (z) = 0.51306 0.33642
#
# Static dielectric constant tensor:
#      x y z
#    x 4.078290 -0.136430 -0.112910 
#    y -0.136430 4.936180 0.180350 
#    z -0.112910 0.180350 4.550360 
# 
# 
# High freq. dielectric constant tensor:
#      x y z
#    x 1.945150 -0.003470 -0.004480 
#    y -0.003470 1.969830 0.006360 
#    z -0.004480 0.006360 1.956350 
# 
# From -- ./inp_files/158491.got.cif
#   From: 2010.06.25/outbox.cif.g09.slc.cpg/sg2_80_cif.got.tgz:158491.got - 2010.06.27 13:26:56.
