data_PCOD8028811
_publ_section_title
;
Structure prediction by ZEFSAII (Michael W. Deem and Ramdas Pophale) SiO2 
 PCOD8028811
Probable space group: P -1
;
_chemical_formula_sum "Si O2"
_cell_formula_units_Z 16
_cell_length_a 12.175902
_cell_length_b 5.255660
_cell_length_c 20.850159
_cell_angle_alpha 116.310212
_cell_angle_beta 38.067983
_cell_angle_gamma 122.065385
_cell_volume 696.370340
_symmetry_space_group_name_H-M "P -1"
_symmetry_group_IT_number 2
_symmetry_cell_setting 'triclinic'
loop_
_space_group_symop_operation_xyz
x,y,z
-x,-y,-z
loop_
_atom_site_type_symbol
_atom_site_label
_atom_site_fract_x
_atom_site_fract_y
_atom_site_fract_z
Si Si1 0.108503 0.633536 0.195878
Si Si2 0.703029 0.619187 0.205728
Si Si3 0.491097 0.094626 0.773890
Si Si4 0.118344 0.834029 0.467617
Si Si5 0.913000 0.050609 0.884179
Si Si6 0.453343 0.275210 0.580584
Si Si7 0.792923 0.713089 0.421517
Si Si8 0.495350 0.211093 0.929051
O O1 0.094127 0.294220 0.147788
O O2 0.320365 0.858986 0.138158
O O3 0.979369 0.618271 0.316251
O O4 0.030133 0.793683 0.193461
O O5 0.625882 0.259382 0.205882
O O6 0.638379 0.779608 0.313495
O O7 0.629274 0.735557 0.189741
O O8 0.932268 0.747976 0.114242
O O9 0.689751 0.141643 0.654438
O O10 0.523295 0.264063 0.846176
O O11 0.000000 0.500000 0.500000
O O12 0.153025 0.953555 0.538303
O O13 0.000000 0.000000 0.500000
O O14 0.703119 0.057818 0.998881
O O15 0.655985 0.531756 0.520829
O O16 0.313063 0.357303 0.605461
O O17 0.500000 0.000000 0.500000
O O18 0.500000 0.500000 0.000000
#
# Coordination Sequence:
#
# PCOD8028811 Si02
#       8
#     2   2   2   2   2   2   2   2
#     4  11  23  43  70 105 141 179 238 292 344 416
#     4  12  25  45  71 102 150 179 234 291 356 420
#     4  12  27  48  70 103 143 187 231 297 357 420
#     4  12  27  45  67 100 145 190 232 281 347 424
#     4  11  24  44  72 106 136 184 232 298 356 409
#     4  11  23  40  69 102 143 189 231 289 334 424
#     4  11  24  40  69 103 138 188 234 278 349 410
#     4  10  26  49  75 101 138 182 245 297 354 421
#
# _framework density 22.976279000000002
#
# number of rings (size 3 to 8) (size 9 to 14) (size 15 to 20)
#    0.000    0.750    2.500    4.125    3.500    7.000 
#    0.000    0.000    0.000    0.000    0.000    0.000 
#    0.000    0.000    0.000    0.000    0.000    0.000 
#
# Total GULP energy -198323.725901 kJ/mol
# GULP energy per Si atom -12395.232869 kJ/mol
# Density = 2.292398 g / cm^3
# Si number density = 22.976279 Si / 1000 Ang^3
#
#
#
# Elastic Constant Matrix: (Units=GPa)
#
#
# Indices 1 2 3 4 5 6 
#
# 1 113.7679 41.1892 43.6689 -11.3159 -7.3608 4.2076
# 2 41.1892 137.1561 39.1297 -17.1582 -13.3958 2.8762
# 3 43.6689 39.1297 114.2133 -10.8023 -16.4422 23.0792
# 4 -11.3159 -17.1582 -10.8023 35.8217 17.8149 1.0716
# 5 -7.3608 -13.3958 -16.4422 17.8149 41.7624 -4.4755
# 6 4.2076 2.8762 23.0792 1.0716 -4.4755 40.1662
#
#
#
# Elastic Compliance Matrix: (Units=1/GPa)
#
#
# Indices 1 2 3 4 5 6 
#
# 1 0.011051 -0.002166 -0.003627 0.001737 -0.000815 0.000944
# 2 -0.002166 0.008896 -0.002033 0.002627 0.000632 0.000759
# 3 -0.003627 -0.002033 0.012578 0.000490 0.002765 -0.006407
# 4 0.001737 0.002627 0.000490 0.037417 -0.014976 -0.003318
# 5 -0.000815 0.000632 0.002765 -0.014976 0.031737 0.002387
# 6 0.000944 0.000759 -0.006407 -0.003318 0.002387 0.028779
#
#
# Mechanical properties :
#
#
# Convention : Reuss Voigt Hill
#
# Bulk Modulus (GPa) = 59.27042 68.12364 63.69703
# Shear Modulus (GPa) = 32.95190 39.62669 36.28929
#
# Velocity S-wave (km/s) = 3.79115 4.15743 3.97851
# Velocity P-wave (km/s) = 6.70941 7.26358 6.99198
#
# Compressibility (1/GPa) = 0.01687182
#
# Stress axis : x y z
#
# Youngs Moduli (GPa) = 90.48599 112.40993 79.50372
#
# Poissons Ratio (x) = 0.24350 0.28838
# Poissons Ratio (y) = 0.19601 0.16167
# Poissons Ratio (z) = 0.32821 0.22858
#
# Static dielectric constant tensor:
#      x y z
#    x 3.748540 -0.435360 -0.002510 
#    y -0.435360 3.377190 -0.153830 
#    z -0.002510 -0.153830 4.456450 
# 
# 
# High freq. dielectric constant tensor:
#      x y z
#    x 1.912440 0.015450 -0.011000 
#    y 0.015450 1.906620 -0.011330 
#    z -0.011000 -0.011330 1.922420 
# 
# From -- ./inp_files/592831.got.cif
#   From: 2010.06.25/outbox.cif.g09.slc.cpg/sg2_297_cif.got.tgz:592831.got - 2010.06.27 13:26:56.
