data_PCOD8028649
_publ_section_title
;
Structure prediction by ZEFSAII (Michael W. Deem and Ramdas Pophale) SiO2 
 PCOD8028649
Probable space group: P -1
;
_chemical_formula_sum "Si O2"
_cell_formula_units_Z 16
_cell_length_a 25.707902
_cell_length_b 15.680800
_cell_length_c 5.819493
_cell_angle_alpha 73.622438
_cell_angle_beta 72.429124
_cell_angle_gamma 17.128059
_cell_volume 658.491036
_symmetry_space_group_name_H-M "P -1"
_symmetry_group_IT_number 2
_symmetry_cell_setting 'triclinic'
loop_
_space_group_symop_operation_xyz
x,y,z
-x,-y,-z
loop_
_atom_site_type_symbol
_atom_site_label
_atom_site_fract_x
_atom_site_fract_y
_atom_site_fract_z
Si Si1 0.417822 0.834360 0.759282
Si Si2 0.204533 0.329236 0.622791
Si Si3 0.652873 0.752376 0.172658
Si Si4 0.987551 0.264484 0.813981
Si Si5 0.941147 0.024410 0.254144
Si Si6 0.282110 0.519863 0.459585
Si Si7 0.435858 0.564439 0.292547
Si Si8 0.846478 0.887656 0.914780
O O1 0.587672 0.628988 0.780404
O O2 0.509308 0.623292 0.622938
O O3 0.294047 0.098538 0.592231
O O4 0.298336 0.968454 0.006115
O O5 0.341766 0.171486 0.720613
O O6 0.143601 0.483065 0.376548
O O7 0.031562 0.566270 0.815636
O O8 0.607071 0.732720 0.383591
O O9 0.851955 0.431725 0.051346
O O10 0.500000 0.000000 0.000000
O O11 0.108882 0.995813 0.759589
O O12 0.124722 0.121525 0.855168
O O13 0.112709 0.740495 0.397879
O O14 0.776728 0.317935 0.390986
O O15 0.000000 0.000000 0.000000
O O16 0.500000 0.500000 0.500000
O O17 0.226141 0.917221 0.293976
O O18 0.500000 0.500000 0.000000
#
# Coordination Sequence:
#
# PCOD8028649 Si02
#       8
#     2   2   2   2   2   2   2   2
#     4  11  26  46  70 111 141 192 248 302 373 445
#     4  11  25  46  74 100 148 195 242 307 369 451
#     4  11  24  44  66 104 144 186 243 298 375 440
#     4  11  24  44  74 100 138 194 238 299 374 442
#     4  11  24  43  71 102 139 186 238 302 368 443
#     4  11  25  42  69 106 141 181 241 302 367 445
#     4  10  25  50  74 106 147 197 249 312 369 441
#     4  10  26  48  72 103 145 192 248 299 374 450
#
# _framework density 24.297975999999998
#
# number of rings (size 3 to 8) (size 9 to 14) (size 15 to 20)
#    0.000    1.250    2.500    1.125    8.750    1.500 
#   15.750    0.000    0.000    0.000    0.000    0.000 
#    0.000    0.000    0.000    0.000    0.000    0.000 
#
# Total GULP energy -198218.865490 kJ/mol
# GULP energy per Si atom -12388.679093 kJ/mol
# Density = 2.424267 g / cm^3
# Si number density = 24.297976 Si / 1000 Ang^3
#
#
#
# Elastic Constant Matrix: (Units=GPa)
#
#
# Indices 1 2 3 4 5 6 
#
# 1 117.7956 60.7469 43.0264 3.3005 -20.5720 10.1199
# 2 60.7469 102.5089 21.1839 -18.4068 -10.2704 14.1586
# 3 43.0264 21.1839 95.1156 -17.3816 0.1359 -4.0168
# 4 3.3005 -18.4068 -17.3816 37.9493 -7.0669 -10.8866
# 5 -20.5720 -10.2704 0.1359 -7.0669 31.1820 -1.4187
# 6 10.1199 14.1586 -4.0168 -10.8866 -1.4187 56.0797
#
#
#
# Elastic Compliance Matrix: (Units=1/GPa)
#
#
# Indices 1 2 3 4 5 6 
#
# 1 0.018024 -0.009704 -0.007878 -0.009565 0.006422 -0.003061
# 2 -0.009704 0.017072 0.002485 0.010465 0.001567 -0.000310
# 3 -0.007878 0.002485 0.015446 0.009643 -0.002092 0.003720
# 4 -0.009565 0.010465 0.009643 0.040109 0.006536 0.007726
# 5 0.006422 0.001567 -0.002092 0.006536 0.038338 0.000534
# 6 -0.003061 -0.000310 0.003720 0.007726 0.000534 0.020242
#
#
# Mechanical properties :
#
#
# Convention : Reuss Voigt Hill
#
# Bulk Modulus (GPa) = 49.14966 62.81494 55.98230
# Shear Modulus (GPa) = 26.85168 37.73974 32.29571
#
# Velocity S-wave (km/s) = 3.32791 3.94535 3.64971
# Velocity P-wave (km/s) = 5.91933 6.83099 6.39143
#
# Compressibility (1/GPa) = 0.02034602
#
# Stress axis : x y z
#
# Youngs Moduli (GPa) = 55.48164 58.57711 64.74100
#
# Poissons Ratio (x) = 0.56845 0.51006
# Poissons Ratio (y) = 0.53841 -0.16087
# Poissons Ratio (z) = 0.43711 -0.14555
#
# Static dielectric constant tensor:
#      x y z
#    x 4.523650 0.092440 0.058510 
#    y 0.092440 4.822990 0.015270 
#    z 0.058510 0.015270 4.386800 
# 
# 
# High freq. dielectric constant tensor:
#      x y z
#    x 1.964230 0.009260 -0.013340 
#    y 0.009260 1.988910 0.008880 
#    z -0.013340 0.008880 1.947380 
# 
# From -- ./inp_files/124178.got.cif
#   From: 2010.06.25/outbox.cif.g09.slc.cpg/sg2_63_cif.got.tgz:124178.got - 2010.06.27 13:26:56.
