data_PCOD8028090
_publ_section_title
;
Structure prediction by ZEFSAII (Michael W. Deem and Ramdas Pophale) SiO2 
 PCOD8028090
Probable space group: P -1
;
_chemical_formula_sum "Si O2"
_cell_formula_units_Z 16
_cell_length_a 7.283701
_cell_length_b 14.279817
_cell_length_c 8.342469
_cell_angle_alpha 96.003008
_cell_angle_beta 126.610503
_cell_angle_gamma 90.355076
_cell_volume 690.130386
_symmetry_space_group_name_H-M "P -1"
_symmetry_group_IT_number 2
_symmetry_cell_setting 'triclinic'
loop_
_space_group_symop_operation_xyz
x,y,z
-x,-y,-z
loop_
_atom_site_type_symbol
_atom_site_label
_atom_site_fract_x
_atom_site_fract_y
_atom_site_fract_z
Si Si1 0.842268 0.352208 0.523958
Si Si2 0.687360 0.886986 0.009432
Si Si3 0.415885 0.329200 0.537386
Si Si4 0.913977 0.591024 0.047523
Si Si5 0.179164 0.903850 0.830417
Si Si6 0.434310 0.519864 0.786038
Si Si7 0.058009 0.241505 0.103359
Si Si8 0.156547 0.192090 0.588426
O O1 0.637203 0.328241 0.539834
O O2 0.776996 0.417046 0.350702
O O3 0.047998 0.412067 0.740405
O O4 0.946546 0.259361 0.498363
O O5 0.772515 0.845221 0.211523
O O6 0.807660 0.992129 0.067795
O O7 0.413854 0.888174 0.857533
O O8 0.756549 0.822433 0.888772
O O9 0.416814 0.427771 0.649718
O O10 0.181692 0.311597 0.311321
O O11 0.388100 0.244102 0.639016
O O12 0.650093 0.591767 0.857609
O O13 0.047185 0.688803 0.068594
O O14 0.000000 0.500000 0.000000
O O15 0.148216 0.826415 0.942154
O O16 0.956303 0.893716 0.595455
O O17 0.500000 0.500000 0.000000
#
# Coordination Sequence:
#
# PCOD8028090 Si02
#       8
#     2   2   2   2   2   2   2   2
#     4  12  24  45  65  95 135 178 224 280 328 399
#     4  11  23  45  70 100 135 176 224 280 347 403
#     4  11  24  43  66  96 135 178 224 277 330 401
#     4  12  24  41  68  97 133 183 226 274 333 395
#     4  10  25  43  69 101 137 175 222 284 340 410
#     4  12  27  44  66  96 137 179 231 280 333 398
#     4  11  23  44  70  98 137 180 226 277 337 407
#     4  11  25  41  69 100 133 174 226 275 341 403
#
# _framework density 23.184024999999998
#
# number of rings (size 3 to 8) (size 9 to 14) (size 15 to 20)
#    0.000    0.750    3.750    3.375    1.750    4.000 
#    0.000    0.000    0.000    8.250    0.000    0.000 
#    0.000    0.000    0.000    0.000    0.000    0.000 
#
# Total GULP energy -198321.642104 kJ/mol
# GULP energy per Si atom -12395.102632 kJ/mol
# Density = 2.313126 g / cm^3
# Si number density = 23.184025 Si / 1000 Ang^3
#
#
#
# Elastic Constant Matrix: (Units=GPa)
#
#
# Indices 1 2 3 4 5 6 
#
# 1 58.3881 28.1485 8.0229 14.9476 -7.9881 4.2462
# 2 28.1485 100.8163 46.1785 12.2690 -1.2968 15.4169
# 3 8.0229 46.1785 113.8165 2.8136 0.5803 12.4814
# 4 14.9476 12.2690 2.8136 32.5374 2.0711 1.7150
# 5 -7.9881 -1.2968 0.5803 2.0711 32.6430 2.8277
# 6 4.2462 15.4169 12.4814 1.7150 2.8277 32.5173
#
#
#
# Elastic Compliance Matrix: (Units=1/GPa)
#
#
# Indices 1 2 3 4 5 6 
#
# 1 0.022785 -0.005509 0.000900 -0.008808 0.005966 -0.000763
# 2 -0.005509 0.014694 -0.005058 -0.002343 -0.000165 -0.004168
# 3 0.000900 -0.005058 0.010974 0.000651 -0.000047 -0.001962
# 4 -0.008808 -0.002343 0.000651 0.035871 -0.004581 0.000517
# 5 0.005966 -0.000165 -0.000047 -0.004581 0.032664 -0.003282
# 6 -0.000763 -0.004168 -0.001962 0.000517 -0.003282 0.033840
#
#
# Mechanical properties :
#
#
# Convention : Reuss Voigt Hill
#
# Bulk Modulus (GPa) = 34.34002 48.63564 41.48783
# Shear Modulus (GPa) = 27.79818 32.25093 30.02455
#
# Velocity S-wave (km/s) = 3.46645 3.73377 3.60259
# Velocity P-wave (km/s) = 5.55570 6.29378 5.93622
#
# Compressibility (1/GPa) = 0.02912055
#
# Stress axis : x y z
#
# Youngs Moduli (GPa) = 43.88797 68.05469 91.12464
#
# Poissons Ratio (x) = 0.37489 -0.08200
# Poissons Ratio (y) = 0.24176 0.46088
# Poissons Ratio (z) = -0.03949 0.34420
#
# Static dielectric constant tensor:
#      x y z
#    x 3.515530 -0.052580 -0.596560 
#    y -0.052580 4.088310 -0.070950 
#    z -0.596560 -0.070950 4.207130 
# 
# 
# High freq. dielectric constant tensor:
#      x y z
#    x 1.916930 0.016670 -0.000980 
#    y 0.016670 1.917570 0.008060 
#    z -0.000980 0.008060 1.931660 
# 
# From -- ./inp_files/188923.got.cif
#   From: 2010.06.25/outbox.cif.g09.slc.cpg/sg2_95_cif.got.tgz:188923.got - 2010.06.27 13:26:56.
