data_PCOD8028279
_publ_section_title
;
Structure prediction by ZEFSAII (Michael W. Deem and Ramdas Pophale) SiO2 
 PCOD8028279
Probable space group: P -1
;
_chemical_formula_sum "Si O2"
_cell_formula_units_Z 12
_cell_length_a 9.547627
_cell_length_b 5.549088
_cell_length_c 12.198426
_cell_angle_alpha 112.522362
_cell_angle_beta 115.928964
_cell_angle_gamma 74.039152
_cell_volume 532.380330
_symmetry_space_group_name_H-M "P -1"
_symmetry_group_IT_number 2
_symmetry_cell_setting 'triclinic'
loop_
_space_group_symop_operation_xyz
x,y,z
-x,-y,-z
loop_
_atom_site_type_symbol
_atom_site_label
_atom_site_fract_x
_atom_site_fract_y
_atom_site_fract_z
Si Si1 0.800870 0.449904 0.305291
Si Si2 0.797536 0.804502 0.935760
Si Si3 0.492734 0.676674 0.704222
Si Si4 0.066356 0.121264 0.438924
Si Si5 0.121119 0.608016 0.915115
Si Si6 0.375774 0.824555 0.467645
O O1 0.618819 0.410164 0.252887
O O2 0.844731 0.635936 0.450499
O O3 0.830477 0.544986 0.208765
O O4 0.925186 0.186104 0.315779
O O5 0.624233 0.830735 0.828855
O O6 0.933299 0.676256 0.877092
O O7 0.804339 0.603269 0.006070
O O8 0.811837 0.110355 0.017845
O O9 0.380067 0.841184 0.605376
O O10 0.588774 0.454729 0.624495
O O11 0.198148 0.924288 0.387122
O O12 0.000000 0.000000 0.500000
O O13 0.500000 0.000000 0.500000
#
# Coordination Sequence:
#
# PCOD8028279 Si02
#       6
#     2   2   2   2   2   2
#     4  11  25  41  65 100 130 172 224 274 331 398
#     4  10  25  45  68  97 131 176 226 275 335 397
#     4  11  25  41  65 100 130 172 224 274 331 398
#     4  11  24  41  65  97 136 172 213 272 336 400
#     4  10  25  45  68  97 131 176 226 275 335 397
#     4  11  24  41  65  97 136 172 213 272 336 400
#
# _framework density 22.540275999999999
#
# number of rings (size 3 to 8) (size 9 to 14) (size 15 to 20)
#    0.000    1.333    3.333    0.000    9.333    2.667 
#    0.000    0.000    0.000    0.000    0.000    0.000 
#    0.000    0.000    0.000    0.000    0.000    0.000 
#
# Total GULP energy -148719.425294 kJ/mol
# GULP energy per Si atom -12393.285441 kJ/mol
# Density = 2.248897 g / cm^3
# Si number density = 22.540276 Si / 1000 Ang^3
#
#
#
# Elastic Constant Matrix: (Units=GPa)
#
#
# Indices 1 2 3 4 5 6 
#
# 1 138.1876 20.1181 43.3790 -13.1043 5.2243 2.5090
# 2 20.1181 90.6633 19.5979 -13.0729 5.8557 11.5160
# 3 43.3790 19.5979 81.8033 -6.2513 3.4389 1.7408
# 4 -13.1043 -13.0729 -6.2513 24.1177 6.5051 3.5290
# 5 5.2243 5.8557 3.4389 6.5051 44.8757 -5.2677
# 6 2.5090 11.5160 1.7408 3.5290 -5.2677 37.7245
#
#
#
# Elastic Compliance Matrix: (Units=1/GPa)
#
#
# Indices 1 2 3 4 5 6 
#
# 1 0.009114 -0.000268 -0.004371 0.004186 -0.001405 -0.000911
# 2 -0.000268 0.013679 -0.002237 0.008391 -0.003423 -0.005318
# 3 -0.004371 -0.002237 0.015122 0.000413 -0.000397 0.000182
# 4 0.004186 0.008391 0.000413 0.052521 -0.010309 -0.009212
# 5 -0.001405 -0.003423 -0.000397 -0.010309 0.025079 0.005623
# 6 -0.000911 -0.005318 0.000182 -0.009212 0.005623 0.029830
#
#
# Mechanical properties :
#
#
# Convention : Reuss Voigt Hill
#
# Bulk Modulus (GPa) = 41.38172 52.98269 47.18221
# Shear Modulus (GPa) = 29.91295 36.51420 33.21358
#
# Velocity S-wave (km/s) = 3.64688 4.02923 3.84281
# Velocity P-wave (km/s) = 6.01097 6.72332 6.37710
#
# Compressibility (1/GPa) = 0.02416526
#
# Stress axis : x y z
#
# Youngs Moduli (GPa) = 109.71972 73.10395 66.12715
#
# Poissons Ratio (x) = 0.01956 0.28902
# Poissons Ratio (y) = 0.02936 0.14793
# Poissons Ratio (z) = 0.47954 0.16353
#
# Static dielectric constant tensor:
#      x y z
#    x 3.972050 -0.127580 0.048360 
#    y -0.127580 4.352160 -0.107150 
#    z 0.048360 -0.107150 4.109300 
# 
# 
# High freq. dielectric constant tensor:
#      x y z
#    x 1.907120 0.002220 0.003960 
#    y 0.002220 1.892260 -0.005870 
#    z 0.003960 -0.005870 1.869190 
# 
# From -- ./inp_files/22389.got.cif
#   From: 2010.06.25/outbox.cif.g09.slc.cpg/sg2_12_cif.got.tgz:22389.got - 2010.06.27 13:26:56.
