data_PCOD8028463
_publ_section_title
;
Structure prediction by ZEFSAII (Michael W. Deem and Ramdas Pophale) SiO2 
 PCOD8028463
Probable space group: P -1
;
_chemical_formula_sum "Si O2"
_cell_formula_units_Z 14
_cell_length_a 9.523181
_cell_length_b 14.945215
_cell_length_c 11.691916
_cell_angle_alpha 131.484336
_cell_angle_beta 55.456457
_cell_angle_gamma 149.949269
_cell_volume 624.172063
_symmetry_space_group_name_H-M "P -1"
_symmetry_group_IT_number 2
_symmetry_cell_setting 'triclinic'
loop_
_space_group_symop_operation_xyz
x,y,z
-x,-y,-z
loop_
_atom_site_type_symbol
_atom_site_label
_atom_site_fract_x
_atom_site_fract_y
_atom_site_fract_z
Si Si1 0.312065 0.456787 0.813848
Si Si2 0.534632 0.215215 0.280672
Si Si3 0.001300 0.384528 0.696172
Si Si4 0.449280 0.198352 0.854737
Si Si5 0.166596 0.839254 0.827405
Si Si6 0.938511 0.851946 0.148851
Si Si7 0.239520 0.449470 0.416672
O O1 0.567470 0.558973 0.700181
O O2 0.048522 0.343368 0.759523
O O3 0.231048 0.301439 0.799549
O O4 0.403085 0.619607 0.983690
O O5 0.573663 0.099185 0.201833
O O6 0.569931 0.324986 0.465491
O O7 0.776052 0.381360 0.216220
O O8 0.233817 0.067000 0.237805
O O9 0.684561 0.254881 0.726424
O O10 0.056058 0.326812 0.513551
O O11 0.240962 0.137514 0.806119
O O12 0.272388 0.015480 0.864347
O O13 0.967326 0.647894 0.677360
O O14 0.982242 0.776930 0.967707
#
# Coordination Sequence:
#
# PCOD8028463 Si02
#       7
#     2   2   2   2   2   2   2
#     4  12  24  46  74 107 144 189 238 296 352 424
#     4  10  25  46  72 105 143 187 235 291 357 423
#     4  10  25  46  72 105 143 187 235 291 357 423
#     4  12  26  43  75 109 143 183 244 294 354 420
#     4  12  24  46  74 107 144 189 238 296 352 424
#     4  12  26  43  75 109 143 183 244 294 354 420
#     4  10  26  44  78 100 152 182 238 290 368 414
#
# _framework density 22.429714000000001
#
# number of rings (size 3 to 8) (size 9 to 14) (size 15 to 20)
#    0.857    0.000    1.429    5.143    4.000    1.143 
#    0.000    0.000    0.000    0.000    0.000    0.000 
#    0.000    0.000    0.000    0.000    0.000    0.000 
#
# Total GULP energy -173641.827117 kJ/mol
# GULP energy per Si atom -12402.987651 kJ/mol
# Density = 2.237866 g / cm^3
# Si number density = 22.429714 Si / 1000 Ang^3
#
#
#
# Elastic Constant Matrix: (Units=GPa)
#
#
# Indices 1 2 3 4 5 6 
#
# 1 145.0066 42.1800 32.4349 -13.4901 7.0758 20.7770
# 2 42.1800 71.3289 40.0686 -10.9905 8.1240 16.1262
# 3 32.4349 40.0686 87.8128 -17.3804 9.2321 13.3562
# 4 -13.4901 -10.9905 -17.3804 23.3921 10.2969 -1.2166
# 5 7.0758 8.1240 9.2321 10.2969 31.6951 0.6335
# 6 20.7770 16.1262 13.3562 -1.2166 0.6335 47.1324
#
#
#
# Elastic Compliance Matrix: (Units=1/GPa)
#
#
# Indices 1 2 3 4 5 6 
#
# 1 0.008854 -0.003699 -0.000152 0.004129 -0.002276 -0.002457
# 2 -0.003699 0.022113 -0.006663 0.005074 -0.004473 -0.003856
# 3 -0.000152 -0.006663 0.018467 0.013953 -0.008122 -0.002417
# 4 0.004129 0.005074 0.013953 0.070393 -0.029049 -0.005303
# 5 -0.002276 -0.004473 -0.008122 -0.029049 0.044939 0.003482
# 6 -0.002457 -0.003856 -0.002417 -0.005303 0.003482 0.024121
#
#
# Mechanical properties :
#
#
# Convention : Reuss Voigt Hill
#
# Bulk Modulus (GPa) = 35.20371 59.27948 47.24160
# Shear Modulus (GPa) = 22.79129 33.07489 27.93309
#
# Velocity S-wave (km/s) = 3.19112 3.84422 3.53280
# Velocity P-wave (km/s) = 5.41358 6.79635 6.14399
#
# Compressibility (1/GPa) = 0.02840610
#
# Stress axis : x y z
#
# Youngs Moduli (GPa) = 112.94964 45.22284 54.14981
#
# Poissons Ratio (x) = 0.16729 0.00823
# Poissons Ratio (y) = 0.41782 0.36078
# Poissons Ratio (z) = 0.01717 0.30130
#
# Static dielectric constant tensor:
#      x y z
#    x 4.029840 0.099430 0.090840 
#    y 0.099430 3.880200 -0.056510 
#    z 0.090840 -0.056510 4.000610 
# 
# 
# High freq. dielectric constant tensor:
#      x y z
#    x 1.893840 0.010160 0.003180 
#    y 0.010160 1.875030 -0.002960 
#    z 0.003180 -0.002960 1.885300 
# 
# From -- ./inp_files/397617.got.cif
#   From: 2010.06.25/outbox.cif.g09.slc.cpg/sg2_199_cif.got.tgz:397617.got - 2010.06.27 13:26:56.
