data_PCOD8028851
_publ_section_title
;
Structure prediction by ZEFSAII (Michael W. Deem and Ramdas Pophale) SiO2 
 PCOD8028851
Probable space group: P -1
;
_chemical_formula_sum "Si O2"
_cell_formula_units_Z 16
_cell_length_a 11.633617
_cell_length_b 12.143504
_cell_length_c 14.269187
_cell_angle_alpha 147.867657
_cell_angle_beta 61.855598
_cell_angle_gamma 123.839694
_cell_volume 890.554060
_symmetry_space_group_name_H-M "P -1"
_symmetry_group_IT_number 2
_symmetry_cell_setting 'triclinic'
loop_
_space_group_symop_operation_xyz
x,y,z
-x,-y,-z
loop_
_atom_site_type_symbol
_atom_site_label
_atom_site_fract_x
_atom_site_fract_y
_atom_site_fract_z
Si Si1 0.771344 0.184683 0.803211
Si Si2 0.908987 0.040309 0.194961
Si Si3 0.603736 0.896401 0.503071
Si Si4 0.775718 0.589140 0.195953
Si Si5 0.078431 0.357579 0.207840
Si Si6 0.700231 0.191331 0.498336
Si Si7 0.016580 0.965164 0.287787
Si Si8 0.013437 0.366994 0.699399
O O1 0.891084 0.330120 0.793730
O O2 0.646904 0.013708 0.671048
O O3 0.834948 0.052127 0.755977
O O4 0.711741 0.348251 0.001188
O O5 0.772792 0.063254 0.310896
O O6 0.982150 0.252572 0.257056
O O7 0.018386 0.030106 0.225354
O O8 0.864186 0.819434 0.990911
O O9 0.652425 0.685987 0.324457
O O10 0.438825 0.808799 0.498505
O O11 0.671437 0.070617 0.521720
O O12 0.839743 0.569978 0.259255
O O13 0.895305 0.735886 0.187011
O O14 0.207424 0.558126 0.339011
O O15 0.983390 0.436374 0.229366
O O16 0.981889 0.141564 0.493044
#
# Coordination Sequence:
#
# PCOD8028851 Si02
#       8
#     2   2   2   2   2   2   2   2
#     4  11  19  32  54  79 112 141 173 225 276 317
#     4  11  22  37  58  82 109 142 182 226 269 317
#     4  11  22  36  52  83 111 152 176 217 264 330
#     4  11  19  32  54  79 112 141 173 225 276 317
#     4  11  22  37  58  82 109 142 182 226 269 317
#     4  11  23  37  55  76 118 145 184 215 265 324
#     4  11  18  32  55  81 110 137 178 228 275 317
#     4  11  18  32  55  81 110 137 178 228 275 317
#
# _framework density 17.966343999999999
#
# number of rings (size 3 to 8) (size 9 to 14) (size 15 to 20)
#    0.000    1.000    6.250    4.125    0.000    1.000 
#    0.000    2.500    0.000    3.000    0.000    5.250 
#    0.000    0.000    0.000    0.000    0.000    0.000 
#
# Total GULP energy -198458.779021 kJ/mol
# GULP energy per Si atom -12403.673689 kJ/mol
# Density = 1.792545 g / cm^3
# Si number density = 17.966344 Si / 1000 Ang^3
#
#
#
# Elastic Constant Matrix: (Units=GPa)
#
#
# Indices 1 2 3 4 5 6 
#
# 1 129.9037 25.8595 31.8256 8.0923 -9.4321 -8.2053
# 2 25.8595 43.3921 2.8855 10.9492 -8.6966 -16.1865
# 3 31.8256 2.8855 106.6074 3.3838 -8.6241 7.1541
# 4 8.0923 10.9492 3.3838 18.9849 -6.2684 -1.4630
# 5 -9.4321 -8.6966 -8.6241 -6.2684 17.2594 0.8257
# 6 -8.2053 -16.1865 7.1541 -1.4630 0.8257 26.3074
#
#
#
# Elastic Compliance Matrix: (Units=1/GPa)
#
#
# Indices 1 2 3 4 5 6 
#
# 1 0.009466 -0.004935 -0.002621 -0.000263 0.001254 0.000575
# 2 -0.004935 0.040391 0.000296 -0.015928 0.010966 0.022002
# 3 -0.002621 0.000296 0.010746 0.000176 0.004326 -0.003684
# 4 -0.000263 -0.015928 0.000176 0.066880 0.016530 -0.006730
# 5 0.001254 0.010966 0.004326 0.016530 0.072094 0.004618
# 6 0.000575 0.022002 -0.003684 -0.006730 0.004618 0.052212
#
#
# Mechanical properties :
#
#
# Convention : Reuss Voigt Hill
#
# Bulk Modulus (GPa) = 21.69955 44.56049 33.13002
# Shear Modulus (GPa) = 17.75120 27.13252 22.44186
#
# Velocity S-wave (km/s) = 3.14670 3.89033 3.53810
# Velocity P-wave (km/s) = 5.03054 6.71085 5.93051
#
# Compressibility (1/GPa) = 0.04608390
#
# Stress axis : x y z
#
# Youngs Moduli (GPa) = 105.63762 24.75784 93.05505
#
# Poissons Ratio (x) = 0.12218 0.24392
# Poissons Ratio (y) = 0.52131 -0.02755
# Poissons Ratio (z) = 0.27690 -0.00733
#
# Static dielectric constant tensor:
#      x y z
#    x 3.494280 -0.309380 -0.033770 
#    y -0.309380 3.034310 -0.060090 
#    z -0.033770 -0.060090 3.473010 
# 
# 
# High freq. dielectric constant tensor:
#      x y z
#    x 1.696250 -0.027750 -0.003890 
#    y -0.027750 1.653990 -0.006730 
#    z -0.003890 -0.006730 1.717480 
# 
# From -- ./inp_files/431194.got.cif
#   From: 2010.06.25/outbox.cif.g09.slc.cpg/sg2_216_cif.got.tgz:431194.got - 2010.06.27 13:26:56.
