data_PCOD8028970
_publ_section_title
;
Structure prediction by ZEFSAII (Michael W. Deem and Ramdas Pophale) SiO2 
 PCOD8028970
Probable space group: P -1
;
_chemical_formula_sum "Si O2"
_cell_formula_units_Z 16
_cell_length_a 15.479962
_cell_length_b 15.727257
_cell_length_c 9.130753
_cell_angle_alpha 38.052464
_cell_angle_beta 134.825037
_cell_angle_gamma 145.233519
_cell_volume 770.588813
_symmetry_space_group_name_H-M "P -1"
_symmetry_group_IT_number 2
_symmetry_cell_setting 'triclinic'
loop_
_space_group_symop_operation_xyz
x,y,z
-x,-y,-z
loop_
_atom_site_type_symbol
_atom_site_label
_atom_site_fract_x
_atom_site_fract_y
_atom_site_fract_z
Si Si1 0.218412 0.452425 0.018693
Si Si2 0.356093 0.270455 0.470136
Si Si3 0.345986 0.954869 0.807497
Si Si4 0.947570 0.388951 0.944466
Si Si5 0.782514 0.441867 0.442477
Si Si6 0.531991 0.034586 0.660491
Si Si7 0.568314 0.756000 0.091097
Si Si8 0.606414 0.562350 0.183969
O O1 0.231859 0.295954 0.228107
O O2 0.382351 0.623003 0.039641
O O3 0.168835 0.494223 0.752614
O O4 0.084598 0.381932 0.072334
O O5 0.364548 0.280976 0.641441
O O6 0.523306 0.427985 0.399870
O O7 0.316360 0.095925 0.593765
O O8 0.369382 0.936216 0.687886
O O9 0.207097 0.792565 0.947947
O O10 0.500000 0.000000 0.000000
O O11 0.919162 0.470596 0.661650
O O12 0.000000 0.500000 0.000000
O O13 0.635778 0.238519 0.546185
O O14 0.751399 0.569501 0.306426
O O15 0.500000 0.000000 0.500000
O O16 0.617891 0.949237 0.916171
O O17 0.642759 0.740898 0.051330
O O18 0.500000 0.500000 0.000000
#
# Coordination Sequence:
#
# PCOD8028970 Si02
#       8
#     2   2   2   2   2   2   2   2
#     4  11  24  41  61  94 136 174 210 265 339 393
#     4  11  22  38  67  96 130 169 221 274 327 387
#     4  12  23  44  69  97 128 172 222 278 326 381
#     4  12  28  43  65  95 133 177 224 269 326 397
#     4  12  23  42  67  95 136 177 216 272 330 392
#     4  12  22  38  68  98 131 164 222 274 325 385
#     4  11  22  36  65 101 130 168 220 277 325 385
#     4  11  19  36  61  99 131 163 215 274 329 381
#
# _framework density 20.763342000000002
#
# number of rings (size 3 to 8) (size 9 to 14) (size 15 to 20)
#    0.000    0.500    7.500    2.625    3.500    0.500 
#    0.000    0.000    0.000    0.750    0.000    0.000 
#    0.000    0.000    0.000    0.000    0.000    0.000 
#
# Total GULP energy -198287.653257 kJ/mol
# GULP energy per Si atom -12392.978329 kJ/mol
# Density = 2.071608 g / cm^3
# Si number density = 20.763342 Si / 1000 Ang^3
#
#
#
# Elastic Constant Matrix: (Units=GPa)
#
#
# Indices 1 2 3 4 5 6 
#
# 1 147.1482 40.0820 40.4355 -11.6525 4.0463 -11.6861
# 2 40.0820 52.8751 31.0522 -1.1997 8.9611 -9.9609
# 3 40.4355 31.0522 122.6385 1.8783 0.9997 -12.0700
# 4 -11.6525 -1.1997 1.8783 32.0888 -12.9114 0.1128
# 5 4.0463 8.9611 0.9997 -12.9114 41.1262 1.1886
# 6 -11.6861 -9.9609 -12.0700 0.1128 1.1886 36.5495
#
#
#
# Elastic Compliance Matrix: (Units=1/GPa)
#
#
# Indices 1 2 3 4 5 6 
#
# 1 0.009197 -0.006168 -0.001474 0.003864 0.001668 0.000707
# 2 -0.006168 0.028142 -0.004546 -0.003625 -0.006680 0.004424
# 3 -0.001474 -0.004546 0.009958 -0.001090 0.000506 0.001565
# 4 0.003864 -0.003625 -0.001090 0.037405 0.012197 -0.000625
# 5 0.001668 -0.006680 0.000506 0.012197 0.029485 -0.002117
# 6 0.000707 0.004424 0.001565 -0.000625 -0.002117 0.029380
#
#
# Mechanical properties :
#
#
# Convention : Reuss Voigt Hill
#
# Bulk Modulus (GPa) = 43.63039 60.64459 52.13749
# Shear Modulus (GPa) = 28.47651 36.02572 32.25111
#
# Velocity S-wave (km/s) = 3.70737 4.16993 3.94543
# Velocity P-wave (km/s) = 6.27574 7.24261 6.77644
#
# Compressibility (1/GPa) = 0.02291980
#
# Stress axis : x y z
#
# Youngs Moduli (GPa) = 108.72725 35.53447 100.42435
#
# Poissons Ratio (x) = 0.21919 0.14801
# Poissons Ratio (y) = 0.67066 0.45656
# Poissons Ratio (z) = 0.16025 0.16155
#
# Static dielectric constant tensor:
#      x y z
#    x 4.415840 -0.665990 0.158520 
#    y -0.665990 3.955640 -0.417850 
#    z 0.158520 -0.417850 4.429450 
# 
# 
# High freq. dielectric constant tensor:
#      x y z
#    x 1.825880 -0.033710 -0.002630 
#    y -0.033710 1.769820 0.000080 
#    z -0.002630 0.000080 1.833580 
# 
# From -- ./inp_files/283104.got.cif
#   From: 2010.06.25/outbox.cif.g09.slc.cpg/sg2_142_cif.got.tgz:283104.got - 2010.06.27 13:26:56.
