data_PCOD8028139
_publ_section_title
;
Structure prediction by ZEFSAII (Michael W. Deem and Ramdas Pophale) SiO2 
 PCOD8028139
Probable space group: P -1
;
_chemical_formula_sum "Si O2"
_cell_formula_units_Z 12
_cell_length_a 23.990364
_cell_length_b 30.082351
_cell_length_c 5.022167
_cell_angle_alpha 123.787408
_cell_angle_beta 124.574505
_cell_angle_gamma 9.737152
_cell_volume 504.600489
_symmetry_space_group_name_H-M "P -1"
_symmetry_group_IT_number 2
_symmetry_cell_setting 'triclinic'
loop_
_space_group_symop_operation_xyz
x,y,z
-x,-y,-z
loop_
_atom_site_type_symbol
_atom_site_label
_atom_site_fract_x
_atom_site_fract_y
_atom_site_fract_z
Si Si1 0.715267 0.971132 0.085397
Si Si2 0.720743 0.675473 0.419190
Si Si3 0.178435 0.518419 0.792954
Si Si4 0.736370 0.397955 0.326366
Si Si5 0.487542 0.697806 0.513965
Si Si6 0.789433 0.257538 0.665064
O O1 0.011753 0.781306 0.349016
O O2 0.449563 0.170005 0.263320
O O3 0.840393 0.814088 0.839743
O O4 0.553347 0.120638 0.876701
O O5 0.901549 0.479830 0.327984
O O6 0.000000 0.500000 0.500000
O O7 0.371189 0.368528 0.533491
O O8 0.424232 0.355892 0.124953
O O9 0.663515 0.504395 0.285026
O O10 0.369027 0.666815 0.333758
O O11 0.906517 0.217334 0.028711
O O12 0.087691 0.004799 0.448176
O O13 0.500000 0.500000 0.500000
#
# Coordination Sequence:
#
# PCOD8028139 Si02
#       6
#     2   2   2   2   2   2
#     4  11  25  47  73 100 142 181 231 282 343 419
#     4  12  27  46  76 107 138 176 224 289 353 419
#     4  11  26  44  72 103 135 187 227 279 346 408
#     4  10  25  44  65  98 136 189 231 281 342 393
#     4  11  25  44  67  97 140 182 233 279 331 405
#     4  11  26  39  66 100 139 183 234 286 334 392
#
# _framework density 23.781189000000001
#
# number of rings (size 3 to 8) (size 9 to 14) (size 15 to 20)
#    0.000    1.000    0.000    5.000   16.333    2.000 
#    0.000    0.000    0.000    0.000    0.000    0.000 
#    0.000    0.000    0.000    0.000    0.000    0.000 
#
# Total GULP energy -148849.722305 kJ/mol
# GULP energy per Si atom -12404.143525 kJ/mol
# Density = 2.372706 g / cm^3
# Si number density = 23.781189 Si / 1000 Ang^3
#
#
#
# Elastic Constant Matrix: (Units=GPa)
#
#
# Indices 1 2 3 4 5 6 
#
# 1 139.5435 29.6899 34.7141 6.5873 12.9230 7.7202
# 2 29.6899 80.3362 34.8997 13.4188 9.9294 3.9985
# 3 34.7141 34.8997 67.6066 7.2815 3.1795 9.8674
# 4 6.5873 13.4188 7.2815 35.3586 -1.3713 -9.8316
# 5 12.9230 9.9294 3.1795 -1.3713 47.1334 -3.9240
# 6 7.7202 3.9985 9.8674 -9.8316 -3.9240 36.6942
#
#
#
# Elastic Compliance Matrix: (Units=1/GPa)
#
#
# Indices 1 2 3 4 5 6 
#
# 1 0.008565 -0.001247 -0.003399 -0.000829 -0.001979 -0.001186
# 2 -0.001247 0.017507 -0.007463 -0.005389 -0.003117 -0.001416
# 3 -0.003399 -0.007463 0.021288 -0.002208 0.000611 -0.004722
# 4 -0.000829 -0.005389 -0.002208 0.034086 0.003407 0.010852
# 5 -0.001979 -0.003117 0.000611 0.003407 0.022802 0.003943
# 6 -0.001186 -0.001416 -0.004722 0.010852 0.003943 0.032255
#
#
# Mechanical properties :
#
#
# Convention : Reuss Voigt Hill
#
# Bulk Modulus (GPa) = 43.21254 54.01043 48.61148
# Shear Modulus (GPa) = 29.68522 36.38276 33.03399
#
# Velocity S-wave (km/s) = 3.53691 3.91563 3.73108
# Velocity P-wave (km/s) = 5.90678 6.57295 6.24874
#
# Compressibility (1/GPa) = 0.02314143
#
# Stress axis : x y z
#
# Youngs Moduli (GPa) = 116.75327 57.12117 46.97555
#
# Poissons Ratio (x) = 0.07121 0.15966
# Poissons Ratio (y) = 0.14556 0.35060
# Poissons Ratio (z) = 0.39683 0.42632
#
# Static dielectric constant tensor:
#      x y z
#    x 4.626640 0.076470 -0.115120 
#    y 0.076470 4.346530 0.239030 
#    z -0.115120 0.239030 4.417770 
# 
# 
# High freq. dielectric constant tensor:
#      x y z
#    x 1.954740 0.009490 -0.007610 
#    y 0.009490 1.939700 0.012840 
#    z -0.007610 0.012840 1.937300 
# 
# From -- ./inp_files/32680.got.cif
#   From: 2010.06.25/outbox.cif.g09.slc.cpg/sg2_17_cif.got.tgz:32680.got - 2010.06.27 13:26:56.
