data_PCOD8028563
_publ_section_title
;
Structure prediction by ZEFSAII (Michael W. Deem and Ramdas Pophale) SiO2 
 PCOD8028563
Probable space group: P -1
;
_chemical_formula_sum "Si O2"
_cell_formula_units_Z 12
_cell_length_a 4.764438
_cell_length_b 13.532737
_cell_length_c 8.933638
_cell_angle_alpha 62.716171
_cell_angle_beta 64.333325
_cell_angle_gamma 66.644988
_cell_volume 447.110751
_symmetry_space_group_name_H-M "P -1"
_symmetry_group_IT_number 2
_symmetry_cell_setting 'triclinic'
loop_
_space_group_symop_operation_xyz
x,y,z
-x,-y,-z
loop_
_atom_site_type_symbol
_atom_site_label
_atom_site_fract_x
_atom_site_fract_y
_atom_site_fract_z
Si Si1 0.770534 0.292453 0.240895
Si Si2 0.498782 0.902767 0.446724
Si Si3 0.177860 0.173180 0.987819
Si Si4 0.240738 0.513841 0.679762
Si Si5 0.290015 0.607160 0.117896
Si Si6 0.154062 0.926014 0.209330
O O1 0.526787 0.213510 0.385405
O O2 0.835908 0.356060 0.331737
O O3 0.103954 0.211837 0.152773
O O4 0.615326 0.390277 0.083118
O O5 0.219020 0.940936 0.361491
O O6 0.837603 0.878504 0.295865
O O7 0.500000 0.000000 0.500000
O O8 0.096060 0.051221 0.058640
O O9 0.550132 0.164680 0.873324
O O10 0.941098 0.268061 0.873009
O O11 0.500000 0.500000 0.500000
O O12 0.385696 0.419771 0.840793
O O13 0.906129 0.487910 0.725829
#
# Coordination Sequence:
#
# PCOD8028563 Si02
#       6
#     2   2   2   2   2   2
#     4  10  25  47  76 110 143 200 239 303 365 433
#     4  12  25  45  71 108 150 189 240 299 359 428
#     4   9  24  47  74 106 143 200 240 293 365 434
#     4  12  26  48  74 110 144 185 248 311 367 427
#     4  10  25  48  73 104 144 192 243 299 365 435
#     4  11  25  47  70 109 149 192 241 295 355 440
#
# _framework density 26.838988000000001
#
# number of rings (size 3 to 8) (size 9 to 14) (size 15 to 20)
#    1.000    0.333    1.667    2.000    2.333    9.333 
#    0.000    0.000    0.000    0.000    0.000    0.000 
#    0.000    0.000    0.000    0.000    0.000    0.000 
#
# Total GULP energy -148827.892835 kJ/mol
# GULP energy per Si atom -12402.324403 kJ/mol
# Density = 2.677790 g / cm^3
# Si number density = 26.838988 Si / 1000 Ang^3
#
#
#
# Elastic Constant Matrix: (Units=GPa)
#
#
# Indices 1 2 3 4 5 6 
#
# 1 62.3938 6.3775 -5.8302 -15.5573 -8.0316 4.4326
# 2 6.3775 117.4756 26.0507 7.4687 -8.0556 3.4462
# 3 -5.8302 26.0507 111.0999 -11.1256 -26.6843 11.6412
# 4 -15.5573 7.4687 -11.1256 47.7885 0.5473 -10.1478
# 5 -8.0316 -8.0556 -26.6843 0.5473 36.9544 2.8392
# 6 4.4326 3.4462 11.6412 -10.1478 2.8392 23.7950
#
#
#
# Elastic Compliance Matrix: (Units=1/GPa)
#
#
# Indices 1 2 3 4 5 6 
#
# 1 0.019431 -0.001832 0.004153 0.006794 0.006977 -0.003322
# 2 -0.001832 0.009371 -0.002479 -0.002854 -0.000025 -0.001017
# 3 0.004153 -0.002479 0.013359 0.003286 0.010483 -0.006800
# 4 0.006794 -0.002854 0.003286 0.026109 0.002194 0.008413
# 5 0.006977 -0.000025 0.010483 0.002194 0.036868 -0.009888
# 6 -0.003322 -0.001017 -0.006800 0.008413 -0.009888 0.050886
#
#
# Mechanical properties :
#
#
# Convention : Reuss Voigt Hill
#
# Bulk Modulus (GPa) = 23.89655 38.24057 31.06856
# Shear Modulus (GPa) = 29.36197 39.33236 34.34716
#
# Velocity S-wave (km/s) = 3.31116 3.83233 3.58124
# Velocity P-wave (km/s) = 4.85195 5.81906 5.35737
#
# Compressibility (1/GPa) = 0.04184704
#
# Stress axis : x y z
#
# Youngs Moduli (GPa) = 51.46510 106.71147 74.85370
#
# Poissons Ratio (x) = 0.19548 -0.31090
# Poissons Ratio (y) = 0.09428 0.18553
# Poissons Ratio (z) = -0.21376 0.26449
#
# Static dielectric constant tensor:
#      x y z
#    x 4.536360 -0.083930 -0.145560 
#    y -0.083930 4.721340 0.059880 
#    z -0.145560 0.059880 4.929690 
# 
# 
# High freq. dielectric constant tensor:
#      x y z
#    x 2.063970 -0.001210 -0.012070 
#    y -0.001210 2.090970 0.007590 
#    z -0.012070 0.007590 2.083460 
# 
# From -- ./inp_files/130126.got.cif
#   From: 2010.06.25/outbox.cif.g09.slc.cpg/sg2_66_cif.got.tgz:130126.got - 2010.06.27 13:26:56.
