data_PCOD8028415
_publ_section_title
;
Structure prediction by ZEFSAII (Michael W. Deem and Ramdas Pophale) SiO2 
 PCOD8028415
Probable space group: P -1
;
_chemical_formula_sum "Si O2"
_cell_formula_units_Z 16
_cell_length_a 8.939356
_cell_length_b 4.848685
_cell_length_c 14.620759
_cell_angle_alpha 102.048702
_cell_angle_beta 111.602419
_cell_angle_gamma 87.291283
_cell_volume 575.926489
_symmetry_space_group_name_H-M "P -1"
_symmetry_group_IT_number 2
_symmetry_cell_setting 'triclinic'
loop_
_space_group_symop_operation_xyz
x,y,z
-x,-y,-z
loop_
_atom_site_type_symbol
_atom_site_label
_atom_site_fract_x
_atom_site_fract_y
_atom_site_fract_z
Si Si1 0.364202 0.983621 0.852045
Si Si2 0.944051 0.508399 0.806661
Si Si3 0.799340 0.131092 0.608535
Si Si4 0.729085 0.466307 0.443460
Si Si5 0.070346 0.781488 0.672152
Si Si6 0.378204 0.453634 0.168112
Si Si7 0.518163 0.925596 0.366934
Si Si8 0.283394 0.544398 0.953000
O O1 0.223926 0.992414 0.743713
O O2 0.518453 0.827801 0.835228
O O3 0.310005 0.834256 0.924306
O O4 0.394341 0.310685 0.911439
O O5 0.882643 0.213201 0.729823
O O6 0.788769 0.648226 0.827747
O O7 0.007806 0.690377 0.749599
O O8 0.092505 0.456041 0.904678
O O9 0.795811 0.393193 0.554662
O O10 0.622185 0.021902 0.588877
O O11 0.924094 0.899656 0.585445
O O12 0.863417 0.463602 0.394478
O O13 0.661868 0.783016 0.448351
O O14 0.583840 0.234246 0.370847
O O15 0.475411 0.710416 0.259587
O O16 0.334187 0.589321 0.071251
#
# Coordination Sequence:
#
# PCOD8028415 Si02
#       8
#     2   2   2   2   2   2   2   2
#     4  11  24  44  69 102 144 176 233 284 337 413
#     4  10  25  46  69 104 145 179 231 288 343 417
#     4  11  25  45  72 101 141 184 229 287 352 407
#     4  12  27  47  73 102 138 186 234 287 341 414
#     4  11  25  44  69 101 142 184 230 284 345 410
#     4  11  24  46  74 103 139 188 227 285 352 406
#     4  11  28  45  72 104 141 177 237 289 340 413
#     4  11  24  47  70 106 138 183 228 285 343 418
#
# _framework density 27.781324000000001
#
# number of rings (size 3 to 8) (size 9 to 14) (size 15 to 20)
#    0.000    1.000    2.500    2.250    8.750    1.500 
#    4.500    1.875    0.000    0.000    0.000    0.000 
#    0.000    0.000    0.000    0.000    0.000    0.000 
#
# Total GULP energy -198380.654628 kJ/mol
# GULP energy per Si atom -12398.790914 kJ/mol
# Density = 2.771809 g / cm^3
# Si number density = 27.781324 Si / 1000 Ang^3
#
#
#
# Elastic Constant Matrix: (Units=GPa)
#
#
# Indices 1 2 3 4 5 6 
#
# 1 148.5850 -7.1973 33.5450 0.1552 2.1888 -29.5423
# 2 -7.1973 50.6300 -7.8299 12.4598 5.6403 -10.7430
# 3 33.5450 -7.8299 128.9998 -4.5605 7.5019 -22.0140
# 4 0.1552 12.4598 -4.5605 30.1196 -14.3753 -1.6044
# 5 2.1888 5.6403 7.5019 -14.3753 33.8547 -1.6019
# 6 -29.5423 -10.7430 -22.0140 -1.6044 -1.6019 37.1325
#
#
#
# Elastic Compliance Matrix: (Units=1/GPa)
#
#
# Indices 1 2 3 4 5 6 
#
# 1 0.008487 0.003143 -0.000797 -0.001701 -0.001284 0.007060
# 2 0.003143 0.028444 0.002946 -0.016497 -0.012068 0.011243
# 3 -0.000797 0.002946 0.009203 -0.000733 -0.002528 0.005534
# 4 -0.001701 -0.016497 -0.000733 0.051568 0.024763 -0.003265
# 5 -0.001284 -0.012068 -0.002528 0.024763 0.042560 -0.003106
# 6 0.007060 0.011243 0.005534 -0.003265 -0.003106 0.038806
#
#
# Mechanical properties :
#
#
# Convention : Reuss Voigt Hill
#
# Bulk Modulus (GPa) = 17.63083 40.58336 29.10710
# Shear Modulus (GPa) = 26.68250 40.86784 33.77517
#
# Velocity S-wave (km/s) = 3.10247 3.83959 3.49054
# Velocity P-wave (km/s) = 4.38108 5.85632 5.17157
#
# Compressibility (1/GPa) = 0.05671883
#
# Stress axis : x y z
#
# Youngs Moduli (GPa) = 117.83202 35.15736 108.65446
#
# Poissons Ratio (x) = -0.11050 0.08657
# Poissons Ratio (y) = -0.37034 -0.32014
# Poissons Ratio (z) = 0.09389 -0.10359
#
# Static dielectric constant tensor:
#      x y z
#    x 5.697920 -0.245500 0.522330 
#    y -0.245500 4.646630 0.016170 
#    z 0.522330 0.016170 5.566850 
# 
# 
# High freq. dielectric constant tensor:
#      x y z
#    x 2.145150 -0.006470 0.015110 
#    y -0.006470 2.103200 0.008340 
#    z 0.015110 0.008340 2.149340 
# 
# From -- ./inp_files/488334.got.cif
#   From: 2010.06.25/outbox.cif.g09.slc.cpg/sg2_245_cif.got.tgz:488334.got - 2010.06.27 13:26:56.
