data_PCOD8028295
_publ_section_title
;
Structure prediction by ZEFSAII (Michael W. Deem and Ramdas Pophale) SiO2 
 PCOD8028295
Probable space group: P -1
;
_chemical_formula_sum "Si O2"
_cell_formula_units_Z 16
_cell_length_a 8.456209
_cell_length_b 8.911123
_cell_length_c 14.637896
_cell_angle_alpha 72.648436
_cell_angle_beta 141.219001
_cell_angle_gamma 105.130592
_cell_volume 658.685507
_symmetry_space_group_name_H-M "P -1"
_symmetry_group_IT_number 2
_symmetry_cell_setting 'triclinic'
loop_
_space_group_symop_operation_xyz
x,y,z
-x,-y,-z
loop_
_atom_site_type_symbol
_atom_site_label
_atom_site_fract_x
_atom_site_fract_y
_atom_site_fract_z
Si Si1 0.808164 0.868767 0.394496
Si Si2 0.511706 0.935810 0.915973
Si Si3 0.184649 0.725112 0.454015
Si Si4 0.708942 0.828824 0.746651
Si Si5 0.879635 0.324313 0.168501
Si Si6 0.118761 0.395482 0.996381
Si Si7 0.069217 0.841455 0.180862
Si Si8 0.279072 0.418532 0.475467
O O1 0.667695 0.754210 0.427742
O O2 0.974043 0.762323 0.424805
O O3 0.586978 0.941562 0.223987
O O4 0.000000 0.000000 0.500000
O O5 0.340042 0.777027 0.863334
O O6 0.793380 0.900718 0.024054
O O7 0.500000 0.000000 0.000000
O O8 0.450188 0.820097 0.575244
O O9 0.225765 0.538789 0.511712
O O10 0.089513 0.767107 0.303021
O O11 0.947717 0.782624 0.800088
O O12 0.683492 0.715470 0.844809
O O13 0.738916 0.006539 0.766379
O O14 0.038975 0.400701 0.307247
O O15 0.750282 0.471060 0.034147
O O16 0.900584 0.291198 0.860691
O O17 0.000000 0.500000 0.000000
O O18 0.500000 0.500000 0.500000
#
# Coordination Sequence:
#
# PCOD8028295 Si02
#       8
#     2   2   2   2   2   2   2   2
#     4  12  28  50  76 112 156 201 259 315 382 459
#     4  12  25  47  75 104 150 203 252 318 378 454
#     4  12  26  48  75 114 151 201 251 320 388 456
#     4  11  24  43  73 111 153 191 260 315 379 455
#     4  11  22  47  70 105 151 199 251 310 384 452
#     4  10  25  45  69 105 150 195 249 315 376 457
#     4  12  25  46  74 110 149 205 254 312 391 458
#     4  12  26  48  78 113 155 200 250 315 390 455
#
# _framework density 24.290804000000001
#
# number of rings (size 3 to 8) (size 9 to 14) (size 15 to 20)
#    0.000    0.500    6.250    1.125    1.750    3.500 
#    2.250    0.000    0.000    0.000    0.000    0.000 
#    0.000    0.000    0.000    0.000    0.000    0.000 
#
# Total GULP energy -198356.478406 kJ/mol
# GULP energy per Si atom -12397.279900 kJ/mol
# Density = 2.423552 g / cm^3
# Si number density = 24.290804 Si / 1000 Ang^3
#
#
#
# Elastic Constant Matrix: (Units=GPa)
#
#
# Indices 1 2 3 4 5 6 
#
# 1 51.4013 56.6475 36.5228 4.4716 -21.7039 2.7581
# 2 56.6475 177.9717 53.8256 3.6741 -10.2638 8.6210
# 3 36.5228 53.8256 130.5172 -0.6874 -12.4433 8.2051
# 4 4.4716 3.6741 -0.6874 52.5417 4.1978 -15.2166
# 5 -21.7039 -10.2638 -12.4433 4.1978 32.6554 0.1557
# 6 2.7581 8.6210 8.2051 -15.2166 0.1557 42.5705
#
#
#
# Elastic Compliance Matrix: (Units=1/GPa)
#
#
# Indices 1 2 3 4 5 6 
#
# 1 0.049308 -0.012039 -0.006130 -0.006173 0.027455 -0.001882
# 2 -0.012039 0.009462 -0.001008 0.000581 -0.005483 -0.000714
# 3 -0.006130 -0.001008 0.009798 0.000452 -0.000710 -0.001123
# 4 -0.006173 0.000581 0.000452 0.022443 -0.006673 0.008242
# 5 0.027455 -0.005483 -0.000710 -0.006673 0.047749 -0.003091
# 6 -0.001882 -0.000714 -0.001123 0.008242 -0.003091 0.026931
#
#
# Mechanical properties :
#
#
# Convention : Reuss Voigt Hill
#
# Bulk Modulus (GPa) = 33.09601 72.65357 52.87479
# Shear Modulus (GPa) = 23.35176 39.74649 31.54913
#
# Velocity S-wave (km/s) = 3.10391 4.04948 3.60781
# Velocity P-wave (km/s) = 5.14783 7.19995 6.25857
#
# Compressibility (1/GPa) = 0.03021513
#
# Stress axis : x y z
#
# Youngs Moduli (GPa) = 20.28052 105.68556 102.05956
#
# Poissons Ratio (x) = 1.27232 0.62562
# Poissons Ratio (y) = 0.24415 0.10289
# Poissons Ratio (z) = 0.12432 0.10654
#
# Static dielectric constant tensor:
#      x y z
#    x 36.210360 -7.424700 -6.313550 
#    y -7.424700 6.474640 1.079440 
#    z -6.313550 1.079440 5.790920 
# 
# 
# High freq. dielectric constant tensor:
#      x y z
#    x 1.950070 -0.008520 -0.019280 
#    y -0.008520 1.990120 -0.000300 
#    z -0.019280 -0.000300 1.976720 
# 
# From -- ./inp_files/494779.got.cif
#   From: 2010.06.25/outbox.cif.g09.slc.cpg/sg2_248_cif.got.tgz:494779.got - 2010.06.27 13:26:56.
