data_PCOD8028299
_publ_section_title
;
Structure prediction by ZEFSAII (Michael W. Deem and Ramdas Pophale) SiO2 
 PCOD8028299
Probable space group: P -1
;
_chemical_formula_sum "Si O2"
_cell_formula_units_Z 16
_cell_length_a 9.677312
_cell_length_b 14.352387
_cell_length_c 19.945382
_cell_angle_alpha 157.880180
_cell_angle_beta 47.681130
_cell_angle_gamma 136.440644
_cell_volume 718.805882
_symmetry_space_group_name_H-M "P -1"
_symmetry_group_IT_number 2
_symmetry_cell_setting 'triclinic'
loop_
_space_group_symop_operation_xyz
x,y,z
-x,-y,-z
loop_
_atom_site_type_symbol
_atom_site_label
_atom_site_fract_x
_atom_site_fract_y
_atom_site_fract_z
Si Si1 0.528873 0.226856 0.808940
Si Si2 0.696104 0.992189 0.130704
Si Si3 0.391176 0.200383 0.312104
Si Si4 0.225410 0.906600 0.599577
Si Si5 0.863705 0.689186 0.783590
Si Si6 0.001656 0.964900 0.585729
Si Si7 0.003355 0.618463 0.235463
Si Si8 0.126547 0.006343 0.148361
O O1 0.397675 0.046726 0.791037
O O2 0.757522 0.266836 0.771621
O O3 0.448603 0.088771 0.671461
O O4 0.500000 0.500000 0.000000
O O5 0.543343 0.046385 0.165568
O O6 0.746238 0.737167 0.919319
O O7 0.902862 0.245891 0.232742
O O8 0.500000 0.500000 0.500000
O O9 0.195063 0.051720 0.320851
O O10 0.320817 0.177029 0.242227
O O11 0.224993 0.612200 0.410422
O O12 0.180648 0.975873 0.585085
O O13 0.070771 0.955475 0.734250
O O14 0.835968 0.883539 0.865358
O O15 0.945304 0.703476 0.383252
O O16 0.078789 0.237401 0.699511
O O17 0.904224 0.304268 0.048764
#
# Coordination Sequence:
#
# PCOD8028299 Si02
#       8
#     2   2   2   2   2   2   2   2
#     4  12  24  43  69  97 134 175 227 270 327 399
#     4  11  24  44  67  99 132 179 211 280 329 390
#     4  11  25  44  69  98 133 173 224 272 331 398
#     4  11  24  41  69 100 131 178 218 277 333 392
#     4  11  25  43  68 102 138 166 224 271 341 395
#     4  10  25  45  69  96 135 177 220 280 328 394
#     4  11  24  47  68  97 135 177 226 270 333 392
#     4  11  24  43  72  95 134 179 214 277 335 392
#
# _framework density 22.259139000000001
#
# number of rings (size 3 to 8) (size 9 to 14) (size 15 to 20)
#    0.000    1.000    3.750    1.875    8.750    4.000 
#    4.500    0.000    0.000    0.000    0.000    0.000 
#    0.000    0.000    0.000    0.000    0.000    0.000 
#
# Total GULP energy -198460.544840 kJ/mol
# GULP energy per Si atom -12403.784052 kJ/mol
# Density = 2.220848 g / cm^3
# Si number density = 22.259139 Si / 1000 Ang^3
#
#
#
# Elastic Constant Matrix: (Units=GPa)
#
#
# Indices 1 2 3 4 5 6 
#
# 1 128.0132 36.9315 38.7631 7.8333 11.0763 -7.2003
# 2 36.9315 48.4863 19.2247 0.2905 -0.5099 -4.5582
# 3 38.7631 19.2247 133.8510 23.4778 10.8539 3.8947
# 4 7.8333 0.2905 23.4778 36.2427 4.7128 -0.9007
# 5 11.0763 -0.5099 10.8539 4.7128 37.7688 0.0114
# 6 -7.2003 -4.5582 3.8947 -0.9007 0.0114 29.5340
#
#
#
# Elastic Compliance Matrix: (Units=1/GPa)
#
#
# Indices 1 2 3 4 5 6 
#
# 1 0.010871 -0.007436 -0.001782 -0.000744 -0.002684 0.001716
# 2 -0.007436 0.027613 -0.002622 0.002771 0.002961 0.002878
# 3 -0.001782 -0.002622 0.009543 -0.005630 -0.001552 -0.002269
# 4 -0.000744 0.002771 -0.005630 0.031697 -0.002082 0.001956
# 5 -0.002684 0.002961 -0.001552 -0.002082 0.028010 -0.000067
# 6 0.001716 0.002878 -0.002269 0.001956 -0.000067 0.035081
#
#
# Mechanical properties :
#
#
# Convention : Reuss Voigt Hill
#
# Bulk Modulus (GPa) = 41.07401 55.57657 48.32529
# Shear Modulus (GPa) = 28.63504 35.07119 31.85312
#
# Velocity S-wave (km/s) = 3.59059 3.97367 3.78698
# Velocity P-wave (km/s) = 5.97348 6.78790 6.39367
#
# Compressibility (1/GPa) = 0.02434630
#
# Stress axis : x y z
#
# Youngs Moduli (GPa) = 91.98900 36.21445 104.78723
#
# Poissons Ratio (x) = 0.26930 0.18672
# Poissons Ratio (y) = 0.68404 0.27480
# Poissons Ratio (z) = 0.16392 0.09497
#
# Static dielectric constant tensor:
#      x y z
#    x 4.440360 -0.072040 -0.054820 
#    y -0.072040 3.780020 -0.077590 
#    z -0.054820 -0.077590 4.067240 
# 
# 
# High freq. dielectric constant tensor:
#      x y z
#    x 1.892230 -0.006020 -0.001160 
#    y -0.006020 1.862830 -0.008120 
#    z -0.001160 -0.008120 1.885570 
# 
# From -- ./inp_files/462004.got.cif
#   From: 2010.06.25/outbox.cif.g09.slc.cpg/sg2_232_cif.got.tgz:462004.got - 2010.06.27 13:26:56.
