data_PCOD8028338
_publ_section_title
;
Structure prediction by ZEFSAII (Michael W. Deem and Ramdas Pophale) SiO2 
 PCOD8028338
Probable space group: P -1
;
_chemical_formula_sum "Si O2"
_cell_formula_units_Z 14
_cell_length_a 15.313325
_cell_length_b 26.768102
_cell_length_c 14.118216
_cell_angle_alpha 19.628567
_cell_angle_beta 26.819985
_cell_angle_gamma 17.674771
_cell_volume 589.526043
_symmetry_space_group_name_H-M "P -1"
_symmetry_group_IT_number 2
_symmetry_cell_setting 'triclinic'
loop_
_space_group_symop_operation_xyz
x,y,z
-x,-y,-z
loop_
_atom_site_type_symbol
_atom_site_label
_atom_site_fract_x
_atom_site_fract_y
_atom_site_fract_z
Si Si1 0.991030 0.675123 0.156735
Si Si2 0.803966 0.084047 0.174207
Si Si3 0.734106 0.919495 0.791038
Si Si4 0.904447 0.011509 0.750477
Si Si5 0.707177 0.690940 0.599130
Si Si6 0.763035 0.594763 0.287234
Si Si7 0.764093 0.345373 0.591041
O O1 0.249847 0.504108 0.132221
O O2 0.000000 0.500000 0.500000
O O3 0.724200 0.873657 0.992013
O O4 0.042687 0.778233 0.996203
O O5 0.534163 0.165813 0.342749
O O6 0.037602 0.013956 0.147633
O O7 0.690503 0.280038 0.867108
O O8 0.946755 0.872485 0.351543
O O9 0.400153 0.142473 0.683702
O O10 0.841034 0.725208 0.965028
O O11 0.928017 0.953655 0.528202
O O12 0.564923 0.228010 0.673095
O O13 0.004309 0.596252 0.519000
O O14 0.810428 0.484034 0.340081
O O15 0.500000 0.500000 0.500000
#
# Coordination Sequence:
#
# PCOD8028338 Si02
#       7
#     2   2   2   2   2   2   2
#     4  11  25  44  73 108 146 193 240 288 355 420
#     4  10  25  45  72 103 141 182 247 288 357 429
#     4  10  25  46  67 109 143 187 243 289 348 427
#     4  11  24  48  73 102 150 192 240 293 347 429
#     4  10  25  46  67 106 144 185 236 293 350 421
#     4  11  25  41  76 101 142 188 237 293 355 419
#     4  11  24  45  74 106 136 188 236 296 363 422
#
# _framework density 23.747890000000002
#
# number of rings (size 3 to 8) (size 9 to 14) (size 15 to 20)
#    0.000    1.429    1.429    1.286   10.000    8.000 
#    0.000    5.000    0.000    0.000    0.000    1.000 
#    0.000    0.000    0.000    0.000    0.000    0.000 
#
# Total GULP energy -173462.803889 kJ/mol
# GULP energy per Si atom -12390.200278 kJ/mol
# Density = 2.369384 g / cm^3
# Si number density = 23.747890 Si / 1000 Ang^3
#
#
#
# Elastic Constant Matrix: (Units=GPa)
#
#
# Indices 1 2 3 4 5 6 
#
# 1 172.7914 54.1509 84.7120 -16.6693 -3.4330 -8.1179
# 2 54.1509 100.8676 49.4828 -12.3934 2.0478 -15.7008
# 3 84.7120 49.4828 148.5658 -8.1591 -8.3332 -3.7317
# 4 -16.6693 -12.3934 -8.1591 30.7248 2.5246 -5.3811
# 5 -3.4330 2.0478 -8.3332 2.5246 67.9622 -19.5944
# 6 -8.1179 -15.7008 -3.7317 -5.3811 -19.5944 40.6123
#
#
#
# Elastic Compliance Matrix: (Units=1/GPa)
#
#
# Indices 1 2 3 4 5 6 
#
# 1 0.008827 -0.002208 -0.004098 0.002973 0.000194 0.001022
# 2 -0.002208 0.013974 -0.002975 0.004577 0.000533 0.005552
# 3 -0.004098 -0.002975 0.010040 -0.000960 0.000942 -0.000719
# 4 0.002973 0.004577 -0.000960 0.037010 0.000685 0.007510
# 5 0.000194 0.000533 0.000942 0.000685 0.017330 0.008784
# 6 0.001022 0.005552 -0.000719 0.007510 0.008784 0.032141
#
#
# Mechanical properties :
#
#
# Convention : Reuss Voigt Hill
#
# Bulk Modulus (GPa) = 70.02492 88.76847 79.39670
# Shear Modulus (GPa) = 35.05216 43.45180 39.25198
#
# Velocity S-wave (km/s) = 3.84606 4.28215 4.06995
# Velocity P-wave (km/s) = 7.01952 7.86828 7.45599
#
# Compressibility (1/GPa) = 0.01428063
#
# Stress axis : x y z
#
# Youngs Moduli (GPa) = 113.28886 71.55920 99.59725
#
# Poissons Ratio (x) = 0.15801 0.40814
# Poissons Ratio (y) = 0.25015 0.29627
# Poissons Ratio (z) = 0.46424 0.21287
#
# Static dielectric constant tensor:
#      x y z
#    x 4.662210 0.092150 0.066360 
#    y 0.092150 4.466200 -0.514530 
#    z 0.066360 -0.514530 4.451700 
# 
# 
# High freq. dielectric constant tensor:
#      x y z
#    x 1.953180 0.004070 0.005310 
#    y 0.004070 1.946880 -0.033290 
#    z 0.005310 -0.033290 1.945190 
# 
# From -- ./inp_files/535597.got.cif
#   From: 2010.06.25/outbox.cif.g09.slc.cpg/sg2_268_cif.got.tgz:535597.got - 2010.06.27 13:26:56.
