data_PCOD8028552
_publ_section_title
;
Structure prediction by ZEFSAII (Michael W. Deem and Ramdas Pophale) SiO2 
 PCOD8028552
Probable space group: P -1
;
_chemical_formula_sum "Si O2"
_cell_formula_units_Z 16
_cell_length_a 23.673397
_cell_length_b 9.945541
_cell_length_c 9.339139
_cell_angle_alpha 135.805958
_cell_angle_beta 134.563567
_cell_angle_gamma 27.800338
_cell_volume 699.320252
_symmetry_space_group_name_H-M "P -1"
_symmetry_group_IT_number 2
_symmetry_cell_setting 'triclinic'
loop_
_space_group_symop_operation_xyz
x,y,z
-x,-y,-z
loop_
_atom_site_type_symbol
_atom_site_label
_atom_site_fract_x
_atom_site_fract_y
_atom_site_fract_z
Si Si1 0.997434 0.639119 0.923948
Si Si2 0.638280 0.794369 0.042314
Si Si3 0.535989 0.145005 0.629225
Si Si4 0.936462 0.908717 0.313822
Si Si5 0.727959 0.822812 0.961891
Si Si6 0.730278 0.217318 0.387410
Si Si7 0.790462 0.156731 0.775703
Si Si8 0.383840 0.845693 0.509396
O O1 0.995346 0.406970 0.732378
O O2 0.935668 0.849618 0.832548
O O3 0.913164 0.875172 0.086020
O O4 0.131675 0.491086 0.075218
O O5 0.672087 0.925409 0.285678
O O6 0.653807 0.799548 0.902532
O O7 0.735586 0.443502 0.981924
O O8 0.500000 0.000000 0.000000
O O9 0.413476 0.500170 0.692397
O O10 0.583638 0.066215 0.491253
O O11 0.500000 0.000000 0.500000
O O12 0.644338 0.028774 0.833204
O O13 0.808688 0.186374 0.383933
O O14 0.000000 0.000000 0.500000
O O15 0.756870 0.943131 0.212517
O O16 0.765190 0.224930 0.613515
O O17 0.722978 0.100379 0.684922
O O18 0.500000 0.500000 0.500000
#
# Coordination Sequence:
#
# PCOD8028552 Si02
#       8
#     2   2   2   2   2   2   2   2
#     4  10  27  48  68 105 142 192 234 297 363 424
#     4  12  24  44  73 106 142 189 242 291 361 432
#     4  12  26  43  73 107 141 185 242 304 364 429
#     4  10  25  47  74  98 143 187 246 294 353 437
#     4  11  25  47  71 101 148 185 242 301 357 435
#     4  11  24  47  70 104 139 192 236 297 368 418
#     4  12  26  45  72 104 149 185 241 291 361 438
#     4  12  24  47  71 106 146 185 235 301 361 426
#
# _framework density 22.879359000000001
#
# number of rings (size 3 to 8) (size 9 to 14) (size 15 to 20)
#    0.000    0.750    3.750    1.875    8.750    5.500 
#    0.000    0.000    0.000    0.000    0.000    0.000 
#    0.000    0.000    0.000    0.000    0.000    0.000 
#
# Total GULP energy -198265.860338 kJ/mol
# GULP energy per Si atom -12391.616271 kJ/mol
# Density = 2.282728 g / cm^3
# Si number density = 22.879359 Si / 1000 Ang^3
#
#
#
# Elastic Constant Matrix: (Units=GPa)
#
#
# Indices 1 2 3 4 5 6 
#
# 1 148.0992 38.0425 27.3433 -12.9660 -8.7763 -0.7787
# 2 38.0425 138.9651 56.2721 -23.7398 -9.5784 -8.3971
# 3 27.3433 56.2721 101.7174 5.4602 -1.5848 2.4002
# 4 -12.9660 -23.7398 5.4602 38.4413 2.6087 5.9453
# 5 -8.7763 -9.5784 -1.5848 2.6087 31.6350 2.2791
# 6 -0.7787 -8.3971 2.4002 5.9453 2.2791 34.2570
#
#
#
# Elastic Compliance Matrix: (Units=1/GPa)
#
#
# Indices 1 2 3 4 5 6 
#
# 1 0.007574 -0.000995 -0.001565 0.002123 0.001578 -0.000435
# 2 -0.000995 0.011657 -0.006587 0.007361 0.002181 0.001874
# 3 -0.001565 -0.006587 0.014253 -0.006317 -0.001087 -0.001480
# 4 0.002123 0.007361 -0.006317 0.032693 0.000049 -0.003382
# 5 0.001578 0.002181 -0.001087 0.000049 0.032761 -0.001541
# 6 -0.000435 0.001874 -0.001480 -0.003382 -0.001541 0.030434
#
#
# Mechanical properties :
#
#
# Convention : Reuss Voigt Hill
#
# Bulk Modulus (GPa) = 65.82863 70.23305 68.03084
# Shear Modulus (GPa) = 32.73833 38.67492 35.70663
#
# Velocity S-wave (km/s) = 3.78684 4.11589 3.95479
# Velocity P-wave (km/s) = 6.92494 7.30419 7.11709
#
# Compressibility (1/GPa) = 0.01519096
#
# Stress axis : x y z
#
# Youngs Moduli (GPa) = 132.03600 85.78874 70.16185
#
# Poissons Ratio (x) = 0.08532 0.10979
# Poissons Ratio (y) = 0.13132 0.46213
# Poissons Ratio (z) = 0.20661 0.56506
#
# Static dielectric constant tensor:
#      x y z
#    x 2.537700 5.387020 1.076750 
#    y 5.387020 -11.929430 -3.106320 
#    z 1.076750 -3.106320 3.510930 
# 
# 
# High freq. dielectric constant tensor:
#      x y z
#    x 1.918750 -0.001560 -0.001220 
#    y -0.001560 1.895710 0.014560 
#    z -0.001220 0.014560 1.900950 
# 
# From -- ./inp_files/352444.got.cif
#   From: 2010.06.25/outbox.cif.g09.slc.cpg/sg2_177_cif.got.tgz:352444.got - 2010.06.27 13:26:56.
