data_PCOD8028181
_publ_section_title
;
Structure prediction by ZEFSAII (Michael W. Deem and Ramdas Pophale) SiO2 
 PCOD8028181
Probable space group: P -1
;
_chemical_formula_sum "Si O2"
_cell_formula_units_Z 14
_cell_length_a 8.243400
_cell_length_b 13.754817
_cell_length_c 11.707350
_cell_angle_alpha 32.516596
_cell_angle_beta 62.375934
_cell_angle_gamma 57.890529
_cell_volume 604.065780
_symmetry_space_group_name_H-M "P -1"
_symmetry_group_IT_number 2
_symmetry_cell_setting 'triclinic'
loop_
_space_group_symop_operation_xyz
x,y,z
-x,-y,-z
loop_
_atom_site_type_symbol
_atom_site_label
_atom_site_fract_x
_atom_site_fract_y
_atom_site_fract_z
Si Si1 0.595789 0.530081 0.779098
Si Si2 0.759930 0.253741 0.184181
Si Si3 0.943301 0.716420 0.771257
Si Si4 0.982135 0.899179 0.351645
Si Si5 0.285378 0.109491 0.993007
Si Si6 0.430913 0.202188 0.073063
Si Si7 0.243469 0.191161 0.678273
O O1 0.428242 0.698983 0.723268
O O2 0.696572 0.624724 0.559098
O O3 0.744610 0.432648 0.927991
O O4 0.517638 0.374184 0.896577
O O5 0.947198 0.190694 0.264955
O O6 0.789095 0.069996 0.276659
O O7 0.013538 0.741217 0.596350
O O8 0.713375 0.808311 0.765972
O O9 0.000000 0.500000 0.000000
O O10 0.942611 0.813050 0.329250
O O11 0.171572 0.964682 0.213559
O O12 0.297857 0.248999 0.955031
O O13 0.184021 0.219411 0.803410
O O14 0.500000 0.000000 0.000000
O O15 0.588535 0.002155 0.205810
#
# Coordination Sequence:
#
# PCOD8028181 Si02
#       7
#     2   2   2   2   2   2   2
#     4  11  24  42  68 103 139 171 215 274 333 402
#     4  11  23  40  65 101 141 163 217 269 337 403
#     4  12  24  38  66 105 135 169 215 277 341 398
#     4  12  24  43  71  95 136 180 216 277 335 390
#     4  10  25  44  69  94 128 179 234 271 323 387
#     4  11  23  43  68  99 137 171 219 276 333 391
#     4  11  25  45  68  95 134 185 223 266 326 394
#
# _framework density 23.176282
#
# number of rings (size 3 to 8) (size 9 to 14) (size 15 to 20)
#    0.000    0.857    4.286    2.571    6.000    1.714 
#    0.000    2.143    0.000    0.000    0.000    0.000 
#    0.000    0.000    0.000    0.000    0.000    0.000 
#
# Total GULP energy -173563.623996 kJ/mol
# GULP energy per Si atom -12397.401714 kJ/mol
# Density = 2.312353 g / cm^3
# Si number density = 23.176282 Si / 1000 Ang^3
#
#
#
# Elastic Constant Matrix: (Units=GPa)
#
#
# Indices 1 2 3 4 5 6 
#
# 1 114.1737 24.2544 42.3720 8.5928 -4.2883 26.8013
# 2 24.2544 44.5937 28.9668 13.0949 1.8087 7.2839
# 3 42.3720 28.9668 140.2895 24.1602 1.0998 8.2672
# 4 8.5928 13.0949 24.1602 32.3740 -0.6782 8.9187
# 5 -4.2883 1.8087 1.0998 -0.6782 31.3894 4.4314
# 6 26.8013 7.2839 8.2672 8.9187 4.4314 40.7500
#
#
#
# Elastic Compliance Matrix: (Units=1/GPa)
#
#
# Indices 1 2 3 4 5 6 
#
# 1 0.012569 -0.004667 -0.002904 0.002947 0.003259 -0.007843
# 2 -0.004667 0.029579 -0.003246 -0.008514 -0.002493 0.000575
# 3 -0.002904 -0.003246 0.009530 -0.005565 -0.000929 0.001875
# 4 0.002947 -0.008514 -0.005565 0.040084 0.003140 -0.008402
# 5 0.003259 -0.002493 -0.000929 0.003140 0.033369 -0.005825
# 6 -0.007843 0.000575 0.001875 -0.008402 -0.005825 0.031687
#
#
# Mechanical properties :
#
#
# Convention : Reuss Voigt Hill
#
# Bulk Modulus (GPa) = 33.28290 54.47148 43.87719
# Shear Modulus (GPa) = 26.52983 34.46693 30.49838
#
# Velocity S-wave (km/s) = 3.38701 3.86056 3.63151
# Velocity P-wave (km/s) = 5.44864 6.58984 6.04623
#
# Compressibility (1/GPa) = 0.03004545
#
# Stress axis : x y z
#
# Youngs Moduli (GPa) = 79.55946 33.80810 104.92659
#
# Poissons Ratio (x) = 0.15778 0.30467
# Poissons Ratio (y) = 0.37129 0.34059
# Poissons Ratio (z) = 0.23101 0.10974
#
# Static dielectric constant tensor:
#      x y z
#    x 5.058380 0.398620 0.185950 
#    y 0.398620 4.310490 0.328670 
#    z 0.185950 0.328670 4.155760 
# 
# 
# High freq. dielectric constant tensor:
#      x y z
#    x 1.928230 0.015300 0.004720 
#    y 0.015300 1.908060 0.010210 
#    z 0.004720 0.010210 1.910670 
# 
# From -- ./inp_files/269855.got.cif
#   From: 2010.06.25/outbox.cif.g09.slc.cpg/sg2_135_cif.got.tgz:269855.got - 2010.06.27 13:26:56.
