data_PCOD8028171
_publ_section_title
;
Structure prediction by ZEFSAII (Michael W. Deem and Ramdas Pophale) SiO2 
 PCOD8028171
Probable space group: P -1
;
_chemical_formula_sum "Si O2"
_cell_formula_units_Z 14
_cell_length_a 16.215259
_cell_length_b 18.024316
_cell_length_c 5.204917
_cell_angle_alpha 105.426816
_cell_angle_beta 78.278311
_cell_angle_gamma 156.864012
_cell_volume 572.719259
_symmetry_space_group_name_H-M "P -1"
_symmetry_group_IT_number 2
_symmetry_cell_setting 'triclinic'
loop_
_space_group_symop_operation_xyz
x,y,z
-x,-y,-z
loop_
_atom_site_type_symbol
_atom_site_label
_atom_site_fract_x
_atom_site_fract_y
_atom_site_fract_z
Si Si1 0.764127 0.761885 0.732170
Si Si2 0.047829 0.625763 0.505177
Si Si3 0.091231 0.162009 0.787767
Si Si4 0.164993 0.406153 0.337190
Si Si5 0.220779 0.973693 0.051160
Si Si6 0.289305 0.868860 0.072296
Si Si7 0.567719 0.385584 0.147761
O O1 0.727304 0.688021 0.412606
O O2 0.589023 0.675011 0.848033
O O3 0.792644 0.722175 0.905215
O O4 0.988549 0.992195 0.745234
O O5 0.185070 0.740797 0.264897
O O6 0.000000 0.500000 0.500000
O O7 0.844176 0.510283 0.498468
O O8 0.161381 0.757835 0.793162
O O9 0.917657 0.080733 0.747979
O O10 0.305466 0.489980 0.555121
O O11 0.922861 0.171033 0.241333
O O12 0.265767 0.476175 0.059656
O O13 0.297702 0.968870 0.188823
O O14 0.437412 0.196943 0.037444
O O15 0.500000 0.000000 0.000000
#
# Coordination Sequence:
#
# PCOD8028171 Si02
#       7
#     2   2   2   2   2   2   2
#     4   9  18  35  59  94 123 168 228 262 329 396
#     4  11  25  44  68  95 136 176 215 282 348 388
#     4   9  18  35  61  87 130 172 210 278 329 392
#     4  11  25  43  65  99 135 171 232 272 334 413
#     4  10  25  44  68  98 136 178 223 277 349 386
#     4  11  25  43  69 101 132 170 230 276 329 416
#     4  11  24  42  70  96 134 182 221 281 334 400
#
# _framework density 24.444789
#
# number of rings (size 3 to 8) (size 9 to 14) (size 15 to 20)
#    0.000    1.714    0.000    3.429    4.000   10.286 
#    0.000    4.286    0.000    0.000    0.000    0.000 
#    0.000    0.000    0.000    0.000    0.000    0.000 
#
# Total GULP energy -173458.161906 kJ/mol
# GULP energy per Si atom -12389.868708 kJ/mol
# Density = 2.438915 g / cm^3
# Si number density = 24.444789 Si / 1000 Ang^3
#
#
#
# Elastic Constant Matrix: (Units=GPa)
#
#
# Indices 1 2 3 4 5 6 
#
# 1 119.5290 21.8531 22.0250 -24.9723 10.9065 13.2730
# 2 21.8531 90.7010 39.5002 -3.6379 17.3265 -7.1285
# 3 22.0250 39.5002 159.1176 -32.0299 19.1315 4.3259
# 4 -24.9723 -3.6379 -32.0299 48.3589 8.0844 -5.4870
# 5 10.9065 17.3265 19.1315 8.0844 33.3801 -8.1835
# 6 13.2730 -7.1285 4.3259 -5.4870 -8.1835 42.0356
#
#
#
# Elastic Compliance Matrix: (Units=1/GPa)
#
#
# Indices 1 2 3 4 5 6 
#
# 1 0.010944 -0.002095 0.001185 0.006780 -0.005836 -0.004184
# 2 -0.002095 0.013692 -0.002917 -0.001060 -0.003909 0.002384
# 3 0.001185 -0.002917 0.009133 0.007270 -0.006384 -0.002103
# 4 0.006780 -0.001060 0.007270 0.031024 -0.013762 -0.001698
# 5 -0.005836 -0.003909 -0.006384 -0.013762 0.042945 0.008401
# 6 -0.004184 0.002384 -0.002103 -0.001698 0.008401 0.027145
#
#
# Mechanical properties :
#
#
# Convention : Reuss Voigt Hill
#
# Bulk Modulus (GPa) = 38.29147 59.56713 48.92930
# Shear Modulus (GPa) = 33.05944 43.81954 38.43949
#
# Velocity S-wave (km/s) = 3.68151 4.23849 3.96978
# Velocity P-wave (km/s) = 5.81118 6.95515 6.40874
#
# Compressibility (1/GPa) = 0.02611548
#
# Stress axis : x y z
#
# Youngs Moduli (GPa) = 91.37092 73.03451 109.49294
#
# Poissons Ratio (x) = 0.15303 -0.12979
# Poissons Ratio (y) = 0.19145 0.31941
# Poissons Ratio (z) = -0.10831 0.21305
#
# Static dielectric constant tensor:
#      x y z
#    x 1.073310 0.198840 1.098310 
#    y 0.198840 4.526530 0.053280 
#    z 1.098310 0.053280 4.249920 
# 
# 
# High freq. dielectric constant tensor:
#      x y z
#    x 1.996140 -0.002500 -0.005050 
#    y -0.002500 1.957840 -0.000430 
#    z -0.005050 -0.000430 1.976270 
# 
# From -- ./inp_files/112459.got.cif
#   From: 2010.06.25/outbox.cif.g09.slc.cpg/sg2_57_cif.got.tgz:112459.got - 2010.06.27 13:26:56.
