data_PCOD8028301
_publ_section_title
;
Structure prediction by ZEFSAII (Michael W. Deem and Ramdas Pophale) SiO2 
 PCOD8028301
Probable space group: P -1
;
_chemical_formula_sum "Si O2"
_cell_formula_units_Z 14
_cell_length_a 11.988218
_cell_length_b 13.003861
_cell_length_c 8.982772
_cell_angle_alpha 119.708443
_cell_angle_beta 34.573059
_cell_angle_gamma 133.204012
_cell_volume 571.321507
_symmetry_space_group_name_H-M "P -1"
_symmetry_group_IT_number 2
_symmetry_cell_setting 'triclinic'
loop_
_space_group_symop_operation_xyz
x,y,z
-x,-y,-z
loop_
_atom_site_type_symbol
_atom_site_label
_atom_site_fract_x
_atom_site_fract_y
_atom_site_fract_z
Si Si1 0.287352 0.738683 0.987743
Si Si2 0.433392 0.304225 0.581806
Si Si3 0.402075 0.818837 0.480431
Si Si4 0.970218 0.514723 0.715938
Si Si5 0.897376 0.140373 0.962704
Si Si6 0.375209 0.154237 0.051466
Si Si7 0.517551 0.548080 0.847202
O O1 0.410852 0.672366 0.716199
O O2 0.186854 0.803496 0.036406
O O3 0.065757 0.617849 0.244249
O O4 0.497561 0.856514 0.950205
O O5 0.393983 0.174100 0.637596
O O6 0.590062 0.458898 0.605126
O O7 0.166494 0.254338 0.795455
O O8 0.302449 0.914470 0.718741
O O9 0.439309 0.814006 0.261953
O O10 0.175448 0.662224 0.667204
O O11 0.000000 0.500000 0.500000
O O12 0.732352 0.507680 0.989985
O O13 0.869524 0.997118 0.826159
O O14 0.321389 0.277495 0.212502
O O15 0.500000 0.500000 0.000000
#
# Coordination Sequence:
#
# PCOD8028301 Si02
#       7
#     2   2   2   2   2   2   2
#     4  10  25  45  70 100 140 176 231 283 340 409
#     4  11  24  44  67 101 142 177 231 280 341 402
#     4  11  22  44  69  99 136 174 236 283 332 400
#     4  11  20  42  70  98 130 173 231 283 337 393
#     4  11  25  45  69  99 141 187 218 280 348 408
#     4  11  23  44  71  98 140 182 230 277 343 407
#     4  11  21  42  68 103 136 174 227 287 329 399
#
# _framework density 24.504591999999999
#
# number of rings (size 3 to 8) (size 9 to 14) (size 15 to 20)
#    0.000    1.143    5.714    0.857    0.000    5.714 
#   10.286    2.857    0.000    0.000    0.000    0.000 
#    0.000    0.000    0.000    0.000    0.000    0.000 
#
# Total GULP energy -173459.943834 kJ/mol
# GULP energy per Si atom -12389.995988 kJ/mol
# Density = 2.444882 g / cm^3
# Si number density = 24.504592 Si / 1000 Ang^3
#
#
#
# Elastic Constant Matrix: (Units=GPa)
#
#
# Indices 1 2 3 4 5 6 
#
# 1 117.4978 19.6483 25.9939 14.7581 16.7332 -6.5827
# 2 19.6483 85.2188 27.3081 42.5387 2.3242 20.9176
# 3 25.9939 27.3081 84.5993 20.9281 24.2907 -4.6921
# 4 14.7581 42.5387 20.9281 33.7663 -0.6753 -0.1386
# 5 16.7332 2.3242 24.2907 -0.6753 41.2274 7.1037
# 6 -6.5827 20.9176 -4.6921 -0.1386 7.1037 31.7377
#
#
#
# Elastic Compliance Matrix: (Units=1/GPa)
#
#
# Indices 1 2 3 4 5 6 
#
# 1 0.010115 -0.003405 -0.000411 0.000053 -0.004585 0.005307
# 2 -0.003405 0.059665 -0.005264 -0.070444 0.007333 -0.042757
# 3 -0.000411 -0.005264 0.018952 -0.005145 -0.012324 0.008922
# 4 0.000053 -0.070444 -0.005145 0.121736 0.001054 0.045974
# 5 -0.004585 0.007333 -0.012324 0.001054 0.035667 -0.015584
# 6 0.005307 -0.042757 0.008922 0.045974 -0.015584 0.065797
#
#
# Mechanical properties :
#
#
# Convention : Reuss Voigt Hill
#
# Bulk Modulus (GPa) = 14.16985 48.13516 31.15251
# Shear Modulus (GPa) = 14.13965 35.63733 24.88849
#
# Velocity S-wave (km/s) = 2.40473 3.81768 3.19041
# Velocity P-wave (km/s) = 3.67497 6.25451 5.12954
#
# Compressibility (1/GPa) = 0.07057236
#
# Stress axis : x y z
#
# Youngs Moduli (GPa) = 98.86628 16.76027 52.76434
#
# Poissons Ratio (x) = 0.05706 0.02170
# Poissons Ratio (y) = 0.33659 0.27775
# Poissons Ratio (z) = 0.04066 0.08822
#
# Static dielectric constant tensor:
#      x y z
#    x 4.488100 0.061840 0.021790 
#    y 0.061840 4.469640 0.350020 
#    z 0.021790 0.350020 4.444600 
# 
# 
# High freq. dielectric constant tensor:
#      x y z
#    x 1.986840 0.006120 0.012620 
#    y 0.006120 1.978960 0.014950 
#    z 0.012620 0.014950 1.965950 
# 
# From -- ./inp_files/268467.got.cif
#   From: 2010.06.25/outbox.cif.g09.slc.cpg/sg2_135_cif.got.tgz:268467.got - 2010.06.27 13:26:56.
