data_PCOD8028395
_publ_section_title
;
Structure prediction by ZEFSAII (Michael W. Deem and Ramdas Pophale) SiO2 
 PCOD8028395
Probable space group: P -1
;
_chemical_formula_sum "Si O2"
_cell_formula_units_Z 16
_cell_length_a 8.677839
_cell_length_b 12.731245
_cell_length_c 9.159002
_cell_angle_alpha 81.607195
_cell_angle_beta 132.128335
_cell_angle_gamma 101.480007
_cell_volume 735.336242
_symmetry_space_group_name_H-M "P -1"
_symmetry_group_IT_number 2
_symmetry_cell_setting 'triclinic'
loop_
_space_group_symop_operation_xyz
x,y,z
-x,-y,-z
loop_
_atom_site_type_symbol
_atom_site_label
_atom_site_fract_x
_atom_site_fract_y
_atom_site_fract_z
Si Si1 0.687347 0.815598 0.089561
Si Si2 0.405717 0.789219 0.184314
Si Si3 0.887609 0.409637 0.841731
Si Si4 0.821631 0.790514 0.625217
Si Si5 0.112415 0.962034 0.937070
Si Si6 0.284710 0.547701 0.580150
Si Si7 0.710001 0.674368 0.875926
Si Si8 0.952285 0.675814 0.462859
O O1 0.481870 0.794842 0.064247
O O2 0.880941 0.763629 0.290961
O O3 0.755767 0.941427 0.086033
O O4 0.624104 0.763745 0.902691
O O5 0.275544 0.673409 0.155098
O O6 0.605624 0.811434 0.411319
O O7 0.263104 0.880322 0.108009
O O8 0.764642 0.457826 0.622630
O O9 0.000000 0.500000 0.000000
O O10 0.081383 0.356867 0.906777
O O11 0.775756 0.718110 0.751182
O O12 0.962619 0.727357 0.620704
O O13 0.946507 0.904790 0.726793
O O14 0.000000 0.000000 0.000000
O O15 0.532367 0.572632 0.761781
O O16 0.216528 0.431807 0.630438
O O17 0.176186 0.642585 0.567657
#
# Coordination Sequence:
#
# PCOD8028395 Si02
#       8
#     2   2   2   2   2   2   2   2
#     4  11  25  47  69 103 138 180 232 291 339 412
#     4  11  26  45  69 105 137 178 235 281 346 409
#     4  12  25  42  70 102 143 185 229 281 340 413
#     4  11  24  45  71 103 134 183 224 287 340 414
#     4  12  25  47  73  98 140 179 235 288 347 406
#     4  11  25  44  70 104 139 185 225 279 349 412
#     4  12  24  42  72 100 136 184 228 279 346 410
#     4  10  25  46  68 102 145 172 232 286 340 415
#
# _framework density 21.758754
#
# number of rings (size 3 to 8) (size 9 to 14) (size 15 to 20)
#    0.000    0.750    5.000    1.125    5.250    5.000 
#    2.250    0.000    0.000    0.000    0.000    0.000 
#    0.000    0.000    0.000    0.000    0.000    0.000 
#
# Total GULP energy -198454.832182 kJ/mol
# GULP energy per Si atom -12403.427011 kJ/mol
# Density = 2.170923 g / cm^3
# Si number density = 21.758754 Si / 1000 Ang^3
#
#
#
# Elastic Constant Matrix: (Units=GPa)
#
#
# Indices 1 2 3 4 5 6 
#
# 1 80.6640 16.4471 16.7018 13.4690 -2.6909 -3.2783
# 2 16.4471 101.3856 22.1865 12.6158 0.6239 7.3808
# 3 16.7018 22.1865 76.7302 14.4907 8.6779 1.2111
# 4 13.4690 12.6158 14.4907 43.4499 1.9844 -2.9523
# 5 -2.6909 0.6239 8.6779 1.9844 36.0304 8.0046
# 6 -3.2783 7.3808 1.2111 -2.9523 8.0046 48.2437
#
#
#
# Elastic Compliance Matrix: (Units=1/GPa)
#
#
# Indices 1 2 3 4 5 6 
#
# 1 0.013747 -0.001427 -0.002177 -0.003142 0.001582 0.000752
# 2 -0.001427 0.011055 -0.002559 -0.002090 0.000877 -0.001997
# 3 -0.002177 -0.002559 0.015320 -0.003507 -0.003671 0.000254
# 4 -0.003142 -0.002090 -0.003507 0.025956 -0.001225 0.001986
# 5 0.001582 0.000877 -0.003671 -0.001225 0.029914 -0.004973
# 6 0.000752 -0.001997 0.000254 0.001986 -0.004973 0.022025
#
#
# Mechanical properties :
#
#
# Convention : Reuss Voigt Hill
#
# Bulk Modulus (GPa) = 35.97699 41.05005 38.51352
# Shear Modulus (GPa) = 35.81469 39.10779 37.46124
#
# Velocity S-wave (km/s) = 4.06148 4.24410 4.15379
# Velocity P-wave (km/s) = 6.21004 6.55160 6.38310
#
# Compressibility (1/GPa) = 0.02779555
#
# Stress axis : x y z
#
# Youngs Moduli (GPa) = 72.74395 90.45784 65.27483
#
# Poissons Ratio (x) = 0.12910 0.14210
# Poissons Ratio (y) = 0.10382 0.16703
# Poissons Ratio (z) = 0.15836 0.23147
#
# Static dielectric constant tensor:
#      x y z
#    x 4.236530 -0.072260 0.085380 
#    y -0.072260 4.022450 0.015820 
#    z 0.085380 0.015820 4.011790 
# 
# 
# High freq. dielectric constant tensor:
#      x y z
#    x 1.871060 -0.002600 -0.005170 
#    y -0.002600 1.858710 0.002870 
#    z -0.005170 0.002870 1.854300 
# 
# From -- ./inp_files/187079.got.cif
#   From: 2010.06.25/outbox.cif.g09.slc.cpg/sg2_94_cif.got.tgz:187079.got - 2010.06.27 13:26:56.
