data_PCOD8028995
_publ_section_title
;
Structure prediction by ZEFSAII (Michael W. Deem and Ramdas Pophale) SiO2 
 PCOD8028995
Probable space group: P -1
;
_chemical_formula_sum "Si O2"
_cell_formula_units_Z 16
_cell_length_a 6.745442
_cell_length_b 14.098980
_cell_length_c 14.583334
_cell_angle_alpha 138.732860
_cell_angle_beta 55.041533
_cell_angle_gamma 108.066291
_cell_volume 730.839330
_symmetry_space_group_name_H-M "P -1"
_symmetry_group_IT_number 2
_symmetry_cell_setting 'triclinic'
loop_
_space_group_symop_operation_xyz
x,y,z
-x,-y,-z
loop_
_atom_site_type_symbol
_atom_site_label
_atom_site_fract_x
_atom_site_fract_y
_atom_site_fract_z
Si Si1 0.295779 0.160278 0.071216
Si Si2 0.271069 0.524781 0.950822
Si Si3 0.242077 0.485663 0.364325
Si Si4 0.153592 0.168302 0.917520
Si Si5 0.753718 0.477362 0.250019
Si Si6 0.023595 0.713029 0.436393
Si Si7 0.596536 0.274770 0.801687
Si Si8 0.830971 0.960498 0.801799
O O1 0.284192 0.332718 0.186756
O O2 0.130400 0.131699 0.180472
O O3 0.194680 0.105653 0.964232
O O4 0.574527 0.076919 0.955075
O O5 0.364299 0.502637 0.806800
O O6 0.425770 0.414376 0.901050
O O7 0.282332 0.684803 0.105527
O O8 0.000000 0.500000 0.000000
O O9 0.479545 0.480850 0.368586
O O10 0.199217 0.616212 0.395018
O O11 0.000000 0.500000 0.500000
O O12 0.416716 0.166848 0.797557
O O13 0.043547 0.052704 0.803777
O O14 0.964068 0.328269 0.091056
O O15 0.861490 0.613926 0.354784
O O16 0.182764 0.785319 0.372974
O O17 0.842236 0.850251 0.633187
#
# Coordination Sequence:
#
# PCOD8028995 Si02
#       8
#     2   2   2   2   2   2   2   2
#     4  11  24  49  70  96 134 186 238 277 334 417
#     4  11  19  37  65 102 135 176 219 277 338 398
#     4  12  24  44  71 104 136 170 231 294 333 398
#     4  12  24  42  72 102 132 187 233 272 338 416
#     4  12  23  40  73 102 137 178 227 279 345 403
#     4  12  25  44  67 108 140 173 227 288 340 400
#     4  11  23  37  68 104 138 173 228 279 334 410
#     4  11  27  47  68  94 142 187 226 282 347 398
#
# _framework density 21.892637000000001
#
# number of rings (size 3 to 8) (size 9 to 14) (size 15 to 20)
#    0.000    0.500    7.500    1.875    0.000    2.000 
#    4.500    0.625    0.000    0.000    0.000    0.000 
#    0.000    0.000    0.000    0.000    0.000    0.000 
#
# Total GULP energy -198281.962283 kJ/mol
# GULP energy per Si atom -12392.622643 kJ/mol
# Density = 2.184281 g / cm^3
# Si number density = 21.892637 Si / 1000 Ang^3
#
#
#
# Elastic Constant Matrix: (Units=GPa)
#
#
# Indices 1 2 3 4 5 6 
#
# 1 93.2636 41.3148 17.2600 -13.3384 12.2975 14.4298
# 2 41.3148 91.3994 51.7502 -14.6744 9.0868 21.7253
# 3 17.2600 51.7502 86.4186 -10.6091 12.7233 7.8185
# 4 -13.3384 -14.6744 -10.6091 34.4733 5.2534 1.2692
# 5 12.2975 9.0868 12.7233 5.2534 34.3876 -6.0305
# 6 14.4298 21.7253 7.8185 1.2692 -6.0305 39.9914
#
#
#
# Elastic Compliance Matrix: (Units=1/GPa)
#
#
# Indices 1 2 3 4 5 6 
#
# 1 0.014975 -0.005739 0.002332 0.005149 -0.006160 -0.003834
# 2 -0.005739 0.022637 -0.010721 0.004769 -0.002202 -0.008615
# 3 0.002332 -0.010721 0.018604 0.002845 -0.005237 0.000466
# 4 0.005149 0.004769 0.002845 0.035870 -0.011002 -0.007802
# 5 -0.006160 -0.002202 -0.005237 -0.011002 0.037311 0.010419
# 6 -0.003834 -0.008615 0.000466 -0.007802 0.010419 0.032796
#
#
# Mechanical properties :
#
#
# Convention : Reuss Voigt Hill
#
# Bulk Modulus (GPa) = 35.76472 54.63686 45.20079
# Shear Modulus (GPa) = 25.02890 32.48757 28.75823
#
# Velocity S-wave (km/s) = 3.38488 3.85639 3.62830
# Velocity P-wave (km/s) = 5.62569 6.69626 6.18418
#
# Compressibility (1/GPa) = 0.02796052
#
# Stress axis : x y z
#
# Youngs Moduli (GPa) = 66.77870 44.17455 53.75174
#
# Poissons Ratio (x) = 0.25351 -0.12533
# Poissons Ratio (y) = 0.38323 0.57626
# Poissons Ratio (z) = -0.15570 0.47358
#
# Static dielectric constant tensor:
#      x y z
#    x 4.120450 0.474750 -0.373510 
#    y 0.474750 5.129220 -1.069170 
#    z -0.373510 -1.069170 4.555920 
# 
# 
# High freq. dielectric constant tensor:
#      x y z
#    x 1.876060 0.010530 -0.000340 
#    y 0.010530 1.862070 -0.017980 
#    z -0.000340 -0.017980 1.844120 
# 
# From -- ./inp_files/484429.got.cif
#   From: 2010.06.25/outbox.cif.g09.slc.cpg/sg2_243_cif.got.tgz:484429.got - 2010.06.27 13:26:56.
