data_PCOD8028038
_publ_section_title
;
Structure prediction by ZEFSAII (Michael W. Deem and Ramdas Pophale) SiO2 
 PCOD8028038
Probable space group: P -1
;
_chemical_formula_sum "Si O2"
_cell_formula_units_Z 14
_cell_length_a 15.194747
_cell_length_b 5.958056
_cell_length_c 7.558044
_cell_angle_alpha 117.471223
_cell_angle_beta 72.205585
_cell_angle_gamma 88.765060
_cell_volume 567.243774
_symmetry_space_group_name_H-M "P -1"
_symmetry_group_IT_number 2
_symmetry_cell_setting 'triclinic'
loop_
_space_group_symop_operation_xyz
x,y,z
-x,-y,-z
loop_
_atom_site_type_symbol
_atom_site_label
_atom_site_fract_x
_atom_site_fract_y
_atom_site_fract_z
Si Si1 0.108460 0.414519 0.854174
Si Si2 0.456860 0.289152 0.700005
Si Si3 0.564899 0.722744 0.880474
Si Si4 0.727133 0.952821 0.763818
Si Si5 0.107862 0.453744 0.462171
Si Si6 0.213623 0.869616 0.568777
Si Si7 0.718230 0.367853 0.191712
O O1 0.120960 0.476046 0.667733
O O2 0.185823 0.571586 0.939231
O O3 0.138660 0.115269 0.775235
O O4 0.000000 0.500000 0.000000
O O5 0.529756 0.487442 0.715310
O O6 0.365298 0.381056 0.665400
O O7 0.500000 0.000000 0.500000
O O8 0.421292 0.314080 0.932245
O O9 0.666108 0.727417 0.729928
O O10 0.500000 0.000000 0.000000
O O11 0.833137 0.829665 0.725900
O O12 0.721496 0.049764 0.598418
O O13 0.682068 0.173147 0.007598
O O14 0.154237 0.681532 0.436594
O O15 0.000000 0.500000 0.500000
O O16 0.272950 0.748451 0.657810
#
# Coordination Sequence:
#
# PCOD8028038 Si02
#       7
#     2   2   2   2   2   2   2
#     4  10  25  42  70 110 146 188 250 306 366 460
#     4  11  28  53  81 112 154 197 254 323 384 461
#     4  11  26  52  76 118 146 198 259 309 390 456
#     4  11  26  47  76 104 152 193 245 320 366 454
#     4  10  25  42  71 106 141 199 241 304 381 435
#     4  10  26  47  69 108 149 191 251 307 371 454
#     4  11  26  48  76 109 141 206 245 302 395 441
#
# _framework density 24.680748000000001
#
# number of rings (size 3 to 8) (size 9 to 14) (size 15 to 20)
#    0.000    1.429    1.429    0.000   10.000    7.429 
#    5.143    0.714    0.000    0.000    0.000    0.000 
#    0.000    0.000    0.000    0.000    0.000    0.000 
#
# Total GULP energy -173483.831640 kJ/mol
# GULP energy per Si atom -12391.702260 kJ/mol
# Density = 2.462457 g / cm^3
# Si number density = 24.680748 Si / 1000 Ang^3
#
#
#
# Elastic Constant Matrix: (Units=GPa)
#
#
# Indices 1 2 3 4 5 6 
#
# 1 150.1963 81.7693 50.1964 -0.1887 -14.4394 -2.6703
# 2 81.7693 152.7015 54.3250 5.4339 -4.4371 0.9347
# 3 50.1964 54.3250 92.6488 19.6881 -5.6265 -0.2641
# 4 -0.1887 5.4339 19.6881 42.6218 2.7119 -3.6641
# 5 -14.4394 -4.4371 -5.6265 2.7119 38.8894 4.3418
# 6 -2.6703 0.9347 -0.2641 -3.6641 4.3418 50.2252
#
#
#
# Elastic Compliance Matrix: (Units=1/GPa)
#
#
# Indices 1 2 3 4 5 6 
#
# 1 0.010441 -0.004399 -0.003343 0.002026 0.002690 0.000535
# 2 -0.004399 0.010196 -0.003753 0.000451 -0.001008 -0.000323
# 3 -0.003343 -0.003753 0.016425 -0.007262 0.001287 -0.000663
# 4 0.002026 0.000451 -0.007262 0.027113 -0.002388 0.002246
# 5 0.002690 -0.001008 0.001287 -0.002388 0.027214 -0.002358
# 6 0.000535 -0.000323 -0.000663 0.002246 -0.002358 0.020309
#
#
# Mechanical properties :
#
#
# Convention : Reuss Voigt Hill
#
# Bulk Modulus (GPa) = 71.06527 85.34754 78.20640
# Shear Modulus (GPa) = 35.87356 40.29765 38.08561
#
# Velocity S-wave (km/s) = 3.81662 4.04512 3.93253
# Velocity P-wave (km/s) = 6.94827 7.51485 7.23711
#
# Compressibility (1/GPa) = 0.01407157
#
# Stress axis : x y z
#
# Youngs Moduli (GPa) = 95.77997 98.07744 60.88270
#
# Poissons Ratio (x) = 0.43141 0.20354
# Poissons Ratio (y) = 0.42130 0.22851
# Poissons Ratio (z) = 0.32021 0.36811
#
# Static dielectric constant tensor:
#      x y z
#    x 4.177850 0.168490 -0.023130 
#    y 0.168490 4.979260 0.064950 
#    z -0.023130 0.064950 4.448550 
# 
# 
# High freq. dielectric constant tensor:
#      x y z
#    x 1.987910 0.000340 -0.004690 
#    y 0.000340 2.001990 0.007100 
#    z -0.004690 0.007100 1.978980 
# 
# From -- ./inp_files/289261.got.cif
#   From: 2010.06.25/outbox.cif.g09.slc.cpg/sg2_145_cif.got.tgz:289261.got - 2010.06.27 13:26:56.
