data_PCOD8028452
_publ_section_title
;
Structure prediction by ZEFSAII (Michael W. Deem and Ramdas Pophale) SiO2 
 PCOD8028452
Probable space group: P -1
;
_chemical_formula_sum "Si O2"
_cell_formula_units_Z 16
_cell_length_a 19.964535
_cell_length_b 11.637774
_cell_length_c 9.213722
_cell_angle_alpha 75.702568
_cell_angle_beta 42.584849
_cell_angle_gamma 42.484982
_cell_volume 745.428449
_symmetry_space_group_name_H-M "P -1"
_symmetry_group_IT_number 2
_symmetry_cell_setting 'triclinic'
loop_
_space_group_symop_operation_xyz
x,y,z
-x,-y,-z
loop_
_atom_site_type_symbol
_atom_site_label
_atom_site_fract_x
_atom_site_fract_y
_atom_site_fract_z
Si Si1 0.508914 0.135048 0.582881
Si Si2 0.393090 0.988843 0.850219
Si Si3 0.670745 0.586212 0.746297
Si Si4 0.019655 0.542728 0.607191
Si Si5 0.447742 0.408327 0.777218
Si Si6 0.238168 0.773911 0.790486
Si Si7 0.875116 0.283487 0.241197
Si Si8 0.074827 0.319403 0.839687
O O1 0.409633 0.112966 0.780709
O O2 0.390181 0.351479 0.793475
O O3 0.509429 0.165189 0.400665
O O4 0.717784 0.923587 0.373553
O O5 0.495880 0.832935 0.876463
O O6 0.170621 0.190578 0.138286
O O7 0.811712 0.535523 0.613900
O O8 0.769841 0.404366 0.524333
O O9 0.588619 0.579453 0.999317
O O10 0.061595 0.382048 0.680656
O O11 0.000000 0.500000 0.500000
O O12 0.336089 0.637462 0.828148
O O13 0.663974 0.217783 0.456215
O O14 0.249515 0.646929 0.708219
O O15 0.038036 0.021746 0.083551
O O16 0.939992 0.345325 0.064703
O O17 0.000000 0.500000 0.000000
#
# Coordination Sequence:
#
# PCOD8028452 Si02
#       8
#     2   2   2   2   2   2   2   2
#     4  11  21  40  67  95 137 184 229 274 332 418
#     4  11  24  40  66 104 139 188 221 274 351 415
#     4  12  26  45  68 105 144 176 226 292 346 405
#     4  12  27  40  63 108 147 181 220 277 352 414
#     4  11  25  44  67  99 131 182 231 291 339 397
#     4  10  25  46  71  95 129 185 240 279 335 408
#     4  11  23  45  72 100 132 180 233 282 337 409
#     4  12  21  42  71 100 138 181 225 273 341 425
#
# _framework density 21.464165000000001
#
# number of rings (size 3 to 8) (size 9 to 14) (size 15 to 20)
#    0.000    0.750    5.000    1.500    7.000    2.000 
#    2.250    0.000    0.000    0.000    0.000    0.000 
#    0.000    0.000    0.000    0.000    0.000    0.000 
#
# Total GULP energy -198364.295759 kJ/mol
# GULP energy per Si atom -12397.768485 kJ/mol
# Density = 2.141531 g / cm^3
# Si number density = 21.464165 Si / 1000 Ang^3
#
#
#
# Elastic Constant Matrix: (Units=GPa)
#
#
# Indices 1 2 3 4 5 6 
#
# 1 84.9618 37.4710 14.4466 -8.5459 6.1895 -6.9308
# 2 37.4710 87.4318 46.7301 -22.7000 4.7028 -13.6392
# 3 14.4466 46.7301 81.9064 -17.1852 3.7894 -15.9848
# 4 -8.5459 -22.7000 -17.1852 31.5250 -7.3067 10.6808
# 5 6.1895 4.7028 3.7894 -7.3067 36.0006 6.3620
# 6 -6.9308 -13.6392 -15.9848 10.6808 6.3620 36.8324
#
#
#
# Elastic Compliance Matrix: (Units=1/GPa)
#
#
# Indices 1 2 3 4 5 6 
#
# 1 0.014837 -0.007208 0.001635 -0.001376 -0.002350 0.001637
# 2 -0.007208 0.021759 -0.009353 0.008957 0.001229 -0.000168
# 3 0.001635 -0.009353 0.018637 0.001974 -0.001435 0.004608
# 4 -0.001376 0.008957 0.001974 0.044812 0.009859 -0.010783
# 5 -0.002350 0.001229 -0.001435 0.009859 0.031755 -0.008954
# 6 0.001637 -0.000168 0.004608 -0.010783 -0.008954 0.034069
#
#
# Mechanical properties :
#
#
# Convention : Reuss Voigt Hill
#
# Bulk Modulus (GPa) = 39.40058 50.17729 44.78893
# Shear Modulus (GPa) = 24.48790 31.24842 27.86816
#
# Velocity S-wave (km/s) = 3.38135 3.81969 3.60718
# Velocity P-wave (km/s) = 5.80008 6.54838 6.18556
#
# Compressibility (1/GPa) = 0.02538034
#
# Stress axis : x y z
#
# Youngs Moduli (GPa) = 67.39703 45.95796 53.65755
#
# Poissons Ratio (x) = 0.33128 -0.08773
# Poissons Ratio (y) = 0.48582 0.50186
# Poissons Ratio (z) = -0.11020 0.42985
#
# Static dielectric constant tensor:
#      x y z
#    x 4.054410 -0.057700 -0.066850 
#    y -0.057700 3.600890 0.027320 
#    z -0.066850 0.027320 3.969640 
# 
# 
# High freq. dielectric constant tensor:
#      x y z
#    x 1.850930 -0.005520 -0.002650 
#    y -0.005520 1.847430 0.007260 
#    z -0.002650 0.007260 1.838510 
# 
# From -- ./inp_files/346082.got.cif
#   From: 2010.06.25/outbox.cif.g09.slc.cpg/sg2_174_cif.got.tgz:346082.got - 2010.06.27 13:26:56.
