data_PCOD8028430
_publ_section_title
;
Structure prediction by ZEFSAII (Michael W. Deem and Ramdas Pophale) SiO2 
 PCOD8028430
Probable space group: P -1
;
_chemical_formula_sum "Si O2"
_cell_formula_units_Z 12
_cell_length_a 5.574499
_cell_length_b 14.983587
_cell_length_c 8.637943
_cell_angle_alpha 60.872229
_cell_angle_beta 56.372212
_cell_angle_gamma 80.208922
_cell_volume 519.845233
_symmetry_space_group_name_H-M "P -1"
_symmetry_group_IT_number 2
_symmetry_cell_setting 'triclinic'
loop_
_space_group_symop_operation_xyz
x,y,z
-x,-y,-z
loop_
_atom_site_type_symbol
_atom_site_label
_atom_site_fract_x
_atom_site_fract_y
_atom_site_fract_z
Si Si1 0.761601 0.707509 0.585713
Si Si2 0.826929 0.595123 0.961676
Si Si3 0.332978 0.481160 0.412520
Si Si4 0.806268 0.204745 0.242293
Si Si5 0.872029 0.933737 0.958479
Si Si6 0.745842 0.127153 0.671485
O O1 0.843069 0.625509 0.750964
O O2 0.648268 0.639142 0.534801
O O3 0.518186 0.770304 0.690782
O O4 0.041363 0.790082 0.372702
O O5 0.968804 0.690914 0.933100
O O6 0.497901 0.560748 0.162900
O O7 0.000000 0.500000 0.000000
O O8 0.500000 0.500000 0.500000
O O9 0.000000 0.500000 0.500000
O O10 0.819375 0.147099 0.449255
O O11 0.886727 0.132070 0.136619
O O12 0.791161 0.009935 0.788654
O O13 0.585100 0.858308 0.180156
O O14 0.000000 0.000000 0.000000
#
# Coordination Sequence:
#
# PCOD8028430 Si02
#       6
#     2   2   2   2   2   2
#     4  11  25  46  71 102 143 193 248 301 368 452
#     4  11  24  47  70 101 144 197 247 297 371 446
#     4  12  28  44  72 107 151 195 246 314 369 439
#     4  11  25  44  74 101 146 190 244 301 372 440
#     4  11  25  46  73 104 145 185 243 306 374 449
#     4  10  25  46  70 104 142 186 246 300 375 442
#
# _framework density 23.083793
#
# number of rings (size 3 to 8) (size 9 to 14) (size 15 to 20)
#    0.000    1.000    1.667    3.000    7.000    9.333 
#    0.000    0.000    0.000    0.000    0.000    0.000 
#    0.000    0.000    0.000    0.000    0.000    0.000 
#
# Total GULP energy -148840.082007 kJ/mol
# GULP energy per Si atom -12403.340167 kJ/mol
# Density = 2.303125 g / cm^3
# Si number density = 23.083793 Si / 1000 Ang^3
#
#
#
# Elastic Constant Matrix: (Units=GPa)
#
#
# Indices 1 2 3 4 5 6 
#
# 1 126.8739 67.7967 43.3220 7.0338 -30.4917 3.5537
# 2 67.7967 169.7445 67.2253 15.5823 -12.2061 6.9428
# 3 43.3220 67.2253 124.2498 -7.7098 -46.7114 8.0492
# 4 7.0338 15.5823 -7.7098 34.0290 3.1841 -7.3384
# 5 -30.4917 -12.2061 -46.7114 3.1841 44.2748 -2.3217
# 6 3.5537 6.9428 8.0492 -7.3384 -2.3217 45.7077
#
#
#
# Elastic Compliance Matrix: (Units=1/GPa)
#
#
# Indices 1 2 3 4 5 6 
#
# 1 0.011997 -0.004719 0.001603 -0.000810 0.008701 -0.000186
# 2 -0.004719 0.010581 -0.007173 -0.005036 -0.007600 -0.001172
# 3 0.001603 -0.007173 0.018650 0.005344 0.018391 -0.000527
# 4 -0.000810 -0.005036 0.005344 0.034101 0.001525 0.005439
# 5 0.008701 -0.007600 0.018391 0.001525 0.045767 -0.000191
# 6 -0.000186 -0.001172 -0.000527 0.005439 -0.000191 0.023027
#
#
# Mechanical properties :
#
#
# Convention : Reuss Voigt Hill
#
# Bulk Modulus (GPa) = 48.42521 86.39513 67.41017
# Shear Modulus (GPa) = 29.14005 40.97058 35.05531
#
# Velocity S-wave (km/s) = 3.55682 4.21748 3.90116
# Velocity P-wave (km/s) = 6.15561 7.82459 7.03974
#
# Compressibility (1/GPa) = 0.02065040
#
# Stress axis : x y z
#
# Youngs Moduli (GPa) = 83.35092 94.51309 53.61886
#
# Poissons Ratio (x) = 0.44601 -0.08596
# Poissons Ratio (y) = 0.39334 0.38461
# Poissons Ratio (z) = -0.13363 0.67795
#
# Static dielectric constant tensor:
#      x y z
#    x 4.190060 0.021200 -0.139550 
#    y 0.021200 4.261950 -0.310000 
#    z -0.139550 -0.310000 4.751270 
# 
# 
# High freq. dielectric constant tensor:
#      x y z
#    x 1.919140 -0.000210 -0.010650 
#    y -0.000210 1.909240 -0.013800 
#    z -0.010650 -0.013800 1.924750 
# 
# From -- ./inp_files/36467.got.cif
#   From: 2010.06.25/outbox.cif.g09.slc.cpg/sg2_19_cif.got.tgz:36467.got - 2010.06.27 13:26:56.
