data_PCOD8028344
_publ_section_title
;
Structure prediction by ZEFSAII (Michael W. Deem and Ramdas Pophale) SiO2 
 PCOD8028344
Probable space group: P -1
;
_chemical_formula_sum "Si O2"
_cell_formula_units_Z 16
_cell_length_a 9.226474
_cell_length_b 12.191761
_cell_length_c 15.449636
_cell_angle_alpha 53.541004
_cell_angle_beta 113.927684
_cell_angle_gamma 67.964716
_cell_volume 696.815040
_symmetry_space_group_name_H-M "P -1"
_symmetry_group_IT_number 2
_symmetry_cell_setting 'triclinic'
loop_
_space_group_symop_operation_xyz
x,y,z
-x,-y,-z
loop_
_atom_site_type_symbol
_atom_site_label
_atom_site_fract_x
_atom_site_fract_y
_atom_site_fract_z
Si Si1 0.671012 0.751167 0.620574
Si Si2 0.750753 0.546892 0.041389
Si Si3 0.693112 0.493896 0.860898
Si Si4 0.815147 0.318997 0.622802
Si Si5 0.852919 0.253630 0.340931
Si Si6 0.314844 0.313263 0.543407
Si Si7 0.094916 0.994565 0.115264
Si Si8 0.152717 0.138414 0.626715
O O1 0.547397 0.709244 0.660719
O O2 0.595895 0.793234 0.481618
O O3 0.014091 0.515373 0.835938
O O4 0.500000 0.000000 0.500000
O O5 0.816059 0.352522 0.192538
O O6 0.791167 0.495689 0.972874
O O7 0.433760 0.838527 0.848854
O O8 0.471547 0.530841 0.804663
O O9 0.959965 0.236281 0.995209
O O10 0.500000 0.500000 0.500000
O O11 0.916646 0.392853 0.654456
O O12 0.883133 0.283671 0.552985
O O13 0.009204 0.049654 0.823415
O O14 0.043587 0.214236 0.465764
O O15 0.000000 0.000000 0.500000
O O16 0.222368 0.248320 0.607297
O O17 0.563729 0.214349 0.704095
O O18 0.000000 0.000000 0.000000
#
# Coordination Sequence:
#
# PCOD8028344 Si02
#       8
#     2   2   2   2   2   2   2   2
#     4  12  24  44  72 107 144 190 238 292 362 424
#     4  12  25  47  69 109 145 188 242 293 362 429
#     4  12  25  41  72 101 147 189 240 299 351 426
#     4  10  25  45  72  98 137 183 240 294 357 431
#     4  12  26  43  70 103 149 187 239 292 364 426
#     4  11  24  47  70 103 144 187 239 295 357 430
#     4  11  25  45  69 104 140 186 245 298 358 424
#     4  12  25  47  72 106 144 190 236 300 362 431
#
# _framework density 22.961617
#
# number of rings (size 3 to 8) (size 9 to 14) (size 15 to 20)
#    0.000    0.500    2.500    5.625    8.750    0.000 
#    0.000    1.250    0.000    0.000    0.000    0.000 
#    0.000    0.000    0.000    0.000    0.000    0.000 
#
# Total GULP energy -198234.842107 kJ/mol
# GULP energy per Si atom -12389.677632 kJ/mol
# Density = 2.290936 g / cm^3
# Si number density = 22.961617 Si / 1000 Ang^3
#
#
#
# Elastic Constant Matrix: (Units=GPa)
#
#
# Indices 1 2 3 4 5 6 
#
# 1 112.6509 36.5210 37.9041 8.9227 -22.3420 6.1029
# 2 36.5210 120.8778 36.7800 -0.0202 -6.2591 3.9238
# 3 37.9041 36.7800 85.5936 5.8456 -12.7528 4.5403
# 4 8.9227 -0.0202 5.8456 45.3064 11.9216 -4.8132
# 5 -22.3420 -6.2591 -12.7528 11.9216 53.2577 -1.6861
# 6 6.1029 3.9238 4.5403 -4.8132 -1.6861 42.2982
#
#
#
# Elastic Compliance Matrix: (Units=1/GPa)
#
#
# Indices 1 2 3 4 5 6 
#
# 1 0.012013 -0.002333 -0.003324 -0.003310 0.004667 -0.001351
# 2 -0.002333 0.009989 -0.003463 0.001132 -0.000891 -0.000125
# 3 -0.003324 -0.003463 0.015165 -0.001997 0.002247 -0.000965
# 4 -0.003310 0.001132 -0.001997 0.025235 -0.007282 0.003168
# 5 0.004667 -0.000891 0.002247 -0.007282 0.022774 -0.000753
# 6 -0.001351 -0.000125 -0.000965 0.003168 -0.000753 0.024282
#
#
# Mechanical properties :
#
#
# Convention : Reuss Voigt Hill
#
# Bulk Modulus (GPa) = 52.83258 60.17030 56.50144
# Shear Modulus (GPa) = 37.31127 42.03360 39.67244
#
# Velocity S-wave (km/s) = 4.03543 4.28320 4.16116
# Velocity P-wave (km/s) = 6.69118 7.12198 6.90994
#
# Compressibility (1/GPa) = 0.01892771
#
# Stress axis : x y z
#
# Youngs Moduli (GPa) = 83.24442 100.10559 65.93936
#
# Poissons Ratio (x) = 0.23355 0.21919
# Poissons Ratio (y) = 0.19421 0.22834
# Poissons Ratio (z) = 0.27672 0.34665
#
# Static dielectric constant tensor:
#      x y z
#    x 4.453420 0.198650 -0.174510 
#    y 0.198650 4.220110 -0.102460 
#    z -0.174510 -0.102460 4.463140 
# 
# 
# High freq. dielectric constant tensor:
#      x y z
#    x 1.920840 0.009420 -0.020680 
#    y 0.009420 1.907710 -0.011370 
#    z -0.020680 -0.011370 1.905080 
# 
# From -- ./inp_files/500062.got.cif
#   From: 2010.06.25/outbox.cif.g09.slc.cpg/sg2_251_cif.got.tgz:500062.got - 2010.06.27 13:26:56.
