data_PCOD8028640
_publ_section_title
;
Structure prediction by ZEFSAII (Michael W. Deem and Ramdas Pophale) SiO2 
 PCOD8028640
Probable space group: P -1
;
_chemical_formula_sum "Si O2"
_cell_formula_units_Z 10
_cell_length_a 8.866836
_cell_length_b 9.139500
_cell_length_c 5.355764
_cell_angle_alpha 108.159761
_cell_angle_beta 104.738921
_cell_angle_gamma 85.415412
_cell_volume 398.834425
_symmetry_space_group_name_H-M "P -1"
_symmetry_group_IT_number 2
_symmetry_cell_setting 'triclinic'
loop_
_space_group_symop_operation_xyz
x,y,z
-x,-y,-z
loop_
_atom_site_type_symbol
_atom_site_label
_atom_site_fract_x
_atom_site_fract_y
_atom_site_fract_z
Si Si1 0.704106 0.337725 0.704897
Si Si2 0.406183 0.845286 0.854306
Si Si3 0.625169 0.640898 0.078533
Si Si4 0.086593 0.838161 0.929708
Si Si5 0.200899 0.366707 0.337648
O O1 0.570061 0.245138 0.446353
O O2 0.606824 0.456644 0.911299
O O3 0.825689 0.218913 0.813986
O O4 0.803681 0.448559 0.615963
O O5 0.463026 0.738945 0.053620
O O6 0.219722 0.867770 0.795942
O O7 0.500000 0.000000 0.000000
O O8 0.708786 0.670727 0.389750
O O9 0.722275 0.713268 0.919978
O O10 0.971199 0.701009 0.730265
O O11 0.000000 0.000000 0.000000
#
# Coordination Sequence:
#
# PCOD8028640 Si02
#       5
#     2   2   2   2   2
#     4  10  26  46  82 108 152 198 262 310 380 446
#     4  12  28  47  76 112 158 201 253 316 385 451
#     4  10  25  49  80 114 149 195 257 314 377 450
#     4  12  28  47  76 112 158 201 253 316 385 451
#     4  10  25  49  80 114 149 195 257 314 377 450
#
# _framework density 25.073060999999999
#
# number of rings (size 3 to 8) (size 9 to 14) (size 15 to 20)
#    1.200    0.000    0.000    3.600    8.400    4.800 
#    0.000    0.000    0.000    0.000    0.000    0.000 
#    0.000    0.000    0.000    0.000    0.000    0.000 
#
# Total GULP energy -123933.171971 kJ/mol
# GULP energy per Si atom -12393.317197 kJ/mol
# Density = 2.501599 g / cm^3
# Si number density = 25.073061 Si / 1000 Ang^3
#
#
#
# Elastic Constant Matrix: (Units=GPa)
#
#
# Indices 1 2 3 4 5 6 
#
# 1 141.1824 85.9160 59.7173 11.8926 10.2659 -2.5120
# 2 85.9160 171.2204 83.1819 -0.5496 27.6614 1.9850
# 3 59.7173 83.1819 182.4462 -12.8877 17.9994 5.6080
# 4 11.8926 -0.5496 -12.8877 46.3571 5.5275 28.5957
# 5 10.2659 27.6614 17.9994 5.5275 37.4685 -1.1604
# 6 -2.5120 1.9850 5.6080 28.5957 -1.1604 43.3219
#
#
#
# Elastic Compliance Matrix: (Units=1/GPa)
#
#
# Indices 1 2 3 4 5 6 
#
# 1 0.012163 -0.005487 -0.002668 -0.008785 0.003519 0.007195
# 2 -0.005487 0.010631 -0.002126 0.003500 -0.005933 -0.002999
# 3 -0.002668 -0.002126 0.008261 0.006811 -0.002849 -0.005699
# 4 -0.008785 0.003500 0.006811 0.047706 -0.011520 -0.033350
# 5 0.003519 -0.005933 -0.002849 -0.011520 0.033462 0.009345
# 6 0.007195 -0.002999 -0.005699 -0.033350 0.009345 0.046639
#
#
# Mechanical properties :
#
#
# Convention : Reuss Voigt Hill
#
# Bulk Modulus (GPa) = 95.30971 105.83107 100.57039
# Shear Modulus (GPa) = 27.33379 43.16510 35.24945
#
# Velocity S-wave (km/s) = 3.30535 4.15369 3.75356
# Velocity P-wave (km/s) = 7.25689 8.08114 7.68008
#
# Compressibility (1/GPa) = 0.01049211
#
# Stress axis : x y z
#
# Youngs Moduli (GPa) = 82.21674 94.06244 121.04642
#
# Poissons Ratio (x) = 0.51612 0.32300
# Poissons Ratio (y) = 0.45112 0.25738
# Poissons Ratio (z) = 0.21939 0.20001
#
# Static dielectric constant tensor:
#      x y z
#    x 4.849180 0.143910 -0.197040 
#    y 0.143910 4.493030 -0.230130 
#    z -0.197040 -0.230130 4.531700 
# 
# 
# High freq. dielectric constant tensor:
#      x y z
#    x 2.017570 0.012040 -0.004910 
#    y 0.012040 2.012600 -0.015150 
#    z -0.004910 -0.015150 1.999690 
# 
# From -- ./inp_files/16459.got.cif
#   From: 2010.06.25/outbox.cif.g09.slc.cpg/sg2_9_cif.got.tgz:16459.got - 2010.06.27 13:26:56.
