data_PCOD8028256
_publ_section_title
;
Structure prediction by ZEFSAII (Michael W. Deem and Ramdas Pophale) SiO2 
 PCOD8028256
Probable space group: P -1
;
_chemical_formula_sum "Si O2"
_cell_formula_units_Z 14
_cell_length_a 8.092010
_cell_length_b 13.609669
_cell_length_c 10.594781
_cell_angle_alpha 39.078107
_cell_angle_beta 52.074335
_cell_angle_gamma 72.789634
_cell_volume 540.270415
_symmetry_space_group_name_H-M "P -1"
_symmetry_group_IT_number 2
_symmetry_cell_setting 'triclinic'
loop_
_space_group_symop_operation_xyz
x,y,z
-x,-y,-z
loop_
_atom_site_type_symbol
_atom_site_label
_atom_site_fract_x
_atom_site_fract_y
_atom_site_fract_z
Si Si1 0.259563 0.106124 0.292247
Si Si2 0.811563 0.755248 0.572499
Si Si3 0.288481 0.051412 0.056301
Si Si4 0.681660 0.420908 0.627353
Si Si5 0.546914 0.329642 0.517331
Si Si6 0.172434 0.598823 0.164588
Si Si7 0.393625 0.811317 0.613127
O O1 0.282498 0.259444 0.224243
O O2 0.338991 0.161016 0.056285
O O3 0.383570 0.993906 0.416084
O O4 0.000000 0.000000 0.500000
O O5 0.801253 0.576078 0.709456
O O6 0.647802 0.817332 0.502057
O O7 0.058382 0.895680 0.311626
O O8 0.305173 0.176552 0.805883
O O9 0.500000 0.000000 0.000000
O O10 0.675819 0.325179 0.593561
O O11 0.484835 0.495597 0.657227
O O12 0.668554 0.319344 0.868171
O O13 0.924232 0.572564 0.356397
O O14 0.693281 0.295607 0.368864
O O15 0.234978 0.722956 0.893019
#
# Coordination Sequence:
#
# PCOD8028256 Si02
#       7
#     2   2   2   2   2   2   2
#     4  10  25  45  67 102 143 184 238 286 357 421
#     4  11  25  45  69 105 145 188 231 293 356 425
#     4  11  23  45  70 100 145 186 237 290 354 423
#     4  10  25  46  69 105 139 185 243 290 357 414
#     4  11  24  44  71 103 138 188 236 296 353 419
#     4  11  25  46  73 104 144 185 238 294 355 420
#     4  12  25  46  70 109 141 188 238 292 360 423
#
# _framework density 25.912948
#
# number of rings (size 3 to 8) (size 9 to 14) (size 15 to 20)
#    0.000    1.143    2.857    1.714    8.000    2.286 
#    0.000    0.000    0.000    0.000    0.000    0.000 
#    0.000    0.000    0.000    0.000    0.000    0.000 
#
# Total GULP energy -173489.785922 kJ/mol
# GULP energy per Si atom -12392.127566 kJ/mol
# Density = 2.585397 g / cm^3
# Si number density = 25.912948 Si / 1000 Ang^3
#
#
#
# Elastic Constant Matrix: (Units=GPa)
#
#
# Indices 1 2 3 4 5 6 
#
# 1 87.7572 24.8376 22.2722 7.6332 13.0432 13.3815
# 2 24.8376 105.9257 2.0981 9.9750 8.9059 25.9601
# 3 22.2722 2.0981 88.2208 21.8972 33.9983 11.2725
# 4 7.6332 9.9750 21.8972 45.8408 9.2128 11.6104
# 5 13.0432 8.9059 33.9983 9.2128 36.5192 8.6898
# 6 13.3815 25.9601 11.2725 11.6104 8.6898 57.6397
#
#
#
# Elastic Compliance Matrix: (Units=1/GPa)
#
#
# Indices 1 2 3 4 5 6 
#
# 1 0.013182 -0.002653 -0.002636 0.000219 -0.001380 -0.001186
# 2 -0.002653 0.011431 0.002333 -0.001552 -0.002601 -0.004284
# 3 -0.002636 0.002333 0.019876 -0.006102 -0.016446 -0.000618
# 4 0.000219 -0.001552 -0.006102 0.025838 0.000273 -0.003404
# 5 -0.001380 -0.002601 -0.016446 0.000273 0.044231 -0.002015
# 6 -0.001186 -0.004284 -0.000618 -0.003404 -0.002015 0.020664
#
#
# Mechanical properties :
#
#
# Convention : Reuss Voigt Hill
#
# Bulk Modulus (GPa) = 25.92096 42.25771 34.08934
# Shear Modulus (GPa) = 32.46912 43.51299 37.99105
#
# Velocity S-wave (km/s) = 3.54362 4.10225 3.83313
# Velocity P-wave (km/s) = 5.17377 6.22743 5.72489
#
# Compressibility (1/GPa) = 0.03857882
#
# Stress axis : x y z
#
# Youngs Moduli (GPa) = 75.86278 87.48032 50.31129
#
# Poissons Ratio (x) = 0.23204 0.13260
# Poissons Ratio (y) = 0.20123 -0.11737
# Poissons Ratio (z) = 0.19994 -0.20409
#
# Static dielectric constant tensor:
#      x y z
#    x 5.433280 0.511090 1.035100 
#    y 0.511090 5.005530 0.454290 
#    z 1.035100 0.454290 7.654300 
# 
# 
# High freq. dielectric constant tensor:
#      x y z
#    x 2.044870 0.018070 -0.002020 
#    y 0.018070 2.051060 0.015300 
#    z -0.002020 0.015300 2.042390 
# 
# From -- ./inp_files/393575.got.cif
#   From: 2010.06.25/outbox.cif.g09.slc.cpg/sg2_197_cif.got.tgz:393575.got - 2010.06.27 13:26:56.
