data_PCOD8028235
_publ_section_title
;
Structure prediction by ZEFSAII (Michael W. Deem and Ramdas Pophale) SiO2 
 PCOD8028235
Probable space group: P -1
;
_chemical_formula_sum "Si O2"
_cell_formula_units_Z 12
_cell_length_a 8.554994
_cell_length_b 7.640850
_cell_length_c 15.346923
_cell_angle_alpha 108.215082
_cell_angle_beta 149.542201
_cell_angle_gamma 81.420740
_cell_volume 467.726444
_symmetry_space_group_name_H-M "P -1"
_symmetry_group_IT_number 2
_symmetry_cell_setting 'triclinic'
loop_
_space_group_symop_operation_xyz
x,y,z
-x,-y,-z
loop_
_atom_site_type_symbol
_atom_site_label
_atom_site_fract_x
_atom_site_fract_y
_atom_site_fract_z
Si Si1 0.363281 0.081712 0.864964
Si Si2 0.758615 0.177824 0.562709
Si Si3 0.360381 0.986716 0.186432
Si Si4 0.260701 0.564376 0.815953
Si Si5 0.371039 0.572690 0.181712
Si Si6 0.633530 0.631395 0.500363
O O1 0.471986 0.975950 0.819968
O O2 0.975825 0.032310 0.667435
O O3 0.520112 0.315520 0.981716
O O4 0.500000 0.000000 0.000000
O O5 0.528892 0.190139 0.536711
O O6 0.024112 0.372050 0.703851
O O7 0.540949 0.141360 0.366208
O O8 0.429474 0.793151 0.223426
O O9 0.000000 0.000000 0.000000
O O10 0.484849 0.539227 0.839744
O O11 0.018580 0.695050 0.691833
O O12 0.518456 0.530962 0.337848
O O13 0.000000 0.500000 0.000000
O O14 0.500000 0.500000 0.500000
#
# Coordination Sequence:
#
# PCOD8028235 Si02
#       6
#     2   2   2   2   2   2
#     4  12  28  46  77 112 150 192 250 313 374 440
#     4  11  25  51  78 104 152 194 252 310 377 443
#     4  12  30  49  73 111 156 197 250 310 373 443
#     4  11  25  48  79 106 148 195 253 299 380 442
#     4  12  28  46  76 107 155 199 250 304 374 445
#     4  10  25  44  77 107 143 190 251 305 367 440
#
# _framework density 25.656023999999999
#
# number of rings (size 3 to 8) (size 9 to 14) (size 15 to 20)
#    0.000    0.667    1.667    3.500   16.333    0.667 
#    0.000    0.000    0.000    0.000    0.000    0.000 
#    0.000    0.000    0.000    0.000    0.000    0.000 
#
# Total GULP energy -148737.581996 kJ/mol
# GULP energy per Si atom -12394.798500 kJ/mol
# Density = 2.559763 g / cm^3
# Si number density = 25.656024 Si / 1000 Ang^3
#
#
#
# Elastic Constant Matrix: (Units=GPa)
#
#
# Indices 1 2 3 4 5 6 
#
# 1 167.9941 19.3903 67.5875 -27.6081 7.4564 -59.7002
# 2 19.3903 61.6364 20.1008 -25.2567 9.2198 -28.1436
# 3 67.5875 20.1008 212.3490 -32.1319 5.2545 -36.5226
# 4 -27.6081 -25.2567 -32.1319 47.8200 -11.4112 5.7469
# 5 7.4564 9.2198 5.2545 -11.4112 54.1931 -12.5676
# 6 -59.7002 -28.1436 -36.5226 5.7469 -12.5676 55.8464
#
#
#
# Elastic Compliance Matrix: (Units=1/GPa)
#
#
# Indices 1 2 3 4 5 6 
#
# 1 0.012566 0.007096 -0.000509 0.009382 0.002883 0.016359
# 2 0.007096 0.031837 0.001694 0.019974 0.003069 0.023373
# 3 -0.000509 0.001694 0.006053 0.004436 0.001069 0.004052
# 4 0.009382 0.019974 0.004436 0.039265 0.007960 0.020747
# 5 0.002883 0.003069 0.001069 0.007960 0.021261 0.009293
# 6 0.016359 0.023373 0.004052 0.020747 0.009293 0.049780
#
#
# Mechanical properties :
#
#
# Convention : Reuss Voigt Hill
#
# Bulk Modulus (GPa) = 14.92128 72.90410 43.91269
# Shear Modulus (GPa) = 30.02305 53.89862 41.96083
#
# Velocity S-wave (km/s) = 3.42455 4.58844 4.04854
# Velocity P-wave (km/s) = 4.63306 7.51993 6.24558
#
# Compressibility (1/GPa) = 0.06701837
#
# Stress axis : x y z
#
# Youngs Moduli (GPa) = 79.57964 31.40961 165.21898
#
# Poissons Ratio (x) = -0.22289 0.08413
# Poissons Ratio (y) = -0.56471 -0.27992
# Poissons Ratio (z) = 0.04052 -0.05321
#
# Static dielectric constant tensor:
#      x y z
#    x 4.897230 -0.962610 0.319500 
#    y -0.962610 6.487200 -0.452880 
#    z 0.319500 -0.452880 5.368220 
# 
# 
# High freq. dielectric constant tensor:
#      x y z
#    x 2.030200 -0.012440 0.009530 
#    y -0.012440 2.051880 -0.019670 
#    z 0.009530 -0.019670 2.047790 
# 
# From -- ./inp_files/152303.got.cif
#   From: 2010.06.25/outbox.cif.g09.slc.cpg/sg2_77_cif.got.tgz:152303.got - 2010.06.27 13:26:56.
