data_PCOD8028443
_publ_section_title
;
Structure prediction by ZEFSAII (Michael W. Deem and Ramdas Pophale) SiO2 
 PCOD8028443
Probable space group: P -1
;
_chemical_formula_sum "Si O2"
_cell_formula_units_Z 14
_cell_length_a 5.103716
_cell_length_b 25.775436
_cell_length_c 13.356205
_cell_angle_alpha 156.460602
_cell_angle_beta 72.936623
_cell_angle_gamma 117.510463
_cell_volume 578.911092
_symmetry_space_group_name_H-M "P -1"
_symmetry_group_IT_number 2
_symmetry_cell_setting 'triclinic'
loop_
_space_group_symop_operation_xyz
x,y,z
-x,-y,-z
loop_
_atom_site_type_symbol
_atom_site_label
_atom_site_fract_x
_atom_site_fract_y
_atom_site_fract_z
Si Si1 0.072580 0.459450 0.222107
Si Si2 0.392060 0.942004 0.641908
Si Si3 0.752990 0.643804 0.556673
Si Si4 0.272807 0.837886 0.688068
Si Si5 0.104401 0.119538 0.889783
Si Si6 0.749397 0.454390 0.859795
Si Si7 0.482323 0.848924 0.268045
O O1 0.415595 0.511719 0.322112
O O2 0.071480 0.443885 0.075207
O O3 0.949057 0.574578 0.463980
O O4 0.829041 0.293234 0.996180
O O5 0.209468 0.857152 0.612980
O O6 0.471954 0.841816 0.378214
O O7 0.165081 0.990884 0.700172
O O8 0.741766 0.079058 0.873616
O O9 0.941094 0.755163 0.639470
O O10 0.683480 0.731666 0.805716
O O11 0.411669 0.723356 0.467848
O O12 0.500000 0.000000 0.000000
O O13 0.211125 0.149133 0.813056
O O14 0.500000 0.500000 0.000000
O O15 0.000000 0.500000 0.000000
O O16 0.500000 0.000000 0.500000
#
# Coordination Sequence:
#
# PCOD8028443 Si02
#       7
#     2   2   2   2   2   2   2
#     4  11  25  44  68  98 141 181 228 288 350 419
#     4  11  24  43  70 102 140 176 232 292 346 401
#     4  11  25  44  67 104 141 180 226 281 359 421
#     4  11  24  45  74 110 142 188 236 293 352 428
#     4  11  24  43  68 100 138 179 234 285 343 408
#     4  11  24  44  66 100 142 188 230 281 355 425
#     4  10  25  46  71 100 132 183 239 290 341 414
#
# _framework density 24.183330999999999
#
# number of rings (size 3 to 8) (size 9 to 14) (size 15 to 20)
#    0.000    1.143    1.429    3.857    2.000   12.000 
#    0.000    0.000    0.000    0.000    0.000    0.000 
#    0.000    0.000    0.000    0.000    0.000    0.000 
#
# Total GULP energy -173536.713942 kJ/mol
# GULP energy per Si atom -12395.479567 kJ/mol
# Density = 2.412829 g / cm^3
# Si number density = 24.183331 Si / 1000 Ang^3
#
#
#
# Elastic Constant Matrix: (Units=GPa)
#
#
# Indices 1 2 3 4 5 6 
#
# 1 96.7354 5.8997 26.2280 0.6614 0.2435 8.0438
# 2 5.8997 93.2318 58.5733 -13.6752 -9.5511 0.9313
# 3 26.2280 58.5733 124.4668 1.5815 -9.9290 9.2232
# 4 0.6614 -13.6752 1.5815 49.8574 10.0113 7.0719
# 5 0.2435 -9.5511 -9.9290 10.0113 36.3179 -4.6115
# 6 8.0438 0.9313 9.2232 7.0719 -4.6115 22.8660
#
#
#
# Elastic Compliance Matrix: (Units=1/GPa)
#
#
# Indices 1 2 3 4 5 6 
#
# 1 0.011299 0.001048 -0.002729 0.000968 -0.001254 -0.003469
# 2 0.001048 0.016426 -0.008000 0.004387 0.001049 0.001044
# 3 -0.002729 -0.008000 0.012748 -0.002528 0.001751 -0.002721
# 4 0.000968 0.004387 -0.002528 0.023962 -0.007212 -0.008365
# 5 -0.001254 0.001049 0.001751 -0.007212 0.031332 0.008241
# 6 -0.003469 0.001044 -0.002721 -0.008365 0.008241 0.050257
#
#
# Mechanical properties :
#
#
# Convention : Reuss Voigt Hill
#
# Bulk Modulus (GPa) = 47.37294 55.09291 51.23292
# Shear Modulus (GPa) = 28.99824 36.72379 32.86101
#
# Velocity S-wave (km/s) = 3.46656 3.90110 3.69023
# Velocity P-wave (km/s) = 5.97112 6.56675 6.27601
#
# Compressibility (1/GPa) = 0.02110910
#
# Stress axis : x y z
#
# Youngs Moduli (GPa) = 88.50722 60.87757 78.44515
#
# Poissons Ratio (x) = -0.06379 0.21410
# Poissons Ratio (y) = -0.09275 0.62759
# Poissons Ratio (z) = 0.24156 0.48705
#
# Static dielectric constant tensor:
#      x y z
#    x 4.376930 0.277680 -0.102490 
#    y 0.277680 4.904410 -0.292420 
#    z -0.102490 -0.292420 4.651210 
# 
# 
# High freq. dielectric constant tensor:
#      x y z
#    x 1.939360 0.009100 -0.001010 
#    y 0.009100 1.971020 -0.010750 
#    z -0.001010 -0.010750 1.972210 
# 
# From -- ./inp_files/486295.got.cif
#   From: 2010.06.25/outbox.cif.g09.slc.cpg/sg2_244_cif.got.tgz:486295.got - 2010.06.27 13:26:56.
