data_PCOD8028335
_publ_section_title
;
Structure prediction by ZEFSAII (Michael W. Deem and Ramdas Pophale) SiO2 
 PCOD8028335
Probable space group: P -1
;
_chemical_formula_sum "Si O2"
_cell_formula_units_Z 10
_cell_length_a 10.102976
_cell_length_b 8.625833
_cell_length_c 13.780929
_cell_angle_alpha 51.223028
_cell_angle_beta 44.232835
_cell_angle_gamma 87.680731
_cell_volume 431.434160
_symmetry_space_group_name_H-M "P -1"
_symmetry_group_IT_number 2
_symmetry_cell_setting 'triclinic'
loop_
_space_group_symop_operation_xyz
x,y,z
-x,-y,-z
loop_
_atom_site_type_symbol
_atom_site_label
_atom_site_fract_x
_atom_site_fract_y
_atom_site_fract_z
Si Si1 0.056894 0.104510 0.039855
Si Si2 0.326303 0.535441 0.128281
Si Si3 0.293934 0.829370 0.404759
Si Si4 0.533133 0.214951 0.467039
Si Si5 0.464702 0.766560 0.164792
O O1 0.213927 0.441334 0.835211
O O2 0.236167 0.074852 0.010497
O O3 0.758441 0.886600 0.339799
O O4 0.000000 0.000000 0.000000
O O5 0.352136 0.527110 0.234751
O O6 0.988117 0.262559 0.387721
O O7 0.500000 0.500000 0.000000
O O8 0.447198 0.835113 0.904480
O O9 0.405098 0.807535 0.448785
O O10 0.238774 0.620485 0.430337
O O11 0.500000 0.000000 0.500000
O O12 0.500000 0.000000 0.000000
#
# Coordination Sequence:
#
# PCOD8028335 Si02
#       5
#     2   2   2   2   2
#     4  12  26  48  75 105 139 192 241 287 353 426
#     4  11  25  42  69 100 135 184 234 290 348 416
#     4  11  24  45  67  97 142 181 233 289 350 412
#     4  12  28  45  74 104 147 185 235 298 354 417
#     4  10  25  45  72 101 141 182 237 289 349 417
#
# _framework density 23.178508000000001
#
# number of rings (size 3 to 8) (size 9 to 14) (size 15 to 20)
#    0.000    0.800    2.000    3.600    8.400    3.200 
#    0.000    0.000    0.000    0.000    0.000    0.000 
#    0.000    0.000    0.000    0.000    0.000    0.000 
#
# Total GULP energy -124001.296974 kJ/mol
# GULP energy per Si atom -12400.129697 kJ/mol
# Density = 2.312575 g / cm^3
# Si number density = 23.178508 Si / 1000 Ang^3
#
#
#
# Elastic Constant Matrix: (Units=GPa)
#
#
# Indices 1 2 3 4 5 6 
#
# 1 161.1186 34.5971 26.3310 11.5333 -0.5789 -5.7672
# 2 34.5971 131.5872 16.0652 21.0223 3.0693 3.2687
# 3 26.3310 16.0652 75.9539 12.3877 -13.8659 5.4693
# 4 11.5333 21.0223 12.3877 45.3964 -4.5219 -8.0576
# 5 -0.5789 3.0693 -13.8659 -4.5219 40.3847 13.0390
# 6 -5.7672 3.2687 5.4693 -8.0576 13.0390 28.2745
#
#
#
# Elastic Compliance Matrix: (Units=1/GPa)
#
#
# Indices 1 2 3 4 5 6 
#
# 1 0.007069 -0.001572 -0.002617 -0.000004 -0.001604 0.002868
# 2 -0.001572 0.008785 -0.000661 -0.003913 -0.000711 -0.001996
# 3 -0.002617 -0.000661 0.017072 -0.004433 0.008224 -0.008816
# 4 -0.000004 -0.003913 -0.004433 0.026606 -0.001312 0.009496
# 5 -0.001604 -0.000711 0.008224 -0.001312 0.033114 -0.017480
# 6 0.002868 -0.001996 -0.008816 0.009496 -0.017480 0.048656
#
#
# Mechanical properties :
#
#
# Convention : Reuss Voigt Hill
#
# Bulk Modulus (GPa) = 43.05457 58.07181 50.56319
# Shear Modulus (GPa) = 31.49725 42.25555 36.87640
#
# Velocity S-wave (km/s) = 3.69032 4.27435 3.99303
# Velocity P-wave (km/s) = 6.06412 7.03339 6.56666
#
# Compressibility (1/GPa) = 0.02322634
#
# Stress axis : x y z
#
# Youngs Moduli (GPa) = 141.46073 113.83101 58.57513
#
# Poissons Ratio (x) = 0.17897 0.15328
# Poissons Ratio (y) = 0.22241 0.03871
# Poissons Ratio (z) = 0.37017 0.07523
#
# Static dielectric constant tensor:
#      x y z
#    x 4.654880 0.820750 0.028300 
#    y 0.820750 5.946420 0.315470 
#    z 0.028300 0.315470 4.251160 
# 
# 
# High freq. dielectric constant tensor:
#      x y z
#    x 1.932550 0.000720 -0.002660 
#    y 0.000720 1.923490 0.015440 
#    z -0.002660 0.015440 1.915020 
# 
# From -- ./inp_files/15732.got.cif
#   From: 2010.06.25/outbox.cif.g09.slc.cpg/sg2_8_cif.got.tgz:15732.got - 2010.06.27 13:26:56.
