data_PCOD8028660
_publ_section_title
;
Structure prediction by ZEFSAII (Michael W. Deem and Ramdas Pophale) SiO2 
 PCOD8028660
Probable space group: P -1
;
_chemical_formula_sum "Si O2"
_cell_formula_units_Z 16
_cell_length_a 11.840189
_cell_length_b 5.282215
_cell_length_c 19.082223
_cell_angle_alpha 65.348675
_cell_angle_beta 134.819367
_cell_angle_gamma 127.424723
_cell_volume 672.156654
_symmetry_space_group_name_H-M "P -1"
_symmetry_group_IT_number 2
_symmetry_cell_setting 'triclinic'
loop_
_space_group_symop_operation_xyz
x,y,z
-x,-y,-z
loop_
_atom_site_type_symbol
_atom_site_label
_atom_site_fract_x
_atom_site_fract_y
_atom_site_fract_z
Si Si1 0.828068 0.544053 0.408915
Si Si2 0.502141 0.879880 0.770224
Si Si3 0.702076 0.234407 0.530926
Si Si4 0.981905 0.192737 0.168305
Si Si5 0.069429 0.121887 0.365212
Si Si6 0.106209 0.367096 0.986890
Si Si7 0.701019 0.572365 0.805396
Si Si8 0.359024 0.264193 0.018387
O O1 0.711170 0.328135 0.317445
O O2 0.702079 0.429156 0.437629
O O3 0.000000 0.500000 0.500000
O O4 0.917179 0.918336 0.381748
O O5 0.606059 0.747456 0.782069
O O6 0.559767 0.251152 0.739360
O O7 0.535284 0.854158 0.869691
O O8 0.813912 0.508611 0.605044
O O9 0.500000 0.000000 0.500000
O O10 0.798701 0.025010 0.578510
O O11 0.954048 0.108247 0.247317
O O12 0.156294 0.169548 0.217864
O O13 0.030122 0.554531 0.127128
O O14 0.798028 0.012773 0.063922
O O15 0.280612 0.456564 0.004489
O O16 0.184961 0.531966 0.078108
O O17 0.000000 0.000000 0.000000
O O18 0.500000 0.500000 0.000000
#
# Coordination Sequence:
#
# PCOD8028660 Si02
#       8
#     2   2   2   2   2   2   2   2
#     4  10  25  52  77 103 147 191 241 308 379 440
#     4  11  25  44  70 105 137 188 243 290 359 431
#     4  11  26  48  76 107 143 185 249 310 363 431
#     4  12  24  41  71 104 151 188 243 294 362 428
#     4  11  27  45  74 109 142 195 238 297 380 437
#     4  11  22  43  68  96 146 201 239 288 355 421
#     4  11  24  40  68 103 142 186 240 293 348 419
#     4  11  24  42  65 102 148 189 237 288 354 432
#
# _framework density 23.803975999999999
#
# number of rings (size 3 to 8) (size 9 to 14) (size 15 to 20)
#    0.000    1.000    2.500    3.375    5.250    4.500 
#    2.250    0.000    0.000    0.000    0.000    0.000 
#    0.000    0.000    0.000    0.000    0.000    0.000 
#
# Total GULP energy -198254.828830 kJ/mol
# GULP energy per Si atom -12390.926802 kJ/mol
# Density = 2.374980 g / cm^3
# Si number density = 23.803976 Si / 1000 Ang^3
#
#
#
# Elastic Constant Matrix: (Units=GPa)
#
#
# Indices 1 2 3 4 5 6 
#
# 1 96.4095 56.6500 26.9867 -4.4257 -15.6261 29.9964
# 2 56.6500 128.9694 45.6794 14.9478 -7.8212 18.9182
# 3 26.9867 45.6794 133.3876 13.9294 -14.4244 17.5895
# 4 -4.4257 14.9478 13.9294 45.2844 7.3208 -2.8773
# 5 -15.6261 -7.8212 -14.4244 7.3208 29.4273 -3.1351
# 6 29.9964 18.9182 17.5895 -2.8773 -3.1351 51.2955
#
#
#
# Elastic Compliance Matrix: (Units=1/GPa)
#
#
# Indices 1 2 3 4 5 6 
#
# 1 0.017655 -0.006598 0.000094 0.002388 0.006285 -0.007405
# 2 -0.006598 0.011897 -0.002422 -0.003727 -0.000595 0.000055
# 3 0.000094 -0.002422 0.009404 -0.002958 0.004509 -0.002277
# 4 0.002388 -0.003727 -0.002958 0.025774 -0.007373 0.001988
# 5 0.006285 -0.000595 0.004509 -0.007373 0.040895 -0.002916
# 6 -0.007405 0.000055 -0.002277 0.001988 -0.002916 0.024519
#
#
# Mechanical properties :
#
#
# Convention : Reuss Voigt Hill
#
# Bulk Modulus (GPa) = 47.38064 68.59986 57.99025
# Shear Modulus (GPa) = 32.25165 40.49813 36.37489
#
# Velocity S-wave (km/s) = 3.68487 4.12918 3.91333
# Velocity P-wave (km/s) = 6.16864 7.18434 6.69577
#
# Compressibility (1/GPa) = 0.02110567
#
# Stress axis : x y z
#
# Youngs Moduli (GPa) = 56.64061 84.05142 106.33768
#
# Poissons Ratio (x) = 0.55456 -0.01003
# Poissons Ratio (y) = 0.37370 0.25755
# Poissons Ratio (z) = -0.00534 0.20357
#
# Static dielectric constant tensor:
#      x y z
#    x 4.198880 0.390240 -0.150710 
#    y 0.390240 4.362710 0.175640 
#    z -0.150710 0.175640 4.704590 
# 
# 
# High freq. dielectric constant tensor:
#      x y z
#    x 1.939410 0.009430 -0.005990 
#    y 0.009430 1.948820 0.005520 
#    z -0.005990 0.005520 1.947390 
# 
# From -- ./inp_files/564432.got.cif
#   From: 2010.06.25/outbox.cif.g09.slc.cpg/sg2_283_cif.got.tgz:564432.got - 2010.06.27 13:26:56.
