data_PCOD8028763
_publ_section_title
;
Structure prediction by ZEFSAII (Michael W. Deem and Ramdas Pophale) SiO2 
 PCOD8028763
Probable space group: P -1
;
_chemical_formula_sum "Si O2"
_cell_formula_units_Z 14
_cell_length_a 14.575250
_cell_length_b 23.834085
_cell_length_c 15.879777
_cell_angle_alpha 161.459755
_cell_angle_beta 26.349718
_cell_angle_gamma 160.160362
_cell_volume 594.843174
_symmetry_space_group_name_H-M "P -1"
_symmetry_group_IT_number 2
_symmetry_cell_setting 'triclinic'
loop_
_space_group_symop_operation_xyz
x,y,z
-x,-y,-z
loop_
_atom_site_type_symbol
_atom_site_label
_atom_site_fract_x
_atom_site_fract_y
_atom_site_fract_z
Si Si1 0.681325 0.833261 0.777454
Si Si2 0.374604 0.496193 0.763404
Si Si3 0.438271 0.338598 0.744578
Si Si4 0.800820 0.511566 0.542906
Si Si5 0.237486 0.869649 0.206653
Si Si6 0.112539 0.834074 0.077029
Si Si7 0.184798 0.016051 0.941084
O O1 0.624449 0.599942 0.465622
O O2 0.411461 0.790499 0.966032
O O3 0.876103 0.943318 0.856082
O O4 0.815095 0.997505 0.819283
O O5 0.568460 0.486879 0.649263
O O6 0.073814 0.354644 0.844061
O O7 0.503989 0.763560 0.024840
O O8 0.713705 0.465983 0.647204
O O9 0.334827 0.083029 0.491159
O O10 0.500000 0.500000 0.000000
O O11 0.200566 0.304697 0.839614
O O12 0.831693 0.335583 0.231836
O O13 0.101604 0.764283 0.649754
O O14 0.282543 0.966988 0.211677
O O15 0.000000 0.000000 0.000000
#
# Coordination Sequence:
#
# PCOD8028763 Si02
#       7
#     2   2   2   2   2   2   2
#     4  12  23  41  73 100 133 177 229 282 335 405
#     4  11  23  46  68  97 139 182 229 272 327 407
#     4  12  25  38  63 104 145 175 213 276 347 409
#     4  11  23  44  68 100 140 177 222 278 343 397
#     4  12  24  41  69 108 138 171 224 279 345 405
#     4  12  23  41  71 107 136 173 222 283 348 400
#     4  10  26  47  68  93 136 189 231 274 330 398
#
# _framework density 23.535615
#
# number of rings (size 3 to 8) (size 9 to 14) (size 15 to 20)
#    0.000    0.571    5.714    3.000    2.000    1.714 
#    0.000    2.143    0.000    0.000    0.000    0.000 
#    0.000    0.000    0.000    0.000    0.000    0.000 
#
# Total GULP energy -173499.544694 kJ/mol
# GULP energy per Si atom -12392.824621 kJ/mol
# Density = 2.348205 g / cm^3
# Si number density = 23.535615 Si / 1000 Ang^3
#
#
#
# Elastic Constant Matrix: (Units=GPa)
#
#
# Indices 1 2 3 4 5 6 
#
# 1 78.6537 24.6121 8.9515 1.9331 23.9203 2.6548
# 2 24.6121 128.8474 62.8211 14.7727 -10.7839 -4.3972
# 3 8.9515 62.8211 109.6163 1.6249 17.1796 13.1535
# 4 1.9331 14.7727 1.6249 40.4027 7.1226 -1.9682
# 5 23.9203 -10.7839 17.1796 7.1226 34.8698 -4.9662
# 6 2.6548 -4.3972 13.1535 -1.9682 -4.9662 26.9807
#
#
#
# Elastic Compliance Matrix: (Units=1/GPa)
#
#
# Indices 1 2 3 4 5 6 
#
# 1 0.029404 -0.019398 0.017343 0.011007 -0.039963 -0.021063
# 2 -0.019398 0.029420 -0.024513 -0.014864 0.041098 0.025134
# 3 0.017343 -0.024513 0.031397 0.012839 -0.041516 -0.027713
# 4 0.011007 -0.014864 0.012839 0.033308 -0.027030 -0.012310
# 5 -0.039963 0.041098 -0.041516 -0.027030 0.101555 0.047591
# 6 -0.021063 0.025134 -0.027713 -0.012310 0.047591 0.064605
#
#
# Mechanical properties :
#
#
# Convention : Reuss Voigt Hill
#
# Bulk Modulus (GPa) = 26.96544 56.65407 41.80975
# Shear Modulus (GPa) = 14.07711 35.16617 24.62164
#
# Velocity S-wave (km/s) = 2.44830 3.86964 3.23792
# Velocity P-wave (km/s) = 4.41298 6.63998 5.63754
#
# Compressibility (1/GPa) = 0.03708451
#
# Stress axis : x y z
#
# Youngs Moduli (GPa) = 34.00888 33.99062 31.85043
#
# Poissons Ratio (x) = 0.65935 -0.55239
# Poissons Ratio (y) = 0.65971 0.78076
# Poissons Ratio (z) = -0.58982 0.83322
#
# Static dielectric constant tensor:
#      x y z
#    x 4.414620 -0.059520 0.094750 
#    y -0.059520 4.668640 0.381930 
#    z 0.094750 0.381930 4.544090 
# 
# 
# High freq. dielectric constant tensor:
#      x y z
#    x 1.928890 -0.001470 0.012710 
#    y -0.001470 1.932760 0.014750 
#    z 0.012710 0.014750 1.934400 
# 
# From -- ./inp_files/257748.got.cif
#   From: 2010.06.25/outbox.cif.g09.slc.cpg/sg2_129_cif.got.tgz:257748.got - 2010.06.27 13:26:56.
