data_PCOD8028388
_publ_section_title
;
Structure prediction by ZEFSAII (Michael W. Deem and Ramdas Pophale) SiO2 
 PCOD8028388
Probable space group: P -1
;
_chemical_formula_sum "Si O2"
_cell_formula_units_Z 14
_cell_length_a 12.005301
_cell_length_b 15.065970
_cell_length_c 15.598034
_cell_angle_alpha 27.066673
_cell_angle_beta 26.733860
_cell_angle_gamma 33.407407
_cell_volume 566.640009
_symmetry_space_group_name_H-M "P -1"
_symmetry_group_IT_number 2
_symmetry_cell_setting 'triclinic'
loop_
_space_group_symop_operation_xyz
x,y,z
-x,-y,-z
loop_
_atom_site_type_symbol
_atom_site_label
_atom_site_fract_x
_atom_site_fract_y
_atom_site_fract_z
Si Si1 0.307913 0.648749 0.121305
Si Si2 0.563691 0.782233 0.353421
Si Si3 0.113440 0.623693 0.555630
Si Si4 0.619431 0.754461 0.671013
Si Si5 0.498632 0.209307 0.957942
Si Si6 0.799876 0.873647 0.278993
Si Si7 0.043649 0.765124 0.672594
O O1 0.436395 0.431559 0.186306
O O2 0.006380 0.665741 0.325630
O O3 0.389929 0.807339 0.855097
O O4 0.434447 0.683839 0.093658
O O5 0.800228 0.613775 0.308706
O O6 0.588907 0.849666 0.375571
O O7 0.308867 0.688675 0.604384
O O8 0.554243 0.970523 0.135902
O O9 0.046368 0.675276 0.654116
O O10 0.872941 0.696914 0.599692
O O11 0.335155 0.738667 0.278829
O O12 0.660380 0.920646 0.427920
O O13 0.204439 0.290976 0.064002
O O14 0.000000 0.000000 0.000000
O O15 0.000000 0.000000 0.500000
#
# Coordination Sequence:
#
# PCOD8028388 Si02
#       7
#     2   2   2   2   2   2   2
#     4  11  21  39  63  95 130 169 217 261 329 388
#     4  11  24  42  65 100 132 168 222 269 315 395
#     4  12  22  43  72  93 131 173 219 271 325 386
#     4  11  23  37  66  98 126 177 214 264 333 389
#     4  11  23  44  69  94 133 175 214 269 330 386
#     4  12  22  40  63  95 137 165 211 270 325 390
#     4  10  25  46  67  93 133 172 220 272 322 389
#
# _framework density 24.707045000000001
#
# number of rings (size 3 to 8) (size 9 to 14) (size 15 to 20)
#    0.000    0.857    5.714    1.714    0.000    3.429 
#    0.000    5.714    0.000    0.000    0.000    0.000 
#    0.000    0.000    0.000    0.000    0.000    0.000 
#
# Total GULP energy -173556.777466 kJ/mol
# GULP energy per Si atom -12396.912676 kJ/mol
# Density = 2.465081 g / cm^3
# Si number density = 24.707045 Si / 1000 Ang^3
#
#
#
# Elastic Constant Matrix: (Units=GPa)
#
#
# Indices 1 2 3 4 5 6 
#
# 1 71.8826 5.4967 3.6874 -6.0382 -12.8187 5.9097
# 2 5.4967 93.3784 26.5432 21.6950 4.0597 20.5630
# 3 3.6874 26.5432 104.4929 12.8296 1.6181 -0.4392
# 4 -6.0382 21.6950 12.8296 36.1013 4.6364 -4.1317
# 5 -12.8187 4.0597 1.6181 4.6364 29.0768 1.0264
# 6 5.9097 20.5630 -0.4392 -4.1317 1.0264 23.5845
#
#
#
# Elastic Compliance Matrix: (Units=1/GPa)
#
#
# Indices 1 2 3 4 5 6 
#
# 1 0.015668 -0.000812 -0.000727 0.002128 0.006833 -0.003156
# 2 -0.000812 0.018498 -0.003252 -0.012145 -0.000184 -0.018105
# 3 -0.000727 -0.003252 0.010631 -0.001567 -0.000312 0.002955
# 4 0.002128 -0.012145 -0.001567 0.038360 -0.003993 0.016920
# 5 0.006833 -0.000184 -0.000312 -0.003993 0.038222 -0.003920
# 6 -0.003156 -0.018105 0.002955 0.016920 -0.003920 0.062167
#
#
# Mechanical properties :
#
#
# Convention : Reuss Voigt Hill
#
# Bulk Modulus (GPa) = 28.39765 37.91206 33.15485
# Shear Modulus (GPa) = 24.40604 33.35428 28.88016
#
# Velocity S-wave (km/s) = 3.14637 3.67821 3.42263
# Velocity P-wave (km/s) = 4.97174 5.78074 5.39143
#
# Compressibility (1/GPa) = 0.03521419
#
# Stress axis : x y z
#
# Youngs Moduli (GPa) = 63.82541 54.06018 94.06022
#
# Poissons Ratio (x) = 0.04391 0.06838
# Poissons Ratio (y) = 0.05184 0.30591
# Poissons Ratio (z) = 0.04640 0.17582
#
# Static dielectric constant tensor:
#      x y z
#    x 4.325950 0.168770 0.092370 
#    y 0.168770 2.470120 -0.773300 
#    z 0.092370 -0.773300 4.505610 
# 
# 
# High freq. dielectric constant tensor:
#      x y z
#    x 1.973920 -0.007020 -0.006020 
#    y -0.007020 2.017700 0.001100 
#    z -0.006020 0.001100 1.999130 
# 
# From -- ./inp_files/307967.got.cif
#   From: 2010.06.25/outbox.cif.g09.slc.cpg/sg2_154_cif.got.tgz:307967.got - 2010.06.27 13:26:56.
