data_PCOD8028472
_publ_section_title
;
Structure prediction by ZEFSAII (Michael W. Deem and Ramdas Pophale) SiO2 
 PCOD8028472
Probable space group: P -1
;
_chemical_formula_sum "Si O2"
_cell_formula_units_Z 16
_cell_length_a 11.225464
_cell_length_b 14.033866
_cell_length_c 8.800928
_cell_angle_alpha 87.200569
_cell_angle_beta 99.000800
_cell_angle_gamma 30.209955
_cell_volume 640.050832
_symmetry_space_group_name_H-M "P -1"
_symmetry_group_IT_number 2
_symmetry_cell_setting 'triclinic'
loop_
_space_group_symop_operation_xyz
x,y,z
-x,-y,-z
loop_
_atom_site_type_symbol
_atom_site_label
_atom_site_fract_x
_atom_site_fract_y
_atom_site_fract_z
Si Si1 0.298016 0.767032 0.757615
Si Si2 0.340790 0.186653 0.160065
Si Si3 0.524656 0.120201 0.732910
Si Si4 0.076976 0.184260 0.695791
Si Si5 0.195657 0.987477 0.465292
Si Si6 0.025905 0.423837 0.771891
Si Si7 0.282573 0.841904 0.072949
Si Si8 0.624778 0.390988 0.695746
O O1 0.504301 0.541210 0.787989
O O2 0.007980 0.925209 0.690929
O O3 0.318600 0.830483 0.624393
O O4 0.397062 0.742805 0.936471
O O5 0.216130 0.338816 0.257251
O O6 0.362932 0.064399 0.236455
O O7 0.622715 0.027228 0.182736
O O8 0.174085 0.300842 0.967200
O O9 0.220918 0.336736 0.696874
O O10 0.685484 0.068925 0.892220
O O11 0.568417 0.135158 0.574929
O O12 0.052527 0.174171 0.512228
O O13 0.940839 0.381088 0.688135
O O14 0.931604 0.201408 0.758737
O O15 0.421281 0.684706 0.249692
O O16 0.000000 0.000000 0.000000
O O17 0.500000 0.500000 0.500000
#
# Coordination Sequence:
#
# PCOD8028472 Si02
#       8
#     2   2   2   2   2   2   2   2
#     4  11  25  44  68 112 149 201 247 294 372 449
#     4  10  25  47  74 106 145 191 251 315 371 438
#     4  11  24  46  72 105 148 191 241 311 371 438
#     4  11  24  44  75 102 146 198 237 303 377 436
#     4  11  24  44  72 104 158 193 240 310 370 440
#     4  10  25  46  73 110 141 191 256 312 368 438
#     4  12  26  44  76 109 146 200 247 303 375 444
#     4  12  26  46  74 113 154 194 248 304 372 450
#
# _framework density 24.998014000000001
#
# number of rings (size 3 to 8) (size 9 to 14) (size 15 to 20)
#    0.000    1.000    2.500    3.375    8.750    4.000 
#    2.250    1.250    0.000    0.000    0.000    0.000 
#    0.000    0.000    0.000    0.000    0.000    0.000 
#
# Total GULP energy -198395.328915 kJ/mol
# GULP energy per Si atom -12399.708057 kJ/mol
# Density = 2.494112 g / cm^3
# Si number density = 24.998014 Si / 1000 Ang^3
#
#
#
# Elastic Constant Matrix: (Units=GPa)
#
#
# Indices 1 2 3 4 5 6 
#
# 1 132.1355 43.8082 26.2942 7.3552 -7.9209 11.9070
# 2 43.8082 136.4800 11.4787 13.9822 -13.9814 19.3936
# 3 26.2942 11.4787 79.8603 4.7210 -10.4803 8.1990
# 4 7.3552 13.9822 4.7210 34.8793 -1.1099 2.8537
# 5 -7.9209 -13.9814 -10.4803 -1.1099 41.8624 17.6549
# 6 11.9070 19.3936 8.1990 2.8537 17.6549 45.1599
#
#
#
# Elastic Compliance Matrix: (Units=1/GPa)
#
#
# Indices 1 2 3 4 5 6 
#
# 1 0.009016 -0.002389 -0.002365 -0.000499 0.000812 -0.001208
# 2 -0.002389 0.009637 0.000823 -0.002853 0.005225 -0.005520
# 3 -0.002365 0.000823 0.014381 -0.001260 0.005206 -0.004296
# 4 -0.000499 -0.002853 -0.001260 0.030082 -0.000517 -0.000113
# 5 0.000812 0.005225 0.005206 -0.000517 0.034124 -0.016711
# 6 -0.001208 -0.005520 -0.004296 -0.000113 -0.016711 0.032153
#
#
# Mechanical properties :
#
#
# Convention : Reuss Voigt Hill
#
# Bulk Modulus (GPa) = 39.72924 56.84867 48.28896
# Shear Modulus (GPa) = 34.32979 42.17331 38.25155
#
# Velocity S-wave (km/s) = 3.70983 4.11185 3.91600
# Velocity P-wave (km/s) = 5.85473 6.73303 6.30918
#
# Compressibility (1/GPa) = 0.02517038
#
# Stress axis : x y z
#
# Youngs Moduli (GPa) = 110.91382 103.76982 69.53551
#
# Poissons Ratio (x) = 0.24793 0.16446
# Poissons Ratio (y) = 0.26500 -0.05720
# Poissons Ratio (z) = 0.26232 -0.08536
#
# Static dielectric constant tensor:
#      x y z
#    x 5.112980 0.403160 0.108720 
#    y 0.403160 5.012930 0.463890 
#    z 0.108720 0.463890 4.537020 
# 
# 
# High freq. dielectric constant tensor:
#      x y z
#    x 2.006330 0.007760 0.003770 
#    y 0.007760 2.002420 0.025250 
#    z 0.003770 0.025250 1.988070 
# 
# From -- ./inp_files/272893.got.cif
#   From: 2010.06.25/outbox.cif.g09.slc.cpg/sg2_137_cif.got.tgz:272893.got - 2010.06.27 13:26:56.
