data_PCOD8028722
_publ_section_title
;
Structure prediction by ZEFSAII (Michael W. Deem and Ramdas Pophale) SiO2 
 PCOD8028722
Probable space group: P -1
;
_chemical_formula_sum "Si O2"
_cell_formula_units_Z 14
_cell_length_a 7.338450
_cell_length_b 13.711329
_cell_length_c 17.440683
_cell_angle_alpha 23.600772
_cell_angle_beta 120.352745
_cell_angle_gamma 121.140909
_cell_volume 598.806774
_symmetry_space_group_name_H-M "P -1"
_symmetry_group_IT_number 2
_symmetry_cell_setting 'triclinic'
loop_
_space_group_symop_operation_xyz
x,y,z
-x,-y,-z
loop_
_atom_site_type_symbol
_atom_site_label
_atom_site_fract_x
_atom_site_fract_y
_atom_site_fract_z
Si Si1 0.315310 0.973682 0.135747
Si Si2 0.691872 0.254538 0.247316
Si Si3 0.330333 0.621419 0.137223
Si Si4 0.039063 0.862726 0.477946
Si Si5 0.291569 0.381791 0.140131
Si Si6 0.021643 0.671959 0.169482
Si Si7 0.445992 0.186365 0.560039
O O1 0.199746 0.778924 0.191435
O O2 0.377694 0.819630 0.332531
O O3 0.528636 0.117272 0.038951
O O4 0.165945 0.166703 0.992514
O O5 0.887636 0.167661 0.396508
O O6 0.547128 0.393034 0.173815
O O7 0.530881 0.017543 0.352465
O O8 0.792190 0.432256 0.071826
O O9 0.248559 0.473528 0.149697
O O10 0.125613 0.666699 0.110805
O O11 0.475464 0.459690 0.333874
O O12 0.072230 0.610378 0.622044
O O13 0.792185 0.890175 0.401721
O O14 0.172604 0.107075 0.294618
#
# Coordination Sequence:
#
# PCOD8028722 Si02
#       7
#     2   2   2   2   2   2   2
#     4  11  24  52  68  98 135 180 227 284 331 391
#     4  11  23  41  63 106 136 181 219 274 331 417
#     4  11  23  45  70 103 133 181 219 283 333 400
#     4  11  24  42  65 103 138 173 219 281 334 401
#     4  11  24  40  70  99 142 176 221 273 345 394
#     4  10  26  45  75  96 135 178 231 278 332 402
#     4  11  25  41  68  99 138 174 227 272 334 403
#
# _framework density 23.379830999999999
#
# number of rings (size 3 to 8) (size 9 to 14) (size 15 to 20)
#    0.000    1.143    2.857    2.143    6.000    5.143 
#    0.000    4.286    0.000    0.000    0.000    0.000 
#    0.000    0.000    0.000    0.000    0.000    0.000 
#
# Total GULP energy -173622.078952 kJ/mol
# GULP energy per Si atom -12401.577068 kJ/mol
# Density = 2.332662 g / cm^3
# Si number density = 23.379831 Si / 1000 Ang^3
#
#
#
# Elastic Constant Matrix: (Units=GPa)
#
#
# Indices 1 2 3 4 5 6 
#
# 1 53.8722 21.7331 -5.5012 5.0026 14.1091 -15.5455
# 2 21.7331 101.1371 11.8485 -10.0885 1.0840 -8.7064
# 3 -5.5012 11.8485 77.1058 -6.0653 -0.5670 -1.6007
# 4 5.0026 -10.0885 -6.0653 35.3449 10.2884 2.2125
# 5 14.1091 1.0840 -0.5670 10.2884 31.2233 -3.0388
# 6 -15.5455 -8.7064 -1.6007 2.2125 -3.0388 34.8258
#
#
#
# Elastic Compliance Matrix: (Units=1/GPa)
#
#
# Indices 1 2 3 4 5 6 
#
# 1 0.026745 -0.005345 0.002662 -0.002560 -0.010034 0.010012
# 2 -0.005345 0.011619 -0.001881 0.003483 0.000858 0.000286
# 3 0.002662 -0.001881 0.013599 0.001745 -0.001357 0.001114
# 4 -0.002560 0.003483 0.001745 0.033102 -0.010149 -0.003181
# 5 -0.010034 0.000858 -0.001357 -0.010149 0.039831 -0.000206
# 6 0.010012 0.000286 0.001114 -0.003181 -0.000206 0.033490
#
#
# Mechanical properties :
#
#
# Convention : Reuss Voigt Hill
#
# Bulk Modulus (GPa) = 23.34490 32.03067 27.68779
# Shear Modulus (GPa) = 27.50397 33.88111 30.69254
#
# Velocity S-wave (km/s) = 3.43359 3.81091 3.62716
# Velocity P-wave (km/s) = 5.07209 5.75273 5.42310
#
# Compressibility (1/GPa) = 0.04283590
#
# Stress axis : x y z
#
# Youngs Moduli (GPa) = 37.38994 86.06359 73.53727
#
# Poissons Ratio (x) = 0.46002 -0.19577
# Poissons Ratio (y) = 0.19985 0.13830
# Poissons Ratio (z) = -0.09954 0.16185
#
# Static dielectric constant tensor:
#      x y z
#    x 4.037510 -0.054640 0.086290 
#    y -0.054640 4.197200 -0.201790 
#    z 0.086290 -0.201790 4.377500 
# 
# 
# High freq. dielectric constant tensor:
#      x y z
#    x 1.923820 0.000410 0.009350 
#    y 0.000410 1.918310 -0.008260 
#    z 0.009350 -0.008260 1.933700 
# 
# From -- ./inp_files/498726.got.cif
#   From: 2010.06.25/outbox.cif.g09.slc.cpg/sg2_250_cif.got.tgz:498726.got - 2010.06.27 13:26:56.
