data_PCOD8028857
_publ_section_title
;
Structure prediction by ZEFSAII (Michael W. Deem and Ramdas Pophale) SiO2 
 PCOD8028857
Probable space group: P -1
;
_chemical_formula_sum "Si O2"
_cell_formula_units_Z 16
_cell_length_a 10.805730
_cell_length_b 9.525843
_cell_length_c 14.187887
_cell_angle_alpha 46.126140
_cell_angle_beta 113.542864
_cell_angle_gamma 117.757485
_cell_volume 924.868548
_symmetry_space_group_name_H-M "P -1"
_symmetry_group_IT_number 2
_symmetry_cell_setting 'triclinic'
loop_
_space_group_symop_operation_xyz
x,y,z
-x,-y,-z
loop_
_atom_site_type_symbol
_atom_site_label
_atom_site_fract_x
_atom_site_fract_y
_atom_site_fract_z
Si Si1 0.782164 0.013756 0.938442
Si Si2 0.048603 0.651648 0.629121
Si Si3 0.346816 0.729533 0.103836
Si Si4 0.524904 0.047821 0.134553
Si Si5 0.743168 0.999033 0.365609
Si Si6 0.193734 0.307038 0.332662
Si Si7 0.967336 0.792238 0.197658
Si Si8 0.015749 0.045830 0.668706
O O1 0.622414 0.906160 0.904016
O O2 0.776910 0.170315 0.949464
O O3 0.873182 0.141340 0.822344
O O4 0.855379 0.843535 0.069597
O O5 0.909564 0.609638 0.671219
O O6 0.080177 0.449723 0.695134
O O7 0.030512 0.769934 0.475296
O O8 0.183431 0.784542 0.665450
O O9 0.304287 0.491581 0.227229
O O10 0.489039 0.843914 0.152737
O O11 0.376839 0.764867 0.984400
O O12 0.596085 0.008035 0.271916
O O13 0.722747 0.817975 0.520348
O O14 0.836906 0.960706 0.326293
O O15 0.103503 0.163796 0.290974
O O16 0.962644 0.914850 0.233503
#
# Coordination Sequence:
#
# PCOD8028857 Si02
#       8
#     2   2   2   2   2   2   2   2
#     4   9  20  32  50  71 103 132 165 210 240 300
#     4   9  17  33  52  76 103 130 165 207 250 296
#     4   9  17  33  54  72 104 128 169 214 242 289
#     4   9  18  34  52  73 104 130 170 209 247 293
#     4   9  18  33  55  77 102 130 164 210 255 292
#     4   9  17  34  52  80 102 125 169 213 248 291
#     4  11  18  33  53  73 101 136 166 201 252 298
#     4   9  19  30  54  79 101 126 166 211 249 296
#
# _framework density 17.299755999999999
#
# number of rings (size 3 to 8) (size 9 to 14) (size 15 to 20)
#    0.750    2.000    1.250    2.625    0.000    0.500 
#    4.500    2.500    2.750    1.500    0.000    0.000 
#    0.000    0.000    0.000    0.000    0.000    0.000 
#
# Total GULP energy -198292.025507 kJ/mol
# GULP energy per Si atom -12393.251594 kJ/mol
# Density = 1.726038 g / cm^3
# Si number density = 17.299756 Si / 1000 Ang^3
#
#
#
# Elastic Constant Matrix: (Units=GPa)
#
#
# Indices 1 2 3 4 5 6 
#
# 1 71.1524 23.4900 34.4448 -5.2603 1.2580 8.7319
# 2 23.4900 63.3634 36.6836 -2.0565 -1.0756 3.7895
# 3 34.4448 36.6836 82.2939 -8.4771 -2.7994 18.4336
# 4 -5.2603 -2.0565 -8.4771 22.2749 15.6396 -0.4713
# 5 1.2580 -1.0756 -2.7994 15.6396 19.5024 0.9680
# 6 8.7319 3.7895 18.4336 -0.4713 0.9680 22.3364
#
#
#
# Elastic Compliance Matrix: (Units=1/GPa)
#
#
# Indices 1 2 3 4 5 6 
#
# 1 0.018795 -0.003688 -0.005275 0.008042 -0.008531 -0.001829
# 2 -0.003688 0.022638 -0.010262 -0.005429 0.004080 0.005779
# 3 -0.005275 -0.010262 0.023022 0.008174 -0.002736 -0.014905
# 4 0.008042 -0.005429 0.008174 0.112142 -0.089439 -0.002726
# 5 -0.008531 0.004080 -0.002736 -0.089439 0.123498 -0.002338
# 6 -0.001829 0.005779 -0.014905 -0.002726 -0.002338 0.056849
#
#
# Mechanical properties :
#
#
# Convention : Reuss Voigt Hill
#
# Bulk Modulus (GPa) = 38.45596 45.11625 41.78610
# Shear Modulus (GPa) = 12.37430 20.96883 16.67156
#
# Velocity S-wave (km/s) = 2.67739 3.48528 3.10770
# Velocity P-wave (km/s) = 5.64228 6.50630 6.08964
#
# Compressibility (1/GPa) = 0.02600377
#
# Stress axis : x y z
#
# Youngs Moduli (GPa) = 53.20435 44.17344 43.43757
#
# Poissons Ratio (x) = 0.16293 0.22913
# Poissons Ratio (y) = 0.19624 0.44577
# Poissons Ratio (z) = 0.28065 0.45332
#
# Static dielectric constant tensor:
#      x y z
#    x 3.022000 0.043510 -0.043520 
#    y 0.043510 2.987490 -0.029770 
#    z -0.043520 -0.029770 3.109130 
# 
# 
# High freq. dielectric constant tensor:
#      x y z
#    x 1.648820 0.004200 -0.004290 
#    y 0.004200 1.648820 -0.001510 
#    z -0.004290 -0.001510 1.669890 
# 
# From -- ./inp_files/417310.got.cif
#   From: 2010.06.25/outbox.cif.g09.slc.cpg/sg2_209_cif.got.tgz:417310.got - 2010.06.27 13:26:56.
