data_PCOD8028205
_publ_section_title
;
Structure prediction by ZEFSAII (Michael W. Deem and Ramdas Pophale) SiO2 
 PCOD8028205
Probable space group: P -1
;
_chemical_formula_sum "Si O2"
_cell_formula_units_Z 14
_cell_length_a 5.487806
_cell_length_b 11.716715
_cell_length_c 11.772256
_cell_angle_alpha 108.376704
_cell_angle_beta 76.057362
_cell_angle_gamma 122.400801
_cell_volume 604.057563
_symmetry_space_group_name_H-M "P -1"
_symmetry_group_IT_number 2
_symmetry_cell_setting 'triclinic'
loop_
_space_group_symop_operation_xyz
x,y,z
-x,-y,-z
loop_
_atom_site_type_symbol
_atom_site_label
_atom_site_fract_x
_atom_site_fract_y
_atom_site_fract_z
Si Si1 0.906881 0.556503 0.922884
Si Si2 0.309167 0.085914 0.330173
Si Si3 0.617377 0.714447 0.063537
Si Si4 0.481915 0.710294 0.819669
Si Si5 0.727779 0.568402 0.595777
Si Si6 0.358229 0.079967 0.694187
Si Si7 0.680923 0.289382 0.528907
O O1 0.602331 0.422528 0.880682
O O2 0.135082 0.608279 0.808767
O O3 0.890427 0.692453 0.006384
O O4 0.000000 0.500000 0.000000
O O5 0.396492 0.142025 0.209484
O O6 0.425178 0.220503 0.441254
O O7 0.486429 0.007985 0.318615
O O8 0.959212 0.001624 0.355203
O O9 0.693467 0.851344 0.167762
O O10 0.513147 0.734390 0.958452
O O11 0.637965 0.629369 0.730458
O O12 0.500000 0.500000 0.500000
O O13 0.758310 0.442883 0.605734
O O14 0.026664 0.695450 0.553866
O O15 0.587979 0.192705 0.618600
#
# Coordination Sequence:
#
# PCOD8028205 Si02
#       7
#     2   2   2   2   2   2   2
#     4   9  22  42  69 102 142 184 230 311 371 419
#     4  12  28  49  72 107 148 208 243 295 357 428
#     4  10  25  44  71 109 142 188 244 300 380 427
#     4  11  25  44  75 102 153 178 248 305 369 438
#     4  11  25  44  77 114 135 190 237 313 387 417
#     4  12  30  47  77 104 151 202 250 288 358 448
#     4  11  27  47  74 108 149 183 252 308 367 435
#
# _framework density 23.176600000000001
#
# number of rings (size 3 to 8) (size 9 to 14) (size 15 to 20)
#    0.000    1.143    1.429    1.714   18.000    1.143 
#    0.000    0.000    0.000    0.000    0.000    0.000 
#    0.000    0.000    0.000    0.000    0.000    0.000 
#
# Total GULP energy -173517.959211 kJ/mol
# GULP energy per Si atom -12394.139944 kJ/mol
# Density = 2.312385 g / cm^3
# Si number density = 23.176600 Si / 1000 Ang^3
#
#
#
# Elastic Constant Matrix: (Units=GPa)
#
#
# Indices 1 2 3 4 5 6 
#
# 1 130.3372 59.3157 31.0988 -4.2471 -24.4378 4.3612
# 2 59.3157 129.1545 53.1248 -23.2627 -10.5007 4.2082
# 3 31.0988 53.1248 103.7894 -5.7273 -11.8003 12.3101
# 4 -4.2471 -23.2627 -5.7273 48.4123 5.0403 0.2264
# 5 -24.4378 -10.5007 -11.8003 5.0403 36.9727 -3.5495
# 6 4.3612 4.2082 12.3101 0.2264 -3.5495 38.2630
#
#
#
# Elastic Compliance Matrix: (Units=1/GPa)
#
#
# Indices 1 2 3 4 5 6 
#
# 1 0.011002 -0.004819 -0.000240 -0.002013 0.006095 -0.000070
# 2 -0.004819 0.012854 -0.005119 0.005337 -0.001840 0.000580
# 3 -0.000240 -0.005119 0.012926 -0.001181 0.002353 -0.003343
# 4 -0.002013 0.005337 -0.001181 0.023261 -0.003404 -0.000431
# 5 0.006095 -0.001840 0.002353 -0.003404 0.031934 0.001733
# 6 -0.000070 0.000580 -0.003343 -0.000431 0.001733 0.027318
#
#
# Mechanical properties :
#
#
# Convention : Reuss Voigt Hill
#
# Bulk Modulus (GPa) = 60.87776 72.26219 66.56998
# Shear Modulus (GPa) = 34.45276 39.37905 36.91591
#
# Velocity S-wave (km/s) = 3.85974 4.12647 3.99533
# Velocity P-wave (km/s) = 6.79613 7.34509 7.07593
#
# Compressibility (1/GPa) = 0.01642636
#
# Stress axis : x y z
#
# Youngs Moduli (GPa) = 90.89085 77.79535 77.36436
#
# Poissons Ratio (x) = 0.37490 0.01856
# Poissons Ratio (y) = 0.43800 0.39603
# Poissons Ratio (z) = 0.02181 0.39824
#
# Static dielectric constant tensor:
#      x y z
#    x 4.446500 0.199840 -0.227360 
#    y 0.199840 4.611170 -0.148830 
#    z -0.227360 -0.148830 4.048860 
# 
# 
# High freq. dielectric constant tensor:
#      x y z
#    x 1.927980 -0.000740 -0.008760 
#    y -0.000740 1.922960 -0.013050 
#    z -0.008760 -0.013050 1.911080 
# 
# From -- ./inp_files/72653.got.cif
#   From: 2010.06.25/outbox.cif.g09.slc.cpg/sg2_37_cif.got.tgz:72653.got - 2010.06.27 13:26:56.
