data_PCOD8028536
_publ_section_title
;
Structure prediction by ZEFSAII (Michael W. Deem and Ramdas Pophale) SiO2 
 PCOD8028536
Probable space group: P -1
;
_chemical_formula_sum "Si O2"
_cell_formula_units_Z 12
_cell_length_a 9.610042
_cell_length_b 13.249626
_cell_length_c 14.055597
_cell_angle_alpha 31.743468
_cell_angle_beta 47.860119
_cell_angle_gamma 71.662587
_cell_volume 526.897935
_symmetry_space_group_name_H-M "P -1"
_symmetry_group_IT_number 2
_symmetry_cell_setting 'triclinic'
loop_
_space_group_symop_operation_xyz
x,y,z
-x,-y,-z
loop_
_atom_site_type_symbol
_atom_site_label
_atom_site_fract_x
_atom_site_fract_y
_atom_site_fract_z
Si Si1 0.644171 0.499453 0.348924
Si Si2 0.775874 0.449545 0.697433
Si Si3 0.239834 0.147342 0.146260
Si Si4 0.792959 0.877021 0.274590
Si Si5 0.879252 0.341422 0.936654
Si Si6 0.261094 0.392047 0.133182
O O1 0.500000 0.500000 0.500000
O O2 0.464654 0.269926 0.543723
O O3 0.824562 0.460868 0.341776
O O4 0.794601 0.761614 0.009830
O O5 0.805216 0.698274 0.477677
O O6 0.796868 0.403452 0.832892
O O7 0.000000 0.500000 0.500000
O O8 0.503537 0.206559 0.975091
O O9 0.277680 0.321550 0.076522
O O10 0.998275 0.853667 0.503350
O O11 0.805428 0.069006 0.183708
O O12 0.000000 0.000000 0.000000
O O13 0.754866 0.384064 0.044305
O O14 0.500000 0.500000 0.000000
#
# Coordination Sequence:
#
# PCOD8028536 Si02
#       6
#     2   2   2   2   2   2
#     4  11  24  44  68 107 144 184 235 298 367 432
#     4  11  22  43  71 103 142 190 232 298 366 424
#     4  10  25  47  73 103 146 188 246 303 349 438
#     4  11  23  42  64 101 149 178 236 296 349 442
#     4  12  25  40  72 102 135 194 236 289 371 420
#     4  11  25  47  75 102 141 194 254 295 352 432
#
# _framework density 22.774808
#
# number of rings (size 3 to 8) (size 9 to 14) (size 15 to 20)
#    0.000    1.000    5.000    1.000    4.667    0.667 
#    0.000    8.333    0.000    0.000    0.000    0.000 
#    0.000    0.000    0.000    0.000    0.000    0.000 
#
# Total GULP energy -148707.262765 kJ/mol
# GULP energy per Si atom -12392.271897 kJ/mol
# Density = 2.272297 g / cm^3
# Si number density = 22.774808 Si / 1000 Ang^3
#
#
#
# Elastic Constant Matrix: (Units=GPa)
#
#
# Indices 1 2 3 4 5 6 
#
# 1 136.6222 27.3455 41.8957 -8.9085 -13.1809 -19.0133
# 2 27.3455 137.6059 29.6874 -14.0380 -15.8213 -21.2011
# 3 41.8957 29.6874 111.7577 -1.0396 -13.7064 -8.9894
# 4 -8.9085 -14.0380 -1.0396 38.4369 -0.2636 0.1323
# 5 -13.1809 -15.8213 -13.7064 -0.2636 46.0919 9.0094
# 6 -19.0133 -21.2011 -8.9894 0.1323 9.0094 36.2788
#
#
#
# Elastic Compliance Matrix: (Units=1/GPa)
#
#
# Indices 1 2 3 4 5 6 
#
# 1 0.008968 -0.000318 -0.002860 0.001879 0.000918 0.003571
# 2 -0.000318 0.008837 -0.001662 0.003106 0.001652 0.004165
# 3 -0.002860 -0.001662 0.010654 -0.000968 0.001829 -0.000281
# 4 0.001879 0.003106 -0.000968 0.027560 0.001043 0.002201
# 5 0.000918 0.001652 0.001829 0.001043 0.023863 -0.004030
# 6 0.003571 0.004165 -0.000281 0.002201 -0.004030 0.032793
#
#
# Mechanical properties :
#
#
# Convention : Reuss Voigt Hill
#
# Bulk Modulus (GPa) = 53.24826 64.87144 59.05985
# Shear Modulus (GPa) = 38.87557 43.29867 41.08712
#
# Velocity S-wave (km/s) = 4.13601 4.36497 4.25203
# Velocity P-wave (km/s) = 6.79999 7.34504 7.07776
#
# Compressibility (1/GPa) = 0.01877996
#
# Stress axis : x y z
#
# Youngs Moduli (GPa) = 111.50503 113.15722 93.85771
#
# Poissons Ratio (x) = 0.03595 0.26846
# Poissons Ratio (y) = 0.03542 0.15599
# Poissons Ratio (z) = 0.31894 0.18806
#
# Static dielectric constant tensor:
#      x y z
#    x 5.010910 -0.247700 -0.251470 
#    y -0.247700 4.318000 0.058040 
#    z -0.251470 0.058040 4.320370 
# 
# 
# High freq. dielectric constant tensor:
#      x y z
#    x 1.916480 -0.000080 -0.018860 
#    y -0.000080 1.900470 0.004290 
#    z -0.018860 0.004290 1.895450 
# 
# From -- ./inp_files/504890.got.cif
#   From: 2010.06.25/outbox.cif.g09.slc.cpg/sg2_253_cif.got.tgz:504890.got - 2010.06.27 13:26:56.
