data_PCOD8028457
_publ_section_title
;
Structure prediction by ZEFSAII (Michael W. Deem and Ramdas Pophale) SiO2 
 PCOD8028457
Probable space group: P -1
;
_chemical_formula_sum "Si O2"
_cell_formula_units_Z 16
_cell_length_a 17.298205
_cell_length_b 7.183357
_cell_length_c 9.709114
_cell_angle_alpha 139.324847
_cell_angle_beta 90.325678
_cell_angle_gamma 104.770218
_cell_volume 721.427962
_symmetry_space_group_name_H-M "P -1"
_symmetry_group_IT_number 2
_symmetry_cell_setting 'triclinic'
loop_
_space_group_symop_operation_xyz
x,y,z
-x,-y,-z
loop_
_atom_site_type_symbol
_atom_site_label
_atom_site_fract_x
_atom_site_fract_y
_atom_site_fract_z
Si Si1 0.897785 0.076852 0.437963
Si Si2 0.396911 0.819852 0.240677
Si Si3 0.409328 0.793133 0.939199
Si Si4 0.305878 0.798986 0.688737
Si Si5 0.042722 0.869267 0.234723
Si Si6 0.559255 0.768704 0.273483
Si Si7 0.227091 0.274990 0.977922
Si Si8 0.146480 0.351608 0.290026
O O1 0.893705 0.061398 0.595488
O O2 0.900447 0.411096 0.576248
O O3 0.978679 0.029962 0.356833
O O4 0.815901 0.801884 0.217182
O O5 0.461666 0.635292 0.143471
O O6 0.302646 0.611065 0.169894
O O7 0.440080 0.105513 0.502069
O O8 0.392416 0.966016 0.171020
O O9 0.339763 0.692097 0.764598
O O10 0.402234 0.484608 0.846409
O O11 0.500000 0.000000 0.000000
O O12 0.237606 0.500527 0.446357
O O13 0.381711 0.963554 0.676816
O O14 0.263935 0.021724 0.872716
O O15 0.092468 0.033796 0.190726
O O16 0.000000 0.500000 0.000000
O O17 0.157612 0.261658 0.082801
#
# Coordination Sequence:
#
# PCOD8028457 Si02
#       8
#     2   2   2   2   2   2   2   2
#     4  10  25  46  72 100 137 174 223 268 339 400
#     4  11  23  41  67  93 133 178 225 278 332 386
#     4  12  24  40  66  94 129 180 230 279 332 390
#     4  11  24  42  63  99 131 176 225 278 331 394
#     4  11  25  47  74 105 136 172 219 274 338 409
#     4  11  23  44  65  90 137 177 229 280 328 392
#     4  11  23  43  68  97 135 178 219 275 335 389
#     4  11  25  45  70 100 137 176 221 275 336 406
#
# _framework density 22.178236999999999
#
# number of rings (size 3 to 8) (size 9 to 14) (size 15 to 20)
#    0.000    1.000    3.750    2.250    1.750    7.500 
#    4.500    0.000    0.000    0.000    0.000    0.000 
#    0.000    0.000    0.000    0.000    0.000    0.000 
#
# Total GULP energy -198373.897125 kJ/mol
# GULP energy per Si atom -12398.368570 kJ/mol
# Density = 2.212776 g / cm^3
# Si number density = 22.178237 Si / 1000 Ang^3
#
#
#
# Elastic Constant Matrix: (Units=GPa)
#
#
# Indices 1 2 3 4 5 6 
#
# 1 93.7993 49.7287 42.0138 -8.0576 10.2098 -2.8070
# 2 49.7287 128.3461 53.2053 -19.7960 10.3143 5.5030
# 3 42.0138 53.2053 102.6504 -22.8161 10.6387 -9.4460
# 4 -8.0576 -19.7960 -22.8161 37.9308 1.4839 8.0248
# 5 10.2098 10.3143 10.6387 1.4839 36.9142 -10.1663
# 6 -2.8070 5.5030 -9.4460 8.0248 -10.1663 42.9292
#
#
#
# Elastic Compliance Matrix: (Units=1/GPa)
#
#
# Indices 1 2 3 4 5 6 
#
# 1 0.014716 -0.004183 -0.003980 -0.001504 -0.001546 0.000538
# 2 -0.004183 0.011921 -0.003686 0.004038 -0.002355 -0.003925
# 3 -0.003980 -0.003686 0.014966 0.005892 -0.001880 0.001959
# 4 -0.001504 0.004038 0.005892 0.033376 -0.005652 -0.006897
# 5 -0.001546 -0.002355 -0.001880 -0.005652 0.031212 0.008235
# 6 0.000538 -0.003925 0.001959 -0.006897 0.008235 0.027503
#
#
# Mechanical properties :
#
#
# Convention : Reuss Voigt Hill
#
# Bulk Modulus (GPa) = 55.84986 68.29904 62.07445
# Shear Modulus (GPa) = 30.60704 35.54471 33.07588
#
# Velocity S-wave (km/s) = 3.71893 4.00770 3.86601
# Velocity P-wave (km/s) = 6.60890 7.23035 6.92659
#
# Compressibility (1/GPa) = 0.01790515
#
# Stress axis : x y z
#
# Youngs Moduli (GPa) = 67.95105 83.88815 66.81781
#
# Poissons Ratio (x) = 0.35091 0.26592
# Poissons Ratio (y) = 0.28424 0.24630
# Poissons Ratio (z) = 0.27043 0.30923
#
# Static dielectric constant tensor:
#      x y z
#    x 4.140130 -0.229440 0.009650 
#    y -0.229440 3.891610 -0.286630 
#    z 0.009650 -0.286630 4.301930 
# 
# 
# High freq. dielectric constant tensor:
#      x y z
#    x 1.874800 -0.007300 0.005800 
#    y -0.007300 1.862810 -0.024740 
#    z 0.005800 -0.024740 1.895300 
# 
# From -- ./inp_files/324251.got.cif
#   From: 2010.06.25/outbox.cif.g09.slc.cpg/sg2_163_cif.got.tgz:324251.got - 2010.06.27 13:26:56.
