data_PCOD8028863
_publ_section_title
;
Structure prediction by ZEFSAII (Michael W. Deem and Ramdas Pophale) SiO2 
 PCOD8028863
Probable space group: P -1
;
_chemical_formula_sum "Si O2"
_cell_formula_units_Z 16
_cell_length_a 7.497422
_cell_length_b 12.379175
_cell_length_c 11.373883
_cell_angle_alpha 60.163058
_cell_angle_beta 49.792852
_cell_angle_gamma 58.488954
_cell_volume 666.209366
_symmetry_space_group_name_H-M "P -1"
_symmetry_group_IT_number 2
_symmetry_cell_setting 'triclinic'
loop_
_space_group_symop_operation_xyz
x,y,z
-x,-y,-z
loop_
_atom_site_type_symbol
_atom_site_label
_atom_site_fract_x
_atom_site_fract_y
_atom_site_fract_z
Si Si1 0.340733 0.437154 0.907653
Si Si2 0.918987 0.903639 0.270517
Si Si3 0.369249 0.814736 0.763530
Si Si4 0.190525 0.691973 0.108240
Si Si5 0.565737 0.171104 0.533386
Si Si6 0.935460 0.365358 0.246000
Si Si7 0.292871 0.374924 0.709989
Si Si8 0.859023 0.886307 0.568817
O O1 0.614464 0.424642 0.840922
O O2 0.350002 0.342354 0.841339
O O3 0.206744 0.588597 0.843572
O O4 0.198880 0.389825 0.100074
O O5 0.669638 0.875137 0.358135
O O6 0.987303 0.867517 0.397226
O O7 0.141293 0.823945 0.136125
O O8 0.867405 0.057301 0.189386
O O9 0.378586 0.773604 0.645240
O O10 0.616395 0.841966 0.686357
O O11 0.316168 0.703423 0.924973
O O12 0.941069 0.662123 0.213626
O O13 0.521121 0.292255 0.577884
O O14 0.784321 0.040930 0.556982
O O15 0.963071 0.215281 0.356180
O O16 0.781995 0.466113 0.358411
#
# Coordination Sequence:
#
# PCOD8028863 Si02
#       8
#     2   2   2   2   2   2   2   2
#     4   9  20  36  57  79 117 147 186 227 283 329
#     4   8  17  29  52  85 112 142 194 223 274 342
#     4   9  16  29  55  82 113 151 180 227 285 335
#     4  11  18  33  60  84 112 147 185 233 282 321
#     4   8  16  32  55  84 113 142 190 229 275 336
#     4   9  18  37  56  76 116 150 186 225 281 332
#     4   9  20  36  58  85 115 138 191 237 267 337
#     4   9  15  32  57  79 110 158 179 223 288 331
#
# _framework density 24.016473000000001
#
# number of rings (size 3 to 8) (size 9 to 14) (size 15 to 20)
#    0.750    2.250    1.250    1.875    0.000    0.500 
#    0.000    6.875    2.750    1.500    3.250    0.000 
#    0.000    0.000    0.000    0.000    0.000    0.000 
#
# Total GULP energy -198236.155956 kJ/mol
# GULP energy per Si atom -12389.759747 kJ/mol
# Density = 2.396181 g / cm^3
# Si number density = 24.016473 Si / 1000 Ang^3
#
#
#
# Elastic Constant Matrix: (Units=GPa)
#
#
# Indices 1 2 3 4 5 6 
#
# 1 78.6871 44.3573 30.1862 -2.7967 14.0321 -24.2908
# 2 44.3573 138.4524 73.1090 0.3742 19.3320 -5.6298
# 3 30.1862 73.1090 83.6227 1.9133 19.5620 -10.4706
# 4 -2.7967 0.3742 1.9133 48.0779 4.3299 6.6487
# 5 14.0321 19.3320 19.5620 4.3299 27.0955 -2.5360
# 6 -24.2908 -5.6298 -10.4706 6.6487 -2.5360 35.0778
#
#
#
# Elastic Compliance Matrix: (Units=1/GPa)
#
#
# Indices 1 2 3 4 5 6 
#
# 1 0.020788 -0.005461 0.000289 -0.000059 -0.005833 0.013194
# 2 -0.005461 0.014981 -0.011787 0.000725 0.000063 -0.005029
# 3 0.000289 -0.011787 0.024977 -0.000787 -0.009154 0.005251
# 4 -0.000059 0.000725 -0.000787 0.021798 -0.003829 -0.004568
# 5 -0.005833 0.000063 -0.009154 -0.003829 0.046855 -0.002648
# 6 0.013194 -0.005029 0.005251 -0.004568 -0.002648 0.039079
#
#
# Mechanical properties :
#
#
# Convention : Reuss Voigt Hill
#
# Bulk Modulus (GPa) = 37.27775 66.22968 51.75372
# Shear Modulus (GPa) = 23.65847 32.25756 27.95802
#
# Velocity S-wave (km/s) = 3.14203 3.66887 3.41562
# Velocity P-wave (km/s) = 5.35897 6.75160 6.09519
#
# Compressibility (1/GPa) = 0.02682565
#
# Stress axis : x y z
#
# Youngs Moduli (GPa) = 48.10575 66.74956 40.03733
#
# Poissons Ratio (x) = 0.36453 -0.01155
# Poissons Ratio (y) = 0.26271 0.47193
# Poissons Ratio (z) = -0.01388 0.78680
#
# Static dielectric constant tensor:
#      x y z
#    x 4.214080 -0.134310 0.085110 
#    y -0.134310 4.634080 0.375250 
#    z 0.085110 0.375250 4.215730 
# 
# 
# High freq. dielectric constant tensor:
#      x y z
#    x 1.964650 -0.003800 -0.003480 
#    y -0.003800 1.953270 0.009200 
#    z -0.003480 0.009200 1.937270 
# 
# From -- ./inp_files/395597.got.cif
#   From: 2010.06.25/outbox.cif.g09.slc.cpg/sg2_198_cif.got.tgz:395597.got - 2010.06.27 13:26:56.
