data_PCOD8028665
_publ_section_title
;
Structure prediction by ZEFSAII (Michael W. Deem and Ramdas Pophale) SiO2 
 PCOD8028665
Probable space group: P -1
;
_chemical_formula_sum "Si O2"
_cell_formula_units_Z 16
_cell_length_a 8.446840
_cell_length_b 15.014196
_cell_length_c 12.086974
_cell_angle_alpha 29.633147
_cell_angle_beta 113.781848
_cell_angle_gamma 105.612671
_cell_volume 682.265542
_symmetry_space_group_name_H-M "P -1"
_symmetry_group_IT_number 2
_symmetry_cell_setting 'triclinic'
loop_
_space_group_symop_operation_xyz
x,y,z
-x,-y,-z
loop_
_atom_site_type_symbol
_atom_site_label
_atom_site_fract_x
_atom_site_fract_y
_atom_site_fract_z
Si Si1 0.094605 0.765739 0.708815
Si Si2 0.153762 0.815609 0.122844
Si Si3 0.764118 0.838376 0.966804
Si Si4 0.813117 0.833965 0.365236
Si Si5 0.168596 0.422420 0.558819
Si Si6 0.445091 0.819641 0.377077
Si Si7 0.181515 0.141498 0.290462
Si Si8 0.613777 0.579344 0.857239
O O1 0.940469 0.762289 0.579890
O O2 0.009774 0.798061 0.771945
O O3 0.214561 0.918612 0.546442
O O4 0.214055 0.567453 0.961714
O O5 0.226012 0.605925 0.327375
O O6 0.270271 0.839727 0.235072
O O7 0.948836 0.861682 0.051681
O O8 0.175803 0.955134 0.880528
O O9 0.815959 0.779851 0.918321
O O10 0.608311 0.013703 0.730772
O O11 0.697225 0.688190 0.191592
O O12 0.870115 0.706850 0.412649
O O13 0.610546 0.835554 0.331504
O O14 0.000000 0.500000 0.500000
O O15 0.488943 0.627970 0.662700
O O16 0.329763 0.227433 0.303402
O O17 0.500000 0.500000 0.000000
#
# Coordination Sequence:
#
# PCOD8028665 Si02
#       8
#     2   2   2   2   2   2   2   2
#     4  11  26  49  78 105 144 204 242 300 361 435
#     4  11  25  47  74 104 141 196 237 292 371 425
#     4  11  24  45  75 105 146 191 237 301 357 438
#     4  12  25  50  73 105 150 186 245 302 358 430
#     4  10  26  41  72 110 134 189 240 293 358 431
#     4  12  27  47  72 108 151 189 240 304 362 431
#     4  11  25  50  75 108 144 196 251 293 365 435
#     4  12  29  46  74 112 146 194 240 306 365 430
#
# _framework density 23.451280000000001
#
# number of rings (size 3 to 8) (size 9 to 14) (size 15 to 20)
#    0.000    0.750    3.750    1.875    7.000    2.500 
#    0.000    0.000    0.000    0.000    0.000    0.000 
#    0.000    0.000    0.000    0.000    0.000    0.000 
#
# Total GULP energy -198293.512058 kJ/mol
# GULP energy per Si atom -12393.344504 kJ/mol
# Density = 2.339790 g / cm^3
# Si number density = 23.451280 Si / 1000 Ang^3
#
#
#
# Elastic Constant Matrix: (Units=GPa)
#
#
# Indices 1 2 3 4 5 6 
#
# 1 81.9675 27.6790 36.1970 -2.3593 5.7479 -8.4613
# 2 27.6790 84.8365 46.0392 -7.3245 7.4307 -21.1943
# 3 36.1970 46.0392 164.7884 4.0234 10.0435 -10.2359
# 4 -2.3593 -7.3245 4.0234 30.6874 11.0681 -10.2014
# 5 5.7479 7.4307 10.0435 11.0681 38.0995 3.1630
# 6 -8.4613 -21.1943 -10.2359 -10.2014 3.1630 32.4250
#
#
#
# Elastic Compliance Matrix: (Units=1/GPa)
#
#
# Indices 1 2 3 4 5 6 
#
# 1 0.014504 -0.002566 -0.002264 0.002261 -0.001938 0.002294
# 2 -0.002566 0.020968 -0.004093 0.013864 -0.008053 0.016891
# 3 -0.002264 -0.004093 0.007666 -0.002748 0.000060 -0.001716
# 4 0.002261 0.013864 -0.002748 0.052678 -0.019890 0.027298
# 5 -0.001938 -0.008053 0.000060 -0.019890 0.035154 -0.015438
# 6 0.002294 0.016891 -0.001716 0.027298 -0.015438 0.052032
#
#
# Mechanical properties :
#
#
# Convention : Reuss Voigt Hill
#
# Bulk Modulus (GPa) = 39.53677 61.26920 50.40299
# Shear Modulus (GPa) = 23.89180 35.02086 29.45633
#
# Velocity S-wave (km/s) = 3.19530 3.86858 3.54795
# Velocity P-wave (km/s) = 5.52349 6.79245 6.19057
#
# Compressibility (1/GPa) = 0.02529291
#
# Stress axis : x y z
#
# Youngs Moduli (GPa) = 68.94785 47.69242 130.44682
#
# Poissons Ratio (x) = 0.12236 0.29529
# Poissons Ratio (y) = 0.17689 0.53391
# Poissons Ratio (z) = 0.15608 0.19520
#
# Static dielectric constant tensor:
#      x y z
#    x 4.136660 0.034590 -0.229270 
#    y 0.034590 4.193990 -0.319700 
#    z -0.229270 -0.319700 5.408870 
# 
# 
# High freq. dielectric constant tensor:
#      x y z
#    x 1.917380 -0.008050 -0.007950 
#    y -0.008050 1.919740 0.000450 
#    z -0.007950 0.000450 1.951990 
# 
# From -- ./inp_files/398253.got.cif
#   From: 2010.06.25/outbox.cif.g09.slc.cpg/sg2_200_cif.got.tgz:398253.got - 2010.06.27 13:26:56.
