data_PCOD8028370
_publ_section_title
;
Structure prediction by ZEFSAII (Michael W. Deem and Ramdas Pophale) SiO2 
 PCOD8028370
Probable space group: P -1
;
_chemical_formula_sum "Si O2"
_cell_formula_units_Z 14
_cell_length_a 9.492594
_cell_length_b 12.557318
_cell_length_c 15.221234
_cell_angle_alpha 152.262644
_cell_angle_beta 42.333513
_cell_angle_gamma 130.989958
_cell_volume 568.685562
_symmetry_space_group_name_H-M "P -1"
_symmetry_group_IT_number 2
_symmetry_cell_setting 'triclinic'
loop_
_space_group_symop_operation_xyz
x,y,z
-x,-y,-z
loop_
_atom_site_type_symbol
_atom_site_label
_atom_site_fract_x
_atom_site_fract_y
_atom_site_fract_z
Si Si1 0.113896 0.795376 0.246605
Si Si2 0.680461 0.166906 0.508319
Si Si3 0.831532 0.454349 0.207447
Si Si4 0.427416 0.233108 0.166329
Si Si5 0.098914 0.176917 0.410266
Si Si6 0.911537 0.901284 0.060955
Si Si7 0.564853 0.663562 0.950492
O O1 0.979886 0.558551 0.137370
O O2 0.151778 0.905702 0.211490
O O3 0.336772 0.733558 0.142460
O O4 0.000000 0.000000 0.500000
O O5 0.566952 0.407119 0.725356
O O6 0.849989 0.188917 0.523942
O O7 0.500000 0.000000 0.500000
O O8 0.795228 0.097756 0.313869
O O9 0.601988 0.423635 0.249067
O O10 0.816444 0.658153 0.432840
O O11 0.918334 0.222320 0.044687
O O12 0.203711 0.277057 0.347009
O O13 0.380739 0.191130 0.055169
O O14 0.500000 0.000000 0.000000
O O15 0.735799 0.709798 0.980245
O O16 0.000000 0.000000 0.000000
#
# Coordination Sequence:
#
# PCOD8028370 Si02
#       7
#     2   2   2   2   2   2   2
#     4  10  25  45  76 106 147 193 250 307 380 448
#     4  12  29  47  79 114 154 201 260 314 386 456
#     4  11  25  46  75 108 149 199 252 310 379 447
#     4  12  25  45  73 109 149 198 252 308 374 456
#     4  11  24  48  74 111 151 193 254 313 378 452
#     4  12  28  48  76 110 160 201 255 316 387 450
#     4  12  27  48  77 108 153 198 254 315 384 449
#
# _framework density 24.618172000000001
#
# number of rings (size 3 to 8) (size 9 to 14) (size 15 to 20)
#    0.000    0.571    2.857    3.857    8.000    4.000 
#    0.000    0.000    0.000    0.000    0.000    0.000 
#    0.000    0.000    0.000    0.000    0.000    0.000 
#
# Total GULP energy -173536.225220 kJ/mol
# GULP energy per Si atom -12395.444659 kJ/mol
# Density = 2.456214 g / cm^3
# Si number density = 24.618172 Si / 1000 Ang^3
#
#
#
# Elastic Constant Matrix: (Units=GPa)
#
#
# Indices 1 2 3 4 5 6 
#
# 1 104.3506 20.8774 9.1179 -7.7534 -4.9541 17.3192
# 2 20.8774 115.6959 26.3790 -5.7851 -3.8832 9.9530
# 3 9.1179 26.3790 114.0519 -0.1334 -8.4440 -0.3723
# 4 -7.7534 -5.7851 -0.1334 40.3596 -2.2992 -4.2169
# 5 -4.9541 -3.8832 -8.4440 -2.2992 36.4367 -2.6526
# 6 17.3192 9.9530 -0.3723 -4.2169 -2.6526 45.1429
#
#
#
# Elastic Compliance Matrix: (Units=1/GPa)
#
#
# Indices 1 2 3 4 5 6 
#
# 1 0.010660 -0.001399 -0.000462 0.001530 0.001029 -0.003582
# 2 -0.001399 0.009555 -0.002080 0.000956 0.000299 -0.001480
# 3 -0.000462 -0.002080 0.009433 -0.000160 0.001951 0.000813
# 4 0.001530 0.000956 -0.000160 0.025500 0.002006 0.001701
# 5 0.001029 0.000299 0.001951 0.002006 0.028298 0.001406
# 6 -0.003582 -0.001480 0.000813 0.001701 0.001406 0.024101
#
#
# Mechanical properties :
#
#
# Convention : Reuss Voigt Hill
#
# Bulk Modulus (GPa) = 45.94321 49.64968 47.79644
# Shear Modulus (GPa) = 40.75511 42.90279 41.82895
#
# Velocity S-wave (km/s) = 4.07318 4.17913 4.12650
# Velocity P-wave (km/s) = 6.38936 6.59534 6.49317
#
# Compressibility (1/GPa) = 0.02176600
#
# Stress axis : x y z
#
# Youngs Moduli (GPa) = 93.80486 104.65513 106.01286
#
# Poissons Ratio (x) = 0.14642 0.04902
# Poissons Ratio (y) = 0.13124 0.22048
# Poissons Ratio (z) = 0.04337 0.21766
#
# Static dielectric constant tensor:
#      x y z
#    x 4.706220 1.816790 -0.466400 
#    y 1.816790 10.126510 -1.027450 
#    z -0.466400 -1.027450 4.568550 
# 
# 
# High freq. dielectric constant tensor:
#      x y z
#    x 1.983200 0.005020 0.002280 
#    y 0.005020 1.999450 -0.003100 
#    z 0.002280 -0.003100 1.978940 
# 
# From -- ./inp_files/501066.got.cif
#   From: 2010.06.25/outbox.cif.g09.slc.cpg/sg2_251_cif.got.tgz:501066.got - 2010.06.27 13:26:56.
