data_PCOD8028644
_publ_section_title
;
Structure prediction by ZEFSAII (Michael W. Deem and Ramdas Pophale) SiO2 
 PCOD8028644
Probable space group: P -1
;
_chemical_formula_sum "Si O2"
_cell_formula_units_Z 10
_cell_length_a 4.966064
_cell_length_b 9.190399
_cell_length_c 8.552300
_cell_angle_alpha 78.655888
_cell_angle_beta 84.104936
_cell_angle_gamma 71.338375
_cell_volume 362.249223
_symmetry_space_group_name_H-M "P -1"
_symmetry_group_IT_number 2
_symmetry_cell_setting 'triclinic'
loop_
_space_group_symop_operation_xyz
x,y,z
-x,-y,-z
loop_
_atom_site_type_symbol
_atom_site_label
_atom_site_fract_x
_atom_site_fract_y
_atom_site_fract_z
Si Si1 0.032656 0.122658 0.810998
Si Si2 0.370799 0.081637 0.154986
Si Si3 0.781927 0.473311 0.394319
Si Si4 0.482735 0.357699 0.926490
Si Si5 0.882248 0.857613 0.539468
O O1 0.807720 0.266207 0.877585
O O2 0.281908 0.412060 0.775483
O O3 0.147115 0.182104 0.632955
O O4 0.907897 0.976300 0.834623
O O5 0.400563 0.097522 0.341498
O O6 0.664072 0.952255 0.097333
O O7 0.330336 0.252627 0.053278
O O8 0.500000 0.500000 0.500000
O O9 0.000000 0.500000 0.500000
O O10 0.896208 0.295483 0.362753
O O11 0.500000 0.500000 0.000000
O O12 0.000000 0.000000 0.500000
#
# Coordination Sequence:
#
# PCOD8028644 Si02
#       5
#     2   2   2   2   2
#     4  11  25  52  80 114 163 217 266 328 403 491
#     4  11  27  49  81 119 159 211 271 335 404 477
#     4  12  30  54  82 115 166 219 268 333 410 482
#     4  12  30  53  84 123 167 212 272 342 408 476
#     4  10  25  49  83 115 160 212 275 321 403 483
#
# _framework density 27.605304
#
# number of rings (size 3 to 8) (size 9 to 14) (size 15 to 20)
#    0.000    0.800    2.000    1.800   11.200    2.400 
#    0.000    0.000    0.000    0.000    0.000    0.000 
#    0.000    0.000    0.000    0.000    0.000    0.000 
#
# Total GULP energy -123968.122689 kJ/mol
# GULP energy per Si atom -12396.812269 kJ/mol
# Density = 2.754247 g / cm^3
# Si number density = 27.605304 Si / 1000 Ang^3
#
#
#
# Elastic Constant Matrix: (Units=GPa)
#
#
# Indices 1 2 3 4 5 6 
#
# 1 174.8763 59.2913 66.5053 -2.8034 8.9737 -9.6816
# 2 59.2913 187.8533 80.6910 -2.1375 -2.0700 -14.8333
# 3 66.5053 80.6910 228.6810 -14.4214 -6.1515 0.8857
# 4 -2.8034 -2.1375 -14.4214 54.1437 -6.6912 2.0099
# 5 8.9737 -2.0700 -6.1515 -6.6912 51.4680 5.9483
# 6 -9.6816 -14.8333 0.8857 2.0099 5.9483 43.6427
#
#
#
# Elastic Compliance Matrix: (Units=1/GPa)
#
#
# Indices 1 2 3 4 5 6 
#
# 1 0.006963 -0.001430 -0.001594 -0.000376 -0.001665 0.001335
# 2 -0.001430 0.006799 -0.002018 -0.000421 -0.000011 0.002055
# 3 -0.001594 -0.002018 0.005685 0.001557 0.001240 -0.001396
# 4 -0.000376 -0.000421 0.001557 0.019266 0.002918 -0.001543
# 5 -0.001665 -0.000011 0.001240 0.002918 0.020634 -0.003345
# 6 0.001335 0.002055 -0.001396 -0.001543 -0.003345 0.024463
#
#
# Mechanical properties :
#
#
# Convention : Reuss Voigt Hill
#
# Bulk Modulus (GPa) = 106.80226 111.59842 109.20034
# Shear Modulus (GPa) = 51.53854 55.51240 53.52547
#
# Velocity S-wave (km/s) = 4.32554 4.48921 4.40813
# Velocity P-wave (km/s) = 7.98249 8.20883 8.09645
#
# Compressibility (1/GPa) = 0.00936310
#
# Stress axis : x y z
#
# Youngs Moduli (GPa) = 143.62179 147.08395 175.88824
#
# Poissons Ratio (x) = 0.21035 0.28036
# Poissons Ratio (y) = 0.20540 0.35492
# Poissons Ratio (z) = 0.22893 0.29679
#
# Static dielectric constant tensor:
#      x y z
#    x 4.938080 -0.135050 0.415890 
#    y -0.135050 5.539080 0.392180 
#    z 0.415890 0.392180 7.262080 
# 
# 
# High freq. dielectric constant tensor:
#      x y z
#    x 2.101960 -0.007930 0.002490 
#    y -0.007930 2.132490 -0.001220 
#    z 0.002490 -0.001220 2.165600 
# 
# From -- ./inp_files/86615.got.cif
#   From: 2010.06.25/outbox.cif.g09.slc.cpg/sg2_44_cif.got.tgz:86615.got - 2010.06.27 13:26:56.
