data_PCOD8028228
_publ_section_title
;
Structure prediction by ZEFSAII (Michael W. Deem and Ramdas Pophale) SiO2 
 PCOD8028228
Probable space group: P -1
;
_chemical_formula_sum "Si O2"
_cell_formula_units_Z 14
_cell_length_a 16.463993
_cell_length_b 5.540489
_cell_length_c 9.361330
_cell_angle_alpha 116.529563
_cell_angle_beta 113.068376
_cell_angle_gamma 47.830207
_cell_volume 560.781083
_symmetry_space_group_name_H-M "P -1"
_symmetry_group_IT_number 2
_symmetry_cell_setting 'triclinic'
loop_
_space_group_symop_operation_xyz
x,y,z
-x,-y,-z
loop_
_atom_site_type_symbol
_atom_site_label
_atom_site_fract_x
_atom_site_fract_y
_atom_site_fract_z
Si Si1 0.972896 0.815364 0.323942
Si Si2 0.444295 0.254663 0.327898
Si Si3 0.907646 0.273716 0.902312
Si Si4 0.755519 0.997508 0.128102
Si Si5 0.346021 0.848441 0.186313
Si Si6 0.344372 0.861354 0.613374
Si Si7 0.165288 0.137106 0.347489
O O1 0.027395 0.713420 0.179348
O O2 0.034619 0.446586 0.342226
O O3 0.841048 0.048884 0.274429
O O4 0.000000 0.000000 0.500000
O O5 0.415949 0.989601 0.231973
O O6 0.395674 0.478181 0.497967
O O7 0.577881 0.038835 0.365364
O O8 0.407675 0.509716 0.234357
O O9 0.825576 0.198435 0.762905
O O10 0.827665 0.612637 0.025641
O O11 0.000000 0.000000 0.000000
O O12 0.664451 0.095532 0.210745
O O13 0.689214 0.233564 0.007919
O O14 0.235141 0.153610 0.272885
O O15 0.220876 0.116810 0.530528
#
# Coordination Sequence:
#
# PCOD8028228 Si02
#       7
#     2   2   2   2   2   2   2
#     4  12  27  42  67 104 143 184 239 288 353 436
#     4  10  25  52  72 104 143 189 240 306 360 429
#     4  12  24  44  67  95 148 191 234 291 351 418
#     4  12  24  44  71 109 136 190 239 293 359 430
#     4  11  24  46  77 101 142 190 239 296 367 423
#     4  10  25  44  74 103 138 187 240 296 362 426
#     4  11  24  46  68 100 143 193 231 291 356 435
#
# _framework density 24.965181000000001
#
# number of rings (size 3 to 8) (size 9 to 14) (size 15 to 20)
#    0.000    0.857    2.857    3.857    4.000    7.429 
#    0.000    0.000    0.000    0.000    0.000    0.000 
#    0.000    0.000    0.000    0.000    0.000    0.000 
#
# Total GULP energy -173510.282994 kJ/mol
# GULP energy per Si atom -12393.591642 kJ/mol
# Density = 2.490836 g / cm^3
# Si number density = 24.965181 Si / 1000 Ang^3
#
#
#
# Elastic Constant Matrix: (Units=GPa)
#
#
# Indices 1 2 3 4 5 6 
#
# 1 94.0202 19.6983 24.3876 -0.3897 5.5583 4.8947
# 2 19.6983 60.0973 26.5347 -10.1412 -2.8999 9.9760
# 3 24.3876 26.5347 134.3935 -7.1464 -16.5443 1.1140
# 4 -0.3897 -10.1412 -7.1464 32.0631 -2.6759 0.9761
# 5 5.5583 -2.8999 -16.5443 -2.6759 57.6303 3.2988
# 6 4.8947 9.9760 1.1140 0.9761 3.2988 31.1175
#
#
#
# Elastic Compliance Matrix: (Units=1/GPa)
#
#
# Indices 1 2 3 4 5 6 
#
# 1 0.011942 -0.003374 -0.001806 -0.001467 -0.001880 -0.000487
# 2 -0.003374 0.021299 -0.003057 0.006311 0.001185 -0.006512
# 3 -0.001806 -0.003057 0.008742 0.001152 0.002546 0.000645
# 4 -0.001467 0.006311 0.001152 0.033732 0.002537 -0.003161
# 5 -0.001880 0.001185 0.002546 0.002537 0.018569 -0.002223
# 6 -0.000487 -0.006512 0.000645 -0.003161 -0.002223 0.034612
#
#
# Mechanical properties :
#
#
# Convention : Reuss Voigt Hill
#
# Bulk Modulus (GPa) = 39.20573 47.75024 43.47799
# Shear Modulus (GPa) = 32.49431 38.68819 35.59125
#
# Velocity S-wave (km/s) = 3.61166 3.94088 3.77986
# Velocity P-wave (km/s) = 5.75590 6.31471 6.04177
#
# Compressibility (1/GPa) = 0.02550647
#
# Stress axis : x y z
#
# Youngs Moduli (GPa) = 83.73890 46.95121 114.39452
#
# Poissons Ratio (x) = 0.15842 0.20663
# Poissons Ratio (y) = 0.28255 0.34976
# Poissons Ratio (z) = 0.15125 0.14355
#
# Static dielectric constant tensor:
#      x y z
#    x 4.798640 -0.169970 0.183310 
#    y -0.169970 4.160850 -0.299050 
#    z 0.183310 -0.299050 4.836170 
# 
# 
# High freq. dielectric constant tensor:
#      x y z
#    x 1.998820 -0.013510 0.004970 
#    y -0.013510 1.975980 -0.018020 
#    z 0.004970 -0.018020 2.012120 
# 
# From -- ./inp_files/44946.got.cif
#   From: 2010.06.25/outbox.cif.g09.slc.cpg/sg2_23_cif.got.tgz:44946.got - 2010.06.27 13:26:56.
