data_PCOD8028138
_publ_section_title
;
Structure prediction by ZEFSAII (Michael W. Deem and Ramdas Pophale) SiO2 
 PCOD8028138
Probable space group: P -1
;
_chemical_formula_sum "Si O2"
_cell_formula_units_Z 16
_cell_length_a 13.986414
_cell_length_b 15.123396
_cell_length_c 10.841898
_cell_angle_alpha 111.508782
_cell_angle_beta 130.384515
_cell_angle_gamma 29.961796
_cell_volume 749.512354
_symmetry_space_group_name_H-M "P -1"
_symmetry_group_IT_number 2
_symmetry_cell_setting 'triclinic'
loop_
_space_group_symop_operation_xyz
x,y,z
-x,-y,-z
loop_
_atom_site_type_symbol
_atom_site_label
_atom_site_fract_x
_atom_site_fract_y
_atom_site_fract_z
Si Si1 0.521789 0.457767 0.290449
Si Si2 0.060602 0.534749 0.674964
Si Si3 0.535665 0.241430 0.100557
Si Si4 0.569190 0.095618 0.299884
Si Si5 0.760425 0.611243 0.623096
Si Si6 0.076990 0.799073 0.277642
Si Si7 0.861403 0.374898 0.410057
Si Si8 0.781187 0.798238 0.058531
O O1 0.441693 0.409927 0.144333
O O2 0.257038 0.684515 0.245830
O O3 0.748530 0.297336 0.504055
O O4 0.636284 0.442957 0.263732
O O5 0.068837 0.635751 0.675699
O O6 0.000000 0.500000 0.500000
O O7 0.818073 0.676024 0.641641
O O8 0.343846 0.326986 0.877413
O O9 0.533383 0.179838 0.189376
O O10 0.842131 0.036640 0.196630
O O11 0.516879 0.195867 0.428586
O O12 0.327504 0.178670 0.146286
O O13 0.862550 0.849241 0.412854
O O14 0.725974 0.551898 0.463285
O O15 0.019219 0.410939 0.819131
O O16 0.938299 0.789222 0.160554
O O17 0.500000 0.000000 0.000000
#
# Coordination Sequence:
#
# PCOD8028138 Si02
#       8
#     2   2   2   2   2   2   2   2
#     4  11  24  40  64  95 134 167 218 261 312 384
#     4  10  25  44  65  90 135 172 210 266 327 381
#     4  12  23  41  66  99 123 173 216 259 320 383
#     4  12  24  35  72  98 123 158 218 273 322 380
#     4  11  21  39  63  95 125 162 210 264 325 375
#     4  11  23  38  64 101 133 163 206 274 324 372
#     4  11  24  46  61  90 135 174 204 267 322 373
#     4  12  18  37  63  96 129 157 199 268 331 367
#
# _framework density 21.347211999999999
#
# number of rings (size 3 to 8) (size 9 to 14) (size 15 to 20)
#    0.000    0.750    6.250    1.500    5.250    1.000 
#    0.000    3.125    0.000    0.000    0.000    0.000 
#    0.000    0.000    0.000    0.000    0.000    0.000 
#
# Total GULP energy -198258.935170 kJ/mol
# GULP energy per Si atom -12391.183448 kJ/mol
# Density = 2.129863 g / cm^3
# Si number density = 21.347212 Si / 1000 Ang^3
#
#
#
# Elastic Constant Matrix: (Units=GPa)
#
#
# Indices 1 2 3 4 5 6 
#
# 1 118.7500 25.4229 34.0581 -4.0293 -8.9618 3.4536
# 2 25.4229 81.8990 22.5137 9.6432 -4.6053 -7.9078
# 3 34.0581 22.5137 67.0520 2.3648 5.3380 -7.1052
# 4 -4.0293 9.6432 2.3648 16.6397 3.7187 4.0273
# 5 -8.9618 -4.6053 5.3380 3.7187 27.0694 -1.7473
# 6 3.4536 -7.9078 -7.1052 4.0273 -1.7473 23.8101
#
#
#
# Elastic Compliance Matrix: (Units=1/GPa)
#
#
# Indices 1 2 3 4 5 6 
#
# 1 0.011278 -0.002896 -0.005752 0.005717 0.003264 -0.005042
# 2 -0.002896 0.016452 -0.003196 -0.012622 0.004683 0.007409
# 3 -0.005752 -0.003196 0.020061 -0.002517 -0.005686 0.005768
# 4 0.005717 -0.012622 -0.002517 0.076461 -0.011524 -0.019551
# 5 0.003264 0.004683 -0.005686 -0.011524 0.041808 0.004402
# 6 -0.005042 0.007409 0.005768 -0.019551 0.004402 0.050542
#
#
# Mechanical properties :
#
#
# Convention : Reuss Voigt Hill
#
# Bulk Modulus (GPa) = 41.48660 47.96559 44.72610
# Shear Modulus (GPa) = 20.13499 25.88425 23.00962
#
# Velocity S-wave (km/s) = 3.07451 3.48593 3.28666
# Velocity P-wave (km/s) = 5.66391 6.22256 5.94980
#
# Compressibility (1/GPa) = 0.02410417
#
# Stress axis : x y z
#
# Youngs Moduli (GPa) = 88.67098 60.78118 49.84828
#
# Poissons Ratio (x) = 0.17603 0.28671
# Poissons Ratio (y) = 0.25680 0.15930
# Poissons Ratio (z) = 0.51000 0.19424
#
# Static dielectric constant tensor:
#      x y z
#    x 4.267830 -0.009950 0.129520 
#    y -0.009950 4.066140 0.157550 
#    z 0.129520 0.157550 3.972730 
# 
# 
# High freq. dielectric constant tensor:
#      x y z
#    x 1.840500 -0.006120 0.016260 
#    y -0.006120 1.831210 0.007980 
#    z 0.016260 0.007980 1.818450 
# 
# From -- ./inp_files/454875.got.cif
#   From: 2010.06.25/outbox.cif.g09.slc.cpg/sg2_228_cif.got.tgz:454875.got - 2010.06.27 13:26:56.
