data_PCOD8028357
_publ_section_title
;
Structure prediction by ZEFSAII (Michael W. Deem and Ramdas Pophale) SiO2 
 PCOD8028357
Probable space group: P -1
;
_chemical_formula_sum "Si O2"
_cell_formula_units_Z 10
_cell_length_a 20.219663
_cell_length_b 14.388391
_cell_length_c 12.649751
_cell_angle_alpha 160.804079
_cell_angle_beta 159.235211
_cell_angle_gamma 19.467975
_cell_volume 368.307536
_symmetry_space_group_name_H-M "P -1"
_symmetry_group_IT_number 2
_symmetry_cell_setting 'triclinic'
loop_
_space_group_symop_operation_xyz
x,y,z
-x,-y,-z
loop_
_atom_site_type_symbol
_atom_site_label
_atom_site_fract_x
_atom_site_fract_y
_atom_site_fract_z
Si Si1 0.345513 0.172369 0.552216
Si Si2 0.589049 0.160945 0.499995
Si Si3 0.941027 0.114731 0.158130
Si Si4 0.223159 0.794712 0.552207
Si Si5 0.763715 0.792052 0.158137
O O1 0.269007 0.557078 0.851820
O O2 0.500000 0.000000 0.500000
O O3 0.466673 0.005291 0.664897
O O4 0.130591 0.141516 0.187809
O O5 0.419191 0.552755 0.664882
O O6 0.577694 0.016238 0.210310
O O7 0.844938 0.061126 0.789685
O O8 0.012101 0.237891 0.499994
O O9 0.282475 0.043596 0.851809
O O10 0.200809 0.571282 0.187795
O O11 0.000000 0.000000 0.500000
#
# Coordination Sequence:
#
# PCOD8028357 Si02
#       5
#     2   2   2   2   2
#     4  12  25  46  71 113 146 185 244 308 364 421
#     4  10  26  44  80 102 150 198 242 290 368 436
#     4  10  25  45  74 100 150 190 247 287 364 439
#     4  12  25  46  71 113 146 185 244 308 364 421
#     4  10  25  45  74 100 150 190 247 287 364 439
#
# _framework density 27.151223000000002
#
# number of rings (size 3 to 8) (size 9 to 14) (size 15 to 20)
#    1.200    0.000    0.000    4.800    2.800    4.800 
#    7.200    0.000    0.000    0.000    0.000    0.000 
#    0.000    0.000    0.000    0.000    0.000    0.000 
#
# Total GULP energy -124054.563114 kJ/mol
# GULP energy per Si atom -12405.456311 kJ/mol
# Density = 2.708943 g / cm^3
# Si number density = 27.151223 Si / 1000 Ang^3
#
#
#
# Elastic Constant Matrix: (Units=GPa)
#
#
# Indices 1 2 3 4 5 6 
#
# 1 180.6680 72.8275 13.8338 -11.3911 21.9744 -13.4268
# 2 72.8275 171.5925 4.2716 -6.3787 4.2356 -11.9431
# 3 13.8338 4.2716 58.0446 6.2974 15.8639 -14.2305
# 4 -11.3911 -6.3787 6.2974 44.0779 0.6183 -4.1699
# 5 21.9744 4.2356 15.8639 0.6183 44.1626 -4.1946
# 6 -13.4268 -11.9431 -14.2305 -4.1699 -4.1946 63.1269
#
#
#
# Elastic Compliance Matrix: (Units=1/GPa)
#
#
# Indices 1 2 3 4 5 6 
#
# 1 0.007283 -0.002884 -0.000686 0.001677 -0.003053 0.000757
# 2 -0.002884 0.007100 0.000117 0.000333 0.000786 0.000831
# 3 -0.000686 0.000117 0.020419 -0.002619 -0.006601 0.003868
# 4 0.001677 0.000333 -0.002619 0.023676 -0.000126 0.001385
# 5 -0.003053 0.000786 -0.006601 -0.000126 0.026437 -0.000240
# 6 0.000757 0.000831 0.003868 0.001385 -0.000240 0.017107
#
#
# Mechanical properties :
#
#
# Convention : Reuss Voigt Hill
#
# Bulk Modulus (GPa) = 35.84442 65.79677 50.82060
# Shear Modulus (GPa) = 42.29221 51.56496 46.92859
#
# Velocity S-wave (km/s) = 3.95099 4.36268 4.16193
# Velocity P-wave (km/s) = 5.83474 7.04722 6.46945
#
# Compressibility (1/GPa) = 0.02789834
#
# Stress axis : x y z
#
# Youngs Moduli (GPa) = 137.30144 140.85461 48.97305
#
# Poissons Ratio (x) = 0.40618 0.03358
# Poissons Ratio (y) = 0.39594 -0.00575
# Poissons Ratio (z) = 0.09415 -0.01655
#
# Static dielectric constant tensor:
#      x y z
#    x 4.766880 0.263080 -0.304700 
#    y 0.263080 4.786760 -0.253670 
#    z -0.304700 -0.253670 5.040160 
# 
# 
# High freq. dielectric constant tensor:
#      x y z
#    x 2.104340 0.017240 -0.025870 
#    y 0.017240 2.102820 -0.021730 
#    z -0.025870 -0.021730 2.130670 
# 
# From -- ./inp_files/541331.got.cif
#   From: 2010.06.25/outbox.cif.g09.slc.cpg/sg2_271_cif.got.tgz:541331.got - 2010.06.27 13:26:56.
