data_PCOD8028051
_publ_section_title
;
Structure prediction by ZEFSAII (Michael W. Deem and Ramdas Pophale) SiO2 
 PCOD8028051
Probable space group: P -1
;
_chemical_formula_sum "Si O2"
_cell_formula_units_Z 16
_cell_length_a 16.451028
_cell_length_b 8.659107
_cell_length_c 4.990349
_cell_angle_alpha 87.757334
_cell_angle_beta 84.515070
_cell_angle_gamma 106.856589
_cell_volume 675.552822
_symmetry_space_group_name_H-M "P -1"
_symmetry_group_IT_number 2
_symmetry_cell_setting 'triclinic'
loop_
_space_group_symop_operation_xyz
x,y,z
-x,-y,-z
loop_
_atom_site_type_symbol
_atom_site_label
_atom_site_fract_x
_atom_site_fract_y
_atom_site_fract_z
Si Si1 0.382156 0.797441 0.621506
Si Si2 0.174451 0.155975 0.841021
Si Si3 0.872678 0.548277 0.005285
Si Si4 0.695304 0.398403 0.855701
Si Si5 0.424989 0.171137 0.505817
Si Si6 0.958183 0.353363 0.336643
Si Si7 0.089828 0.981318 0.387703
Si Si8 0.354502 0.289606 0.009049
O O1 0.332202 0.669553 0.424687
O O2 0.477798 0.787830 0.621349
O O3 0.382176 0.979385 0.555939
O O4 0.332770 0.749829 0.919149
O O5 0.267871 0.172451 0.919891
O O6 0.164470 0.089388 0.547154
O O7 0.159674 0.331331 0.804277
O O8 0.108528 0.030826 0.069224
O O9 0.798594 0.475700 0.813425
O O10 0.961159 0.668089 0.852517
O O11 0.888289 0.396659 0.166842
O O12 0.648202 0.527874 0.962815
O O13 0.425791 0.270999 0.775462
O O14 0.370371 0.229355 0.298777
O O15 0.912231 0.203347 0.549817
O O16 0.000000 0.500000 0.500000
O O17 0.000000 0.000000 0.500000
#
# Coordination Sequence:
#
# PCOD8028051 Si02
#       8
#     2   2   2   2   2   2   2   2
#     4  11  25  44  69  98 134 174 214 264 331 392
#     4  11  25  44  65  96 128 172 217 269 320 379
#     4  10  25  43  63  91 134 167 216 270 326 378
#     4  11  25  43  68  99 131 176 217 270 327 389
#     4  11  24  45  68  98 136 171 214 270 324 392
#     4  11  25  42  64  92 128 174 215 272 322 380
#     4  12  24  41  68  91 126 171 222 266 318 383
#     4  11  24  43  68  99 136 170 217 275 323 381
#
# _framework density 23.684304999999998
#
# number of rings (size 3 to 8) (size 9 to 14) (size 15 to 20)
#    0.000    1.000    1.250    4.125    5.250   10.000 
#    0.000    0.000    0.000    0.000    0.000    0.000 
#    0.000    0.000    0.000    0.000    0.000    0.000 
#
# Total GULP energy -198437.939876 kJ/mol
# GULP energy per Si atom -12402.371242 kJ/mol
# Density = 2.363040 g / cm^3
# Si number density = 23.684305 Si / 1000 Ang^3
#
#
#
# Elastic Constant Matrix: (Units=GPa)
#
#
# Indices 1 2 3 4 5 6 
#
# 1 78.2167 30.4409 10.4507 -8.6384 17.5537 -4.4646
# 2 30.4409 89.0987 -0.0074 -2.7947 21.2225 -1.7372
# 3 10.4507 -0.0074 58.7117 -7.5829 9.5565 -6.6008
# 4 -8.6384 -2.7947 -7.5829 42.7810 5.7392 -1.2208
# 5 17.5537 21.2225 9.5565 5.7392 31.2103 3.3515
# 6 -4.4646 -1.7372 -6.6008 -1.2208 3.3515 29.0404
#
#
#
# Elastic Compliance Matrix: (Units=1/GPa)
#
#
# Indices 1 2 3 4 5 6 
#
# 1 0.016701 -0.003667 -0.000815 0.004121 -0.007755 0.003231
# 2 -0.003667 0.014832 0.002692 0.002034 -0.009448 0.002111
# 3 -0.000815 0.002692 0.019932 0.004918 -0.009004 0.005812
# 4 0.004121 0.002034 0.004918 0.026751 -0.010578 0.004218
# 5 -0.007755 -0.009448 -0.009004 -0.010578 0.048588 -0.009856
# 6 0.003231 0.002111 0.005812 0.004218 -0.009856 0.037694
#
#
# Mechanical properties :
#
#
# Convention : Reuss Voigt Hill
#
# Bulk Modulus (GPa) = 20.88308 34.19950 27.54129
# Shear Modulus (GPa) = 27.16826 32.94918 30.05872
#
# Velocity S-wave (km/s) = 3.39056 3.73390 3.56637
# Velocity P-wave (km/s) = 4.91572 5.74982 5.34905
#
# Compressibility (1/GPa) = 0.04788566
#
# Stress axis : x y z
#
# Youngs Moduli (GPa) = 59.87713 67.42220 50.17051
#
# Poissons Ratio (x) = 0.24721 0.04091
# Poissons Ratio (y) = 0.21954 -0.13508
# Poissons Ratio (z) = 0.04883 -0.18153
#
# Static dielectric constant tensor:
#      x y z
#    x 4.121650 -0.142090 0.298630 
#    y -0.142090 4.504670 -0.267490 
#    z 0.298630 -0.267490 4.599030 
# 
# 
# High freq. dielectric constant tensor:
#      x y z
#    x 1.945960 -0.002690 0.009060 
#    y -0.002690 1.943840 -0.000770 
#    z 0.009060 -0.000770 1.938830 
# 
# From -- ./inp_files/90119.got.cif
#   From: 2010.06.25/outbox.cif.g09.slc.cpg/sg2_46_cif.got.tgz:90119.got - 2010.06.27 13:26:56.
