data_PCOD8028632
_publ_section_title
;
Structure prediction by ZEFSAII (Michael W. Deem and Ramdas Pophale) SiO2 
 PCOD8028632
Probable space group: P -1
;
_chemical_formula_sum "Si O2"
_cell_formula_units_Z 10
_cell_length_a 17.304659
_cell_length_b 4.930649
_cell_length_c 5.207038
_cell_angle_alpha 92.429671
_cell_angle_beta 106.374850
_cell_angle_gamma 56.956207
_cell_volume 353.874147
_symmetry_space_group_name_H-M "P -1"
_symmetry_group_IT_number 2
_symmetry_cell_setting 'triclinic'
loop_
_space_group_symop_operation_xyz
x,y,z
-x,-y,-z
loop_
_atom_site_type_symbol
_atom_site_label
_atom_site_fract_x
_atom_site_fract_y
_atom_site_fract_z
Si Si1 0.846002 0.333568 0.887116
Si Si2 0.687369 0.526063 0.389257
Si Si3 0.718659 0.935429 0.090695
Si Si4 0.993819 0.696412 0.247145
Si Si5 0.485497 0.700465 0.247326
O O1 0.752260 0.338551 0.695631
O O2 0.916012 0.262568 0.704106
O O3 0.813451 0.682352 0.001287
O O4 0.896589 0.060992 0.149853
O O5 0.722189 0.758927 0.350524
O O6 0.570976 0.766540 0.341466
O O7 0.710900 0.264950 0.173810
O O8 0.625277 0.988430 0.848161
O O9 0.000000 0.500000 0.500000
O O10 0.000000 0.500000 0.000000
O O11 0.500000 0.500000 0.500000
O O12 0.500000 0.500000 0.000000
#
# Coordination Sequence:
#
# PCOD8028632 Si02
#       5
#     2   2   2   2   2
#     4  11  30  49  84 120 160 211 278 339 410 494
#     4  11  28  49  81 118 165 212 273 327 400 482
#     4  11  28  49  81 118 165 212 273 327 400 482
#     4  11  30  55  83 114 166 208 270 346 428 488
#     4  10  25  49  75 117 168 216 262 329 395 474
#
# _framework density 28.258634000000001
#
# number of rings (size 3 to 8) (size 9 to 14) (size 15 to 20)
#    0.000    1.200    0.000    0.600   22.400    2.400 
#    0.000    3.000    0.000    0.000    0.000    0.000 
#    0.000    0.000    0.000    0.000    0.000    0.000 
#
# Total GULP energy -123953.999201 kJ/mol
# GULP energy per Si atom -12395.399920 kJ/mol
# Density = 2.819432 g / cm^3
# Si number density = 28.258634 Si / 1000 Ang^3
#
#
#
# Elastic Constant Matrix: (Units=GPa)
#
#
# Indices 1 2 3 4 5 6 
#
# 1 74.4215 7.2850 35.7844 -14.6535 -1.9408 -14.1670
# 2 7.2850 108.6219 33.6586 -29.4263 4.4519 -16.8346
# 3 35.7844 33.6586 163.6572 -25.3714 -14.2297 -13.8470
# 4 -14.6535 -29.4263 -25.3714 41.0936 -2.4871 11.7118
# 5 -1.9408 4.4519 -14.2297 -2.4871 54.2825 -4.9060
# 6 -14.1670 -16.8346 -13.8470 11.7118 -4.9060 49.0370
#
#
#
# Elastic Compliance Matrix: (Units=1/GPa)
#
#
# Indices 1 2 3 4 5 6 
#
# 1 0.016132 0.001424 -0.002891 0.004033 0.000193 0.003389
# 2 0.001424 0.011978 -0.001494 0.007478 -0.000778 0.002238
# 3 -0.002891 -0.001494 0.007688 0.002663 0.002193 0.000406
# 4 0.004033 0.007478 0.002663 0.033844 0.001467 -0.003452
# 5 0.000193 -0.000778 0.002193 0.001467 0.019315 0.001990
# 6 0.003389 0.002238 0.000406 -0.003452 0.001990 0.023278
#
#
# Mechanical properties :
#
#
# Convention : Reuss Voigt Hill
#
# Bulk Modulus (GPa) = 33.47284 55.57297 44.52291
# Shear Modulus (GPa) = 39.02693 46.88077 42.95385
#
# Velocity S-wave (km/s) = 3.72030 4.07749 3.90298
# Velocity P-wave (km/s) = 5.50682 6.47120 6.00839
#
# Compressibility (1/GPa) = 0.02987497
#
# Stress axis : x y z
#
# Youngs Moduli (GPa) = 61.98796 83.48519 130.07926
#
# Poissons Ratio (x) = -0.11887 0.37612
# Poissons Ratio (y) = -0.08826 0.19432
# Poissons Ratio (z) = 0.17924 0.12472
#
# Static dielectric constant tensor:
#      x y z
#    x 5.282990 -0.580230 0.656470 
#    y -0.580230 5.110730 -0.208330 
#    z 0.656470 -0.208330 5.020560 
# 
# 
# High freq. dielectric constant tensor:
#      x y z
#    x 2.151950 -0.018600 0.009180 
#    y -0.018600 2.143590 -0.007660 
#    z 0.009180 -0.007660 2.155000 
# 
# From -- ./inp_files/5412.got.cif
#   From: 2010.06.25/outbox.cif.g09.slc.cpg/sg2_3_cif.got.tgz:5412.got - 2010.06.27 13:26:56.
