data_PCOD8028253
_publ_section_title
;
Structure prediction by ZEFSAII (Michael W. Deem and Ramdas Pophale) SiO2 
 PCOD8028253
Probable space group: P -1
;
_chemical_formula_sum "Si O2"
_cell_formula_units_Z 16
_cell_length_a 8.669657
_cell_length_b 20.120670
_cell_length_c 22.788081
_cell_angle_alpha 157.316956
_cell_angle_beta 42.506598
_cell_angle_gamma 149.832927
_cell_volume 731.847249
_symmetry_space_group_name_H-M "P -1"
_symmetry_group_IT_number 2
_symmetry_cell_setting 'triclinic'
loop_
_space_group_symop_operation_xyz
x,y,z
-x,-y,-z
loop_
_atom_site_type_symbol
_atom_site_label
_atom_site_fract_x
_atom_site_fract_y
_atom_site_fract_z
Si Si1 0.152789 0.426500 0.430836
Si Si2 0.902866 0.963642 0.064002
Si Si3 0.135219 0.366416 0.004151
Si Si4 0.092501 0.410071 0.188436
Si Si5 0.845428 0.603337 0.468082
Si Si6 0.177801 0.565265 0.943551
Si Si7 0.796593 0.811014 0.351192
Si Si8 0.119373 0.074553 0.352223
O O1 0.975412 0.323519 0.460154
O O2 0.523422 0.674323 0.531197
O O3 0.000000 0.500000 0.500000
O O4 0.127515 0.227653 0.245346
O O5 0.968352 0.814650 0.954446
O O6 0.535738 0.838688 0.068829
O O7 0.000000 0.000000 0.000000
O O8 0.086893 0.393914 0.106883
O O9 0.043832 0.484358 0.087513
O O10 0.500000 0.500000 0.000000
O O11 0.895910 0.086156 0.822380
O O12 0.426741 0.673206 0.333519
O O13 0.819727 0.401287 0.279083
O O14 0.500000 0.500000 0.500000
O O15 0.042092 0.841447 0.564450
O O16 0.228708 0.392259 0.782233
O O17 0.000000 0.500000 0.000000
O O18 0.000000 0.000000 0.500000
O O19 0.961742 0.924142 0.333872
#
# Coordination Sequence:
#
# PCOD8028253 Si02
#       8
#     2   2   2   2   2   2   2   2
#     4  11  24  43  71  99 142 189 234 293 357 426
#     4  11  25  45  72 105 140 187 249 296 356 432
#     4  12  23  45  71 105 148 186 238 291 354 437
#     4  11  25  46  71 105 138 191 235 297 360 422
#     4  10  25  45  66  99 139 181 235 287 361 426
#     4  11  24  45  70 103 141 190 236 291 359 418
#     4  11  26  42  69 103 143 179 237 292 352 428
#     4  11  24  45  66 102 144 182 234 292 361 417
#
# _framework density 21.862486000000001
#
# number of rings (size 3 to 8) (size 9 to 14) (size 15 to 20)
#    0.000    1.000    2.500    3.000    7.000    3.500 
#    0.000    5.625    0.000    0.000    0.000    0.000 
#    0.000    0.000    0.000    0.000    0.000    0.000 
#
# Total GULP energy -198272.597289 kJ/mol
# GULP energy per Si atom -12392.037331 kJ/mol
# Density = 2.181273 g / cm^3
# Si number density = 21.862486 Si / 1000 Ang^3
#
#
#
# Elastic Constant Matrix: (Units=GPa)
#
#
# Indices 1 2 3 4 5 6 
#
# 1 171.6374 56.5478 60.4144 -6.9707 -9.5096 -27.6940
# 2 56.5478 110.7427 54.0780 -9.6966 8.2813 -3.4379
# 3 60.4144 54.0780 148.1663 -9.1733 16.6000 -3.4334
# 4 -6.9707 -9.6966 -9.1733 44.2584 -1.9559 5.1256
# 5 -9.5096 8.2813 16.6000 -1.9559 46.4039 0.0326
# 6 -27.6940 -3.4379 -3.4334 5.1256 0.0326 42.1733
#
#
#
# Elastic Compliance Matrix: (Units=1/GPa)
#
#
# Indices 1 2 3 4 5 6 
#
# 1 0.008924 -0.003361 -0.002687 -0.000365 0.003371 0.005409
# 2 -0.003361 0.012385 -0.002882 0.001697 -0.001795 -0.001637
# 3 -0.002687 -0.002882 0.009292 0.000881 -0.003322 -0.001347
# 4 -0.000365 0.001697 0.000881 0.023438 0.000297 -0.002879
# 5 0.003371 -0.001795 -0.003322 0.000297 0.023761 0.001742
# 6 0.005409 -0.001637 -0.001347 -0.002879 0.001742 0.027369
#
#
# Mechanical properties :
#
#
# Convention : Reuss Voigt Hill
#
# Bulk Modulus (GPa) = 78.47871 85.84741 82.16306
# Shear Modulus (GPa) = 39.28478 43.86754 41.57616
#
# Velocity S-wave (km/s) = 4.24359 4.48428 4.36559
# Velocity P-wave (km/s) = 7.74501 8.13412 7.94195
#
# Compressibility (1/GPa) = 0.01274231
#
# Stress axis : x y z
#
# Youngs Moduli (GPa) = 112.05773 80.74085 107.61829
#
# Poissons Ratio (x) = 0.27135 0.28917
# Poissons Ratio (y) = 0.37660 0.31013
# Poissons Ratio (z) = 0.30110 0.23268
#
# Static dielectric constant tensor:
#      x y z
#    x 4.665320 -0.200680 -0.014870 
#    y -0.200680 4.078340 0.149470 
#    z -0.014870 0.149470 4.080830 
# 
# 
# High freq. dielectric constant tensor:
#      x y z
#    x 1.887320 -0.013630 -0.005600 
#    y -0.013630 1.853390 0.000470 
#    z -0.005600 0.000470 1.867280 
# 
# From -- ./inp_files/608668.got.cif
#   From: 2010.06.25/outbox.cif.g09.slc.cpg/sg2_305_cif.got.tgz:608668.got - 2010.06.27 13:26:56.
