data_PCOD8028937
_publ_section_title
;
Structure prediction by ZEFSAII (Michael W. Deem and Ramdas Pophale) SiO2 
 PCOD8028937
Probable space group: P -1
;
_chemical_formula_sum "Si O2"
_cell_formula_units_Z 12
_cell_length_a 15.978367
_cell_length_b 6.761147
_cell_length_c 10.201056
_cell_angle_alpha 43.093481
_cell_angle_beta 119.678499
_cell_angle_gamma 121.298427
_cell_volume 630.557449
_symmetry_space_group_name_H-M "P -1"
_symmetry_group_IT_number 2
_symmetry_cell_setting 'triclinic'
loop_
_space_group_symop_operation_xyz
x,y,z
-x,-y,-z
loop_
_atom_site_type_symbol
_atom_site_label
_atom_site_fract_x
_atom_site_fract_y
_atom_site_fract_z
Si Si1 0.266702 0.540360 0.304689
Si Si2 0.268427 0.862842 0.628410
Si Si3 0.058802 0.681316 0.077646
Si Si4 0.384905 0.963474 0.405714
Si Si5 0.701016 0.494417 0.945162
Si Si6 0.894426 0.655946 0.159572
O O1 0.161082 0.599224 0.224658
O O2 0.349646 0.728391 0.375616
O O3 0.304803 0.644195 0.137557
O O4 0.256005 0.190335 0.485451
O O5 0.324473 0.836175 0.551136
O O6 0.158081 0.624935 0.651333
O O7 0.330359 0.773522 0.842137
O O8 0.993619 0.602057 0.197805
O O9 0.000000 0.500000 0.000000
O O10 0.079370 0.034639 0.888318
O O11 0.500000 0.000000 0.500000
O O12 0.370616 0.287203 0.199832
O O13 0.816233 0.683561 0.969590
#
# Coordination Sequence:
#
# PCOD8028937 Si02
#       6
#     2   2   2   2   2   2
#     4  11  21  38  64  87 119 156 203 241 288 361
#     4   9  22  40  60  89 122 153 198 249 296 346
#     4  11  19  34  64  89 117 164 196 229 297 352
#     4  11  24  41  63  87 117 158 199 249 304 349
#     4   9  20  42  58  84 123 153 192 250 292 340
#     4   9  20  37  57  86 122 155 189 240 290 345
#
# _framework density 19.030781000000001
#
# number of rings (size 3 to 8) (size 9 to 14) (size 15 to 20)
#    1.000    1.000    3.333    0.000    0.000    8.000 
#    0.000    3.333    0.000    0.000    0.000    0.000 
#    0.000    0.000    0.000    0.000    0.000    0.000 
#
# Total GULP energy -148765.818300 kJ/mol
# GULP energy per Si atom -12397.151525 kJ/mol
# Density = 1.898747 g / cm^3
# Si number density = 19.030781 Si / 1000 Ang^3
#
#
#
# Elastic Constant Matrix: (Units=GPa)
#
#
# Indices 1 2 3 4 5 6 
#
# 1 40.6461 41.4051 -0.0513 2.9701 0.6820 -6.4958
# 2 41.4051 139.5222 35.9783 19.1287 -3.3371 -10.9212
# 3 -0.0513 35.9783 81.9165 0.7540 -13.9330 -10.8318
# 4 2.9701 19.1287 0.7540 23.3505 1.8708 5.9477
# 5 0.6820 -3.3371 -13.9330 1.8708 31.8748 3.8496
# 6 -6.4958 -10.9212 -10.8318 5.9477 3.8496 28.3947
#
#
#
# Elastic Compliance Matrix: (Units=1/GPa)
#
#
# Indices 1 2 3 4 5 6 
#
# 1 0.038785 -0.013402 0.006521 0.004508 -0.000287 0.005301
# 2 -0.013402 0.014276 -0.005952 -0.010368 -0.000501 0.002394
# 3 0.006521 -0.005952 0.016348 0.001976 0.005755 0.004245
# 4 0.004508 -0.010368 0.001976 0.054222 -0.001894 -0.013304
# 5 -0.000287 -0.000501 0.005755 -0.001894 0.034232 -0.002307
# 6 0.005301 0.002394 0.004245 -0.013304 -0.002307 0.042070
#
#
# Mechanical properties :
#
#
# Convention : Reuss Voigt Hill
#
# Bulk Modulus (GPa) = 22.86024 46.30544 34.58284
# Shear Modulus (GPa) = 20.81784 29.04085 24.92935
#
# Velocity S-wave (km/s) = 3.31101 3.91063 3.62325
# Velocity P-wave (km/s) = 5.16288 6.69145 5.97624
#
# Compressibility (1/GPa) = 0.04374408
#
# Stress axis : x y z
#
# Youngs Moduli (GPa) = 25.78305 70.04746 61.17136
#
# Poissons Ratio (x) = 0.93874 -0.39889
# Poissons Ratio (y) = 0.34553 0.36407
# Poissons Ratio (z) = -0.16813 0.41690
#
# Static dielectric constant tensor:
#      x y z
#    x 3.441270 -0.118170 0.033790 
#    y -0.118170 3.505810 0.030430 
#    z 0.033790 0.030430 3.370990 
# 
# 
# High freq. dielectric constant tensor:
#      x y z
#    x 1.737430 -0.013000 0.004190 
#    y -0.013000 1.744260 -0.000360 
#    z 0.004190 -0.000360 1.730140 
# 
# From -- ./inp_files/30183.got.cif
#   From: 2010.06.25/outbox.cif.g09.slc.cpg/sg2_16_cif.got.tgz:30183.got - 2010.06.27 13:26:56.
