data_PCOD8028173
_publ_section_title
;
Structure prediction by ZEFSAII (Michael W. Deem and Ramdas Pophale) SiO2 
 PCOD8028173
Probable space group: P -1
;
_chemical_formula_sum "Si O2"
_cell_formula_units_Z 16
_cell_length_a 18.730816
_cell_length_b 16.352129
_cell_length_c 13.292033
_cell_angle_alpha 26.491096
_cell_angle_beta 43.682469
_cell_angle_gamma 25.737436
_cell_volume 712.458548
_symmetry_space_group_name_H-M "P -1"
_symmetry_group_IT_number 2
_symmetry_cell_setting 'triclinic'
loop_
_space_group_symop_operation_xyz
x,y,z
-x,-y,-z
loop_
_atom_site_type_symbol
_atom_site_label
_atom_site_fract_x
_atom_site_fract_y
_atom_site_fract_z
Si Si1 0.780292 0.951264 0.583695
Si Si2 0.021717 0.869555 0.518517
Si Si3 0.326478 0.126232 0.041528
Si Si4 0.956165 0.907111 0.931723
Si Si5 0.845100 0.719841 0.143701
Si Si6 0.763425 0.488481 0.608643
Si Si7 0.419915 0.772096 0.711670
Si Si8 0.716178 0.713135 0.612229
O O1 0.829998 0.066495 0.462014
O O2 0.952240 0.583221 0.774944
O O3 0.669530 0.185060 0.342538
O O4 0.661107 0.005014 0.722963
O O5 0.152236 0.508858 0.798023
O O6 0.088572 0.916393 0.317288
O O7 0.000000 0.000000 0.500000
O O8 0.298557 0.033851 0.073410
O O9 0.500000 0.000000 0.000000
O O10 0.877090 0.139203 0.850825
O O11 0.846427 0.875050 0.058382
O O12 0.173116 0.561412 0.111601
O O13 0.782419 0.611771 0.366787
O O14 0.559360 0.719678 0.584137
O O15 0.827890 0.499560 0.632523
O O16 0.268976 0.096720 0.577011
O O17 0.500000 0.500000 0.000000
O O18 0.500000 0.000000 0.500000
#
# Coordination Sequence:
#
# PCOD8028173 Si02
#       8
#     2   2   2   2   2   2   2   2
#     4  11  22  43  73  98 144 187 231 291 356 415
#     4  11  24  43  69 104 139 185 241 284 354 431
#     4  11  23  45  72 101 146 181 232 296 351 420
#     4  12  23  44  73 102 143 187 237 288 355 422
#     4  11  23  44  71 105 140 184 233 287 355 421
#     4  11  25  45  69 105 144 181 240 290 353 415
#     4  11  26  46  71 106 142 187 242 291 358 425
#     4  10  25  44  68  98 145 182 237 291 354 408
#
# _framework density 22.457446000000001
#
# number of rings (size 3 to 8) (size 9 to 14) (size 15 to 20)
#    0.000    1.000    3.750    4.125    5.250    1.500 
#    2.250    1.250    0.000    0.000    0.000    0.000 
#    0.000    0.000    0.000    0.000    0.000    0.000 
#
# Total GULP energy -198209.666126 kJ/mol
# GULP energy per Si atom -12388.104133 kJ/mol
# Density = 2.240633 g / cm^3
# Si number density = 22.457446 Si / 1000 Ang^3
#
#
#
# Elastic Constant Matrix: (Units=GPa)
#
#
# Indices 1 2 3 4 5 6 
#
# 1 180.6134 59.8984 72.2658 -2.1441 4.4020 19.9288
# 2 59.8984 81.9702 26.6333 9.4450 -6.0438 10.1351
# 3 72.2658 26.6333 101.0721 3.9506 5.2839 16.0322
# 4 -2.1441 9.4450 3.9506 32.1838 3.0297 -9.2309
# 5 4.4020 -6.0438 5.2839 3.0297 44.4700 -0.6969
# 6 19.9288 10.1351 16.0322 -9.2309 -0.6969 42.2144
#
#
#
# Elastic Compliance Matrix: (Units=1/GPa)
#
#
# Indices 1 2 3 4 5 6 
#
# 1 0.009723 -0.005719 -0.005407 0.002958 -0.001307 -0.000538
# 2 -0.005719 0.017791 -0.000039 -0.006773 0.003404 -0.002982
# 3 -0.005407 -0.000039 0.014523 -0.003078 -0.001043 -0.003644
# 4 0.002958 -0.006773 -0.003078 0.036618 -0.003196 0.009353
# 5 -0.001307 0.003404 -0.001043 -0.003196 0.023419 -0.000116
# 6 -0.000538 -0.002982 -0.003644 0.009353 -0.000116 0.028086
#
#
# Mechanical properties :
#
#
# Convention : Reuss Voigt Hill
#
# Bulk Modulus (GPa) = 50.74319 75.69454 63.21886
# Shear Modulus (GPa) = 31.43488 37.43086 34.43287
#
# Velocity S-wave (km/s) = 3.74539 4.08701 3.91992
# Velocity P-wave (km/s) = 6.43026 7.48669 6.97849
#
# Compressibility (1/GPa) = 0.01970708
#
# Stress axis : x y z
#
# Youngs Moduli (GPa) = 102.84874 56.20696 68.85620
#
# Poissons Ratio (x) = 0.32144 0.37229
# Poissons Ratio (y) = 0.58818 0.00272
# Poissons Ratio (z) = 0.55608 0.00222
#
# Static dielectric constant tensor:
#      x y z
#    x 6.653460 0.445210 0.630550 
#    y 0.445210 4.182660 -0.103940 
#    z 0.630550 -0.103940 4.167240 
# 
# 
# High freq. dielectric constant tensor:
#      x y z
#    x 1.914700 0.016060 0.004040 
#    y 0.016060 1.864100 0.006630 
#    z 0.004040 0.006630 1.876280 
# 
# From -- ./inp_files/466021.got.cif
#   From: 2010.06.25/outbox.cif.g09.slc.cpg/sg2_234_cif.got.tgz:466021.got - 2010.06.27 13:26:56.
