data_PCOD8028628
_publ_section_title
;
Structure prediction by ZEFSAII (Michael W. Deem and Ramdas Pophale) SiO2 
 PCOD8028628
Probable space group: P -1
;
_chemical_formula_sum "Si O2"
_cell_formula_units_Z 14
_cell_length_a 15.753533
_cell_length_b 4.806161
_cell_length_c 9.397962
_cell_angle_alpha 68.797536
_cell_angle_beta 55.949487
_cell_angle_gamma 92.548457
_cell_volume 520.799161
_symmetry_space_group_name_H-M "P -1"
_symmetry_group_IT_number 2
_symmetry_cell_setting 'triclinic'
loop_
_space_group_symop_operation_xyz
x,y,z
-x,-y,-z
loop_
_atom_site_type_symbol
_atom_site_label
_atom_site_fract_x
_atom_site_fract_y
_atom_site_fract_z
Si Si1 0.707725 0.425797 0.127809
Si Si2 0.944744 0.537671 0.397444
Si Si3 0.424242 0.701427 0.991331
Si Si4 0.619562 0.716901 0.386940
Si Si5 0.369554 0.797505 0.329008
Si Si6 0.180581 0.024109 0.569795
Si Si7 0.087404 0.702356 0.988023
O O1 0.666052 0.478540 0.002267
O O2 0.696455 0.706287 0.184250
O O3 0.834702 0.479982 0.987439
O O4 0.636197 0.086563 0.328219
O O5 0.911398 0.218020 0.396465
O O6 0.000000 0.500000 0.500000
O O7 0.837377 0.639603 0.507193
O O8 0.028614 0.796262 0.164357
O O9 0.504638 0.018042 0.783708
O O10 0.500000 0.500000 0.000000
O O11 0.361380 0.781808 0.169036
O O12 0.500000 0.500000 0.500000
O O13 0.660705 0.557867 0.514065
O O14 0.296379 0.000048 0.419873
O O15 0.164567 0.980926 0.765125
O O16 0.000000 0.500000 0.000000
#
# Coordination Sequence:
#
# PCOD8028628 Si02
#       7
#     2   2   2   2   2   2   2
#     4  12  27  45  75 107 144 198 246 305 370 437
#     4  11  26  47  71 106 140 186 242 304 363 435
#     4  11  27  46  71 108 154 198 239 306 373 450
#     4  12  25  46  73 109 146 189 252 302 361 446
#     4  11  26  45  70 108 149 193 245 302 372 447
#     4  11  25  45  73 101 140 190 237 299 369 428
#     4  10  25  49  74 107 146 188 251 305 367 428
#
# _framework density 26.881765000000001
#
# number of rings (size 3 to 8) (size 9 to 14) (size 15 to 20)
#    0.000    0.857    2.857    2.143   10.000    2.286 
#    0.000    0.000    0.000    0.000    0.000    0.000 
#    0.000    0.000    0.000    0.000    0.000    0.000 
#
# Total GULP energy -173565.729584 kJ/mol
# GULP energy per Si atom -12397.552113 kJ/mol
# Density = 2.682058 g / cm^3
# Si number density = 26.881765 Si / 1000 Ang^3
#
#
#
# Elastic Constant Matrix: (Units=GPa)
#
#
# Indices 1 2 3 4 5 6 
#
# 1 157.7480 2.2708 46.7582 21.0251 19.6674 -13.1640
# 2 2.2708 74.7087 23.6074 15.1880 7.2591 -15.8453
# 3 46.7582 23.6074 148.2192 28.5154 2.5416 -4.2297
# 4 21.0251 15.1880 28.5154 38.1543 1.3804 -3.4891
# 5 19.6674 7.2591 2.5416 1.3804 45.7368 7.6575
# 6 -13.1640 -15.8453 -4.2297 -3.4891 7.6575 41.0817
#
#
#
# Elastic Compliance Matrix: (Units=1/GPa)
#
#
# Indices 1 2 3 4 5 6 
#
# 1 0.008254 0.002353 -0.002145 -0.003372 -0.004347 0.003856
# 2 0.002353 0.017199 -0.002084 -0.005723 -0.004720 0.007567
# 3 -0.002145 -0.002084 0.008577 -0.004549 0.001115 -0.001202
# 4 -0.003372 -0.005723 -0.004549 0.033566 0.001806 -0.001242
# 5 -0.004347 -0.004720 0.001115 0.001806 0.025660 -0.007728
# 6 0.003856 0.007567 -0.001202 -0.001242 -0.007728 0.029707
#
#
# Mechanical properties :
#
#
# Convention : Reuss Voigt Hill
#
# Bulk Modulus (GPa) = 33.02739 58.43874 45.73307
# Shear Modulus (GPa) = 36.54706 45.53052 41.03879
#
# Velocity S-wave (km/s) = 3.69121 4.11996 3.91146
# Velocity P-wave (km/s) = 5.52082 6.66472 6.11956
#
# Compressibility (1/GPa) = 0.03027790
#
# Stress axis : x y z
#
# Youngs Moduli (GPa) = 121.14642 58.14240 116.58855
#
# Poissons Ratio (x) = -0.13679 0.25014
# Poissons Ratio (y) = -0.28502 0.24294
# Poissons Ratio (z) = 0.25991 0.12115
#
# Static dielectric constant tensor:
#      x y z
#    x 5.170900 -0.099510 -0.328760 
#    y -0.099510 4.956000 0.204900 
#    z -0.328760 0.204900 5.494910 
# 
# 
# High freq. dielectric constant tensor:
#      x y z
#    x 2.102190 0.008040 -0.005330 
#    y 0.008040 2.071700 0.012340 
#    z -0.005330 0.012340 2.081900 
# 
# From -- ./inp_files/94739.got.cif
#   From: 2010.06.25/outbox.cif.g09.slc.cpg/sg2_48_cif.got.tgz:94739.got - 2010.06.27 13:26:56.
