data_PCOD8028236
_publ_section_title
;
Structure prediction by ZEFSAII (Michael W. Deem and Ramdas Pophale) SiO2 
 PCOD8028236
Probable space group: P -1
;
_chemical_formula_sum "Si O2"
_cell_formula_units_Z 16
_cell_length_a 7.425355
_cell_length_b 19.336318
_cell_length_c 14.109641
_cell_angle_alpha 158.398759
_cell_angle_beta 91.125544
_cell_angle_gamma 95.418437
_cell_volume 709.853004
_symmetry_space_group_name_H-M "P -1"
_symmetry_group_IT_number 2
_symmetry_cell_setting 'triclinic'
loop_
_space_group_symop_operation_xyz
x,y,z
-x,-y,-z
loop_
_atom_site_type_symbol
_atom_site_label
_atom_site_fract_x
_atom_site_fract_y
_atom_site_fract_z
Si Si1 0.325595 0.392400 0.654205
Si Si2 0.647883 0.892263 0.073490
Si Si3 0.747858 0.247614 0.174667
Si Si4 0.889765 0.631814 0.785064
Si Si5 0.367731 0.703970 0.344017
Si Si6 0.623899 0.224245 0.776329
Si Si7 0.997269 0.533591 0.866159
Si Si8 0.775781 0.923541 0.899579
O O1 0.440963 0.283547 0.581593
O O2 0.112179 0.369607 0.662617
O O3 0.304458 0.296254 0.427086
O O4 0.433406 0.631830 0.963085
O O5 0.425040 0.779990 0.934486
O O6 0.758861 0.769954 0.977461
O O7 0.703253 0.912003 0.989582
O O8 0.694734 0.103620 0.391891
O O9 0.781803 0.454589 0.490016
O O10 0.921906 0.237639 0.099087
O O11 0.698080 0.073446 0.029550
O O12 0.931801 0.543822 0.771411
O O13 0.412582 0.691363 0.218175
O O14 0.186385 0.519935 0.136965
O O15 0.500000 0.000000 0.500000
O O16 0.850932 0.256080 0.831511
O O17 0.000000 0.000000 0.000000
#
# Coordination Sequence:
#
# PCOD8028236 Si02
#       8
#     2   2   2   2   2   2   2   2
#     4  10  25  44  77  97 142 183 233 289 340 416
#     4  12  26  39  71 103 147 181 231 283 343 426
#     4  11  24  41  63  97 148 191 228 277 341 423
#     4  11  25  42  62 102 145 186 229 283 348 408
#     4  12  24  48  73 107 133 186 236 285 348 415
#     4  10  26  50  73 103 138 179 235 295 353 406
#     4  10  26  45  73  99 134 183 230 290 344 413
#     4  12  22  44  67 105 140 187 228 278 349 411
#
# _framework density 22.539877000000001
#
# number of rings (size 3 to 8) (size 9 to 14) (size 15 to 20)
#    0.750    0.250    2.500    3.750    5.250    2.000 
#    0.000    1.250    0.000    0.000    0.000    0.000 
#    0.000    0.000    0.000    0.000    0.000    0.000 
#
# Total GULP energy -198335.975103 kJ/mol
# GULP energy per Si atom -12395.998444 kJ/mol
# Density = 2.248858 g / cm^3
# Si number density = 22.539877 Si / 1000 Ang^3
#
#
#
# Elastic Constant Matrix: (Units=GPa)
#
#
# Indices 1 2 3 4 5 6 
#
# 1 111.4824 21.3371 37.6429 7.7626 3.1153 -28.4403
# 2 21.3371 60.4737 17.1230 3.4642 6.4738 -2.3358
# 3 37.6429 17.1230 121.3414 0.4125 4.8600 3.8249
# 4 7.7626 3.4642 0.4125 26.7920 -4.1317 0.8799
# 5 3.1153 6.4738 4.8600 -4.1317 39.3599 2.3957
# 6 -28.4403 -2.3358 3.8249 0.8799 2.3957 27.5909
#
#
#
# Elastic Compliance Matrix: (Units=1/GPa)
#
#
# Indices 1 2 3 4 5 6 
#
# 1 0.016065 -0.003112 -0.005004 -0.005009 -0.001721 0.017299
# 2 -0.003112 0.018405 -0.001480 -0.001837 -0.002721 -0.001150
# 3 -0.005004 -0.001480 0.010211 0.001701 -0.000032 -0.006750
# 4 -0.005009 -0.001837 0.001701 0.040018 0.005132 -0.007276
# 5 -0.001721 -0.002721 -0.000032 0.005132 0.026806 -0.004491
# 6 0.017299 -0.001150 -0.006750 -0.007276 -0.004491 0.055536
#
#
# Mechanical properties :
#
#
# Convention : Reuss Voigt Hill
#
# Bulk Modulus (GPa) = 39.23344 49.50039 44.36692
# Shear Modulus (GPa) = 25.67645 33.22819 29.45232
#
# Velocity S-wave (km/s) = 3.37880 3.84369 3.61872
# Velocity P-wave (km/s) = 5.71540 6.45814 6.09809
#
# Compressibility (1/GPa) = 0.02548846
#
# Stress axis : x y z
#
# Youngs Moduli (GPa) = 62.24548 54.33159 97.93591
#
# Poissons Ratio (x) = 0.16909 0.49008
# Poissons Ratio (y) = 0.19372 0.14498
# Poissons Ratio (z) = 0.31148 0.08043
#
# Static dielectric constant tensor:
#      x y z
#    x 4.554680 0.025210 0.210810 
#    y 0.025210 3.966070 -0.035790 
#    z 0.210810 -0.035790 4.143860 
# 
# 
# High freq. dielectric constant tensor:
#      x y z
#    x 1.898350 -0.010430 0.009220 
#    y -0.010430 1.875280 -0.009030 
#    z 0.009220 -0.009030 1.887820 
# 
# From -- ./inp_files/508012.got.cif
#   From: 2010.06.25/outbox.cif.g09.slc.cpg/sg2_255_cif.got.tgz:508012.got - 2010.06.27 13:26:56.
