data_PCOD8028315
_publ_section_title
;
Structure prediction by ZEFSAII (Michael W. Deem and Ramdas Pophale) SiO2 
 PCOD8028315
Probable space group: P -1
;
_chemical_formula_sum "Si O2"
_cell_formula_units_Z 14
_cell_length_a 6.723857
_cell_length_b 6.098760
_cell_length_c 20.108594
_cell_angle_alpha 67.433015
_cell_angle_beta 127.627701
_cell_angle_gamma 104.166109
_cell_volume 603.009823
_symmetry_space_group_name_H-M "P -1"
_symmetry_group_IT_number 2
_symmetry_cell_setting 'triclinic'
loop_
_space_group_symop_operation_xyz
x,y,z
-x,-y,-z
loop_
_atom_site_type_symbol
_atom_site_label
_atom_site_fract_x
_atom_site_fract_y
_atom_site_fract_z
Si Si1 0.347779 0.922219 0.137680
Si Si2 0.012671 0.239005 0.561360
Si Si3 0.877601 0.247097 0.017682
Si Si4 0.142009 0.765478 0.327811
Si Si5 0.393916 0.944667 0.593799
Si Si6 0.729771 0.515428 0.733436
Si Si7 0.831209 0.165707 0.163741
O O1 0.369447 0.715398 0.220551
O O2 0.585165 0.107076 0.165412
O O3 0.332756 0.806155 0.074560
O O4 0.095648 0.057369 0.085456
O O5 0.036995 0.284443 0.640155
O O6 0.771146 0.094245 0.501137
O O7 0.000000 0.500000 0.500000
O O8 0.250329 0.084203 0.606796
O O9 0.742668 0.231872 0.063594
O O10 0.000000 0.500000 0.000000
O O11 0.230595 0.537218 0.331087
O O12 0.375828 0.887065 0.399138
O O13 0.006711 0.935019 0.227323
O O14 0.505773 0.701348 0.674505
O O15 0.002145 0.611720 0.801991
#
# Coordination Sequence:
#
# PCOD8028315 Si02
#       7
#     2   2   2   2   2   2   2
#     4  11  25  44  72  97 143 184 232 285 348 412
#     4  11  25  45  71 102 135 185 230 282 353 414
#     4  11  23  46  69 101 140 181 235 290 338 412
#     4  11  25  45  68 101 142 178 229 289 347 413
#     4  10  25  45  70  98 139 177 237 279 348 410
#     4  11  24  47  70 106 143 183 231 294 344 413
#     4  11  25  43  69 105 136 186 234 280 352 412
#
# _framework density 23.216868999999999
#
# number of rings (size 3 to 8) (size 9 to 14) (size 15 to 20)
#    0.000    1.143    2.857    1.714    4.000    8.571 
#    0.000    0.000    0.000    0.000    0.000    0.000 
#    0.000    0.000    0.000    0.000    0.000    0.000 
#
# Total GULP energy -173560.739831 kJ/mol
# GULP energy per Si atom -12397.195702 kJ/mol
# Density = 2.316403 g / cm^3
# Si number density = 23.216869 Si / 1000 Ang^3
#
#
#
# Elastic Constant Matrix: (Units=GPa)
#
#
# Indices 1 2 3 4 5 6 
#
# 1 106.3035 38.4958 40.9848 -3.9765 -20.7538 -6.1626
# 2 38.4958 91.2091 27.8932 -14.6829 -20.3794 -9.3396
# 3 40.9848 27.8932 71.9364 -1.7356 -22.0383 -15.6661
# 4 -3.9765 -14.6829 -1.7356 27.9567 -1.1155 5.1503
# 5 -20.7538 -20.3794 -22.0383 -1.1155 44.6795 5.5711
# 6 -6.1626 -9.3396 -15.6661 5.1503 5.5711 46.4851
#
#
#
# Elastic Compliance Matrix: (Units=1/GPa)
#
#
# Indices 1 2 3 4 5 6 
#
# 1 0.013224 -0.003510 -0.005876 -0.000046 0.001784 -0.001141
# 2 -0.003510 0.015399 -0.002348 0.007528 0.004363 0.000480
# 3 -0.005876 -0.002348 0.021089 -0.001504 0.005901 0.005316
# 4 -0.000046 0.007528 -0.001504 0.040526 0.004180 -0.003991
# 5 0.001784 0.004363 0.005901 0.004180 0.028310 -0.000754
# 6 -0.001141 0.000480 0.005316 -0.003991 -0.000754 0.023782
#
#
# Mechanical properties :
#
#
# Convention : Reuss Voigt Hill
#
# Bulk Modulus (GPa) = 38.10497 53.79963 45.95230
# Shear Modulus (GPa) = 28.64566 34.62928 31.63747
#
# Velocity S-wave (km/s) = 3.51640 3.86626 3.69547
# Velocity P-wave (km/s) = 5.73890 6.56914 6.16801
#
# Compressibility (1/GPa) = 0.02624330
#
# Stress axis : x y z
#
# Youngs Moduli (GPa) = 75.61934 64.93753 47.41825
#
# Poissons Ratio (x) = 0.22792 0.27864
# Poissons Ratio (y) = 0.26541 0.11136
# Poissons Ratio (z) = 0.44436 0.15250
#
# Static dielectric constant tensor:
#      x y z
#    x 4.100840 -0.079480 0.082060 
#    y -0.079480 4.375410 0.172380 
#    z 0.082060 0.172380 4.226660 
# 
# 
# High freq. dielectric constant tensor:
#      x y z
#    x 1.914470 0.002810 0.000410 
#    y 0.002810 1.924210 0.005900 
#    z 0.000410 0.005900 1.922450 
# 
# From -- ./inp_files/6351.got.cif
#   From: 2010.06.25/outbox.cif.g09.slc.cpg/sg2_4_cif.got.tgz:6351.got - 2010.06.27 13:26:56.
