data_PCOD8028653
_publ_section_title
;
Structure prediction by ZEFSAII (Michael W. Deem and Ramdas Pophale) SiO2 
 PCOD8028653
Probable space group: P -1
;
_chemical_formula_sum "Si O2"
_cell_formula_units_Z 16
_cell_length_a 11.536753
_cell_length_b 5.078119
_cell_length_c 17.286252
_cell_angle_alpha 59.299167
_cell_angle_beta 51.468355
_cell_angle_gamma 50.752402
_cell_volume 602.065144
_symmetry_space_group_name_H-M "P -1"
_symmetry_group_IT_number 2
_symmetry_cell_setting 'triclinic'
loop_
_space_group_symop_operation_xyz
x,y,z
-x,-y,-z
loop_
_atom_site_type_symbol
_atom_site_label
_atom_site_fract_x
_atom_site_fract_y
_atom_site_fract_z
Si Si1 0.442820 0.145299 0.232846
Si Si2 0.003139 0.990280 0.771379
Si Si3 0.906867 0.281441 0.060790
Si Si4 0.792186 0.679971 0.821665
Si Si5 0.805149 0.765349 0.545049
Si Si6 0.339787 0.448193 0.498018
Si Si7 0.351196 0.473246 0.660228
Si Si8 0.396283 0.398692 0.959346
O O1 0.359411 0.035167 0.211459
O O2 0.301500 0.318403 0.333106
O O3 0.486162 0.423923 0.130782
O O4 0.612301 0.822769 0.244745
O O5 0.869802 0.865097 0.816896
O O6 0.086653 0.894553 0.834978
O O7 0.165838 0.794229 0.680453
O O8 0.918524 0.408639 0.745556
O O9 0.713517 0.538115 0.081759
O O10 0.000000 0.500000 0.000000
O O11 0.000000 0.000000 0.000000
O O12 0.731991 0.453181 0.935919
O O13 0.731079 0.758140 0.492596
O O14 0.000000 0.500000 0.500000
O O15 0.788199 0.142036 0.511372
O O16 0.379495 0.290622 0.591828
O O17 0.516668 0.386934 0.398333
O O18 0.500000 0.000000 0.000000
#
# Coordination Sequence:
#
# PCOD8028653 Si02
#       8
#     2   2   2   2   2   2   2   2
#     4  11  29  48  79 113 155 210 260 319 392 469
#     4  12  27  46  77 109 150 201 254 317 380 454
#     4  12  26  49  75 105 147 198 258 313 378 444
#     4  12  28  50  71 111 158 203 260 310 382 451
#     4  11  26  49  79 115 158 199 255 322 398 465
#     4  10  25  50  78 113 154 198 255 326 394 462
#     4  10  27  48  81 114 152 202 262 323 390 467
#     4  12  28  50  77 110 162 209 261 322 381 459
#
# _framework density 26.575196999999999
#
# number of rings (size 3 to 8) (size 9 to 14) (size 15 to 20)
#    0.000    0.750    2.500    1.500   10.500    8.500 
#    0.000    0.000    0.000    0.000    0.000    0.000 
#    0.000    0.000    0.000    0.000    0.000    0.000 
#
# Total GULP energy -198267.148168 kJ/mol
# GULP energy per Si atom -12391.696760 kJ/mol
# Density = 2.651471 g / cm^3
# Si number density = 26.575197 Si / 1000 Ang^3
#
#
#
# Elastic Constant Matrix: (Units=GPa)
#
#
# Indices 1 2 3 4 5 6 
#
# 1 170.9597 36.7021 25.3473 -1.7268 21.7086 -11.0482
# 2 36.7021 111.4315 2.8164 4.2305 -7.4884 -11.3005
# 3 25.3473 2.8164 68.3937 -0.3342 4.4971 -5.5812
# 4 -1.7268 4.2305 -0.3342 29.4307 -17.4552 5.3921
# 5 21.7086 -7.4884 4.4971 -17.4552 34.7867 3.8955
# 6 -11.0482 -11.3005 -5.5812 5.3921 3.8955 47.0898
#
#
#
# Elastic Compliance Matrix: (Units=1/GPa)
#
#
# Indices 1 2 3 4 5 6 
#
# 1 0.007749 -0.002640 -0.002141 -0.003879 -0.007295 0.001978
# 2 -0.002640 0.010230 0.000434 0.000352 0.003799 0.001532
# 3 -0.002141 0.000434 0.015617 -0.001114 -0.001338 0.001691
# 4 -0.003879 0.000352 -0.001114 0.053612 0.030620 -0.009630
# 5 -0.007295 0.003799 -0.001338 0.030620 0.050623 -0.008653
# 6 0.001978 0.001532 0.001691 -0.009630 -0.008653 0.024087
#
#
# Mechanical properties :
#
#
# Convention : Reuss Voigt Hill
#
# Bulk Modulus (GPa) = 40.15710 53.39073 46.77391
# Shear Modulus (GPa) = 27.94652 41.32273 34.63462
#
# Velocity S-wave (km/s) = 3.24636 3.94755 3.61400
# Velocity P-wave (km/s) = 5.40327 6.39621 5.92059
#
# Compressibility (1/GPa) = 0.02490220
#
# Stress axis : x y z
#
# Youngs Moduli (GPa) = 129.05565 97.75035 64.03166
#
# Poissons Ratio (x) = 0.25810 0.13708
# Poissons Ratio (y) = 0.34076 -0.02781
# Poissons Ratio (z) = 0.27628 -0.04245
#
# Static dielectric constant tensor:
#      x y z
#    x 5.013880 -0.434470 0.006900 
#    y -0.434470 4.994740 0.507290 
#    z 0.006900 0.507290 5.461890 
# 
# 
# High freq. dielectric constant tensor:
#      x y z
#    x 2.082560 -0.020450 0.016120 
#    y -0.020450 2.067600 0.011380 
#    z 0.016120 0.011380 2.069270 
# 
# From -- ./inp_files/564394.got.cif
#   From: 2010.06.25/outbox.cif.g09.slc.cpg/sg2_283_cif.got.tgz:564394.got - 2010.06.27 13:26:56.
