data_PCOD8028633
_publ_section_title
;
Structure prediction by ZEFSAII (Michael W. Deem and Ramdas Pophale) SiO2 
 PCOD8028633
Probable space group: P -1
;
_chemical_formula_sum "Si O2"
_cell_formula_units_Z 16
_cell_length_a 12.893073
_cell_length_b 10.727898
_cell_length_c 13.019309
_cell_angle_alpha 81.434552
_cell_angle_beta 99.872407
_cell_angle_gamma 156.710902
_cell_volume 701.261295
_symmetry_space_group_name_H-M "P -1"
_symmetry_group_IT_number 2
_symmetry_cell_setting 'triclinic'
loop_
_space_group_symop_operation_xyz
x,y,z
-x,-y,-z
loop_
_atom_site_type_symbol
_atom_site_label
_atom_site_fract_x
_atom_site_fract_y
_atom_site_fract_z
Si Si1 0.384336 0.604817 0.565504
Si Si2 0.727434 0.145666 0.037715
Si Si3 0.663357 0.608913 0.225970
Si Si4 0.964882 0.346753 0.589991
Si Si5 0.820568 0.240411 0.280191
Si Si6 0.549921 0.401828 0.025055
Si Si7 0.712467 0.430437 0.660878
Si Si8 0.783727 0.677124 0.830416
O O1 0.346295 0.442617 0.651143
O O2 0.325618 0.510742 0.446523
O O3 0.171637 0.469429 0.582153
O O4 0.674611 0.974424 0.586199
O O5 0.762232 0.160797 0.161519
O O6 0.000000 0.500000 0.000000
O O7 0.500000 0.000000 0.000000
O O8 0.671766 0.945750 0.001895
O O9 0.614142 0.445645 0.150992
O O10 0.454815 0.488991 0.195366
O O11 0.948808 0.972416 0.204958
O O12 0.000000 0.500000 0.500000
O O13 0.032118 0.467450 0.702581
O O14 0.015586 0.343780 0.339605
O O15 0.550568 0.944319 0.337687
O O16 0.500000 0.500000 0.000000
O O17 0.792045 0.641140 0.956261
O O18 0.710430 0.483995 0.767352
#
# Coordination Sequence:
#
# PCOD8028633 Si02
#       8
#     2   2   2   2   2   2   2   2
#     4  12  25  42  65 103 138 175 232 293 353 417
#     4  12  29  47  72 113 148 182 235 308 368 408
#     4  11  26  43  68 101 135 180 232 298 354 406
#     4  12  23  42  67  95 134 182 233 273 349 433
#     4  12  25  43  69  98 139 189 227 283 355 435
#     4  10  25  49  76 101 140 195 242 288 350 447
#     4  12  23  42  71  98 135 183 235 282 348 428
#     4  11  24  45  70  96 133 184 241 286 343 430
#
# _framework density 22.816030999999999
#
# number of rings (size 3 to 8) (size 9 to 14) (size 15 to 20)
#    0.000    0.500    3.750    3.750    5.250    3.000 
#    0.000    0.000    0.000    0.000    0.000    0.000 
#    0.000    0.000    0.000    0.000    0.000    0.000 
#
# Total GULP energy -198212.913269 kJ/mol
# GULP energy per Si atom -12388.307079 kJ/mol
# Density = 2.276410 g / cm^3
# Si number density = 22.816031 Si / 1000 Ang^3
#
#
#
# Elastic Constant Matrix: (Units=GPa)
#
#
# Indices 1 2 3 4 5 6 
#
# 1 80.9601 40.2709 1.4522 4.4218 -7.6003 13.3447
# 2 40.2709 154.8308 8.7288 -10.5949 -0.7918 19.9155
# 3 1.4522 8.7288 75.9439 3.6334 -5.8565 4.1713
# 4 4.4218 -10.5949 3.6334 42.0814 -5.8690 -4.4805
# 5 -7.6003 -0.7918 -5.8565 -5.8690 34.7400 6.2318
# 6 13.3447 19.9155 4.1713 -4.4805 6.2318 44.6165
#
#
#
# Elastic Compliance Matrix: (Units=1/GPa)
#
#
# Indices 1 2 3 4 5 6 
#
# 1 0.015264 -0.003681 0.000736 -0.002487 0.003632 -0.003748
# 2 -0.003681 0.007887 -0.000827 0.002217 -0.000010 -0.002118
# 3 0.000736 -0.000827 0.013591 -0.001280 0.002504 -0.001600
# 4 -0.002487 0.002217 -0.001280 0.025352 0.003220 0.001970
# 5 0.003632 -0.000010 0.002504 0.003220 0.031513 -0.005394
# 6 -0.003748 -0.002118 -0.001600 0.001970 -0.005394 0.025581
#
#
# Mechanical properties :
#
#
# Convention : Reuss Voigt Hill
#
# Bulk Modulus (GPa) = 34.24829 45.84872 40.04851
# Shear Modulus (GPa) = 36.63965 41.70643 39.17304
#
# Velocity S-wave (km/s) = 4.01168 4.28008 4.14805
# Velocity P-wave (km/s) = 6.04163 6.67563 6.36653
#
# Compressibility (1/GPa) = 0.02919853
#
# Stress axis : x y z
#
# Youngs Moduli (GPa) = 65.51274 126.79410 73.57920
#
# Poissons Ratio (x) = 0.46675 -0.05416
# Poissons Ratio (y) = 0.24116 0.06082
# Poissons Ratio (z) = -0.04823 0.10481
#
# Static dielectric constant tensor:
#      x y z
#    x 4.190620 0.092760 -0.253620 
#    y 0.092760 4.340330 0.092700 
#    z -0.253620 0.092700 4.225060 
# 
# 
# High freq. dielectric constant tensor:
#      x y z
#    x 1.885870 0.014140 -0.013830 
#    y 0.014140 1.912880 0.004020 
#    z -0.013830 0.004020 1.926290 
# 
# From -- ./inp_files/452375.got.cif
#   From: 2010.06.25/outbox.cif.g09.slc.cpg/sg2_227_cif.got.tgz:452375.got - 2010.06.27 13:26:56.
