data_PCOD8028523
_publ_section_title
;
Structure prediction by ZEFSAII (Michael W. Deem and Ramdas Pophale) SiO2 
 PCOD8028523
Probable space group: P -1
;
_chemical_formula_sum "Si O2"
_cell_formula_units_Z 16
_cell_length_a 9.084732
_cell_length_b 8.195745
_cell_length_c 12.958302
_cell_angle_alpha 96.513208
_cell_angle_beta 66.353293
_cell_angle_gamma 128.381340
_cell_volume 680.352614
_symmetry_space_group_name_H-M "P -1"
_symmetry_group_IT_number 2
_symmetry_cell_setting 'triclinic'
loop_
_space_group_symop_operation_xyz
x,y,z
-x,-y,-z
loop_
_atom_site_type_symbol
_atom_site_label
_atom_site_fract_x
_atom_site_fract_y
_atom_site_fract_z
Si Si1 0.840197 0.636872 0.940418
Si Si2 0.605143 0.450347 0.593708
Si Si3 0.108198 0.673919 0.154596
Si Si4 0.398831 0.277636 0.095829
Si Si5 0.393527 0.859423 0.284008
Si Si6 0.819400 0.703169 0.361217
Si Si7 0.243528 0.956928 0.947250
Si Si8 0.238529 0.095909 0.336523
O O1 0.970143 0.556846 0.871493
O O2 0.750020 0.657157 0.860985
O O3 0.009682 0.854021 0.970262
O O4 0.640901 0.471878 0.058361
O O5 0.653132 0.320766 0.637690
O O6 0.723216 0.510345 0.455672
O O7 0.358226 0.293563 0.633203
O O8 0.676419 0.672320 0.637595
O O9 0.246206 0.738057 0.220264
O O10 0.915242 0.667032 0.235126
O O11 0.239920 0.819151 0.029279
O O12 0.315618 0.107976 0.197776
O O13 0.359210 0.185588 0.983717
O O14 0.629291 0.014633 0.188238
O O15 0.334186 0.999043 0.363850
O O16 0.987179 0.925181 0.391787
#
# Coordination Sequence:
#
# PCOD8028523 Si02
#       8
#     2   2   2   2   2   2   2   2
#     4  11  25  36  64  99 132 187 218 264 339 404
#     4  11  26  48  71  99 134 177 227 287 332 397
#     4  11  22  44  65  96 138 175 219 283 326 398
#     4  11  23  41  60 100 142 168 224 273 329 402
#     4  11  24  43  70 102 136 178 224 276 334 404
#     4  10  25  47  71  98 135 171 229 285 334 394
#     4  12  23  40  64  96 140 173 218 271 331 398
#     4  11  24  43  73  96 135 181 217 281 342 397
#
# _framework density 23.517218
#
# number of rings (size 3 to 8) (size 9 to 14) (size 15 to 20)
#    0.000    1.000    3.750    3.000    7.000    2.000 
#    0.000    3.750    0.000    0.000    0.000    0.000 
#    0.000    0.000    0.000    0.000    0.000    0.000 
#
# Total GULP energy -198278.671253 kJ/mol
# GULP energy per Si atom -12392.416953 kJ/mol
# Density = 2.346369 g / cm^3
# Si number density = 23.517218 Si / 1000 Ang^3
#
#
#
# Elastic Constant Matrix: (Units=GPa)
#
#
# Indices 1 2 3 4 5 6 
#
# 1 104.0810 49.6532 22.2498 -21.3820 7.0739 -3.4979
# 2 49.6532 97.0498 12.7996 -12.4701 -9.2263 -6.6526
# 3 22.2498 12.7996 43.2513 -17.6476 6.3621 -7.4954
# 4 -21.3820 -12.4701 -17.6476 29.9658 -1.7069 -3.5707
# 5 7.0739 -9.2263 6.3621 -1.7069 35.1881 -11.5921
# 6 -3.4979 -6.6526 -7.4954 -3.5707 -11.5921 50.5542
#
#
#
# Elastic Compliance Matrix: (Units=1/GPa)
#
#
# Indices 1 2 3 4 5 6 
#
# 1 0.015026 -0.007054 -0.002794 0.005785 -0.004381 -0.000899
# 2 -0.007054 0.015026 -0.000608 0.001592 0.006537 0.003010
# 3 -0.002794 -0.000608 0.033382 0.017865 -0.003040 0.005241
# 4 0.005785 0.001592 0.017865 0.049548 0.000708 0.006920
# 5 -0.004381 0.006537 -0.003040 0.000708 0.034235 0.008006
# 6 -0.000899 0.003010 0.005241 0.006920 0.008006 0.023216
#
#
# Mechanical properties :
#
#
# Convention : Reuss Voigt Hill
#
# Bulk Modulus (GPa) = 23.51647 45.97635 34.74641
# Shear Modulus (GPa) = 24.32869 33.78693 29.05781
#
# Velocity S-wave (km/s) = 3.21986 3.79448 3.51892
# Velocity P-wave (km/s) = 4.88311 6.22816 5.59619
#
# Compressibility (1/GPa) = 0.04252338
#
# Stress axis : x y z
#
# Youngs Moduli (GPa) = 66.55005 66.55275 29.95593
#
# Poissons Ratio (x) = 0.46948 0.08368
# Poissons Ratio (y) = 0.46946 0.01821
# Poissons Ratio (z) = 0.18591 0.04045
#
# Static dielectric constant tensor:
#      x y z
#    x 4.444540 -0.198850 -0.182460 
#    y -0.198850 4.278760 -0.003490 
#    z -0.182460 -0.003490 4.275770 
# 
# 
# High freq. dielectric constant tensor:
#      x y z
#    x 1.936540 -0.001510 -0.004650 
#    y -0.001510 1.936060 -0.012370 
#    z -0.004650 -0.012370 1.912920 
# 
# From -- ./inp_files/492951.got.cif
#   From: 2010.06.25/outbox.cif.g09.slc.cpg/sg2_247_cif.got.tgz:492951.got - 2010.06.27 13:26:56.
