data_PCOD8028192
_publ_section_title
;
Structure prediction by ZEFSAII (Michael W. Deem and Ramdas Pophale) SiO2 
 PCOD8028192
Probable space group: P -1
;
_chemical_formula_sum "Si O2"
_cell_formula_units_Z 14
_cell_length_a 16.000670
_cell_length_b 4.951987
_cell_length_c 9.195740
_cell_angle_alpha 68.630935
_cell_angle_beta 52.920635
_cell_angle_gamma 66.932587
_cell_volume 526.607317
_symmetry_space_group_name_H-M "P -1"
_symmetry_group_IT_number 2
_symmetry_cell_setting 'triclinic'
loop_
_space_group_symop_operation_xyz
x,y,z
-x,-y,-z
loop_
_atom_site_type_symbol
_atom_site_label
_atom_site_fract_x
_atom_site_fract_y
_atom_site_fract_z
Si Si1 0.508502 0.323751 0.847248
Si Si2 0.114671 0.663971 0.877303
Si Si3 0.668918 0.203552 0.941551
Si Si4 0.971935 0.722284 0.271466
Si Si5 0.562502 0.927801 0.596502
Si Si6 0.746590 0.963441 0.206611
Si Si7 0.102109 0.740571 0.397672
O O1 0.583454 0.110429 0.933419
O O2 0.568351 0.593018 0.707479
O O3 0.504621 0.157874 0.733484
O O4 0.387820 0.460739 0.009734
O O5 0.173932 0.358864 0.802892
O O6 0.081176 0.922570 0.739394
O O7 0.188169 0.779300 0.899025
O O8 0.010618 0.616732 0.087425
O O9 0.783380 0.169274 0.748091
O O10 0.681461 0.999796 0.114479
O O11 0.885490 0.538553 0.450721
O O12 0.075575 0.640653 0.284055
O O13 0.678748 0.980184 0.422985
O O14 0.500000 0.000000 0.500000
O O15 0.000000 0.000000 0.500000
#
# Coordination Sequence:
#
# PCOD8028192 Si02
#       7
#     2   2   2   2   2   2   2
#     4  11  28  50  77 113 153 204 255 316 380 466
#     4  11  26  45  74 107 148 196 255 311 380 451
#     4  11  26  49  77 111 156 205 257 313 389 456
#     4  10  25  44  70 107 150 196 254 310 379 453
#     4  12  26  48  76 111 150 193 257 318 382 449
#     4  12  26  45  77 109 147 203 248 321 380 450
#     4  11  24  46  73 108 153 199 247 314 379 457
#
# _framework density 26.585276
#
# number of rings (size 3 to 8) (size 9 to 14) (size 15 to 20)
#    0.000    0.857    2.857    2.143    6.000    5.714 
#    7.714    0.000    0.000    0.000    0.000    0.000 
#    0.000    0.000    0.000    0.000    0.000    0.000 
#
# Total GULP energy -173583.565711 kJ/mol
# GULP energy per Si atom -12398.826122 kJ/mol
# Density = 2.652477 g / cm^3
# Si number density = 26.585276 Si / 1000 Ang^3
#
#
#
# Elastic Constant Matrix: (Units=GPa)
#
#
# Indices 1 2 3 4 5 6 
#
# 1 103.4394 11.7771 39.4613 19.4058 8.2058 -21.1511
# 2 11.7771 83.8215 55.4547 12.8849 -5.6066 -14.7672
# 3 39.4613 55.4547 169.2864 8.2168 -9.2376 -12.2450
# 4 19.4058 12.8849 8.2168 48.0397 -1.3093 6.9666
# 5 8.2058 -5.6066 -9.2376 -1.3093 42.2844 4.9301
# 6 -21.1511 -14.7672 -12.2450 6.9666 4.9301 41.3686
#
#
#
# Elastic Compliance Matrix: (Units=1/GPa)
#
#
# Indices 1 2 3 4 5 6 
#
# 1 0.014227 0.002678 -0.003432 -0.007300 -0.004428 0.008971
# 2 0.002678 0.017296 -0.005531 -0.005792 -0.000422 0.006932
# 3 -0.003432 -0.005531 0.008417 0.001743 0.002032 -0.001773
# 4 -0.007300 -0.005792 0.001743 0.026571 0.003032 -0.010120
# 5 -0.004428 -0.000422 0.002032 0.003032 0.025617 -0.005377
# 6 0.008971 0.006932 -0.001773 -0.010120 -0.005377 0.033054
#
#
# Mechanical properties :
#
#
# Convention : Reuss Voigt Hill
#
# Bulk Modulus (GPa) = 36.53502 63.32594 49.93048
# Shear Modulus (GPa) = 34.04253 42.99548 38.51901
#
# Velocity S-wave (km/s) = 3.58229 4.02589 3.81055
# Velocity P-wave (km/s) = 5.55723 6.74403 6.17919
#
# Compressibility (1/GPa) = 0.02737100
#
# Stress axis : x y z
#
# Youngs Moduli (GPa) = 70.28860 57.81653 118.80801
#
# Poissons Ratio (x) = -0.15484 0.40776
# Poissons Ratio (y) = -0.18824 0.65708
# Poissons Ratio (z) = 0.24123 0.31976
#
# Static dielectric constant tensor:
#      x y z
#    x 5.156790 -0.028580 -0.113310 
#    y -0.028580 4.780360 -0.226380 
#    z -0.113310 -0.226380 5.860320 
# 
# 
# High freq. dielectric constant tensor:
#      x y z
#    x 2.080870 -0.002810 0.006940 
#    y -0.002810 2.060640 -0.010760 
#    z 0.006940 -0.010760 2.089300 
# 
# From -- ./inp_files/323401.got.cif
#   From: 2010.06.25/outbox.cif.g09.slc.cpg/sg2_162_cif.got.tgz:323401.got - 2010.06.27 13:26:56.
