data_PCOD8028731
_publ_section_title
;
Structure prediction by ZEFSAII (Michael W. Deem and Ramdas Pophale) SiO2 
 PCOD8028731
Probable space group: P -1
;
_chemical_formula_sum "Si O2"
_cell_formula_units_Z 16
_cell_length_a 16.426981
_cell_length_b 11.363011
_cell_length_c 8.554825
_cell_angle_alpha 113.032566
_cell_angle_beta 56.793482
_cell_angle_gamma 146.939075
_cell_volume 720.803828
_symmetry_space_group_name_H-M "P -1"
_symmetry_group_IT_number 2
_symmetry_cell_setting 'triclinic'
loop_
_space_group_symop_operation_xyz
x,y,z
-x,-y,-z
loop_
_atom_site_type_symbol
_atom_site_label
_atom_site_fract_x
_atom_site_fract_y
_atom_site_fract_z
Si Si1 0.278147 0.805033 0.856091
Si Si2 0.058278 0.020826 0.619662
Si Si3 0.717854 0.675013 0.949848
Si Si4 0.529307 0.855893 0.566784
Si Si5 0.635549 0.545476 0.324881
Si Si6 0.977104 0.514339 0.786957
Si Si7 0.888195 0.209290 0.487674
Si Si8 0.552028 0.763714 0.152463
O O1 0.422494 0.870619 0.665895
O O2 0.141803 0.687593 0.807419
O O3 0.366258 0.033309 0.926790
O O4 0.189255 0.646936 0.017904
O O5 0.132334 0.957032 0.519426
O O6 0.912532 0.873981 0.821741
O O7 0.201497 0.271631 0.644738
O O8 0.000000 0.000000 0.500000
O O9 0.631754 0.468766 0.834877
O O10 0.680013 0.620319 0.140962
O O11 0.662221 0.756475 0.996951
O O12 0.433809 0.670462 0.699028
O O13 0.543822 0.793142 0.357857
O O14 0.710745 0.081034 0.560276
O O15 0.500000 0.500000 0.500000
O O16 0.992086 0.647635 0.716854
O O17 0.968288 0.371466 0.630306
#
# Coordination Sequence:
#
# PCOD8028731 Si02
#       8
#     2   2   2   2   2   2   2   2
#     4  11  26  44  77 101 141 190 240 286 356 422
#     4  12  28  45  76 105 141 192 238 298 360 426
#     4  11  27  44  75 106 142 187 234 299 357 427
#     4  12  25  45  73 103 145 191 229 288 357 429
#     4  12  25  47  70 106 146 182 237 293 359 425
#     4  10  26  46  68 105 141 186 237 299 342 423
#     4  11  25  46  69 101 150 180 239 291 357 415
#     4  11  24  45  72 106 145 180 240 291 356 422
#
# _framework density 22.197441000000001
#
# number of rings (size 3 to 8) (size 9 to 14) (size 15 to 20)
#    0.000    0.750    3.750    1.500   10.500    2.500 
#    0.000    0.000    0.000    0.000    0.000    0.000 
#    0.000    0.000    0.000    0.000    0.000    0.000 
#
# Total GULP energy -198450.254853 kJ/mol
# GULP energy per Si atom -12403.140928 kJ/mol
# Density = 2.214692 g / cm^3
# Si number density = 22.197441 Si / 1000 Ang^3
#
#
#
# Elastic Constant Matrix: (Units=GPa)
#
#
# Indices 1 2 3 4 5 6 
#
# 1 65.2338 27.6588 26.6512 -3.6537 -0.1069 -2.6781
# 2 27.6588 130.7832 34.9175 -4.1467 -4.5678 0.6086
# 3 26.6512 34.9175 93.1364 -10.0902 4.3169 5.7615
# 4 -3.6537 -4.1467 -10.0902 37.6889 -0.4941 0.6105
# 5 -0.1069 -4.5678 4.3169 -0.4941 35.7981 -3.3780
# 6 -2.6781 0.6086 5.7615 0.6105 -3.3780 37.9583
#
#
#
# Elastic Compliance Matrix: (Units=1/GPa)
#
#
# Indices 1 2 3 4 5 6 
#
# 1 0.018355 -0.002705 -0.004353 0.000289 0.000430 0.002033
# 2 -0.002705 0.008983 -0.002672 0.000027 0.001480 0.000202
# 3 -0.004353 -0.002672 0.013562 0.002928 -0.002191 -0.002565
# 4 0.000289 0.000027 0.002928 0.027361 -0.000053 -0.000869
# 5 0.000430 0.001480 -0.002191 -0.000053 0.028661 0.002891
# 6 0.002033 0.000202 -0.002565 -0.000869 0.002891 0.027145
#
#
# Mechanical properties :
#
#
# Convention : Reuss Voigt Hill
#
# Bulk Modulus (GPa) = 46.64029 51.95649 49.29839
# Shear Modulus (GPa) = 33.18440 35.61747 34.40093
#
# Velocity S-wave (km/s) = 3.87067 4.01006 3.94098
# Velocity P-wave (km/s) = 6.40573 6.70061 6.55482
#
# Compressibility (1/GPa) = 0.02144069
#
# Stress axis : x y z
#
# Youngs Moduli (GPa) = 54.48122 111.31757 73.73771
#
# Poissons Ratio (x) = 0.30111 0.32095
# Poissons Ratio (y) = 0.14737 0.19703
# Poissons Ratio (z) = 0.23713 0.29744
#
# Static dielectric constant tensor:
#      x y z
#    x 4.020520 -0.189540 0.216030 
#    y -0.189540 4.324400 0.001870 
#    z 0.216030 0.001870 3.781250 
# 
# 
# High freq. dielectric constant tensor:
#      x y z
#    x 1.870540 -0.001390 0.010310 
#    y -0.001390 1.895840 -0.009950 
#    z 0.010310 -0.009950 1.873820 
# 
# From -- ./inp_files/333606.got.cif
#   From: 2010.06.25/outbox.cif.g09.slc.cpg/sg2_167_cif.got.tgz:333606.got - 2010.06.27 13:26:56.
