data_PCOD8028398
_publ_section_title
;
Structure prediction by ZEFSAII (Michael W. Deem and Ramdas Pophale) SiO2 
 PCOD8028398
Probable space group: P -1
;
_chemical_formula_sum "Si O2"
_cell_formula_units_Z 16
_cell_length_a 19.237864
_cell_length_b 9.124039
_cell_length_c 8.478613
_cell_angle_alpha 102.150389
_cell_angle_beta 150.026786
_cell_angle_gamma 76.630101
_cell_volume 723.200955
_symmetry_space_group_name_H-M "P -1"
_symmetry_group_IT_number 2
_symmetry_cell_setting 'triclinic'
loop_
_space_group_symop_operation_xyz
x,y,z
-x,-y,-z
loop_
_atom_site_type_symbol
_atom_site_label
_atom_site_fract_x
_atom_site_fract_y
_atom_site_fract_z
Si Si1 0.471535 0.159197 0.896013
Si Si2 0.099068 0.587881 0.611093
Si Si3 0.783773 0.624555 0.480595
Si Si4 0.011803 0.155401 0.150361
Si Si5 0.632436 0.409443 0.317832
Si Si6 0.911520 0.869288 0.343030
Si Si7 0.369288 0.028919 0.360437
Si Si8 0.271961 0.726899 0.232364
O O1 0.360684 0.268552 0.805799
O O2 0.402978 0.147632 0.586824
O O3 0.618503 0.236911 0.188561
O O4 0.500000 0.000000 0.000000
O O5 0.174706 0.477504 0.610046
O O6 0.000000 0.500000 0.500000
O O7 0.992747 0.728446 0.377015
O O8 0.227158 0.647560 0.969901
O O9 0.905986 0.734598 0.775776
O O10 0.766477 0.497464 0.553386
O O11 0.091271 0.141446 0.473560
O O12 0.856240 0.229996 0.890314
O O13 0.000000 0.000000 0.000000
O O14 0.626893 0.393444 0.494216
O O15 0.500000 0.500000 0.000000
O O16 0.000000 0.000000 0.500000
O O17 0.756541 0.897473 0.977016
O O18 0.342666 0.874723 0.358840
O O19 0.500000 0.000000 0.500000
#
# Coordination Sequence:
#
# PCOD8028398 Si02
#       8
#     2   2   2   2   2   2   2   2
#     4  11  25  48  73 100 149 191 250 304 362 451
#     4  11  23  46  72 101 152 187 237 313 370 439
#     4  11  25  47  71 107 141 193 245 297 385 425
#     4  11  24  43  75 107 140 187 240 313 365 436
#     4  10  25  46  68 103 144 191 241 300 368 444
#     4  11  24  46  72 107 147 189 249 300 363 442
#     4  12  27  44  75 111 143 197 249 306 370 437
#     4  11  23  47  67 105 146 186 248 305 365 432
#
# _framework density 22.123864000000001
#
# number of rings (size 3 to 8) (size 9 to 14) (size 15 to 20)
#    0.000    1.000    6.250    0.750    3.500    3.500 
#    0.000    2.500    0.000    0.000    0.000    0.000 
#    0.000    0.000    0.000    0.000    0.000    0.000 
#
# Total GULP energy -198212.862566 kJ/mol
# GULP energy per Si atom -12388.303910 kJ/mol
# Density = 2.207351 g / cm^3
# Si number density = 22.123864 Si / 1000 Ang^3
#
#
#
# Elastic Constant Matrix: (Units=GPa)
#
#
# Indices 1 2 3 4 5 6 
#
# 1 107.0129 67.3178 43.5896 1.0319 9.8271 1.2369
# 2 67.3178 168.5138 49.9043 12.0095 9.1122 9.9525
# 3 43.5896 49.9043 123.7358 -5.3318 -1.7851 4.5374
# 4 1.0319 12.0095 -5.3318 53.2138 8.8481 7.3822
# 5 9.8271 9.1122 -1.7851 8.8481 33.0427 7.7895
# 6 1.2369 9.9525 4.5374 7.3822 7.7895 57.9784
#
#
#
# Elastic Compliance Matrix: (Units=1/GPa)
#
#
# Indices 1 2 3 4 5 6 
#
# 1 0.013736 -0.004515 -0.003070 0.000876 -0.003495 0.001080
# 2 -0.004515 0.008504 -0.001889 -0.001826 -0.000396 -0.000930
# 3 -0.003070 -0.001889 0.010037 0.001301 0.001818 -0.000806
# 4 0.000876 -0.001826 0.001301 0.020347 -0.004719 -0.001764
# 5 -0.003495 -0.000396 0.001818 -0.004719 0.033700 -0.003926
# 6 0.001080 -0.000930 -0.000806 -0.001764 -0.003926 0.018200
#
#
# Mechanical properties :
#
#
# Convention : Reuss Voigt Hill
#
# Bulk Modulus (GPa) = 75.03367 80.09843 77.56605
# Shear Modulus (GPa) = 39.08846 44.74370 41.91608
#
# Velocity S-wave (km/s) = 4.20789 4.50201 4.35743
# Velocity P-wave (km/s) = 7.58929 7.95659 7.77511
#
# Compressibility (1/GPa) = 0.01332735
#
# Stress axis : x y z
#
# Youngs Moduli (GPa) = 72.80404 117.59203 99.63027
#
# Poissons Ratio (x) = 0.53095 0.30586
# Poissons Ratio (y) = 0.32872 0.18825
# Poissons Ratio (z) = 0.22351 0.22219
#
# Static dielectric constant tensor:
#      x y z
#    x 3.681720 0.199450 0.263310 
#    y 0.199450 4.390380 0.389350 
#    z 0.263310 0.389350 4.059850 
# 
# 
# High freq. dielectric constant tensor:
#      x y z
#    x 1.856510 0.015830 0.004920 
#    y 0.015830 1.895560 0.013050 
#    z 0.004920 0.013050 1.876530 
# 
# From -- ./inp_files/343707.got.cif
#   From: 2010.06.25/outbox.cif.g09.slc.cpg/sg2_172_cif.got.tgz:343707.got - 2010.06.27 13:26:56.
