data_PCOD8028136
_publ_section_title
;
Structure prediction by ZEFSAII (Michael W. Deem and Ramdas Pophale) SiO2 
 PCOD8028136
Probable space group: P -1
;
_chemical_formula_sum "Si O2"
_cell_formula_units_Z 14
_cell_length_a 5.106471
_cell_length_b 27.847119
_cell_length_c 9.119603
_cell_angle_alpha 149.372469
_cell_angle_beta 75.490084
_cell_angle_gamma 114.514001
_cell_volume 585.037931
_symmetry_space_group_name_H-M "P -1"
_symmetry_group_IT_number 2
_symmetry_cell_setting 'triclinic'
loop_
_space_group_symop_operation_xyz
x,y,z
-x,-y,-z
loop_
_atom_site_type_symbol
_atom_site_label
_atom_site_fract_x
_atom_site_fract_y
_atom_site_fract_z
Si Si1 0.811243 0.642178 0.324018
Si Si2 0.452591 0.512020 0.789544
Si Si3 0.720338 0.112634 0.714266
Si Si4 0.335096 0.068719 0.146270
Si Si5 0.585171 0.226990 0.289485
Si Si6 0.398264 0.179312 0.712304
Si Si7 0.306816 0.586310 0.734004
O O1 0.757716 0.556835 0.234374
O O2 0.607746 0.706678 0.539902
O O3 0.151533 0.714948 0.481268
O O4 0.755031 0.587112 0.026961
O O5 0.332298 0.584522 0.904125
O O6 0.462276 0.439221 0.464424
O O7 0.585793 0.119177 0.592632
O O8 0.068848 0.135912 0.717423
O O9 0.500000 0.000000 0.500000
O O10 0.698627 0.202881 0.055957
O O11 0.416410 0.116593 0.098992
O O12 0.372411 0.160576 0.493951
O O13 0.500000 0.000000 0.000000
O O14 0.000000 0.000000 0.000000
O O15 0.613675 0.297686 0.021234
O O16 0.000000 0.500000 0.500000
#
# Coordination Sequence:
#
# PCOD8028136 Si02
#       7
#     2   2   2   2   2   2   2
#     4  11  26  43  71 100 139 186 231 295 347 417
#     4  10  25  44  65 101 141 181 240 288 345 410
#     4  12  26  47  74 104 142 182 239 298 359 425
#     4  12  26  47  72 104 142 183 234 298 361 425
#     4  12  25  45  71 102 139 181 240 283 364 422
#     4  12  27  46  75 105 143 190 235 292 361 420
#     4  11  26  43  72 100 147 189 242 287 353 427
#
# _framework density 23.930071999999999
#
# number of rings (size 3 to 8) (size 9 to 14) (size 15 to 20)
#    0.000    0.571    0.000    7.286   12.000    1.143 
#    0.000    0.000    0.000    0.000    0.000    0.000 
#    0.000    0.000    0.000    0.000    0.000    0.000 
#
# Total GULP energy -173478.066605 kJ/mol
# GULP energy per Si atom -12391.290472 kJ/mol
# Density = 2.387561 g / cm^3
# Si number density = 23.930072 Si / 1000 Ang^3
#
#
#
# Elastic Constant Matrix: (Units=GPa)
#
#
# Indices 1 2 3 4 5 6 
#
# 1 127.0684 35.5599 14.6480 22.6238 18.7063 -0.3126
# 2 35.5599 111.4870 23.3544 10.2437 14.5097 -18.6934
# 3 14.6480 23.3544 88.9852 9.5047 16.4083 0.2482
# 4 22.6238 10.2437 9.5047 48.3530 0.2295 9.6000
# 5 18.7063 14.5097 16.4083 0.2295 46.4302 4.9917
# 6 -0.3126 -18.6934 0.2482 9.6000 4.9917 40.3150
#
#
#
# Elastic Compliance Matrix: (Units=1/GPa)
#
#
# Indices 1 2 3 4 5 6 
#
# 1 0.009707 -0.002225 0.000027 -0.004146 -0.003251 0.000433
# 2 -0.002225 0.011719 -0.001978 -0.002293 -0.002734 0.006313
# 3 0.000027 -0.001978 0.012685 -0.002064 -0.003863 -0.000025
# 4 -0.004146 -0.002293 -0.002064 0.024984 0.003800 -0.007503
# 5 -0.003251 -0.002734 -0.003863 0.003800 0.025623 -0.005347
# 6 0.000433 0.006313 -0.000025 -0.007503 -0.005347 0.030184
#
#
# Mechanical properties :
#
#
# Convention : Reuss Voigt Hill
#
# Bulk Modulus (GPa) = 38.81997 52.74058 45.78028
# Shear Modulus (GPa) = 37.92432 43.95152 40.93792
#
# Velocity S-wave (km/s) = 3.98527 4.29028 4.14059
# Velocity P-wave (km/s) = 6.11833 6.82857 6.48318
#
# Compressibility (1/GPa) = 0.02575994
#
# Stress axis : x y z
#
# Youngs Moduli (GPa) = 103.01509 85.33245 78.83173
#
# Poissons Ratio (x) = 0.18988 -0.00215
# Poissons Ratio (y) = 0.22923 0.15592
# Poissons Ratio (z) = -0.00281 0.16878
#
# Static dielectric constant tensor:
#      x y z
#    x 4.296790 -0.077790 -0.023460 
#    y -0.077790 4.456640 -0.243530 
#    z -0.023460 -0.243530 4.801330 
# 
# 
# High freq. dielectric constant tensor:
#      x y z
#    x 1.947900 -0.009570 0.009480 
#    y -0.009570 1.960780 -0.001570 
#    z 0.009480 -0.001570 1.968360 
# 
# From -- ./inp_files/37661.got.cif
#   From: 2010.06.25/outbox.cif.g09.slc.cpg/sg2_19_cif.got.tgz:37661.got - 2010.06.27 13:26:56.
