data_PCOD8028108
_publ_section_title
;
Structure prediction by ZEFSAII (Michael W. Deem and Ramdas Pophale) SiO2 
 PCOD8028108
Probable space group: P -1
;
_chemical_formula_sum "Si O2"
_cell_formula_units_Z 14
_cell_length_a 20.419260
_cell_length_b 19.988202
_cell_length_c 11.735354
_cell_angle_alpha 149.307503
_cell_angle_beta 21.574288
_cell_angle_gamma 160.322070
_cell_volume 588.262639
_symmetry_space_group_name_H-M "P -1"
_symmetry_group_IT_number 2
_symmetry_cell_setting 'triclinic'
loop_
_space_group_symop_operation_xyz
x,y,z
-x,-y,-z
loop_
_atom_site_type_symbol
_atom_site_label
_atom_site_fract_x
_atom_site_fract_y
_atom_site_fract_z
Si Si1 0.342876 0.841736 0.127029
Si Si2 0.575661 0.916446 0.098345
Si Si3 0.998015 0.980861 0.111046
Si Si4 0.891342 0.205881 0.207934
Si Si5 0.789217 0.636092 0.673139
Si Si6 0.377228 0.597308 0.602512
Si Si7 0.500504 0.578993 0.729854
O O1 0.535091 0.951991 0.088708
O O2 0.054307 0.752074 0.493539
O O3 0.254900 0.643908 0.946673
O O4 0.500000 0.000000 0.000000
O O5 0.306897 0.788677 0.422804
O O6 0.825055 0.125838 0.066927
O O7 0.641260 0.798302 0.810875
O O8 0.693234 0.805545 0.391182
O O9 0.141366 0.186307 0.238629
O O10 0.156184 0.941636 0.843700
O O11 0.000000 0.000000 0.000000
O O12 0.194442 0.429696 0.051545
O O13 0.764948 0.493678 0.423847
O O14 0.500000 0.500000 0.000000
O O15 0.328858 0.421309 0.464713
O O16 0.500000 0.500000 0.500000
#
# Coordination Sequence:
#
# PCOD8028108 Si02
#       7
#     2   2   2   2   2   2   2
#     4  12  26  46  71 103 145 184 230 296 353 416
#     4  11  24  48  68 100 140 185 234 286 346 416
#     4  11  21  43  69 102 140 180 233 292 345 411
#     4  10  25  43  71 101 136 187 232 285 350 414
#     4  12  25  42  70 102 133 185 232 286 351 418
#     4  11  24  44  67 100 139 181 233 287 356 410
#     4  11  23  44  69  99 137 180 229 284 343 417
#
# _framework density 23.798893
#
# number of rings (size 3 to 8) (size 9 to 14) (size 15 to 20)
#    0.000    0.857    4.286    2.571    2.000    1.714 
#    7.714    0.000    0.000    0.000    0.000    0.000 
#    0.000    0.000    0.000    0.000    0.000    0.000 
#
# Total GULP energy -173499.684814 kJ/mol
# GULP energy per Si atom -12392.834630 kJ/mol
# Density = 2.374473 g / cm^3
# Si number density = 23.798893 Si / 1000 Ang^3
#
#
#
# Elastic Constant Matrix: (Units=GPa)
#
#
# Indices 1 2 3 4 5 6 
#
# 1 130.6162 30.2777 20.7361 5.4610 -2.9422 5.7889
# 2 30.2777 75.5034 13.4573 19.9179 -6.8158 -1.3252
# 3 20.7361 13.4573 82.3342 10.9991 -10.3497 -3.9734
# 4 5.4610 19.9179 10.9991 38.4449 8.2143 5.2896
# 5 -2.9422 -6.8158 -10.3497 8.2143 37.0794 7.7838
# 6 5.7889 -1.3252 -3.9734 5.2896 7.7838 32.4255
#
#
#
# Elastic Compliance Matrix: (Units=1/GPa)
#
#
# Indices 1 2 3 4 5 6 
#
# 1 0.008847 -0.003696 -0.001999 0.001619 -0.000447 -0.002132
# 2 -0.003696 0.017827 0.000051 -0.010014 0.004824 0.001870
# 3 -0.001999 0.000051 0.013947 -0.004934 0.004458 0.001803
# 4 0.001619 -0.010014 -0.004934 0.035136 -0.009895 -0.004659
# 5 -0.000447 0.004824 0.004458 -0.009895 0.032377 -0.005335
# 6 -0.002132 0.001870 0.001803 -0.004659 -0.005335 0.033559
#
#
# Mechanical properties :
#
#
# Convention : Reuss Voigt Hill
#
# Bulk Modulus (GPa) = 34.09073 46.37733 40.23403
# Shear Modulus (GPa) = 30.72014 36.52211 33.62113
#
# Velocity S-wave (km/s) = 3.59670 3.92166 3.76269
# Velocity P-wave (km/s) = 5.62174 6.32736 5.98495
#
# Compressibility (1/GPa) = 0.02933348
#
# Stress axis : x y z
#
# Youngs Moduli (GPa) = 113.03270 56.09323 71.69860
#
# Poissons Ratio (x) = 0.20733 0.14335
# Poissons Ratio (y) = 0.41780 -0.00369
# Poissons Ratio (z) = 0.22599 -0.00289
#
# Static dielectric constant tensor:
#      x y z
#    x 3.794050 -0.003810 -0.093770 
#    y -0.003810 4.394450 0.263800 
#    z -0.093770 0.263800 4.348220 
# 
# 
# High freq. dielectric constant tensor:
#      x y z
#    x 1.938150 0.011400 -0.007310 
#    y 0.011400 1.940170 0.016930 
#    z -0.007310 0.016930 1.951460 
# 
# From -- ./inp_files/257301.got.cif
#   From: 2010.06.25/outbox.cif.g09.slc.cpg/sg2_129_cif.got.tgz:257301.got - 2010.06.27 13:26:56.
