data_PCOD8028714
_publ_section_title
;
Structure prediction by ZEFSAII (Michael W. Deem and Ramdas Pophale) SiO2 
 PCOD8028714
Probable space group: P -1
;
_chemical_formula_sum "Si O2"
_cell_formula_units_Z 12
_cell_length_a 12.254637
_cell_length_b 6.765200
_cell_length_c 10.913163
_cell_angle_alpha 122.390530
_cell_angle_beta 46.158144
_cell_angle_gamma 126.910367
_cell_volume 510.409130
_symmetry_space_group_name_H-M "P -1"
_symmetry_group_IT_number 2
_symmetry_cell_setting 'triclinic'
loop_
_space_group_symop_operation_xyz
x,y,z
-x,-y,-z
loop_
_atom_site_type_symbol
_atom_site_label
_atom_site_fract_x
_atom_site_fract_y
_atom_site_fract_z
Si Si1 0.178736 0.030341 0.144703
Si Si2 0.887112 0.881935 0.164534
Si Si3 0.669435 0.332682 0.205583
Si Si4 0.190701 0.545889 0.352606
Si Si5 0.626314 0.978438 0.793712
Si Si6 0.676449 0.214318 0.432216
O O1 0.214638 0.321799 0.181388
O O2 0.216810 0.036544 0.262395
O O3 0.990326 0.876867 0.204621
O O4 0.286172 0.909065 0.944460
O O5 0.771956 0.587904 0.136444
O O6 0.792575 0.063965 0.319949
O O7 0.000000 0.000000 0.000000
O O8 0.700847 0.369205 0.338041
O O9 0.478681 0.259360 0.290968
O O10 0.296506 0.786845 0.274907
O O11 0.280395 0.575883 0.425044
O O12 0.000000 0.500000 0.500000
O O13 0.500000 0.000000 0.000000
O O14 0.500000 0.000000 0.500000
#
# Coordination Sequence:
#
# PCOD8028714 Si02
#       6
#     2   2   2   2   2   2
#     4  11  26  45  75 105 145 188 245 301 359 436
#     4  12  27  46  78 108 143 195 250 301 361 438
#     4  11  26  47  76 106 144 193 249 296 363 438
#     4  12  27  47  72 108 151 188 240 301 373 434
#     4  10  26  45  71 107 143 188 240 296 365 431
#     4  12  27  48  71 109 151 192 239 300 373 433
#
# _framework density 23.510549999999999
#
# number of rings (size 3 to 8) (size 9 to 14) (size 15 to 20)
#    0.000    0.667    5.000    0.500    9.333    5.333 
#    0.000    0.000    0.000    0.000    0.000    0.000 
#    0.000    0.000    0.000    0.000    0.000    0.000 
#
# Total GULP energy -148687.438730 kJ/mol
# GULP energy per Si atom -12390.619894 kJ/mol
# Density = 2.345704 g / cm^3
# Si number density = 23.510550 Si / 1000 Ang^3
#
#
#
# Elastic Constant Matrix: (Units=GPa)
#
#
# Indices 1 2 3 4 5 6 
#
# 1 167.5886 32.1507 11.3744 -10.4076 21.2101 16.0641
# 2 32.1507 151.6001 30.9065 -23.2058 20.9642 18.1430
# 3 11.3744 30.9065 59.6628 -12.0722 11.7949 -0.1132
# 4 -10.4076 -23.2058 -12.0722 34.8239 -3.7220 5.9743
# 5 21.2101 20.9642 11.7949 -3.7220 31.4388 -1.8657
# 6 16.0641 18.1430 -0.1132 5.9743 -1.8657 36.1112
#
#
#
# Elastic Compliance Matrix: (Units=1/GPa)
#
#
# Indices 1 2 3 4 5 6 
#
# 1 0.007066 -0.000078 0.000063 0.002216 -0.004696 -0.003713
# 2 -0.000078 0.009449 -0.002749 0.005817 -0.004880 -0.005936
# 3 0.000063 -0.002749 0.020119 0.004538 -0.005197 0.000397
# 4 0.002216 0.005817 0.004538 0.036191 -0.003389 -0.010057
# 5 -0.004696 -0.004880 -0.005197 -0.003389 0.040204 0.007163
# 6 -0.003713 -0.005936 0.000397 -0.010057 0.007163 0.034361
#
#
# Mechanical properties :
#
#
# Convention : Reuss Voigt Hill
#
# Bulk Modulus (GPa) = 32.14872 58.63497 45.39185
# Shear Modulus (GPa) = 30.62092 40.76943 35.69517
#
# Velocity S-wave (km/s) = 3.61284 4.16876 3.90072
# Velocity P-wave (km/s) = 5.57739 6.94013 6.29574
#
# Compressibility (1/GPa) = 0.03110543
#
# Stress axis : x y z
#
# Youngs Moduli (GPa) = 141.53011 105.83101 49.70342
#
# Poissons Ratio (x) = 0.00829 -0.00315
# Poissons Ratio (y) = 0.01108 0.13665
# Poissons Ratio (z) = -0.00897 0.29097
#
# Static dielectric constant tensor:
#      x y z
#    x 5.058230 0.189340 0.488030 
#    y 0.189340 4.124560 0.165660 
#    z 0.488030 0.165660 3.383750 
# 
# 
# High freq. dielectric constant tensor:
#      x y z
#    x 1.966310 0.013360 0.004490 
#    y 0.013360 1.933730 0.006070 
#    z 0.004490 0.006070 1.910030 
# 
# From -- ./inp_files/46741.got.cif
#   From: 2010.06.25/outbox.cif.g09.slc.cpg/sg2_24_cif.got.tgz:46741.got - 2010.06.27 13:26:56.
