data_PCOD8028646
_publ_section_title
;
Structure prediction by ZEFSAII (Michael W. Deem and Ramdas Pophale) SiO2 
 PCOD8028646
Probable space group: P -1
;
_chemical_formula_sum "Si O2"
_cell_formula_units_Z 16
_cell_length_a 7.847853
_cell_length_b 17.873585
_cell_length_c 12.233907
_cell_angle_alpha 36.871185
_cell_angle_beta 99.225278
_cell_angle_gamma 124.447009
_cell_volume 685.249016
_symmetry_space_group_name_H-M "P -1"
_symmetry_group_IT_number 2
_symmetry_cell_setting 'triclinic'
loop_
_space_group_symop_operation_xyz
x,y,z
-x,-y,-z
loop_
_atom_site_type_symbol
_atom_site_label
_atom_site_fract_x
_atom_site_fract_y
_atom_site_fract_z
Si Si1 0.778952 0.026257 0.492656
Si Si2 0.304586 0.933605 0.962926
Si Si3 0.459943 0.654958 0.142389
Si Si4 0.982457 0.982912 0.145786
Si Si5 0.555536 0.619769 0.602368
Si Si6 0.390908 0.875691 0.805056
Si Si7 0.366797 0.298054 0.252521
Si Si8 0.171095 0.470473 0.551982
O O1 0.805459 0.139202 0.262324
O O2 0.063619 0.147365 0.415051
O O3 0.651365 0.023263 0.588564
O O4 0.607188 0.810294 0.696597
O O5 0.250874 0.049717 0.800817
O O6 0.418932 0.934801 0.863775
O O7 0.017890 0.743949 0.193536
O O8 0.500000 0.000000 0.000000
O O9 0.494971 0.555453 0.183314
O O10 0.324724 0.537202 0.377117
O O11 0.304400 0.683676 0.032229
O O12 0.744566 0.858619 0.954886
O O13 0.853286 0.784231 0.401147
O O14 0.000000 0.000000 0.000000
O O15 0.511406 0.666566 0.658071
O O16 0.370058 0.584969 0.536763
O O17 0.500000 0.500000 0.000000
O O18 0.000000 0.500000 0.500000
#
# Coordination Sequence:
#
# PCOD8028646 Si02
#       8
#     2   2   2   2   2   2   2   2
#     4  10  25  50  71 105 137 182 244 290 352 416
#     4  12  25  43  69 105 141 187 229 286 362 421
#     4  12  24  44  69 104 144 188 234 287 352 425
#     4  12  23  42  69  97 140 188 233 281 346 423
#     4  12  25  43  70 105 137 185 238 294 353 423
#     4  11  24  46  74  95 148 188 222 299 348 412
#     4  11  25  46  78 103 132 180 241 299 354 412
#     4  12  24  43  64 102 147 183 233 288 349 431
#
# _framework density 23.349177999999998
#
# number of rings (size 3 to 8) (size 9 to 14) (size 15 to 20)
#    0.000    0.500    3.750    4.875    1.750    3.000 
#    0.000    8.125    0.000    0.000    0.000    0.000 
#    0.000    0.000    0.000    0.000    0.000    0.000 
#
# Total GULP energy -198261.097873 kJ/mol
# GULP energy per Si atom -12391.318617 kJ/mol
# Density = 2.329603 g / cm^3
# Si number density = 23.349178 Si / 1000 Ang^3
#
#
#
# Elastic Constant Matrix: (Units=GPa)
#
#
# Indices 1 2 3 4 5 6 
#
# 1 95.2442 30.2381 11.2556 0.6671 8.9659 -4.4087
# 2 30.2381 110.4768 46.9766 4.3884 -8.1198 -2.9943
# 3 11.2556 46.9766 115.8149 -7.2871 -0.6362 6.1058
# 4 0.6671 4.3884 -7.2871 43.7148 2.7503 0.2048
# 5 8.9659 -8.1198 -0.6362 2.7503 42.9427 5.1352
# 6 -4.4087 -2.9943 6.1058 0.2048 5.1352 28.2783
#
#
#
# Elastic Compliance Matrix: (Units=1/GPa)
#
#
# Indices 1 2 3 4 5 6 
#
# 1 0.012036 -0.003586 0.000182 0.000415 -0.003464 0.002083
# 2 -0.003586 0.012459 -0.004895 -0.002208 0.003020 0.001285
# 3 0.000182 -0.004895 0.010892 0.002356 -0.000625 -0.002745
# 4 0.000415 -0.002208 0.002356 0.023607 -0.001921 -0.000500
# 5 -0.003464 0.003020 -0.000625 -0.001921 0.025252 -0.004657
# 6 0.002083 0.001285 -0.002745 -0.000500 -0.004657 0.037266
#
#
# Mechanical properties :
#
#
# Convention : Reuss Voigt Hill
#
# Bulk Modulus (GPa) = 53.22438 55.38627 54.30532
# Shear Modulus (GPa) = 34.63242 38.52487 36.57865
#
# Velocity S-wave (km/s) = 3.85546 4.06636 3.96231
# Velocity P-wave (km/s) = 6.53176 6.76900 6.65144
#
# Compressibility (1/GPa) = 0.01878838
#
# Stress axis : x y z
#
# Youngs Moduli (GPa) = 83.08384 80.26116 91.81115
#
# Poissons Ratio (x) = 0.28785 -0.01673
# Poissons Ratio (y) = 0.29797 0.44944
# Poissons Ratio (z) = -0.01514 0.39290
#
# Static dielectric constant tensor:
#      x y z
#    x 4.101450 -0.257150 0.081940 
#    y -0.257150 4.152520 0.068900 
#    z 0.081940 0.068900 3.754910 
# 
# 
# High freq. dielectric constant tensor:
#      x y z
#    x 1.924350 -0.005090 0.011280 
#    y -0.005090 1.922750 0.012030 
#    z 0.011280 0.012030 1.939470 
# 
# From -- ./inp_files/402852.got.cif
#   From: 2010.06.25/outbox.cif.g09.slc.cpg/sg2_202_cif.got.tgz:402852.got - 2010.06.27 13:26:56.
