data_PCOD8028935
_publ_section_title
;
Structure prediction by ZEFSAII (Michael W. Deem and Ramdas Pophale) SiO2 
 PCOD8028935
Probable space group: P -1
;
_chemical_formula_sum "Si O2"
_cell_formula_units_Z 16
_cell_length_a 11.770256
_cell_length_b 18.086813
_cell_length_c 9.970766
_cell_angle_alpha 71.593926
_cell_angle_beta 87.471130
_cell_angle_gamma 151.193359
_cell_volume 691.487170
_symmetry_space_group_name_H-M "P -1"
_symmetry_group_IT_number 2
_symmetry_cell_setting 'triclinic'
loop_
_space_group_symop_operation_xyz
x,y,z
-x,-y,-z
loop_
_atom_site_type_symbol
_atom_site_label
_atom_site_fract_x
_atom_site_fract_y
_atom_site_fract_z
Si Si1 0.642422 0.476017 0.421531
Si Si2 0.756091 0.159445 0.207614
Si Si3 0.617096 0.234357 0.191009
Si Si4 0.588400 0.372446 0.214305
Si Si5 0.693773 0.184337 0.788840
Si Si6 0.771884 0.733600 0.202498
Si Si7 0.497009 0.207413 0.929578
Si Si8 0.352611 0.534243 0.120226
O O1 0.453143 0.326456 0.381653
O O2 0.795486 0.659501 0.287270
O O3 0.377474 0.307479 0.650739
O O4 0.930013 0.600710 0.375200
O O5 0.567898 0.113417 0.310421
O O6 0.982719 0.265275 0.252057
O O7 0.493736 0.934273 0.278557
O O8 0.008737 0.356364 0.966446
O O9 0.487374 0.215531 0.314917
O O10 0.423506 0.119632 0.126619
O O11 0.000000 0.500000 0.000000
O O12 0.446268 0.318311 0.113602
O O13 0.700947 0.277933 0.787203
O O14 0.500000 0.000000 0.000000
O O15 0.547434 0.595061 0.159661
O O16 0.143210 0.000540 0.999028
O O17 0.692347 0.414309 0.821928
#
# Coordination Sequence:
#
# PCOD8028935 Si02
#       8
#     2   2   2   2   2   2   2   2
#     4  11  22  36  57  85 116 146 185 240 280 326
#     4   9  16  28  54  85 107 137 188 236 271 309
#     4   9  13  26  52  82 105 129 181 238 269 301
#     4   8  16  30  53  81 101 143 186 230 265 321
#     4  12  17  32  60  90 103 139 205 240 258 322
#     4  11  23  38  53  82 122 154 177 224 296 339
#     4  11  19  34  62  84 110 147 196 231 270 332
#     4   9  21  36  56  83 116 151 183 228 281 342
#
# _framework density 23.138535999999998
#
# number of rings (size 3 to 8) (size 9 to 14) (size 15 to 20)
#    0.750    1.250    5.000    1.125    0.000    0.500 
#    0.000    3.750    0.000    0.000    0.000    0.000 
#    0.000    0.000    0.000    0.000    0.000    0.000 
#
# Total GULP energy -198231.142054 kJ/mol
# GULP energy per Si atom -12389.446378 kJ/mol
# Density = 2.308587 g / cm^3
# Si number density = 23.138536 Si / 1000 Ang^3
#
#
#
# Elastic Constant Matrix: (Units=GPa)
#
#
# Indices 1 2 3 4 5 6 
#
# 1 75.2002 52.1626 27.3430 3.6483 -31.1235 9.7511
# 2 52.1626 137.3210 19.7762 20.2269 -16.6408 0.6180
# 3 27.3430 19.7762 32.0793 11.8438 -21.4020 -1.6823
# 4 3.6483 20.2269 11.8438 20.4073 -5.5071 -5.0224
# 5 -31.1235 -16.6408 -21.4020 -5.5071 24.7179 6.4520
# 6 9.7511 0.6180 -1.6823 -5.0224 6.4520 41.6605
#
#
#
# Elastic Compliance Matrix: (Units=1/GPa)
#
#
# Indices 1 2 3 4 5 6 
#
# 1 0.051483 -0.014230 0.000964 0.017015 0.065045 -0.019822
# 2 -0.014230 0.013030 0.001329 -0.013514 -0.011894 0.003404
# 3 0.000964 0.001329 0.097924 -0.039666 0.081639 -0.013716
# 4 0.017015 -0.013514 -0.039666 0.082319 -0.005068 0.005325
# 5 0.065045 -0.011894 0.081639 -0.005068 0.195018 -0.042565
# 6 -0.019822 0.003404 -0.013716 0.005325 -0.042565 0.035273
#
#
# Mechanical properties :
#
#
# Convention : Reuss Voigt Hill
#
# Bulk Modulus (GPa) = 7.21695 49.24048 28.22872
# Shear Modulus (GPa) = 9.17249 27.04504 18.10876
#
# Velocity S-wave (km/s) = 1.99318 3.42253 2.80058
# Velocity P-wave (km/s) = 2.90221 6.07825 4.76277
#
# Compressibility (1/GPa) = 0.13856276
#
# Stress axis : x y z
#
# Youngs Moduli (GPa) = 19.42385 76.74506 10.21205
#
# Poissons Ratio (x) = 1.09208 -0.00985
# Poissons Ratio (y) = 0.27640 -0.01357
# Poissons Ratio (z) = -0.01873 -0.10199
#
# Static dielectric constant tensor:
#      x y z
#    x 4.222090 -0.015180 -0.264550 
#    y -0.015180 4.396490 0.180260 
#    z -0.264550 0.180260 3.374330 
# 
# 
# High freq. dielectric constant tensor:
#      x y z
#    x 1.906110 -0.002090 -0.019120 
#    y -0.002090 1.932840 0.010880 
#    z -0.019120 0.010880 1.840920 
# 
# From -- ./inp_files/435745.got.cif
#   From: 2010.06.25/outbox.cif.g09.slc.cpg/sg2_218_cif.got.tgz:435745.got - 2010.06.27 13:26:56.
