data_PCOD8028507
_publ_section_title
;
Structure prediction by ZEFSAII (Michael W. Deem and Ramdas Pophale) SiO2 
 PCOD8028507
Probable space group: P -1
;
_chemical_formula_sum "Si O2"
_cell_formula_units_Z 14
_cell_length_a 14.947059
_cell_length_b 14.951683
_cell_length_c 6.495571
_cell_angle_alpha 111.441132
_cell_angle_beta 79.128847
_cell_angle_gamma 152.543122
_cell_volume 591.011967
_symmetry_space_group_name_H-M "P -1"
_symmetry_group_IT_number 2
_symmetry_cell_setting 'triclinic'
loop_
_space_group_symop_operation_xyz
x,y,z
-x,-y,-z
loop_
_atom_site_type_symbol
_atom_site_label
_atom_site_fract_x
_atom_site_fract_y
_atom_site_fract_z
Si Si1 0.636690 0.904906 0.191413
Si Si2 0.361365 0.239524 0.271537
Si Si3 0.188553 0.423387 0.074701
Si Si4 0.174718 0.618658 0.376668
Si Si5 0.526423 0.043805 0.787852
Si Si6 0.076640 0.904165 0.442261
Si Si7 0.756568 0.666097 0.668918
O O1 0.427861 0.654081 0.123594
O O2 0.605214 0.985666 0.223418
O O3 0.796415 0.049479 0.430375
O O4 0.714462 0.922059 0.968251
O O5 0.592153 0.446666 0.429591
O O6 0.332903 0.313029 0.222255
O O7 0.223241 0.111822 0.426354
O O8 0.107664 0.445060 0.235254
O O9 0.161386 0.306983 0.137938
O O10 0.067219 0.296343 0.808905
O O11 0.237439 0.724808 0.210349
O O12 0.000000 0.500000 0.500000
O O13 0.401303 0.837648 0.565150
O O14 0.500000 0.000000 0.000000
O O15 0.950835 0.859044 0.598995
#
# Coordination Sequence:
#
# PCOD8028507 Si02
#       7
#     2   2   2   2   2   2   2
#     4  11  25  47  73 105 142 186 234 295 352 421
#     4  11  25  44  72 104 143 187 234 293 352 418
#     4  11  25  47  72 104 143 185 238 291 352 425
#     4  10  25  47  69 106 141 181 238 294 355 428
#     4  10  25  48  73 102 146 185 234 297 362 423
#     4  12  25  44  73 101 143 189 234 287 355 418
#     4  11  25  45  70 105 143 186 237 290 352 424
#
# _framework density 23.688181
#
# number of rings (size 3 to 8) (size 9 to 14) (size 15 to 20)
#    0.000    1.143    2.857    1.286    6.000    5.714 
#    0.000    0.000    0.000    0.000    0.000    0.000 
#    0.000    0.000    0.000    0.000    0.000    0.000 
#
# Total GULP energy -173520.223250 kJ/mol
# GULP energy per Si atom -12394.301661 kJ/mol
# Density = 2.363427 g / cm^3
# Si number density = 23.688181 Si / 1000 Ang^3
#
#
#
# Elastic Constant Matrix: (Units=GPa)
#
#
# Indices 1 2 3 4 5 6 
#
# 1 91.7236 22.8547 53.2953 -4.0291 12.5982 4.7422
# 2 22.8547 98.8701 26.9203 -29.8759 15.6285 16.1956
# 3 53.2953 26.9203 131.1649 -4.7853 20.8967 -1.1439
# 4 -4.0291 -29.8759 -4.7853 49.1652 -1.1153 -0.5794
# 5 12.5982 15.6285 20.8967 -1.1153 32.8827 -0.4207
# 6 4.7422 16.1956 -1.1439 -0.5794 -0.4207 35.3899
#
#
#
# Elastic Compliance Matrix: (Units=1/GPa)
#
#
# Indices 1 2 3 4 5 6 
#
# 1 0.014719 -0.001538 -0.005455 -0.000310 -0.001471 -0.001467
# 2 -0.001538 0.015609 -0.001398 0.009012 -0.005724 -0.006903
# 3 -0.005455 -0.001398 0.010781 -0.000320 -0.004087 0.001665
# 4 -0.000310 0.009012 -0.000320 0.025644 -0.003138 -0.003710
# 5 -0.001471 -0.005724 -0.004087 -0.003138 0.036225 0.003064
# 6 -0.001467 -0.006903 0.001665 -0.003710 0.003064 0.031642
#
#
# Mechanical properties :
#
#
# Convention : Reuss Voigt Hill
#
# Bulk Modulus (GPa) = 41.10576 58.65548 49.88062
# Shear Modulus (GPa) = 31.34560 38.06678 34.70619
#
# Velocity S-wave (km/s) = 3.64161 4.01308 3.83185
# Velocity P-wave (km/s) = 5.92219 6.80355 6.37811
#
# Compressibility (1/GPa) = 0.02432749
#
# Stress axis : x y z
#
# Youngs Moduli (GPa) = 67.93764 64.06522 92.75316
#
# Poissons Ratio (x) = 0.09853 0.50596
# Poissons Ratio (y) = 0.10449 0.12969
# Poissons Ratio (z) = 0.37059 0.08958
#
# Static dielectric constant tensor:
#      x y z
#    x 4.125570 0.201560 -0.051770 
#    y 0.201560 4.571110 -0.188690 
#    z -0.051770 -0.188690 4.383660 
# 
# 
# High freq. dielectric constant tensor:
#      x y z
#    x 1.922180 0.007400 -0.005520 
#    y 0.007400 1.957840 -0.006690 
#    z -0.005520 -0.006690 1.944220 
# 
# From -- ./inp_files/98423.got.cif
#   From: 2010.06.25/outbox.cif.g09.slc.cpg/sg2_50_cif.got.tgz:98423.got - 2010.06.27 13:26:56.
