data_PCOD8028551
_publ_section_title
;
Structure prediction by ZEFSAII (Michael W. Deem and Ramdas Pophale) SiO2 
 PCOD8028551
Probable space group: P -1
;
_chemical_formula_sum "Si O2"
_cell_formula_units_Z 16
_cell_length_a 13.490948
_cell_length_b 14.045694
_cell_length_c 11.099568
_cell_angle_alpha 44.898520
_cell_angle_beta 41.502145
_cell_angle_gamma 31.799388
_cell_volume 718.702050
_symmetry_space_group_name_H-M "P -1"
_symmetry_group_IT_number 2
_symmetry_cell_setting 'triclinic'
loop_
_space_group_symop_operation_xyz
x,y,z
-x,-y,-z
loop_
_atom_site_type_symbol
_atom_site_label
_atom_site_fract_x
_atom_site_fract_y
_atom_site_fract_z
Si Si1 0.428121 0.917526 0.303044
Si Si2 0.303309 0.724366 0.701185
Si Si3 0.231917 0.244994 0.026027
Si Si4 0.488318 0.929942 0.697916
Si Si5 0.853147 0.506707 0.710970
Si Si6 0.351193 0.573099 0.179138
Si Si7 0.848918 0.460189 0.025787
Si Si8 0.108335 0.980279 0.040112
O O1 0.322927 0.837255 0.491685
O O2 0.311491 0.052962 0.173247
O O3 0.427480 0.014039 0.332967
O O4 0.658751 0.760281 0.186973
O O5 0.513746 0.600290 0.697184
O O6 0.302965 0.572912 0.783529
O O7 0.079258 0.872181 0.833307
O O8 0.006320 0.353977 0.087820
O O9 0.261989 0.329100 0.035979
O O10 0.635465 0.710084 0.753064
O O11 0.500000 0.000000 0.500000
O O12 0.256543 0.019858 0.854062
O O13 0.837043 0.389615 0.741961
O O14 0.000000 0.500000 0.500000
O O15 0.938455 0.408930 0.852646
O O16 0.255229 0.769273 0.146206
O O17 0.500000 0.500000 0.000000
O O18 0.000000 0.000000 0.000000
#
# Coordination Sequence:
#
# PCOD8028551 Si02
#       8
#     2   2   2   2   2   2   2   2
#     4  11  25  47  68 103 135 182 237 293 346 415
#     4  12  26  44  72 104 143 180 234 291 357 416
#     4  10  25  47  74  92 138 183 242 289 338 415
#     4  12  25  40  67 104 139 182 230 283 355 424
#     4  12  26  40  69 103 142 181 227 284 356 423
#     4  12  23  43  63 103 146 182 223 279 356 431
#     4  11  23  48  70 101 134 187 231 290 350 410
#     4  12  23  41  65  98 147 189 222 279 351 426
#
# _framework density 22.262353999999998
#
# number of rings (size 3 to 8) (size 9 to 14) (size 15 to 20)
#    0.000    0.500    5.000    2.250    8.750    1.000 
#    2.250    0.000    0.000    0.000    0.000    0.000 
#    0.000    0.000    0.000    0.000    0.000    0.000 
#
# Total GULP energy -198218.934959 kJ/mol
# GULP energy per Si atom -12388.683435 kJ/mol
# Density = 2.221168 g / cm^3
# Si number density = 22.262354 Si / 1000 Ang^3
#
#
#
# Elastic Constant Matrix: (Units=GPa)
#
#
# Indices 1 2 3 4 5 6 
#
# 1 103.1130 9.3009 47.9945 -5.5106 -10.0153 7.9318
# 2 9.3009 76.0405 19.7696 -8.7660 6.8819 -7.3599
# 3 47.9945 19.7696 157.8838 -9.5000 -10.4105 0.2485
# 4 -5.5106 -8.7660 -9.5000 28.4331 3.1901 -3.6109
# 5 -10.0153 6.8819 -10.4105 3.1901 28.6076 -0.5528
# 6 7.9318 -7.3599 0.2485 -3.6109 -0.5528 23.8226
#
#
#
# Elastic Compliance Matrix: (Units=1/GPa)
#
#
# Indices 1 2 3 4 5 6 
#
# 1 0.011978 -0.001341 -0.003257 -0.000093 0.003258 -0.004307
# 2 -0.001341 0.015370 -0.001551 0.005293 -0.005208 0.005893
# 3 -0.003257 -0.001551 0.007724 0.001356 0.001908 0.000774
# 4 -0.000093 0.005293 0.001356 0.038738 -0.004989 0.007408
# 5 0.003258 -0.005208 0.001908 -0.004989 0.038550 -0.002575
# 6 -0.004307 0.005893 0.000774 0.007408 -0.002575 0.046286
#
#
# Mechanical properties :
#
#
# Convention : Reuss Voigt Hill
#
# Bulk Modulus (GPa) = 43.90956 54.57415 49.24185
# Shear Modulus (GPa) = 28.00565 33.50414 30.75490
#
# Velocity S-wave (km/s) = 3.55065 3.88360 3.72085
# Velocity P-wave (km/s) = 6.04781 6.68409 6.37390
#
# Compressibility (1/GPa) = 0.02277409
#
# Stress axis : x y z
#
# Youngs Moduli (GPa) = 83.48723 65.06181 129.46156
#
# Poissons Ratio (x) = 0.08722 0.42169
# Poissons Ratio (y) = 0.11192 0.20082
# Poissons Ratio (z) = 0.27194 0.10092
#
# Static dielectric constant tensor:
#      x y z
#    x 3.992710 0.178390 -0.097930 
#    y 0.178390 3.349250 0.253020 
#    z -0.097930 0.253020 3.814590 
# 
# 
# High freq. dielectric constant tensor:
#      x y z
#    x 1.877510 -0.002410 -0.011260 
#    y -0.002410 1.885960 -0.014700 
#    z -0.011260 -0.014700 1.872800 
# 
# From -- ./inp_files/454501.got.cif
#   From: 2010.06.25/outbox.cif.g09.slc.cpg/sg2_228_cif.got.tgz:454501.got - 2010.06.27 13:26:56.
