data_PCOD8028411
_publ_section_title
;
Structure prediction by ZEFSAII (Michael W. Deem and Ramdas Pophale) SiO2 
 PCOD8028411
Probable space group: P -1
;
_chemical_formula_sum "Si O2"
_cell_formula_units_Z 16
_cell_length_a 11.750867
_cell_length_b 9.097761
_cell_length_c 8.948679
_cell_angle_alpha 56.555091
_cell_angle_beta 80.251406
_cell_angle_gamma 65.159325
_cell_volume 721.958930
_symmetry_space_group_name_H-M "P -1"
_symmetry_group_IT_number 2
_symmetry_cell_setting 'triclinic'
loop_
_space_group_symop_operation_xyz
x,y,z
-x,-y,-z
loop_
_atom_site_type_symbol
_atom_site_label
_atom_site_fract_x
_atom_site_fract_y
_atom_site_fract_z
Si Si1 0.941597 0.419799 0.426850
Si Si2 0.683607 0.680153 0.210500
Si Si3 0.163123 0.787809 0.963986
Si Si4 0.284821 0.072686 0.166263
Si Si5 0.491691 0.694932 0.466870
Si Si6 0.895051 0.573397 0.857422
Si Si7 0.900850 0.090990 0.774892
Si Si8 0.404785 0.585831 0.836397
O O1 0.831679 0.580571 0.266175
O O2 0.882914 0.270830 0.573713
O O3 0.000000 0.500000 0.500000
O O4 0.056743 0.326054 0.339873
O O5 0.617296 0.716760 0.368326
O O6 0.631308 0.562310 0.173026
O O7 0.660144 0.887758 0.025623
O O8 0.278701 0.744759 0.848420
O O9 0.123453 0.611452 0.093987
O O10 0.189417 0.833011 0.102117
O O11 0.049103 0.980479 0.827951
O O12 0.244199 0.275340 0.148958
O O13 0.378587 0.883125 0.329223
O O14 0.151153 0.053904 0.205513
O O15 0.500000 0.500000 0.500000
O O16 0.474024 0.685052 0.655069
O O17 0.000000 0.500000 0.000000
O O18 0.500000 0.500000 0.000000
#
# Coordination Sequence:
#
# PCOD8028411 Si02
#       8
#     2   2   2   2   2   2   2   2
#     4  12  25  43  72 105 144 186 228 293 359 423
#     4  11  24  47  71 100 142 189 236 289 354 416
#     4  11  23  43  64 101 144 177 235 286 355 416
#     4  12  24  44  76 100 141 193 234 292 358 419
#     4  10  25  46  69 102 134 183 243 289 345 420
#     4  12  22  44  68 101 146 182 229 291 359 421
#     4  11  25  39  70 104 138 187 230 287 353 428
#     4  11  25  45  74  97 138 189 234 297 351 411
#
# _framework density 22.161923999999999
#
# number of rings (size 3 to 8) (size 9 to 14) (size 15 to 20)
#    0.000    0.750    5.000    1.875    8.750    0.500 
#    0.000    0.625    0.000    0.000    0.000    0.000 
#    0.000    0.000    0.000    0.000    0.000    0.000 
#
# Total GULP energy -198255.028445 kJ/mol
# GULP energy per Si atom -12390.939278 kJ/mol
# Density = 2.211148 g / cm^3
# Si number density = 22.161924 Si / 1000 Ang^3
#
#
#
# Elastic Constant Matrix: (Units=GPa)
#
#
# Indices 1 2 3 4 5 6 
#
# 1 80.7838 23.4544 44.3482 11.4812 -3.6747 -7.1158
# 2 23.4544 94.6361 47.9321 2.2461 -1.7000 -22.9193
# 3 44.3482 47.9321 170.3765 6.1152 -18.0530 -16.8206
# 4 11.4812 2.2461 6.1152 40.3503 -11.7073 -9.3693
# 5 -3.6747 -1.7000 -18.0530 -11.7073 44.6813 7.5677
# 6 -7.1158 -22.9193 -16.8206 -9.3693 7.5677 39.0710
#
#
#
# Elastic Compliance Matrix: (Units=1/GPa)
#
#
# Indices 1 2 3 4 5 6 
#
# 1 0.015382 -0.002170 -0.003441 -0.004254 -0.001197 -0.000741
# 2 -0.002170 0.014342 -0.002971 0.001501 -0.001698 0.007428
# 3 -0.003441 -0.002971 0.007949 0.000960 0.002947 0.000712
# 4 -0.004254 0.001501 0.000960 0.029145 0.006679 0.006215
# 5 -0.001197 -0.001698 0.002947 0.006679 0.025722 -0.003326
# 6 -0.000741 0.007428 0.000712 0.006215 -0.003326 0.032258
#
#
# Mechanical properties :
#
#
# Convention : Reuss Voigt Hill
#
# Bulk Modulus (GPa) = 48.75393 64.14066 56.44729
# Shear Modulus (GPa) = 33.60292 40.15796 36.88044
#
# Velocity S-wave (km/s) = 3.89812 4.26141 4.08381
# Velocity P-wave (km/s) = 6.50440 7.29503 6.91103
#
# Compressibility (1/GPa) = 0.02051117
#
# Stress axis : x y z
#
# Youngs Moduli (GPa) = 65.00914 69.72642 125.80549
#
# Poissons Ratio (x) = 0.15127 0.43288
# Poissons Ratio (y) = 0.14104 0.37371
# Poissons Ratio (z) = 0.22369 0.20712
#
# Static dielectric constant tensor:
#      x y z
#    x 3.492010 -0.066530 0.013640 
#    y -0.066530 4.123110 0.065170 
#    z 0.013640 0.065170 4.322260 
# 
# 
# High freq. dielectric constant tensor:
#      x y z
#    x 1.864320 -0.013830 -0.018020 
#    y -0.013830 1.869880 0.003850 
#    z -0.018020 0.003850 1.888020 
# 
# From -- ./inp_files/222986.got.cif
#   From: 2010.06.25/outbox.cif.g09.slc.cpg/sg2_112_cif.got.tgz:222986.got - 2010.06.27 13:26:56.
