data_PCOD8028993
_publ_section_title
;
Structure prediction by ZEFSAII (Michael W. Deem and Ramdas Pophale) SiO2 
 PCOD8028993
Probable space group: P -1
;
_chemical_formula_sum "Si O2"
_cell_formula_units_Z 14
_cell_length_a 20.703730
_cell_length_b 8.307864
_cell_length_c 12.905930
_cell_angle_alpha 128.817141
_cell_angle_beta 156.436212
_cell_angle_gamma 48.988508
_cell_volume 667.272375
_symmetry_space_group_name_H-M "P -1"
_symmetry_group_IT_number 2
_symmetry_cell_setting 'triclinic'
loop_
_space_group_symop_operation_xyz
x,y,z
-x,-y,-z
loop_
_atom_site_type_symbol
_atom_site_label
_atom_site_fract_x
_atom_site_fract_y
_atom_site_fract_z
Si Si1 0.990656 0.745670 0.601108
Si Si2 0.708185 0.318795 0.101450
Si Si3 0.111292 0.139305 0.268062
Si Si4 0.459916 0.935591 0.760459
Si Si5 0.892373 0.411571 0.590770
Si Si6 0.791822 0.879041 0.158364
Si Si7 0.404002 0.702461 0.778935
O O1 0.182553 0.761037 0.873657
O O2 0.000000 0.500000 0.500000
O O3 0.925378 0.832932 0.651924
O O4 0.870912 0.883612 0.391517
O O5 0.803792 0.460726 0.367763
O O6 0.710425 0.121204 0.099843
O O7 0.522799 0.460247 0.862748
O O8 0.073317 0.361703 0.237302
O O9 0.307661 0.024636 0.493711
O O10 0.000000 0.000000 0.000000
O O11 0.394032 0.782706 0.679568
O O12 0.626753 0.788048 0.888657
O O13 0.518561 0.133481 0.976795
O O14 0.779935 0.319121 0.468438
O O15 0.073574 0.241598 0.776003
#
# Coordination Sequence:
#
# PCOD8028993 Si02
#       7
#     2   2   2   2   2   2   2
#     4  11  19  37  64  94 124 160 212 268 314 364
#     4  11  20  33  62  98 128 154 201 267 328 364
#     4  12  26  43  63  90 134 178 212 254 320 392
#     4  11  22  37  61  96 128 164 214 263 326 371
#     4  11  21  38  61  95 131 165 204 262 324 371
#     4  11  22  35  66 103 126 158 209 278 324 369
#     4  11  21  36  65 100 130 157 211 279 318 370
#
# _framework density 20.980937999999998
#
# number of rings (size 3 to 8) (size 9 to 14) (size 15 to 20)
#    0.000    0.857    5.714    5.571    2.000    0.000 
#    0.000    1.429    0.000    1.714    0.000    0.000 
#    0.000    0.000    0.000    0.000    0.000    0.000 
#
# Total GULP energy -173455.115294 kJ/mol
# GULP energy per Si atom -12389.651092 kJ/mol
# Density = 2.093318 g / cm^3
# Si number density = 20.980938 Si / 1000 Ang^3
#
#
#
# Elastic Constant Matrix: (Units=GPa)
#
#
# Indices 1 2 3 4 5 6 
#
# 1 113.9554 48.9470 51.9617 -8.6884 45.6884 5.2964
# 2 48.9470 129.2503 56.3130 -12.1817 13.7758 15.8374
# 3 51.9617 56.3130 100.3899 -3.9236 31.6708 -9.8349
# 4 -8.6884 -12.1817 -3.9236 36.1191 -5.8649 13.1527
# 5 45.6884 13.7758 31.6708 -5.8649 36.8228 -5.9626
# 6 5.2964 15.8374 -9.8349 13.1527 -5.9626 31.0673
#
#
#
# Elastic Compliance Matrix: (Units=1/GPa)
#
#
# Indices 1 2 3 4 5 6 
#
# 1 0.021838 -0.003142 -0.002499 0.003187 -0.024721 -0.009006
# 2 -0.003142 0.014735 -0.009351 0.008692 0.005788 -0.012505
# 3 -0.002499 -0.009351 0.020755 -0.007974 -0.010393 0.013145
# 4 0.003187 0.008692 -0.007974 0.039537 0.002090 -0.023836
# 5 -0.024721 0.005788 -0.010393 0.002090 0.066533 0.009858
# 6 -0.009006 -0.012505 0.013145 -0.023836 0.009858 0.056243
#
#
# Mechanical properties :
#
#
# Convention : Reuss Voigt Hill
#
# Bulk Modulus (GPa) = 36.57170 73.11546 54.84358
# Shear Modulus (GPa) = 19.32442 33.22677 26.27560
#
# Velocity S-wave (km/s) = 3.03817 3.98385 3.54270
# Velocity P-wave (km/s) = 5.45674 7.48903 6.55216
#
# Compressibility (1/GPa) = 0.02734355
#
# Stress axis : x y z
#
# Youngs Moduli (GPa) = 45.79235 67.86356 48.18113
#
# Poissons Ratio (x) = 0.21324 0.12043
# Poissons Ratio (y) = 0.14389 0.45053
# Poissons Ratio (z) = 0.11446 0.63457
#
# Static dielectric constant tensor:
#      x y z
#    x 4.046340 0.068230 0.571070 
#    y 0.068230 3.931630 -0.312590 
#    z 0.571070 -0.312590 3.621720 
# 
# 
# High freq. dielectric constant tensor:
#      x y z
#    x 1.818750 0.019580 0.059690 
#    y 0.019580 1.833260 -0.031390 
#    z 0.059690 -0.031390 1.773580 
# 
# From -- ./inp_files/542623.got.cif
#   From: 2010.06.25/outbox.cif.g09.slc.cpg/sg2_272_cif.got.tgz:542623.got - 2010.06.27 13:26:56.
