data_PCOD8028298
_publ_section_title
;
Structure prediction by ZEFSAII (Michael W. Deem and Ramdas Pophale) SiO2 
 PCOD8028298
Probable space group: P -1
;
_chemical_formula_sum "Si O2"
_cell_formula_units_Z 14
_cell_length_a 8.625958
_cell_length_b 14.482724
_cell_length_c 20.318444
_cell_angle_alpha 150.341443
_cell_angle_beta 144.710044
_cell_angle_gamma 52.778667
_cell_volume 675.506210
_symmetry_space_group_name_H-M "P -1"
_symmetry_group_IT_number 2
_symmetry_cell_setting 'triclinic'
loop_
_space_group_symop_operation_xyz
x,y,z
-x,-y,-z
loop_
_atom_site_type_symbol
_atom_site_label
_atom_site_fract_x
_atom_site_fract_y
_atom_site_fract_z
Si Si1 0.055921 0.426510 0.042654
Si Si2 0.194634 0.330098 0.801065
Si Si3 0.313143 0.409413 0.604082
Si Si4 0.392746 0.003417 0.390015
Si Si5 0.708280 0.826092 0.769481
Si Si6 0.698190 0.052708 0.392086
Si Si7 0.241506 0.535462 0.511992
O O1 0.386698 0.448211 0.172959
O O2 0.998974 0.576914 0.167332
O O3 0.000000 0.500000 0.000000
O O4 0.863160 0.197475 0.844654
O O5 0.006204 0.242089 0.614364
O O6 0.259642 0.146227 0.744574
O O7 0.500000 0.500000 0.000000
O O8 0.318168 0.480333 0.575557
O O9 0.060880 0.435090 0.575428
O O10 0.267186 0.177492 0.447674
O O11 0.500000 0.000000 0.500000
O O12 0.636172 0.028949 0.435035
O O13 0.551466 0.907161 0.709126
O O14 0.491050 0.742786 0.703873
O O15 0.793705 0.644725 0.661283
O O16 0.000000 0.000000 0.000000
#
# Coordination Sequence:
#
# PCOD8028298 Si02
#       7
#     2   2   2   2   2   2   2
#     4  12  24  40  66  98 133 177 221 267 340 405
#     4  11  23  40  68  97 132 178 217 273 345 395
#     4  11  24  45  67  96 137 174 225 277 336 391
#     4  12  23  42  66  96 136 172 215 280 338 402
#     4  11  25  45  69  98 133 177 232 274 336 394
#     4  11  24  42  65  99 137 171 226 283 330 402
#     4  10  25  45  69  96 130 180 226 280 327 396
#
# _framework density 20.725197999999999
#
# number of rings (size 3 to 8) (size 9 to 14) (size 15 to 20)
#    0.000    0.857    5.714    0.000    2.000    9.143 
#    0.000    2.857    0.000    0.000    0.000    0.000 
#    0.000    0.000    0.000    0.000    0.000    0.000 
#
# Total GULP energy -173565.650763 kJ/mol
# GULP energy per Si atom -12397.546483 kJ/mol
# Density = 2.067803 g / cm^3
# Si number density = 20.725198 Si / 1000 Ang^3
#
#
#
# Elastic Constant Matrix: (Units=GPa)
#
#
# Indices 1 2 3 4 5 6 
#
# 1 98.2448 51.8328 48.5095 -7.4004 16.8935 -4.8025
# 2 51.8328 128.6032 66.4639 -4.6292 6.8483 -14.7913
# 3 48.5095 66.4639 190.9276 5.3979 17.7960 -9.4926
# 4 -7.4004 -4.6292 5.3979 37.8279 -2.8325 1.4679
# 5 16.8935 6.8483 17.7960 -2.8325 26.9250 -0.0745
# 6 -4.8025 -14.7913 -9.4926 1.4679 -0.0745 31.8058
#
#
#
# Elastic Compliance Matrix: (Units=1/GPa)
#
#
# Indices 1 2 3 4 5 6 
#
# 1 0.014758 -0.004784 -0.001534 0.002032 -0.006816 -0.000564
# 2 -0.004784 0.011518 -0.002822 0.000883 0.002041 0.003756
# 3 -0.001534 -0.002822 0.006987 -0.001901 -0.003136 0.000621
# 4 0.002032 0.000883 -0.001901 0.027453 0.002642 -0.001111
# 5 -0.006816 0.002041 -0.003136 0.002642 0.043245 -0.001037
# 6 -0.000564 0.003756 0.000621 -0.001111 -0.001037 0.033336
#
#
# Mechanical properties :
#
#
# Convention : Reuss Voigt Hill
#
# Bulk Modulus (GPa) = 66.75123 83.48754 75.11939
# Shear Modulus (GPa) = 31.13854 36.04303 33.59079
#
# Velocity S-wave (km/s) = 3.88035 4.17477 4.03025
# Velocity P-wave (km/s) = 7.23559 7.97551 7.61455
#
# Compressibility (1/GPa) = 0.01498100
#
# Stress axis : x y z
#
# Youngs Moduli (GPa) = 67.76109 86.82296 143.12500
#
# Poissons Ratio (x) = 0.41534 0.21961
# Poissons Ratio (y) = 0.32415 0.40397
# Poissons Ratio (z) = 0.10397 0.24506
#
# Static dielectric constant tensor:
#      x y z
#    x 3.832710 -0.097250 0.195200 
#    y -0.097250 3.915980 0.109570 
#    z 0.195200 0.109570 3.891130 
# 
# 
# High freq. dielectric constant tensor:
#      x y z
#    x 1.810160 -0.011800 0.008680 
#    y -0.011800 1.819980 0.005890 
#    z 0.008680 0.005890 1.827100 
# 
# From -- ./inp_files/255950.got.cif
#   From: 2010.06.25/outbox.cif.g09.slc.cpg/sg2_128_cif.got.tgz:255950.got - 2010.06.27 13:26:56.
