data_PCOD8028680
_publ_section_title
;
Structure prediction by ZEFSAII (Michael W. Deem and Ramdas Pophale) SiO2 
 PCOD8028680
Probable space group: P -1
;
_chemical_formula_sum "Si O2"
_cell_formula_units_Z 16
_cell_length_a 9.546156
_cell_length_b 17.860860
_cell_length_c 11.638014
_cell_angle_alpha 152.462972
_cell_angle_beta 115.440302
_cell_angle_gamma 55.951859
_cell_volume 748.441284
_symmetry_space_group_name_H-M "P -1"
_symmetry_group_IT_number 2
_symmetry_cell_setting 'triclinic'
loop_
_space_group_symop_operation_xyz
x,y,z
-x,-y,-z
loop_
_atom_site_type_symbol
_atom_site_label
_atom_site_fract_x
_atom_site_fract_y
_atom_site_fract_z
Si Si1 0.712318 0.641015 0.595568
Si Si2 0.833180 0.293521 0.024038
Si Si3 0.394745 0.867678 0.174897
Si Si4 0.743985 0.748626 0.257267
Si Si5 0.112481 0.125302 0.082624
Si Si6 0.875135 0.413730 0.545068
Si Si7 0.054075 0.586625 0.995940
Si Si8 0.643133 0.241400 0.245490
O O1 0.735647 0.497612 0.310104
O O2 0.738539 0.806008 0.777283
O O3 0.858325 0.548959 0.618782
O O4 0.526936 0.713938 0.684089
O O5 0.888903 0.303784 0.926452
O O6 0.999581 0.171358 0.990351
O O7 0.700040 0.204254 0.862975
O O8 0.597053 0.780176 0.154111
O O9 0.316996 0.083230 0.448752
O O10 0.367548 0.813966 0.964350
O O11 0.779854 0.564577 0.088196
O O12 0.919529 0.729653 0.230637
O O13 0.997792 0.212960 0.273701
O O14 0.203421 0.913992 0.843515
O O15 0.688700 0.413438 0.501548
O O16 0.951462 0.475034 0.761439
#
# Coordination Sequence:
#
# PCOD8028680 Si02
#       8
#     2   2   2   2   2   2   2   2
#     4  11  21  38  56  99 127 161 191 242 321 377
#     4  11  23  39  66  88 127 161 200 256 306 363
#     4  11  24  44  61  91 127 163 204 257 301 356
#     4  10  26  44  66  86 118 170 216 250 298 350
#     4  11  21  38  56  99 127 161 191 242 321 377
#     4  11  20  37  66  92 124 157 197 252 311 369
#     4  11  22  44  68  89 119 164 211 256 295 366
#     4  12  24  35  65  96 131 156 197 250 313 372
#
# _framework density 21.377763999999999
#
# number of rings (size 3 to 8) (size 9 to 14) (size 15 to 20)
#    0.000    1.000    5.000    3.375    3.500    1.000 
#    0.000    0.000    0.000    0.000    0.000    0.000 
#    0.000    0.000    0.000    0.000    0.000    0.000 
#
# Total GULP energy -198433.824209 kJ/mol
# GULP energy per Si atom -12402.114013 kJ/mol
# Density = 2.132911 g / cm^3
# Si number density = 21.377764 Si / 1000 Ang^3
#
#
#
# Elastic Constant Matrix: (Units=GPa)
#
#
# Indices 1 2 3 4 5 6 
#
# 1 108.8739 25.0177 6.8958 3.3385 0.7161 4.4478
# 2 25.0177 79.9394 19.7125 11.0233 -8.9523 1.6670
# 3 6.8958 19.7125 31.7202 5.0071 -0.8191 -6.3101
# 4 3.3385 11.0233 5.0071 17.1849 -0.7219 -3.4753
# 5 0.7161 -8.9523 -0.8191 -0.7219 33.7532 1.3116
# 6 4.4478 1.6670 -6.3101 -3.4753 1.3116 28.3321
#
#
#
# Elastic Compliance Matrix: (Units=1/GPa)
#
#
# Indices 1 2 3 4 5 6 
#
# 1 0.009993 -0.003040 -0.000580 -0.000166 -0.000978 -0.001494
# 2 -0.003040 0.017581 -0.009592 -0.008502 0.004466 -0.003943
# 3 -0.000580 -0.009592 0.039960 -0.003600 -0.001997 0.009206
# 4 -0.000166 -0.008502 -0.003600 0.066273 -0.001229 0.007911
# 5 -0.000978 0.004466 -0.001997 -0.001229 0.030840 -0.002132
# 6 -0.001494 -0.003943 0.009206 0.007911 -0.002132 0.038882
#
#
# Mechanical properties :
#
#
# Convention : Reuss Voigt Hill
#
# Bulk Modulus (GPa) = 24.32399 35.97615 30.15007
# Shear Modulus (GPa) = 20.52080 27.11454 23.81767
#
# Velocity S-wave (km/s) = 3.10161 3.56526 3.34148
# Velocity P-wave (km/s) = 4.92235 5.81493 5.38716
#
# Compressibility (1/GPa) = 0.04111167
#
# Stress axis : x y z
#
# Youngs Moduli (GPa) = 100.07292 56.88027 25.02477
#
# Poissons Ratio (x) = 0.17291 0.01450
# Poissons Ratio (y) = 0.30421 0.24003
# Poissons Ratio (z) = 0.05799 0.54558
#
# Static dielectric constant tensor:
#      x y z
#    x 3.947750 -0.013140 -0.028700 
#    y -0.013140 3.796990 0.136570 
#    z -0.028700 0.136570 3.732410 
# 
# 
# High freq. dielectric constant tensor:
#      x y z
#    x 1.849160 -0.002000 -0.002290 
#    y -0.002000 1.833750 0.013480 
#    z -0.002290 0.013480 1.826460 
# 
# From -- ./inp_files/180590.got.cif
#   From: 2010.06.25/outbox.cif.g09.slc.cpg/sg2_91_cif.got.tgz:180590.got - 2010.06.27 13:26:56.
