data_PCOD8028559
_publ_section_title
;
Structure prediction by ZEFSAII (Michael W. Deem and Ramdas Pophale) SiO2 
 PCOD8028559
Probable space group: P -1
;
_chemical_formula_sum "Si O2"
_cell_formula_units_Z 16
_cell_length_a 8.619362
_cell_length_b 18.671284
_cell_length_c 11.645264
_cell_angle_alpha 38.854518
_cell_angle_beta 40.601416
_cell_angle_gamma 38.662450
_cell_volume 677.663059
_symmetry_space_group_name_H-M "P -1"
_symmetry_group_IT_number 2
_symmetry_cell_setting 'triclinic'
loop_
_space_group_symop_operation_xyz
x,y,z
-x,-y,-z
loop_
_atom_site_type_symbol
_atom_site_label
_atom_site_fract_x
_atom_site_fract_y
_atom_site_fract_z
Si Si1 0.403607 0.204714 0.090999
Si Si2 0.048224 0.610954 0.741314
Si Si3 0.290608 0.987286 0.382831
Si Si4 0.310276 0.510907 0.935086
Si Si5 0.832295 0.301323 0.017002
Si Si6 0.424405 0.143976 0.818906
Si Si7 0.196031 0.809195 0.297922
Si Si8 0.261938 0.926631 0.719017
O O1 0.134545 0.332221 0.110978
O O2 0.501000 0.154383 0.227477
O O3 0.319008 0.115103 0.171339
O O4 0.623962 0.232048 0.866853
O O5 0.317447 0.526466 0.771442
O O6 0.082636 0.707992 0.513194
O O7 0.908327 0.538444 0.841511
O O8 0.524260 0.868167 0.332449
O O9 0.361428 0.978706 0.489358
O O10 0.000000 0.000000 0.500000
O O11 0.236368 0.640709 0.888092
O O12 0.613852 0.403036 0.926242
O O13 0.843196 0.162180 0.176467
O O14 0.135551 0.264311 0.855423
O O15 0.633928 0.189832 0.690095
O O16 0.500000 0.000000 0.000000
O O17 0.960869 0.954681 0.231522
#
# Coordination Sequence:
#
# PCOD8028559 Si02
#       8
#     2   2   2   2   2   2   2   2
#     4  12  24  43  68 107 150 181 229 302 358 434
#     4  11  24  48  73 102 136 192 251 289 360 423
#     4  12  23  40  71 107 151 189 225 285 376 440
#     4  10  25  47  75  95 140 204 239 297 345 419
#     4  11  23  46  73 100 143 187 242 292 356 427
#     4  12  22  41  69 115 142 180 232 299 367 432
#     4  12  25  41  75 109 145 182 232 300 376 429
#     4  12  24  41  70 110 141 183 230 291 372 427
#
# _framework density 23.610552999999999
#
# number of rings (size 3 to 8) (size 9 to 14) (size 15 to 20)
#    0.000    0.500    6.250    1.500    3.500    0.000 
#    0.000    6.250    2.750    0.000    0.000    0.000 
#    0.000    0.000    0.000    0.000    0.000    0.000 
#
# Total GULP energy -198262.097836 kJ/mol
# GULP energy per Si atom -12391.381115 kJ/mol
# Density = 2.355681 g / cm^3
# Si number density = 23.610553 Si / 1000 Ang^3
#
#
#
# Elastic Constant Matrix: (Units=GPa)
#
#
# Indices 1 2 3 4 5 6 
#
# 1 74.8064 1.5585 9.8217 -7.1038 4.3903 1.2031
# 2 1.5585 75.7675 26.1618 7.1093 6.3580 -3.5492
# 3 9.8217 26.1618 98.2942 -2.9193 -4.6659 6.9091
# 4 -7.1038 7.1093 -2.9193 38.6121 14.0879 -3.7523
# 5 4.3903 6.3580 -4.6659 14.0879 35.0885 -3.7250
# 6 1.2031 -3.5492 6.9091 -3.7523 -3.7250 33.1076
#
#
#
# Elastic Compliance Matrix: (Units=1/GPa)
#
#
# Indices 1 2 3 4 5 6 
#
# 1 0.014123 0.000166 -0.001500 0.003718 -0.003506 -0.000155
# 2 0.000166 0.015187 -0.004373 -0.002054 -0.002313 0.002042
# 3 -0.001500 -0.004373 0.011782 0.000398 0.002112 -0.002590
# 4 0.003718 -0.002054 0.000398 0.031760 -0.012607 0.001743
# 5 -0.003506 -0.002313 0.002112 -0.012607 0.034905 0.001937
# 6 -0.000155 0.002042 -0.002590 0.001743 0.001937 0.031385
#
#
# Mechanical properties :
#
#
# Convention : Reuss Voigt Hill
#
# Bulk Modulus (GPa) = 33.69731 35.99468 34.84600
# Shear Modulus (GPa) = 31.16248 35.45005 33.30627
#
# Velocity S-wave (km/s) = 3.63692 3.87906 3.75994
# Velocity P-wave (km/s) = 5.65149 5.94483 5.80002
#
# Compressibility (1/GPa) = 0.02967596
#
# Stress axis : x y z
#
# Youngs Moduli (GPa) = 70.80772 65.84448 84.87870
#
# Poissons Ratio (x) = -0.01090 0.12734
# Poissons Ratio (y) = -0.01172 0.37118
# Poissons Ratio (z) = 0.10623 0.28794
#
# Static dielectric constant tensor:
#      x y z
#    x 4.317070 0.090240 -0.126480 
#    y 0.090240 4.405720 -0.027760 
#    z -0.126480 -0.027760 4.143210 
# 
# 
# High freq. dielectric constant tensor:
#      x y z
#    x 1.949530 0.004900 -0.009530 
#    y 0.004900 1.937440 -0.005380 
#    z -0.009530 -0.005380 1.916280 
# 
# From -- ./inp_files/402796.got.cif
#   From: 2010.06.25/outbox.cif.g09.slc.cpg/sg2_202_cif.got.tgz:402796.got - 2010.06.27 13:26:56.
