data_PCOD8028043
_publ_section_title
;
Structure prediction by ZEFSAII (Michael W. Deem and Ramdas Pophale) SiO2 
 PCOD8028043
Probable space group: P -1
;
_chemical_formula_sum "Si O2"
_cell_formula_units_Z 14
_cell_length_a 13.431945
_cell_length_b 8.516736
_cell_length_c 11.254708
_cell_angle_alpha 117.325776
_cell_angle_beta 32.255077
_cell_angle_gamma 105.481348
_cell_volume 590.138187
_symmetry_space_group_name_H-M "P -1"
_symmetry_group_IT_number 2
_symmetry_cell_setting 'triclinic'
loop_
_space_group_symop_operation_xyz
x,y,z
-x,-y,-z
loop_
_atom_site_type_symbol
_atom_site_label
_atom_site_fract_x
_atom_site_fract_y
_atom_site_fract_z
Si Si1 0.369050 0.692964 0.236455
Si Si2 0.804887 0.555340 0.028504
Si Si3 0.014874 0.659159 0.452455
Si Si4 0.614711 0.943489 0.984962
Si Si5 0.901894 0.883919 0.145206
Si Si6 0.251486 0.772688 0.890146
Si Si7 0.401443 0.789411 0.479963
O O1 0.182907 0.748939 0.359390
O O2 0.305514 0.687951 0.437919
O O3 0.500000 0.500000 0.000000
O O4 0.492686 0.841750 0.154408
O O5 0.933843 0.671845 0.004032
O O6 0.718167 0.432197 0.163271
O O7 0.629717 0.709995 0.201365
O O8 0.935638 0.423641 0.756155
O O9 0.000000 0.500000 0.500000
O O10 0.819399 0.814229 0.697224
O O11 0.500000 0.000000 0.000000
O O12 0.643161 0.117537 0.089950
O O13 0.673894 0.994036 0.409271
O O14 0.020280 0.873602 0.146786
O O15 0.000000 0.000000 0.000000
O O16 0.340599 0.751962 0.660638
#
# Coordination Sequence:
#
# PCOD8028043 Si02
#       7
#     2   2   2   2   2   2   2
#     4  12  25  46  77 112 146 199 249 301 373 438
#     4  12  25  47  72 109 147 197 243 303 381 430
#     4  12  27  47  80 108 150 194 256 305 363 453
#     4  12  29  50  75 112 150 196 251 310 376 439
#     4  10  25  42  72 108 142 189 244 303 364 437
#     4  11  27  48  71 107 151 190 246 309 375 441
#     4  11  25  44  76 105 148 187 252 301 367 441
#
# _framework density 23.723255000000002
#
# number of rings (size 3 to 8) (size 9 to 14) (size 15 to 20)
#    0.000    0.571    2.857    3.000   14.000    3.429 
#    2.571    0.000    0.000    0.000    0.000    0.000 
#    0.000    0.000    0.000    0.000    0.000    0.000 
#
# Total GULP energy -173512.605521 kJ/mol
# GULP energy per Si atom -12393.757537 kJ/mol
# Density = 2.366926 g / cm^3
# Si number density = 23.723255 Si / 1000 Ang^3
#
#
#
# Elastic Constant Matrix: (Units=GPa)
#
#
# Indices 1 2 3 4 5 6 
#
# 1 176.9701 71.3397 60.5240 10.1704 6.9716 11.2011
# 2 71.3397 142.7230 39.9745 2.9306 6.4382 25.8618
# 3 60.5240 39.9745 123.5975 15.3988 3.9681 2.2876
# 4 10.1704 2.9306 15.3988 31.5096 -2.5318 -4.9061
# 5 6.9716 6.4382 3.9681 -2.5318 59.9800 6.9318
# 6 11.2011 25.8618 2.2876 -4.9061 6.9318 39.9574
#
#
#
# Elastic Compliance Matrix: (Units=1/GPa)
#
#
# Indices 1 2 3 4 5 6 
#
# 1 0.007930 -0.003146 -0.002728 -0.000981 -0.000436 -0.000075
# 2 -0.003146 0.010027 -0.001602 0.000009 0.000034 -0.005521
# 3 -0.002728 -0.001602 0.010442 -0.003987 -0.000462 0.000795
# 4 -0.000981 0.000009 -0.003987 0.034814 0.001321 0.004543
# 5 -0.000436 0.000034 -0.000462 0.001321 0.017115 -0.002680
# 6 -0.000075 -0.005521 0.000795 0.004543 -0.002680 0.029598
#
#
# Mechanical properties :
#
#
# Convention : Reuss Voigt Hill
#
# Bulk Modulus (GPa) = 74.37593 87.44080 80.90836
# Shear Modulus (GPa) = 38.65140 44.38621 41.51880
#
# Velocity S-wave (km/s) = 4.04079 4.33020 4.18800
# Velocity P-wave (km/s) = 7.29316 7.87017 7.58715
#
# Compressibility (1/GPa) = 0.01344521
#
# Stress axis : x y z
#
# Youngs Moduli (GPa) = 126.09705 99.73384 95.76948
#
# Poissons Ratio (x) = 0.31381 0.26128
# Poissons Ratio (y) = 0.39676 0.15344
# Poissons Ratio (z) = 0.34402 0.15979
#
# Static dielectric constant tensor:
#      x y z
#    x 4.306200 -0.189040 -0.101520 
#    y -0.189040 4.234930 0.452830 
#    z -0.101520 0.452830 4.459110 
# 
# 
# High freq. dielectric constant tensor:
#      x y z
#    x 1.962360 0.003520 -0.005710 
#    y 0.003520 1.935080 0.012210 
#    z -0.005710 0.012210 1.943590 
# 
# From -- ./inp_files/447725.got.cif
#   From: 2010.06.25/outbox.cif.g09.slc.cpg/sg2_224_cif.got.tgz:447725.got - 2010.06.27 13:26:56.
