data_PCOD8028847
_publ_section_title
;
Structure prediction by ZEFSAII (Michael W. Deem and Ramdas Pophale) SiO2 
 PCOD8028847
Probable space group: P -1
;
_chemical_formula_sum "Si O2"
_cell_formula_units_Z 14
_cell_length_a 11.188325
_cell_length_b 20.628007
_cell_length_c 11.826413
_cell_angle_alpha 149.598666
_cell_angle_beta 119.576768
_cell_angle_gamma 41.298000
_cell_volume 808.333329
_symmetry_space_group_name_H-M "P -1"
_symmetry_group_IT_number 2
_symmetry_cell_setting 'triclinic'
loop_
_space_group_symop_operation_xyz
x,y,z
-x,-y,-z
loop_
_atom_site_type_symbol
_atom_site_label
_atom_site_fract_x
_atom_site_fract_y
_atom_site_fract_z
Si Si1 0.610517 0.559690 0.258572
Si Si2 0.565480 0.987490 0.359041
Si Si3 0.993014 0.859379 0.146031
Si Si4 0.899844 0.945515 0.485291
Si Si5 0.245248 0.327555 0.864172
Si Si6 0.673558 0.470505 0.899315
Si Si7 0.423083 0.952343 0.802651
O O1 0.457137 0.563112 0.250352
O O2 0.570511 0.728245 0.540259
O O3 0.579459 0.583419 0.144501
O O4 0.841575 0.366303 0.107679
O O5 0.694769 0.010992 0.517454
O O6 0.669519 0.782337 0.140699
O O7 0.334689 0.170003 0.571023
O O8 0.575225 0.981306 0.219193
O O9 0.891594 0.971777 0.386082
O O10 0.805446 0.935178 0.098331
O O11 0.095589 0.921916 0.244986
O O12 0.091441 0.727479 0.278564
O O13 0.336740 0.407373 0.011281
O O14 0.000000 0.500000 0.000000
O O15 0.500000 0.000000 0.000000
#
# Coordination Sequence:
#
# PCOD8028847 Si02
#       7
#     2   2   2   2   2   2   2
#     4  10  19  32  53  78 107 136 174 227 268 306
#     4  10  21  33  50  78 111 144 174 212 272 317
#     4   9  18  29  49  76 102 137 171 217 271 308
#     4   9  15  29  49  77 107 128 169 221 269 316
#     4  11  20  32  51  80 113 141 168 217 276 328
#     4  10  17  30  53  80 109 132 168 225 277 314
#     4  11  22  36  52  76 113 147 181 215 256 322
#
# _framework density 17.319588
#
# number of rings (size 3 to 8) (size 9 to 14) (size 15 to 20)
#    0.000    2.000    4.286    0.857    4.000    0.571 
#    0.000    0.000    0.000    0.857    0.000   10.000 
#    0.000    0.000    0.000    0.000    0.000    0.000 
#
# Total GULP energy -173518.305807 kJ/mol
# GULP energy per Si atom -12394.164700 kJ/mol
# Density = 1.728017 g / cm^3
# Si number density = 17.319588 Si / 1000 Ang^3
#
#
#
# Elastic Constant Matrix: (Units=GPa)
#
#
# Indices 1 2 3 4 5 6 
#
# 1 98.2654 46.7786 45.5149 4.4689 19.1421 0.9565
# 2 46.7786 76.4229 51.3599 2.0327 11.1415 -9.2478
# 3 45.5149 51.3599 99.4407 8.7589 17.5712 -5.9344
# 4 4.4689 2.0327 8.7589 26.0325 -5.0855 3.4415
# 5 19.1421 11.1415 17.5712 -5.0855 33.1392 8.0613
# 6 0.9565 -9.2478 -5.9344 3.4415 8.0613 28.5402
#
#
#
# Elastic Compliance Matrix: (Units=1/GPa)
#
#
# Indices 1 2 3 4 5 6 
#
# 1 0.016060 -0.007589 -0.002391 -0.002184 -0.005376 -0.001713
# 2 -0.007589 0.024453 -0.008823 0.001436 -0.000473 0.006303
# 3 -0.002391 -0.008823 0.017759 -0.006734 -0.007003 0.003704
# 4 -0.002184 0.001436 -0.006734 0.044965 0.013720 -0.010159
# 5 -0.005376 -0.000473 -0.007003 0.013720 0.042960 -0.015218
# 6 -0.001713 0.006303 0.003704 -0.010159 -0.015218 0.043432
#
#
# Mechanical properties :
#
#
# Convention : Reuss Voigt Hill
#
# Bulk Modulus (GPa) = 48.38813 62.38175 55.38494
# Shear Modulus (GPa) = 21.35612 26.24073 23.79842
#
# Velocity S-wave (km/s) = 3.51531 3.89664 3.71087
# Velocity P-wave (km/s) = 6.66900 7.50608 7.09989
#
# Compressibility (1/GPa) = 0.02066623
#
# Stress axis : x y z
#
# Youngs Moduli (GPa) = 62.26718 40.89442 56.30807
#
# Poissons Ratio (x) = 0.31033 0.13465
# Poissons Ratio (y) = 0.47252 0.49682
# Poissons Ratio (z) = 0.14890 0.36082
#
# Static dielectric constant tensor:
#      x y z
#    x 3.527530 -0.120340 0.143450 
#    y -0.120340 2.984150 0.374170 
#    z 0.143450 0.374170 3.080970 
# 
# 
# High freq. dielectric constant tensor:
#      x y z
#    x 1.677980 -0.015580 0.012690 
#    y -0.015580 1.630420 0.053950 
#    z 0.012690 0.053950 1.653680 
# 
# From -- ./inp_files/170010.got.cif
#   From: 2010.06.25/outbox.cif.g09.slc.cpg/sg2_86_cif.got.tgz:170010.got - 2010.06.27 13:26:56.
