data_PCOD8028669
_publ_section_title
;
Structure prediction by ZEFSAII (Michael W. Deem and Ramdas Pophale) SiO2 
 PCOD8028669
Probable space group: P -1
;
_chemical_formula_sum "Si O2"
_cell_formula_units_Z 16
_cell_length_a 14.126055
_cell_length_b 16.537055
_cell_length_c 8.701646
_cell_angle_alpha 40.043349
_cell_angle_beta 34.863214
_cell_angle_gamma 41.467684
_cell_volume 705.814879
_symmetry_space_group_name_H-M "P -1"
_symmetry_group_IT_number 2
_symmetry_cell_setting 'triclinic'
loop_
_space_group_symop_operation_xyz
x,y,z
-x,-y,-z
loop_
_atom_site_type_symbol
_atom_site_label
_atom_site_fract_x
_atom_site_fract_y
_atom_site_fract_z
Si Si1 0.025192 0.949373 0.870056
Si Si2 0.203632 0.415475 0.331985
Si Si3 0.776741 0.551704 0.413280
Si Si4 0.953291 0.728507 0.451658
Si Si5 0.928910 0.756770 0.789147
Si Si6 0.320554 0.977362 0.225711
Si Si7 0.743300 0.181602 0.729707
Si Si8 0.513209 0.457438 0.718881
O O1 0.214438 0.934617 0.566493
O O2 0.859070 0.047104 0.856363
O O3 0.014645 0.802033 0.122374
O O4 0.000000 0.000000 0.000000
O O5 0.279027 0.363568 0.477286
O O6 0.213538 0.301643 0.357704
O O7 0.000000 0.500000 0.500000
O O8 0.319709 0.500001 0.987566
O O9 0.610058 0.545518 0.550818
O O10 0.889512 0.402838 0.521824
O O11 0.888651 0.620081 0.060470
O O12 0.903591 0.804696 0.571576
O O13 0.123844 0.739724 0.615467
O O14 0.799436 0.877132 0.885695
O O15 0.353123 0.864712 0.215016
O O16 0.500000 0.000000 0.000000
O O17 0.601463 0.295154 0.854339
O O18 0.500000 0.500000 0.500000
#
# Coordination Sequence:
#
# PCOD8028669 Si02
#       8
#     2   2   2   2   2   2   2   2
#     4  11  21  46  73  96 136 183 234 285 343 414
#     4  10  26  43  67 103 140 182 229 282 356 415
#     4  11  24  44  70 104 145 177 234 291 351 412
#     4  11  22  42  73 102 134 182 234 279 356 412
#     4  11  22  45  71 101 141 187 232 287 348 420
#     4  11  27  46  69 102 141 185 238 286 347 413
#     4  11  26  44  72 101 137 186 239 278 354 410
#     4  12  26  45  72 103 143 184 235 290 347 417
#
# _framework density 22.668834
#
# number of rings (size 3 to 8) (size 9 to 14) (size 15 to 20)
#    0.000    1.000    3.750    3.000   10.500    1.000 
#    4.500    1.250    0.000    0.000    0.000    0.000 
#    0.000    0.000    0.000    0.000    0.000    0.000 
#
# Total GULP energy -198208.949414 kJ/mol
# GULP energy per Si atom -12388.059338 kJ/mol
# Density = 2.261724 g / cm^3
# Si number density = 22.668834 Si / 1000 Ang^3
#
#
#
# Elastic Constant Matrix: (Units=GPa)
#
#
# Indices 1 2 3 4 5 6 
#
# 1 163.0106 10.5268 61.6857 -0.9376 -22.1023 25.0773
# 2 10.5268 64.1984 31.6027 -6.6468 -6.0318 -0.5855
# 3 61.6857 31.6027 166.1994 -18.8735 -14.5036 -13.8056
# 4 -0.9376 -6.6468 -18.8735 35.1262 1.8245 3.5340
# 5 -22.1023 -6.0318 -14.5036 1.8245 44.4054 -6.3160
# 6 25.0773 -0.5855 -13.8056 3.5340 -6.3160 37.7389
#
#
#
# Elastic Compliance Matrix: (Units=1/GPa)
#
#
# Indices 1 2 3 4 5 6 
#
# 1 0.008951 0.000493 -0.003922 -0.001203 0.002313 -0.006875
# 2 0.000493 0.017394 -0.003296 0.001586 0.001296 -0.001195
# 3 -0.003922 -0.003296 0.009084 0.003509 0.001242 0.005758
# 4 -0.001203 0.001586 0.003509 0.030743 -0.000625 -0.000876
# 5 0.002313 0.001296 0.001242 -0.000625 0.024724 0.003134
# 6 -0.006875 -0.001195 0.005758 -0.000876 0.003134 0.033761
#
#
# Mechanical properties :
#
#
# Convention : Reuss Voigt Hill
#
# Bulk Modulus (GPa) = 45.49901 66.78208 56.14055
# Shear Modulus (GPa) = 34.37987 42.76032 38.57010
#
# Velocity S-wave (km/s) = 3.89860 4.34787 4.12935
# Velocity P-wave (km/s) = 6.35454 7.39792 6.89599
#
# Compressibility (1/GPa) = 0.02197850
#
# Stress axis : x y z
#
# Youngs Moduli (GPa) = 111.71625 57.49211 110.07828
#
# Poissons Ratio (x) = -0.02834 0.43172
# Poissons Ratio (y) = -0.05506 0.36286
# Poissons Ratio (z) = 0.43815 0.18952
#
# Static dielectric constant tensor:
#      x y z
#    x 3.693970 3.749470 -4.352240 
#    y 3.749470 -4.743050 12.209280 
#    z -4.352240 12.209280 -12.484970 
# 
# 
# High freq. dielectric constant tensor:
#      x y z
#    x 1.904610 0.021890 -0.008300 
#    y 0.021890 1.883780 -0.009930 
#    z -0.008300 -0.009930 1.894530 
# 
# From -- ./inp_files/317937.got.cif
#   From: 2010.06.25/outbox.cif.g09.slc.cpg/sg2_159_cif.got.tgz:317937.got - 2010.06.27 13:26:56.
