data_PCOD8028325
_publ_section_title
;
Structure prediction by ZEFSAII (Michael W. Deem and Ramdas Pophale) SiO2 
 PCOD8028325
Probable space group: P -1
;
_chemical_formula_sum "Si O2"
_cell_formula_units_Z 14
_cell_length_a 13.474933
_cell_length_b 19.257815
_cell_length_c 26.348733
_cell_angle_alpha 17.843006
_cell_angle_beta 16.785000
_cell_angle_gamma 25.248118
_cell_volume 603.184501
_symmetry_space_group_name_H-M "P -1"
_symmetry_group_IT_number 2
_symmetry_cell_setting 'triclinic'
loop_
_space_group_symop_operation_xyz
x,y,z
-x,-y,-z
loop_
_atom_site_type_symbol
_atom_site_label
_atom_site_fract_x
_atom_site_fract_y
_atom_site_fract_z
Si Si1 0.861116 0.541368 0.983513
Si Si2 0.110539 0.443986 0.250142
Si Si3 0.126296 0.918346 0.886699
Si Si4 0.943070 0.845933 0.917274
Si Si5 0.888340 0.980764 0.510729
Si Si6 0.906806 0.401937 0.667973
Si Si7 0.166838 0.733359 0.386513
O O1 0.452927 0.506872 0.203991
O O2 0.000927 0.380824 0.983659
O O3 0.000000 0.500000 0.000000
O O4 0.964787 0.802605 0.742060
O O5 0.940470 0.243473 0.437486
O O6 0.072805 0.348294 0.392128
O O7 0.500000 0.500000 0.000000
O O8 0.927607 0.681156 0.169200
O O9 0.479099 0.959327 0.716724
O O10 0.193482 0.888422 0.813934
O O11 0.898402 0.128663 0.863101
O O12 0.009061 0.061101 0.698177
O O13 0.557977 0.822524 0.146399
O O14 0.000000 0.000000 0.500000
O O15 0.000000 0.500000 0.500000
O O16 0.185334 0.516391 0.491230
#
# Coordination Sequence:
#
# PCOD8028325 Si02
#       7
#     2   2   2   2   2   2   2
#     4  12  27  45  75 106 145 194 244 299 369 434
#     4  10  25  45  71 107 147 194 247 296 368 442
#     4  11  25  47  74 106 151 186 251 299 366 441
#     4  11  25  46  76 110 141 194 251 302 373 431
#     4  11  25  47  73 103 150 189 241 303 359 439
#     4  12  26  46  72 110 148 189 245 306 362 435
#     4  11  25  45  77 104 152 189 245 312 364 435
#
# _framework density 23.210145000000001
#
# number of rings (size 3 to 8) (size 9 to 14) (size 15 to 20)
#    0.000    0.857    1.429    4.286   12.000    2.857 
#    2.571    0.000    0.000    0.000    0.000    0.000 
#    0.000    0.000    0.000    0.000    0.000    0.000 
#
# Total GULP energy -173556.158786 kJ/mol
# GULP energy per Si atom -12396.868485 kJ/mol
# Density = 2.315732 g / cm^3
# Si number density = 23.210145 Si / 1000 Ang^3
#
#
#
# Elastic Constant Matrix: (Units=GPa)
#
#
# Indices 1 2 3 4 5 6 
#
# 1 180.2866 39.8770 63.8241 -9.0790 2.7983 4.0650
# 2 39.8770 100.4342 59.8546 -22.3685 0.2628 1.3569
# 3 63.8241 59.8546 125.4265 -35.8725 27.8465 1.9243
# 4 -9.0790 -22.3685 -35.8725 46.1335 1.9263 -0.7995
# 5 2.7983 0.2628 27.8465 1.9263 47.2753 -8.2981
# 6 4.0650 1.3569 1.9243 -0.7995 -8.2981 38.9896
#
#
#
# Elastic Compliance Matrix: (Units=1/GPa)
#
#
# Indices 1 2 3 4 5 6 
#
# 1 0.007154 -0.000696 -0.004573 -0.002586 0.002372 -0.000044
# 2 -0.000696 0.014888 -0.007424 0.001138 0.004441 0.000889
# 3 -0.004573 -0.007424 0.019893 0.011438 -0.012335 -0.002637
# 4 -0.002586 0.001138 0.011438 0.030927 -0.008101 -0.001425
# 5 0.002372 0.004441 -0.012335 -0.008101 0.029700 0.006362
# 6 -0.000044 0.000889 -0.002637 -0.001425 0.006362 0.027076
#
#
# Mechanical properties :
#
#
# Convention : Reuss Voigt Hill
#
# Bulk Modulus (GPa) = 60.43520 81.47320 70.95420
# Shear Modulus (GPa) = 31.14455 42.65244 36.89849
#
# Velocity S-wave (km/s) = 3.66710 4.29145 3.99150
# Velocity P-wave (km/s) = 6.63513 7.72878 7.20274
#
# Compressibility (1/GPa) = 0.01654665
#
# Stress axis : x y z
#
# Youngs Moduli (GPa) = 139.78666 67.16935 50.26826
#
# Poissons Ratio (x) = 0.04677 0.22990
# Poissons Ratio (y) = 0.09733 0.37321
# Poissons Ratio (z) = 0.63930 0.49869
#
# Static dielectric constant tensor:
#      x y z
#    x 4.271140 0.421070 0.059010 
#    y 0.421070 6.537980 -0.081760 
#    z 0.059010 -0.081760 4.485290 
# 
# 
# High freq. dielectric constant tensor:
#      x y z
#    x 1.926340 0.003070 -0.003150 
#    y 0.003070 1.919620 -0.027400 
#    z -0.003150 -0.027400 1.927930 
# 
# From -- ./inp_files/610655.got.cif
#   From: 2010.06.25/outbox.cif.g09.slc.cpg/sg2_306_cif.got.tgz:610655.got - 2010.06.27 13:26:56.
