data_PCOD8028290
_publ_section_title
;
Structure prediction by ZEFSAII (Michael W. Deem and Ramdas Pophale) SiO2 
 PCOD8028290
Probable space group: P -1
;
_chemical_formula_sum "Si O2"
_cell_formula_units_Z 16
_cell_length_a 9.426980
_cell_length_b 9.483880
_cell_length_c 12.675519
_cell_angle_alpha 49.623503
_cell_angle_beta 122.645443
_cell_angle_gamma 116.975873
_cell_volume 717.281863
_symmetry_space_group_name_H-M "P -1"
_symmetry_group_IT_number 2
_symmetry_cell_setting 'triclinic'
loop_
_space_group_symop_operation_xyz
x,y,z
-x,-y,-z
loop_
_atom_site_type_symbol
_atom_site_label
_atom_site_fract_x
_atom_site_fract_y
_atom_site_fract_z
Si Si1 0.481406 0.591200 0.280570
Si Si2 0.494519 0.770000 0.423465
Si Si3 0.696303 0.365305 0.196806
Si Si4 0.657675 0.873415 0.840601
Si Si5 0.836743 0.015045 0.493535
Si Si6 0.749512 0.754928 0.144786
Si Si7 0.022803 0.050025 0.195759
Si Si8 0.823639 0.365530 0.009732
O O1 0.446595 0.681389 0.333853
O O2 0.539045 0.388117 0.422023
O O3 0.630136 0.723434 0.214308
O O4 0.306865 0.568007 0.156960
O O5 0.692025 0.859423 0.461706
O O6 0.382274 0.933254 0.319803
O O7 0.491184 0.303076 0.158377
O O8 0.758646 0.564350 0.178111
O O9 0.745918 0.370501 0.091946
O O10 0.791845 0.221535 0.367008
O O11 0.838803 0.836478 0.884345
O O12 0.674901 0.892727 0.965283
O O13 0.866984 0.974813 0.645974
O O14 0.000000 0.000000 0.500000
O O15 0.938831 0.848521 0.212006
O O16 0.863413 0.157738 0.101886
O O17 0.000000 0.500000 0.000000
#
# Coordination Sequence:
#
# PCOD8028290 Si02
#       8
#     2   2   2   2   2   2   2   2
#     4  11  25  44  71 104 144 183 235 291 352 423
#     4  10  25  45  69 102 140 191 231 287 355 416
#     4  11  26  44  73 102 143 187 235 291 351 419
#     4  11  25  47  72 101 143 184 239 288 350 425
#     4  11  23  45  69 100 142 186 241 286 347 424
#     4  12  26  44  72 107 144 181 237 292 356 409
#     4  12  27  44  74 106 143 185 236 292 356 413
#     4  12  25  45  75 105 140 190 238 287 350 420
#
# _framework density 22.306432000000001
#
# number of rings (size 3 to 8) (size 9 to 14) (size 15 to 20)
#    0.000    0.750    2.500    3.750    7.000    3.500 
#    2.250    0.000    0.000    0.000    0.000    0.000 
#    0.000    0.000    0.000    0.000    0.000    0.000 
#
# Total GULP energy -198466.559661 kJ/mol
# GULP energy per Si atom -12404.159979 kJ/mol
# Density = 2.225566 g / cm^3
# Si number density = 22.306432 Si / 1000 Ang^3
#
#
#
# Elastic Constant Matrix: (Units=GPa)
#
#
# Indices 1 2 3 4 5 6 
#
# 1 123.1813 34.3272 25.6047 -0.2451 -6.9534 13.9237
# 2 34.3272 106.1919 21.2485 -2.4276 -2.2278 8.7235
# 3 25.6047 21.2485 122.4257 -5.1330 -15.9435 2.4160
# 4 -0.2451 -2.4276 -5.1330 23.6203 1.4473 -2.2972
# 5 -6.9534 -2.2278 -15.9435 1.4473 26.2242 0.8480
# 6 13.9237 8.7235 2.4160 -2.2972 0.8480 33.6967
#
#
#
# Elastic Compliance Matrix: (Units=1/GPa)
#
#
# Indices 1 2 3 4 5 6 
#
# 1 0.009566 -0.002543 -0.001312 -0.000871 0.001677 -0.003302
# 2 -0.002543 0.010635 -0.001329 0.000662 -0.000566 -0.001548
# 3 -0.001312 -0.001329 0.009409 0.001597 0.005165 0.000191
# 4 -0.000871 0.000662 0.001597 0.043143 -0.001684 0.003058
# 5 0.001677 -0.000566 0.005165 -0.001684 0.041830 -0.002085
# 6 -0.003302 -0.001548 0.000191 0.003058 -0.002085 0.031689
#
#
# Mechanical properties :
#
#
# Convention : Reuss Voigt Hill
#
# Bulk Modulus (GPa) = 51.97205 57.12886 54.55045
# Shear Modulus (GPa) = 30.66440 34.74944 32.70692
#
# Velocity S-wave (km/s) = 3.71170 3.95121 3.83333
# Velocity P-wave (km/s) = 6.45900 6.81781 6.64083
#
# Compressibility (1/GPa) = 0.01924111
#
# Stress axis : x y z
#
# Youngs Moduli (GPa) = 104.53982 94.02544 106.27842
#
# Poissons Ratio (x) = 0.23912 0.13945
# Poissons Ratio (y) = 0.26586 0.14128
# Poissons Ratio (z) = 0.13717 0.12500
#
# Static dielectric constant tensor:
#      x y z
#    x 4.014620 -0.003970 -0.068120 
#    y -0.003970 4.105120 -0.137530 
#    z -0.068120 -0.137530 4.270460 
# 
# 
# High freq. dielectric constant tensor:
#      x y z
#    x 1.879420 0.006340 -0.006200 
#    y 0.006340 1.884390 -0.000660 
#    z -0.006200 -0.000660 1.897760 
# 
# From -- ./inp_files/316028.got.cif
#   From: 2010.06.25/outbox.cif.g09.slc.cpg/sg2_159_cif.got.tgz:316028.got - 2010.06.27 13:26:56.
