data_PCOD8028201
_publ_section_title
;
Structure prediction by ZEFSAII (Michael W. Deem and Ramdas Pophale) SiO2 
 PCOD8028201
Probable space group: P -1
;
_chemical_formula_sum "Si O2"
_cell_formula_units_Z 16
_cell_length_a 15.041040
_cell_length_b 8.572236
_cell_length_c 14.762962
_cell_angle_alpha 86.784058
_cell_angle_beta 29.101269
_cell_angle_gamma 68.965498
_cell_volume 711.577827
_symmetry_space_group_name_H-M "P -1"
_symmetry_group_IT_number 2
_symmetry_cell_setting 'triclinic'
loop_
_space_group_symop_operation_xyz
x,y,z
-x,-y,-z
loop_
_atom_site_type_symbol
_atom_site_label
_atom_site_fract_x
_atom_site_fract_y
_atom_site_fract_z
Si Si1 0.033195 0.828362 0.031936
Si Si2 0.552951 0.596679 0.307405
Si Si3 0.635535 0.695809 0.040158
Si Si4 0.078677 0.506882 0.529814
Si Si5 0.544320 0.063951 0.187457
Si Si6 0.358124 0.139909 0.704208
Si Si7 0.149942 0.838457 0.447830
Si Si8 0.954324 0.043712 0.268590
O O1 0.314541 0.639013 0.787835
O O2 0.912017 0.757915 0.083114
O O3 0.000000 0.000000 0.000000
O O4 0.935142 0.907517 0.220147
O O5 0.667316 0.607318 0.114127
O O6 0.618216 0.686610 0.323000
O O7 0.270578 0.716606 0.555964
O O8 0.425651 0.710605 0.178826
O O9 0.555800 0.920736 0.107411
O O10 0.879511 0.547696 0.773091
O O11 0.330157 0.296334 0.343471
O O12 0.093483 0.686676 0.517370
O O13 0.000000 0.500000 0.500000
O O14 0.523427 0.000449 0.307257
O O15 0.793176 0.017359 0.968089
O O16 0.500000 0.000000 0.500000
O O17 0.085100 0.978841 0.590246
O O18 0.000000 0.000000 0.500000
#
# Coordination Sequence:
#
# PCOD8028201 Si02
#       8
#     2   2   2   2   2   2   2   2
#     4  12  25  43  67 102 142 188 243 293 354 431
#     4  10  25  44  71 101 143 192 240 291 366 422
#     4  10  25  47  70 103 141 188 235 293 364 430
#     4  12  28  47  76 110 139 188 239 300 371 432
#     4  11  25  47  72 100 149 187 238 298 360 431
#     4  11  23  45  66 106 140 191 241 296 353 427
#     4  11  26  48  74 103 143 189 237 303 368 432
#     4  11  24  45  70 100 141 186 241 298 354 429
#
# _framework density 22.485243000000001
#
# number of rings (size 3 to 8) (size 9 to 14) (size 15 to 20)
#    0.000    1.000    3.750    1.125    7.000    3.000 
#    2.250    0.000    0.000    0.000    0.000    0.000 
#    0.000    0.000    0.000    0.000    0.000    0.000 
#
# Total GULP energy -198274.997382 kJ/mol
# GULP energy per Si atom -12392.187336 kJ/mol
# Density = 2.243407 g / cm^3
# Si number density = 22.485243 Si / 1000 Ang^3
#
#
#
# Elastic Constant Matrix: (Units=GPa)
#
#
# Indices 1 2 3 4 5 6 
#
# 1 134.2773 36.9957 51.5608 14.7149 -2.6857 -1.7872
# 2 36.9957 93.2806 52.2632 22.2558 -6.7860 -7.7525
# 3 51.5608 52.2632 166.9730 14.1096 -9.4725 -7.9155
# 4 14.7149 22.2558 14.1096 38.9764 4.1293 -11.8122
# 5 -2.6857 -6.7860 -9.4725 4.1293 32.7517 0.7258
# 6 -1.7872 -7.7525 -7.9155 -11.8122 0.7258 24.5396
#
#
#
# Elastic Compliance Matrix: (Units=1/GPa)
#
#
# Indices 1 2 3 4 5 6 
#
# 1 0.008998 -0.002098 -0.002033 -0.001948 -0.000004 -0.001601
# 2 -0.002098 0.015349 -0.003392 -0.007009 0.002908 0.000142
# 3 -0.002033 -0.003392 0.007806 0.000138 0.001341 0.001325
# 4 -0.001948 -0.007009 0.000138 0.035566 -0.006388 0.014997
# 5 -0.000004 0.002908 0.001341 -0.006388 0.032388 -0.002682
# 6 -0.001601 0.000142 0.001325 0.014997 -0.002682 0.048404
#
#
# Mechanical properties :
#
#
# Convention : Reuss Voigt Hill
#
# Bulk Modulus (GPa) = 58.46203 75.13006 66.79604
# Shear Modulus (GPa) = 29.54032 36.16763 32.85397
#
# Velocity S-wave (km/s) = 3.62852 4.01497 3.82663
# Velocity P-wave (km/s) = 6.60390 7.41477 7.02105
#
# Compressibility (1/GPa) = 0.01710512
#
# Stress axis : x y z
#
# Youngs Moduli (GPa) = 111.13337 65.15190 128.10757
#
# Poissons Ratio (x) = 0.13669 0.26050
# Poissons Ratio (y) = 0.23317 0.43459
# Poissons Ratio (z) = 0.22598 0.22102
#
# Static dielectric constant tensor:
#      x y z
#    x -4.357580 -1.130130 2.221100 
#    y -1.130130 3.699130 0.373240 
#    z 2.221100 0.373240 3.647270 
# 
# 
# High freq. dielectric constant tensor:
#      x y z
#    x 1.903060 0.005580 -0.006830 
#    y 0.005580 1.868190 0.002780 
#    z -0.006830 0.002780 1.899510 
# 
# From -- ./inp_files/340564.got.cif
#   From: 2010.06.25/outbox.cif.g09.slc.cpg/sg2_171_cif.got.tgz:340564.got - 2010.06.27 13:26:56.
