data_PCOD8028385
_publ_section_title
;
Structure prediction by ZEFSAII (Michael W. Deem and Ramdas Pophale) SiO2 
 PCOD8028385
Probable space group: P -1
;
_chemical_formula_sum "Si O2"
_cell_formula_units_Z 14
_cell_length_a 10.779345
_cell_length_b 8.373147
_cell_length_c 16.794213
_cell_angle_alpha 51.009133
_cell_angle_beta 138.801482
_cell_angle_gamma 99.127629
_cell_volume 611.970052
_symmetry_space_group_name_H-M "P -1"
_symmetry_group_IT_number 2
_symmetry_cell_setting 'triclinic'
loop_
_space_group_symop_operation_xyz
x,y,z
-x,-y,-z
loop_
_atom_site_type_symbol
_atom_site_label
_atom_site_fract_x
_atom_site_fract_y
_atom_site_fract_z
Si Si1 0.361232 0.438672 0.511791
Si Si2 0.718491 0.211607 0.296655
Si Si3 0.666696 0.931648 0.487602
Si Si4 0.214482 0.779320 0.117034
Si Si5 0.806657 0.668042 0.786876
Si Si6 0.502650 0.787843 0.971779
Si Si7 0.841365 0.913068 0.147101
O O1 0.500000 0.500000 0.500000
O O2 0.281079 0.279948 0.483905
O O3 0.544461 0.268413 0.724418
O O4 0.122730 0.684344 0.360519
O O5 0.591141 0.175063 0.174793
O O6 0.649783 0.163510 0.364276
O O7 0.637809 0.499994 0.163083
O O8 0.000000 0.000000 0.500000
O O9 0.866223 0.776072 0.704743
O O10 0.408787 0.068741 0.358086
O O11 0.254233 0.508836 0.227901
O O12 0.174231 0.863573 0.979247
O O13 0.000000 0.000000 0.000000
O O14 0.000000 0.500000 0.000000
O O15 0.270128 0.991116 0.849295
O O16 0.697766 0.836739 0.052165
#
# Coordination Sequence:
#
# PCOD8028385 Si02
#       7
#     2   2   2   2   2   2   2
#     4  12  23  42  68  97 134 178 224 273 340 403
#     4  11  24  45  72  95 135 180 230 275 340 399
#     4  11  24  43  63  98 132 171 222 273 329 403
#     4  12  23  40  66  99 134 177 220 277 338 406
#     4  11  25  40  64  95 135 172 214 269 337 399
#     4  10  25  46  67 104 131 182 228 284 337 395
#     4  11  24  43  70  97 140 171 229 283 336 400
#
# _framework density 22.876937000000002
#
# number of rings (size 3 to 8) (size 9 to 14) (size 15 to 20)
#    0.000    0.857    2.857    3.429    0.000    6.857 
#    0.000    3.571    0.000    0.000    0.000    0.000 
#    0.000    0.000    0.000    0.000    0.000    0.000 
#
# Total GULP energy -173530.847765 kJ/mol
# GULP energy per Si atom -12395.060555 kJ/mol
# Density = 2.282487 g / cm^3
# Si number density = 22.876937 Si / 1000 Ang^3
#
#
#
# Elastic Constant Matrix: (Units=GPa)
#
#
# Indices 1 2 3 4 5 6 
#
# 1 97.3563 9.3041 48.7141 -2.7594 -9.7282 -1.1834
# 2 9.3041 58.3524 25.6266 -9.5953 -3.2730 -7.3558
# 3 48.7141 25.6266 167.9626 4.0452 -7.7661 -11.0491
# 4 -2.7594 -9.5953 4.0452 35.0100 -4.5317 -2.1661
# 5 -9.7282 -3.2730 -7.7661 -4.5317 59.3995 -5.1235
# 6 -1.1834 -7.3558 -11.0491 -2.1661 -5.1235 27.7555
#
#
#
# Elastic Compliance Matrix: (Units=1/GPa)
#
#
# Indices 1 2 3 4 5 6 
#
# 1 0.012246 -0.000127 -0.003527 0.001515 0.001610 -0.000500
# 2 -0.000127 0.020152 -0.002784 0.006359 0.001644 0.005027
# 3 -0.003527 -0.002784 0.007593 -0.001752 0.000305 0.002054
# 4 0.001515 0.006359 -0.001752 0.031282 0.003107 0.004067
# 5 0.001610 0.001644 0.000305 0.003107 0.017825 0.004159
# 6 -0.000500 0.005027 0.002054 0.004067 0.004159 0.039242
#
#
# Mechanical properties :
#
#
# Convention : Reuss Voigt Hill
#
# Bulk Modulus (GPa) = 36.88170 54.55121 45.71646
# Shear Modulus (GPa) = 33.27662 40.43476 36.85569
#
# Velocity S-wave (km/s) = 3.81805 4.20871 4.01813
# Velocity P-wave (km/s) = 5.96602 6.89311 6.44626
#
# Compressibility (1/GPa) = 0.02711372
#
# Stress axis : x y z
#
# Youngs Moduli (GPa) = 81.65642 49.62354 131.70088
#
# Poissons Ratio (x) = 0.00631 0.46456
# Poissons Ratio (y) = 0.01038 0.36668
# Poissons Ratio (z) = 0.28803 0.13816
#
# Static dielectric constant tensor:
#      x y z
#    x 3.817580 0.066540 -0.266220 
#    y 0.066540 4.236390 -0.112620 
#    z -0.266220 -0.112620 4.552410 
# 
# 
# High freq. dielectric constant tensor:
#      x y z
#    x 1.901580 -0.006100 -0.012020 
#    y -0.006100 1.902040 -0.007440 
#    z -0.012020 -0.007440 1.922650 
# 
# From -- ./inp_files/255949.got.cif
#   From: 2010.06.25/outbox.cif.g09.slc.cpg/sg2_128_cif.got.tgz:255949.got - 2010.06.27 13:26:56.
