data_PCOD8028593
_publ_section_title
;
Structure prediction by ZEFSAII (Michael W. Deem and Ramdas Pophale) SiO2 
 PCOD8028593
Probable space group: P -1
;
_chemical_formula_sum "Si O2"
_cell_formula_units_Z 16
_cell_length_a 8.014308
_cell_length_b 8.585854
_cell_length_c 15.684189
_cell_angle_alpha 112.852720
_cell_angle_beta 57.312873
_cell_angle_gamma 126.963627
_cell_volume 722.499395
_symmetry_space_group_name_H-M "P -1"
_symmetry_group_IT_number 2
_symmetry_cell_setting 'triclinic'
loop_
_space_group_symop_operation_xyz
x,y,z
-x,-y,-z
loop_
_atom_site_type_symbol
_atom_site_label
_atom_site_fract_x
_atom_site_fract_y
_atom_site_fract_z
Si Si1 0.224931 0.391348 0.382221
Si Si2 0.372377 0.932025 0.187873
Si Si3 0.966105 0.552923 0.166465
Si Si4 0.545991 0.258943 0.335687
Si Si5 0.201454 0.420245 0.946532
Si Si6 0.252639 0.152890 0.985591
Si Si7 0.306372 0.775391 0.524604
Si Si8 0.354252 0.251726 0.159528
O O1 0.333077 0.301144 0.400330
O O2 0.321896 0.618912 0.425878
O O3 0.308269 0.391110 0.263133
O O4 0.946825 0.255822 0.428441
O O5 0.579284 0.933976 0.079668
O O6 0.161313 0.709958 0.209405
O O7 0.457716 0.038496 0.278682
O O8 0.280914 0.050111 0.183929
O O9 0.737909 0.418502 0.253954
O O10 0.931824 0.677661 0.125966
O O11 0.040417 0.414467 0.066954
O O12 0.654226 0.277738 0.402204
O O13 0.342288 0.322322 0.924723
O O14 0.377964 0.643326 0.918053
O O15 0.220242 0.219821 0.101940
O O16 0.000000 0.000000 0.000000
O O17 0.500000 0.000000 0.500000
#
# Coordination Sequence:
#
# PCOD8028593 Si02
#       8
#     2   2   2   2   2   2   2   2
#     4  10  25  48  73 105 139 179 229 296 354 421
#     4  11  24  41  64  98 137 189 230 274 332 415
#     4  11  23  42  67  94 144 189 228 272 344 403
#     4  11  25  48  73 104 143 185 227 285 357 420
#     4  11  23  40  63  96 141 190 232 274 328 406
#     4  12  25  36  60  99 139 190 235 283 325 398
#     4  11  27  49  78 106 134 173 236 304 359 422
#     4  11  23  44  65  97 144 184 234 277 344 410
#
# _framework density 22.145349
#
# number of rings (size 3 to 8) (size 9 to 14) (size 15 to 20)
#    0.000    1.000    3.750    2.625    5.250    5.500 
#    0.000    0.000    0.000    0.000    0.000    0.000 
#    0.000    0.000    0.000    0.000    0.000    0.000 
#
# Total GULP energy -198279.086361 kJ/mol
# GULP energy per Si atom -12392.442898 kJ/mol
# Density = 2.209495 g / cm^3
# Si number density = 22.145349 Si / 1000 Ang^3
#
#
#
# Elastic Constant Matrix: (Units=GPa)
#
#
# Indices 1 2 3 4 5 6 
#
# 1 126.0650 49.5868 64.7504 6.3120 5.7019 13.0750
# 2 49.5868 107.4825 47.7020 10.4835 -1.4454 18.4626
# 3 64.7504 47.7020 113.8458 15.3556 4.1777 0.9620
# 4 6.3120 10.4835 15.3556 29.5098 8.0583 4.3413
# 5 5.7019 -1.4454 4.1777 8.0583 33.6137 -2.6493
# 6 13.0750 18.4626 0.9620 4.3413 -2.6493 39.4474
#
#
#
# Elastic Compliance Matrix: (Units=1/GPa)
#
#
# Indices 1 2 3 4 5 6 
#
# 1 0.012503 -0.002768 -0.006194 0.002637 -0.002350 -0.003146
# 2 -0.002768 0.013296 -0.003759 -0.001884 0.001574 -0.004901
# 3 -0.006194 -0.003759 0.014595 -0.005757 0.000782 0.004143
# 4 0.002637 -0.001884 -0.005757 0.040420 -0.009894 -0.004965
# 5 -0.002350 0.001574 0.000782 -0.009894 0.032752 0.003312
# 6 -0.003146 -0.004901 0.004143 -0.004965 0.003312 0.029354
#
#
# Mechanical properties :
#
#
# Convention : Reuss Voigt Hill
#
# Bulk Modulus (GPa) = 66.88286 74.60796 70.74541
# Shear Modulus (GPa) = 28.84394 32.87113 30.85753
#
# Velocity S-wave (km/s) = 3.61291 3.85689 3.73689
# Velocity P-wave (km/s) = 6.90445 7.32102 7.11579
#
# Compressibility (1/GPa) = 0.01495151
#
# Stress axis : x y z
#
# Youngs Moduli (GPa) = 79.97934 75.21199 68.51714
#
# Poissons Ratio (x) = 0.20815 0.42443
# Poissons Ratio (y) = 0.22135 0.25757
# Poissons Ratio (z) = 0.49543 0.28273
#
# Static dielectric constant tensor:
#      x y z
#    x 3.970250 0.382420 0.005880 
#    y 0.382420 3.789400 0.307000 
#    z 0.005880 0.307000 3.973200 
# 
# 
# High freq. dielectric constant tensor:
#      x y z
#    x 1.891330 0.014070 0.004400 
#    y 0.014070 1.867960 0.011330 
#    z 0.004400 0.011330 1.857150 
# 
# From -- ./inp_files/556379.got.cif
#   From: 2010.06.25/outbox.cif.g09.slc.cpg/sg2_279_cif.got.tgz:556379.got - 2010.06.27 13:26:56.
