data_PCOD8028581
_publ_section_title
;
Structure prediction by ZEFSAII (Michael W. Deem and Ramdas Pophale) SiO2 
 PCOD8028581
Probable space group: P -1
;
_chemical_formula_sum "Si O2"
_cell_formula_units_Z 16
_cell_length_a 17.804315
_cell_length_b 5.137224
_cell_length_c 11.343763
_cell_angle_alpha 63.566132
_cell_angle_beta 43.050017
_cell_angle_gamma 87.059849
_cell_volume 566.928439
_symmetry_space_group_name_H-M "P -1"
_symmetry_group_IT_number 2
_symmetry_cell_setting 'triclinic'
loop_
_space_group_symop_operation_xyz
x,y,z
-x,-y,-z
loop_
_atom_site_type_symbol
_atom_site_label
_atom_site_fract_x
_atom_site_fract_y
_atom_site_fract_z
Si Si1 0.589530 0.338165 0.192321
Si Si2 0.830097 0.832255 0.529403
Si Si3 0.916305 0.646486 0.114752
Si Si4 0.887592 0.772250 0.875853
Si Si5 0.808664 0.326908 0.833854
Si Si6 0.700155 0.432876 0.550315
Si Si7 0.402453 0.634199 0.566757
Si Si8 0.594392 0.787557 0.912710
O O1 0.666975 0.454508 0.205268
O O2 0.457973 0.026749 0.420486
O O3 0.662875 0.222084 0.038719
O O4 0.567293 0.642340 0.106302
O O5 0.850671 0.538415 0.624231
O O6 0.751071 0.736886 0.517702
O O7 0.741318 0.908222 0.702871
O O8 0.966515 0.099951 0.293486
O O9 0.823047 0.400880 0.370611
O O10 0.832320 0.649119 0.096712
O O11 0.000000 0.500000 0.000000
O O12 0.000000 0.000000 0.000000
O O13 0.869419 0.515719 0.846066
O O14 0.843351 0.035015 0.830208
O O15 0.657735 0.522425 0.457275
O O16 0.591804 0.128410 0.808801
O O17 0.500000 0.500000 0.500000
O O18 0.500000 0.500000 0.000000
#
# Coordination Sequence:
#
# PCOD8028581 Si02
#       8
#     2   2   2   2   2   2   2   2
#     4  10  25  48  70 111 146 206 255 323 378 468
#     4  11  27  44  74 109 149 197 255 310 388 460
#     4  12  26  48  76 112 156 201 259 318 387 462
#     4  12  25  49  75 111 154 203 253 320 383 461
#     4  11  27  45  77 109 154 199 255 312 390 455
#     4  12  27  46  77 110 150 206 252 326 387 465
#     4  11  26  46  76 107 153 194 264 316 393 460
#     4  11  25  48  73 107 150 201 259 318 385 460
#
# _framework density 28.222256000000002
#
# number of rings (size 3 to 8) (size 9 to 14) (size 15 to 20)
#    0.000    0.750    2.500    3.000   10.500    1.500 
#    0.000    0.000    0.000    0.000    0.000    0.000 
#    0.000    0.000    0.000    0.000    0.000    0.000 
#
# Total GULP energy -198220.812047 kJ/mol
# GULP energy per Si atom -12388.800753 kJ/mol
# Density = 2.815802 g / cm^3
# Si number density = 28.222256 Si / 1000 Ang^3
#
#
#
# Elastic Constant Matrix: (Units=GPa)
#
#
# Indices 1 2 3 4 5 6 
#
# 1 139.3101 4.2266 13.6322 -14.9803 32.0196 33.8681
# 2 4.2266 58.8160 -8.1776 -11.2709 3.9515 15.1035
# 3 13.6322 -8.1776 116.4017 -11.1465 39.4491 18.3715
# 4 -14.9803 -11.2709 -11.1465 35.0429 3.0127 -1.6074
# 5 32.0196 3.9515 39.4491 3.0127 37.6540 3.0227
# 6 33.8681 15.1035 18.3715 -1.6074 3.0227 50.9837
#
#
#
# Elastic Compliance Matrix: (Units=1/GPa)
#
#
# Indices 1 2 3 4 5 6 
#
# 1 0.019623 0.011258 0.014445 0.018564 -0.032958 -0.019036
# 2 0.011258 0.029331 0.015711 0.020864 -0.029221 -0.019439
# 3 0.014445 0.015711 0.028410 0.023064 -0.043843 -0.021161
# 4 0.018564 0.020864 0.023064 0.053322 -0.044599 -0.022499
# 5 -0.032958 -0.029221 -0.043843 -0.044599 0.104039 0.038775
# 6 -0.019036 -0.019439 -0.021161 -0.022499 0.038775 0.042635
#
#
# Mechanical properties :
#
#
# Convention : Reuss Voigt Hill
#
# Bulk Modulus (GPa) = 6.24252 37.09891 21.67072
# Shear Modulus (GPa) = 20.16712 45.05924 32.61318
#
# Velocity S-wave (km/s) = 2.67607 4.00006 3.40308
# Velocity P-wave (km/s) = 3.43004 5.87434 4.81004
#
# Compressibility (1/GPa) = 0.16019165
#
# Stress axis : x y z
#
# Youngs Moduli (GPa) = 50.96145 34.09397 35.19902
#
# Poissons Ratio (x) = -0.38384 -0.50844
# Poissons Ratio (y) = -0.57374 -0.55301
# Poissons Ratio (z) = -0.73613 -0.53565
#
# Static dielectric constant tensor:
#      x y z
#    x 5.997630 -0.105170 0.733250 
#    y -0.105170 4.826290 0.048200 
#    z 0.733250 0.048200 6.535380 
# 
# 
# High freq. dielectric constant tensor:
#      x y z
#    x 2.168590 0.000890 0.004230 
#    y 0.000890 2.122280 0.012650 
#    z 0.004230 0.012650 2.176910 
# 
# From -- ./inp_files/123767.got.cif
#   From: 2010.06.25/outbox.cif.g09.slc.cpg/sg2_62_cif.got.tgz:123767.got - 2010.06.27 13:26:56.
