data_PCOD8028254
_publ_section_title
;
Structure prediction by ZEFSAII (Michael W. Deem and Ramdas Pophale) SiO2 
 PCOD8028254
Probable space group: P -1
;
_chemical_formula_sum "Si O2"
_cell_formula_units_Z 12
_cell_length_a 15.190437
_cell_length_b 18.375644
_cell_length_c 8.776627
_cell_angle_alpha 42.551554
_cell_angle_beta 54.731469
_cell_angle_gamma 21.341371
_cell_volume 540.868817
_symmetry_space_group_name_H-M "P -1"
_symmetry_group_IT_number 2
_symmetry_cell_setting 'triclinic'
loop_
_space_group_symop_operation_xyz
x,y,z
-x,-y,-z
loop_
_atom_site_type_symbol
_atom_site_label
_atom_site_fract_x
_atom_site_fract_y
_atom_site_fract_z
Si Si1 0.166407 0.751549 0.290843
Si Si2 0.758919 0.640605 0.398843
Si Si3 0.265996 0.092577 0.984071
Si Si4 0.247776 0.710457 0.624754
Si Si5 0.807988 0.897252 0.279998
Si Si6 0.291291 0.439598 0.123171
O O1 0.151089 0.766492 0.466196
O O2 0.483401 0.462176 0.376455
O O3 0.023606 0.777345 0.328316
O O4 0.000000 0.000000 0.000000
O O5 0.751523 0.768031 0.274987
O O6 0.705436 0.598670 0.644579
O O7 0.048710 0.351252 0.475804
O O8 0.540122 0.820252 0.212656
O O9 0.247597 0.026484 0.961712
O O10 0.013651 0.306435 0.022484
O O11 0.337178 0.524323 0.920908
O O12 0.000000 0.000000 0.500000
O O13 0.518946 0.161333 0.241823
#
# Coordination Sequence:
#
# PCOD8028254 Si02
#       6
#     2   2   2   2   2   2
#     4  11  26  45  64  99 136 170 220 273 330 380
#     4  10  25  45  69  96 134 173 217 276 332 383
#     4  10  25  45  67 100 132 171 220 274 331 387
#     4  11  28  44  68  97 134 176 224 269 321 394
#     4  11  24  41  69  95 135 173 213 275 324 390
#     4  11  24  41  69 100 126 174 226 261 331 394
#
# _framework density 22.186527999999999
#
# number of rings (size 3 to 8) (size 9 to 14) (size 15 to 20)
#    0.000    1.333    1.667    2.000   11.667    4.667 
#    0.000    3.333    0.000    0.000    0.000    0.000 
#    0.000    0.000    0.000    0.000    0.000    0.000 
#
# Total GULP energy -148686.326749 kJ/mol
# GULP energy per Si atom -12390.527229 kJ/mol
# Density = 2.213603 g / cm^3
# Si number density = 22.186528 Si / 1000 Ang^3
#
#
#
# Elastic Constant Matrix: (Units=GPa)
#
#
# Indices 1 2 3 4 5 6 
#
# 1 109.4722 43.0852 -7.2073 0.4349 -1.6960 7.9451
# 2 43.0852 176.5827 28.6732 -28.2609 -5.0482 16.1789
# 3 -7.2073 28.6732 65.8591 -4.0032 -34.4834 26.6056
# 4 0.4349 -28.2609 -4.0032 42.7047 -5.2957 -5.0548
# 5 -1.6960 -5.0482 -34.4834 -5.2957 -21.1812 5.8778
# 6 7.9451 16.1789 26.6056 -5.0548 5.8778 26.0594
#
#
#
# Elastic Compliance Matrix: (Units=1/GPa)
#
#
# Indices 1 2 3 4 5 6 
#
# 1 0.010688 -0.003179 0.001876 -0.002800 -0.003286 -0.003002
# 2 -0.003179 0.007739 -0.002574 0.005002 0.001209 -0.000510
# 3 0.001876 -0.002574 0.010038 -0.003580 -0.016691 -0.006152
# 4 -0.002800 0.005002 -0.003580 0.027202 -0.000083 0.006698
# 5 -0.003286 0.001209 -0.016691 -0.000083 -0.014350 0.020513
# 6 -0.003002 -0.000510 -0.006152 0.006698 0.020513 0.042559
#
#
# Mechanical properties :
#
#
# Convention : Reuss Voigt Hill
#
# Bulk Modulus (GPa) = 48.28663 53.44624 50.86643
# Shear Modulus (GPa) = 50.74429 28.67411 39.70920
#
# Velocity S-wave (km/s) = 4.78762 3.59891 4.23518
# Velocity P-wave (km/s) = 7.23692 6.43517 6.84778
#
# Compressibility (1/GPa) = 0.02070967
#
# Stress axis : x y z
#
# Youngs Moduli (GPa) = 93.56596 129.22306 99.61954
#
# Poissons Ratio (x) = 0.41084 -0.18690
# Poissons Ratio (y) = 0.29748 0.25644
# Poissons Ratio (z) = -0.17554 0.33264
#
# Static dielectric constant tensor:
#      x y z
#    x 4.213260 -0.050930 -0.007250 
#    y -0.050930 4.304690 -0.296400 
#    z -0.007250 -0.296400 4.186700 
# 
# 
# High freq. dielectric constant tensor:
#      x y z
#    x 1.873410 -0.007060 0.009140 
#    y -0.007060 1.881490 -0.024720 
#    z 0.009140 -0.024720 1.882210 
# 
# From -- ./inp_files/135798.got.cif
#   From: 2010.06.25/outbox.cif.g09.slc.cpg/sg2_68_cif.got.tgz:135798.got - 2010.06.27 13:26:56.
