data_PCOD8028515
_publ_section_title
;
Structure prediction by ZEFSAII (Michael W. Deem and Ramdas Pophale) SiO2 
 PCOD8028515
Probable space group: P -1
;
_chemical_formula_sum "Si O2"
_cell_formula_units_Z 16
_cell_length_a 23.924584
_cell_length_b 8.623681
_cell_length_c 23.871203
_cell_angle_alpha 43.623947
_cell_angle_beta 12.209216
_cell_angle_gamma 44.554808
_cell_volume 718.162396
_symmetry_space_group_name_H-M "P -1"
_symmetry_group_IT_number 2
_symmetry_cell_setting 'triclinic'
loop_
_space_group_symop_operation_xyz
x,y,z
-x,-y,-z
loop_
_atom_site_type_symbol
_atom_site_label
_atom_site_fract_x
_atom_site_fract_y
_atom_site_fract_z
Si Si1 0.598365 0.614510 0.316509
Si Si2 0.651547 0.057634 0.609480
Si Si3 0.178493 0.159082 0.128469
Si Si4 0.117832 0.052720 0.992756
Si Si5 0.239063 0.913867 0.249752
Si Si6 0.589185 0.141059 0.427094
Si Si7 0.632661 0.555621 0.717013
Si Si8 0.111647 0.563011 0.165119
O O1 0.500000 0.500000 0.500000
O O2 0.391164 0.795276 0.443958
O O3 0.646294 0.398629 0.285159
O O4 0.875541 0.746356 0.019518
O O5 0.948791 0.084680 0.331762
O O6 0.615345 0.793857 0.702836
O O7 0.450627 0.145038 0.831316
O O8 0.117397 0.414299 0.142062
O O9 0.198741 0.997960 0.204293
O O10 0.852908 0.030699 0.223641
O O11 0.192326 0.815214 0.008256
O O12 0.360454 0.129398 0.698628
O O13 0.251336 0.641618 0.304729
O O14 0.000000 0.000000 0.500000
O O15 0.500000 0.000000 0.000000
O O16 0.500000 0.000000 0.500000
O O17 0.821088 0.562910 0.476196
O O18 0.342132 0.475382 0.004337
#
# Coordination Sequence:
#
# PCOD8028515 Si02
#       8
#     2   2   2   2   2   2   2   2
#     4  10  25  47  70  96 139 191 235 286 351 430
#     4  12  28  45  70 108 146 179 238 298 362 403
#     4  12  27  44  71 108 144 184 226 305 357 404
#     4  11  24  43  68  94 132 181 235 275 345 424
#     4  12  23  46  74 105 141 187 239 280 346 428
#     4  11  25  42  65 100 132 174 227 295 355 404
#     4  12  24  46  74 102 139 192 238 280 338 435
#     4  12  24  43  74 101 136 188 240 280 339 428
#
# _framework density 22.279081000000001
#
# number of rings (size 3 to 8) (size 9 to 14) (size 15 to 20)
#    0.000    0.500    3.750    3.750    5.250    3.000 
#    0.000    0.000    0.000    0.000    0.000    0.000 
#    0.000    0.000    0.000    0.000    0.000    0.000 
#
# Total GULP energy -198354.074675 kJ/mol
# GULP energy per Si atom -12397.129667 kJ/mol
# Density = 2.222837 g / cm^3
# Si number density = 22.279081 Si / 1000 Ang^3
#
#
#
# Elastic Constant Matrix: (Units=GPa)
#
#
# Indices 1 2 3 4 5 6 
#
# 1 108.7149 54.4958 31.0985 -9.0476 -18.9253 -9.5448
# 2 54.4958 160.9142 17.2106 -12.1196 0.8308 -0.7017
# 3 31.0985 17.2106 104.2055 8.9057 -9.3444 1.8322
# 4 -9.0476 -12.1196 8.9057 31.5185 3.1775 -1.4171
# 5 -18.9253 0.8308 -9.3444 3.1775 45.8657 -2.4786
# 6 -9.5448 -0.7017 1.8322 -1.4171 -2.4786 52.9849
#
#
#
# Elastic Compliance Matrix: (Units=1/GPa)
#
#
# Indices 1 2 3 4 5 6 
#
# 1 0.013471 -0.004017 -0.003208 0.002857 0.004931 0.002791
# 2 -0.004017 0.007792 -0.000446 0.002149 -0.002073 -0.000645
# 3 -0.003208 -0.000446 0.011130 -0.004405 0.001201 -0.001030
# 4 0.002857 0.002149 -0.004405 0.034898 -0.002092 0.001531
# 5 0.004931 -0.002073 0.001201 -0.002092 0.024367 0.001903
# 6 0.002791 -0.000645 -0.001030 0.001531 0.001903 0.019533
#
#
# Mechanical properties :
#
#
# Convention : Reuss Voigt Hill
#
# Bulk Modulus (GPa) = 58.64989 64.38275 61.51632
# Shear Modulus (GPa) = 37.81627 44.14245 40.97936
#
# Velocity S-wave (km/s) = 4.12441 4.45605 4.29343
# Velocity P-wave (km/s) = 7.00451 7.44555 7.22840
#
# Compressibility (1/GPa) = 0.01705033
#
# Stress axis : x y z
#
# Youngs Moduli (GPa) = 74.23466 128.32904 89.84909
#
# Poissons Ratio (x) = 0.51551 0.28822
# Poissons Ratio (y) = 0.29821 0.04011
# Poissons Ratio (z) = 0.23813 0.05729
#
# Static dielectric constant tensor:
#      x y z
#    x 4.774070 0.750810 -0.119670 
#    y 0.750810 5.521990 -0.139480 
#    z -0.119670 -0.139480 4.030280 
# 
# 
# High freq. dielectric constant tensor:
#      x y z
#    x 1.868700 0.001010 -0.011720 
#    y 0.001010 1.905470 -0.007130 
#    z -0.011720 -0.007130 1.887020 
# 
# From -- ./inp_files/621134.got.cif
#   From: 2010.06.25/outbox.cif.g09.slc.cpg/sg2_311_cif.got.tgz:621134.got - 2010.06.27 13:26:56.
