data_PCOD8028861
_publ_section_title
;
Structure prediction by ZEFSAII (Michael W. Deem and Ramdas Pophale) SiO2 
 PCOD8028861
Probable space group: P -1
;
_chemical_formula_sum "Si O2"
_cell_formula_units_Z 16
_cell_length_a 22.483515
_cell_length_b 16.411761
_cell_length_c 12.102294
_cell_angle_alpha 156.147104
_cell_angle_beta 154.134995
_cell_angle_gamma 22.006009
_cell_volume 635.786123
_symmetry_space_group_name_H-M "P -1"
_symmetry_group_IT_number 2
_symmetry_cell_setting 'triclinic'
loop_
_space_group_symop_operation_xyz
x,y,z
-x,-y,-z
loop_
_atom_site_type_symbol
_atom_site_label
_atom_site_fract_x
_atom_site_fract_y
_atom_site_fract_z
Si Si1 0.744473 0.970339 0.383596
Si Si2 0.361563 0.015655 0.022156
Si Si3 0.999739 0.764569 0.222851
Si Si4 0.882907 0.224194 0.204164
Si Si5 0.066167 0.668111 0.805235
Si Si6 0.485377 0.509630 0.677041
Si Si7 0.695901 0.504731 0.448160
Si Si8 0.769215 0.522739 0.935336
O O1 0.658955 0.994488 0.154679
O O2 0.663838 0.238367 0.638691
O O3 0.942301 0.837848 0.533788
O O4 0.705501 0.809419 0.196785
O O5 0.501690 0.730498 0.943185
O O6 0.188679 0.137775 0.950031
O O7 0.419258 0.192096 0.367737
O O8 0.124414 0.591958 0.316360
O O9 0.061483 0.608634 0.018888
O O10 0.000000 0.000000 0.500000
O O11 0.832382 0.386163 0.207589
O O12 0.730054 0.389067 0.239526
O O13 0.907488 0.962455 0.900687
O O14 0.000000 0.500000 0.500000
O O15 0.188298 0.613030 0.043934
O O16 0.402761 0.573805 0.740653
O O17 0.363313 0.508843 0.383132
#
# Coordination Sequence:
#
# PCOD8028861 Si02
#       8
#     2   2   2   2   2   2   2   2
#     4  12  22  40  62  95 135 165 202 252 314 387
#     4  12  21  34  58  91 128 167 201 242 318 379
#     4  11  18  33  57  88 122 157 191 255 317 357
#     4  11  24  42  66  96 124 157 219 268 301 363
#     4  11  24  41  65  96 119 166 212 270 312 351
#     4  11  25  39  60  97 135 170 193 248 325 382
#     4  11  22  38  61  92 127 161 207 259 310 371
#     4  11  21  38  62  88 130 164 203 254 311 369
#
# _framework density 25.165693999999998
#
# number of rings (size 3 to 8) (size 9 to 14) (size 15 to 20)
#    0.000    0.750    7.500    3.375    0.000    0.000 
#    0.000    0.000    0.000    3.750    3.250    0.000 
#    0.000    0.000    0.000    0.000    0.000    0.000 
#
# Total GULP energy -198438.085394 kJ/mol
# GULP energy per Si atom -12402.380337 kJ/mol
# Density = 2.510842 g / cm^3
# Si number density = 25.165694 Si / 1000 Ang^3
#
#
#
# Elastic Constant Matrix: (Units=GPa)
#
#
# Indices 1 2 3 4 5 6 
#
# 1 130.4146 41.4870 23.4307 9.3895 -26.8136 37.8748
# 2 41.4870 76.6541 13.2353 32.5100 -5.1271 18.3540
# 3 23.4307 13.2353 89.1965 37.4824 5.5121 23.8214
# 4 9.3895 32.5100 37.4824 41.0829 4.6131 9.7872
# 5 -26.8136 -5.1271 5.5121 4.6131 43.1710 12.5247
# 6 37.8748 18.3540 23.8214 9.7872 12.5247 39.0547
#
#
#
# Elastic Compliance Matrix: (Units=1/GPa)
#
#
# Indices 1 2 3 4 5 6 
#
# 1 0.019404 -0.005881 -0.001470 0.004836 0.017392 -0.021947
# 2 -0.005881 0.030846 0.013436 -0.033446 0.004814 -0.010150
# 3 -0.001470 0.013436 0.026461 -0.031486 0.004940 -0.014722
# 4 0.004836 -0.033446 -0.031486 0.076099 -0.009172 0.014104
# 5 0.017392 0.004814 0.004940 -0.009172 0.044813 -0.034214
# 6 -0.021947 -0.010150 -0.014722 0.014104 -0.034214 0.068077
#
#
# Mechanical properties :
#
#
# Convention : Reuss Voigt Hill
#
# Bulk Modulus (GPa) = 11.25102 50.28566 30.76834
# Shear Modulus (GPa) = 17.65808 39.20255 28.43031
#
# Velocity S-wave (km/s) = 2.65178 3.95115 3.36478
# Velocity P-wave (km/s) = 3.72242 6.39067 5.22958
#
# Compressibility (1/GPa) = 0.08888081
#
# Stress axis : x y z
#
# Youngs Moduli (GPa) = 51.53560 32.41933 37.79089
#
# Poissons Ratio (x) = 0.19065 0.05556
# Poissons Ratio (y) = 0.30307 -0.50775
# Poissons Ratio (z) = 0.07577 -0.43558
#
# Static dielectric constant tensor:
#      x y z
#    x 4.758160 0.050280 -0.013010 
#    y 0.050280 4.657260 0.500780 
#    z -0.013010 0.500780 4.490980 
# 
# 
# High freq. dielectric constant tensor:
#      x y z
#    x 2.017490 0.005170 0.009720 
#    y 0.005170 1.986710 0.031120 
#    z 0.009720 0.031120 1.992720 
# 
# From -- ./inp_files/471804.got.cif
#   From: 2010.06.25/outbox.cif.g09.slc.cpg/sg2_236_cif.got.tgz:471804.got - 2010.06.27 13:26:56.
