data_PCOD8028015
_publ_section_title
;
Structure prediction by ZEFSAII (Michael W. Deem and Ramdas Pophale) SiO2 
 PCOD8028015
Probable space group: P -1
;
_chemical_formula_sum "Si O2"
_cell_formula_units_Z 16
_cell_length_a 8.696079
_cell_length_b 17.712205
_cell_length_c 5.244385
_cell_angle_alpha 105.777896
_cell_angle_beta 116.611761
_cell_angle_gamma 65.186736
_cell_volume 652.013405
_symmetry_space_group_name_H-M "P -1"
_symmetry_group_IT_number 2
_symmetry_cell_setting 'triclinic'
loop_
_space_group_symop_operation_xyz
x,y,z
-x,-y,-z
loop_
_atom_site_type_symbol
_atom_site_label
_atom_site_fract_x
_atom_site_fract_y
_atom_site_fract_z
Si Si1 0.262323 0.255905 0.837642
Si Si2 0.182701 0.842650 0.226054
Si Si3 0.834795 0.634811 0.638999
Si Si4 0.487764 0.430914 0.241832
Si Si5 0.428248 0.948296 0.593933
Si Si6 0.352469 0.758311 0.788718
Si Si7 0.223430 0.105375 0.897853
Si Si8 0.234899 0.511498 0.737049
O O1 0.167054 0.323668 0.050102
O O2 0.478331 0.210002 0.009212
O O3 0.239937 0.295681 0.574879
O O4 0.179106 0.180760 0.724651
O O5 0.300349 0.903243 0.323486
O O6 0.227897 0.803771 0.503965
O O7 0.963444 0.888750 0.088259
O O8 0.233420 0.773922 0.974164
O O9 0.731046 0.565677 0.516566
O O10 0.034518 0.578071 0.645113
O O11 0.500000 0.500000 0.500000
O O12 0.552769 0.337886 0.312351
O O13 0.636453 0.432896 0.139431
O O14 0.285108 0.458964 0.991866
O O15 0.500000 0.000000 0.500000
O O16 0.298086 0.011839 0.758946
O O17 0.616402 0.883060 0.792234
#
# Coordination Sequence:
#
# PCOD8028015 Si02
#       8
#     2   2   2   2   2   2   2   2
#     4  12  25  46  72 103 148 187 244 296 376 423
#     4  12  29  49  77 112 151 191 249 297 366 440
#     4  11  26  43  71 101 138 191 242 308 355 438
#     4  11  25  42  69  95 146 194 243 305 367 425
#     4  11  26  51  80 108 153 191 241 298 370 439
#     4  12  27  48  73 106 149 197 244 304 367 437
#     4  11  28  46  77 114 145 197 240 300 366 443
#     4  10  25  42  64 100 136 187 250 297 369 421
#
# _framework density 24.539370999999999
#
# number of rings (size 3 to 8) (size 9 to 14) (size 15 to 20)
#    0.000    0.750    2.500    2.625   14.000    1.500 
#    0.000    0.000    0.000    0.000    0.000    0.000 
#    0.000    0.000    0.000    0.000    0.000    0.000 
#
# Total GULP energy -198280.103681 kJ/mol
# GULP energy per Si atom -12392.506480 kJ/mol
# Density = 2.448352 g / cm^3
# Si number density = 24.539371 Si / 1000 Ang^3
#
#
#
# Elastic Constant Matrix: (Units=GPa)
#
#
# Indices 1 2 3 4 5 6 
#
# 1 86.3964 30.4749 24.7788 -4.5607 12.0996 -6.9807
# 2 30.4749 93.0234 34.9771 -4.4638 8.4335 -5.7312
# 3 24.7788 34.9771 76.7798 2.1570 -5.7474 -10.9834
# 4 -4.5607 -4.4638 2.1570 31.8863 -0.5283 -4.5754
# 5 12.0996 8.4335 -5.7474 -0.5283 40.8125 3.0999
# 6 -6.9807 -5.7312 -10.9834 -4.5754 3.0999 51.4865
#
#
#
# Elastic Compliance Matrix: (Units=1/GPa)
#
#
# Indices 1 2 3 4 5 6 
#
# 1 0.014396 -0.002817 -0.003550 0.002023 -0.004260 0.001317
# 2 -0.002817 0.014235 -0.005805 0.001979 -0.002922 0.000316
# 3 -0.003550 -0.005805 0.017520 -0.002122 0.004529 0.002149
# 4 0.002023 0.001979 -0.002122 0.032483 -0.001115 0.002996
# 5 -0.004260 -0.002922 0.004529 -0.001115 0.027119 -0.001669
# 6 0.001317 0.000316 0.002149 0.002996 -0.001669 0.020461
#
#
# Mechanical properties :
#
#
# Convention : Reuss Voigt Hill
#
# Bulk Modulus (GPa) = 45.85503 48.51792 47.18648
# Shear Modulus (GPa) = 31.68022 35.90164 33.79093
#
# Velocity S-wave (km/s) = 3.59694 3.82910 3.71483
# Velocity P-wave (km/s) = 5.99813 6.27405 6.13764
#
# Compressibility (1/GPa) = 0.02180786
#
# Stress axis : x y z
#
# Youngs Moduli (GPa) = 69.46297 70.25033 57.07684
#
# Poissons Ratio (x) = 0.19790 0.20262
# Poissons Ratio (y) = 0.19568 0.33131
# Poissons Ratio (z) = 0.24659 0.40778
#
# Static dielectric constant tensor:
#      x y z
#    x 5.328340 0.259320 0.119970 
#    y 0.259320 4.646660 0.074310 
#    z 0.119970 0.074310 4.474010 
# 
# 
# High freq. dielectric constant tensor:
#      x y z
#    x 1.988060 -0.000580 0.000990 
#    y -0.000580 1.983680 0.002460 
#    z 0.000990 0.002460 1.970210 
# 
# From -- ./inp_files/48741.got.cif
#   From: 2010.06.25/outbox.cif.g09.slc.cpg/sg2_25_cif.got.tgz:48741.got - 2010.06.27 13:26:56.
