data_PCOD8028859
_publ_section_title
;
Structure prediction by ZEFSAII (Michael W. Deem and Ramdas Pophale) SiO2 
 PCOD8028859
Probable space group: P -1
;
_chemical_formula_sum "Si O2"
_cell_formula_units_Z 16
_cell_length_a 23.316191
_cell_length_b 15.044135
_cell_length_c 11.090633
_cell_angle_alpha 46.289794
_cell_angle_beta 28.185781
_cell_angle_gamma 28.586336
_cell_volume 817.834355
_symmetry_space_group_name_H-M "P -1"
_symmetry_group_IT_number 2
_symmetry_cell_setting 'triclinic'
loop_
_space_group_symop_operation_xyz
x,y,z
-x,-y,-z
loop_
_atom_site_type_symbol
_atom_site_label
_atom_site_fract_x
_atom_site_fract_y
_atom_site_fract_z
Si Si1 0.807485 0.567057 0.774339
Si Si2 0.574832 0.011482 0.021476
Si Si3 0.559367 0.841635 0.620206
Si Si4 0.014472 0.254861 0.486416
Si Si5 0.451840 0.384152 0.312479
Si Si6 0.675718 0.647561 0.197293
Si Si7 0.166921 0.787519 0.323482
Si Si8 0.013542 0.487327 0.846388
O O1 0.622746 0.798688 0.862328
O O2 0.000000 0.500000 0.500000
O O3 0.852445 0.425775 0.725108
O O4 0.737627 0.551368 0.039710
O O5 0.583174 0.063653 0.091763
O O6 0.579154 0.859537 0.163658
O O7 0.767294 0.926468 0.684401
O O8 0.584641 0.702596 0.623215
O O9 0.766467 0.711958 0.420344
O O10 0.500000 0.000000 0.500000
O O11 0.062121 0.322424 0.238674
O O12 0.935477 0.201991 0.608125
O O13 0.452309 0.345761 0.490516
O O14 0.276946 0.617713 0.380606
O O15 0.669524 0.259527 0.999570
O O16 0.878682 0.487235 0.046161
O O17 0.000000 0.000000 0.500000
O O18 0.000000 0.500000 0.000000
#
# Coordination Sequence:
#
# PCOD8028859 Si02
#       8
#     2   2   2   2   2   2   2   2
#     4  12  22  40  61  93 130 170 199 252 316 378
#     4  11  21  35  60  92 128 160 204 244 317 385
#     4  12  19  33  59  95 128 159 193 261 330 384
#     4  11  22  39  60  85 121 166 209 252 310 368
#     4  11  23  41  62  93 129 161 211 263 315 373
#     4  11  22  37  58  93 127 162 202 258 307 377
#     4  11  24  44  66  88 124 170 216 260 313 374
#     4  11  18  33  56  88 130 154 193 249 321 377
#
# _framework density 19.563863000000001
#
# number of rings (size 3 to 8) (size 9 to 14) (size 15 to 20)
#    0.000    0.750    7.500    1.875    0.000    2.000 
#    2.250    0.625    0.000    1.500    0.000    0.000 
#    0.000    0.000    0.000    0.000    0.000    0.000 
#
# Total GULP energy -198239.635168 kJ/mol
# GULP energy per Si atom -12389.977198 kJ/mol
# Density = 1.951933 g / cm^3
# Si number density = 19.563863 Si / 1000 Ang^3
#
#
#
# Elastic Constant Matrix: (Units=GPa)
#
#
# Indices 1 2 3 4 5 6 
#
# 1 101.8650 42.2886 51.7625 2.9928 17.6778 -0.7473
# 2 42.2886 93.2262 59.7202 16.5834 -0.8846 1.1087
# 3 51.7625 59.7202 129.6053 6.2235 6.9441 -6.2864
# 4 2.9928 16.5834 6.2235 32.9473 -8.5512 1.1396
# 5 17.6778 -0.8846 6.9441 -8.5512 48.1239 6.9424
# 6 -0.7473 1.1087 -6.2864 1.1396 6.9424 29.0496
#
#
#
# Elastic Compliance Matrix: (Units=1/GPa)
#
#
# Indices 1 2 3 4 5 6 
#
# 1 0.014194 -0.004399 -0.003344 0.000249 -0.004908 0.000973
# 2 -0.004399 0.018168 -0.006508 -0.006910 0.002011 -0.002424
# 3 -0.003344 -0.006508 0.012199 0.000934 -0.000916 0.002985
# 4 0.000249 -0.006910 0.000934 0.035343 0.006275 -0.002414
# 5 -0.004908 0.002011 -0.000916 0.006275 0.024816 -0.006578
# 6 0.000973 -0.002424 0.002985 -0.002414 -0.006578 0.036854
#
#
# Mechanical properties :
#
#
# Convention : Reuss Voigt Hill
#
# Bulk Modulus (GPa) = 62.26904 70.24878 66.25891
# Shear Modulus (GPa) = 28.50159 33.41915 30.96037
#
# Velocity S-wave (km/s) = 3.82101 4.13753 3.98242
# Velocity P-wave (km/s) = 7.16690 7.66883 7.42211
#
# Compressibility (1/GPa) = 0.01605934
#
# Stress axis : x y z
#
# Youngs Moduli (GPa) = 70.45322 55.04085 81.97351
#
# Poissons Ratio (x) = 0.24213 0.27409
# Poissons Ratio (y) = 0.30992 0.53351
# Poissons Ratio (z) = 0.23557 0.35822
#
# Static dielectric constant tensor:
#      x y z
#    x 4.044800 -0.036600 1.413710 
#    y -0.036600 3.680150 1.350420 
#    z 1.413710 1.350420 10.353400 
# 
# 
# High freq. dielectric constant tensor:
#      x y z
#    x 1.762400 -0.012520 0.008440 
#    y -0.012520 1.744680 0.029580 
#    z 0.008440 0.029580 1.770620 
# 
# From -- ./inp_files/475053.got.cif
#   From: 2010.06.25/outbox.cif.g09.slc.cpg/sg2_238_cif.got.tgz:475053.got - 2010.06.27 13:26:56.
