data_PCOD8028400
_publ_section_title
;
Structure prediction by ZEFSAII (Michael W. Deem and Ramdas Pophale) SiO2 
 PCOD8028400
Probable space group: P -1
;
_chemical_formula_sum "Si O2"
_cell_formula_units_Z 16
_cell_length_a 21.168900
_cell_length_b 9.158141
_cell_length_c 11.868797
_cell_angle_alpha 129.716788
_cell_angle_beta 30.275250
_cell_angle_gamma 142.019868
_cell_volume 707.393713
_symmetry_space_group_name_H-M "P -1"
_symmetry_group_IT_number 2
_symmetry_cell_setting 'triclinic'
loop_
_space_group_symop_operation_xyz
x,y,z
-x,-y,-z
loop_
_atom_site_type_symbol
_atom_site_label
_atom_site_fract_x
_atom_site_fract_y
_atom_site_fract_z
Si Si1 0.771268 0.240189 0.968518
Si Si2 0.562595 0.501408 0.661482
Si Si3 0.326943 0.584351 0.331907
Si Si4 0.845058 0.898135 0.761412
Si Si5 0.653881 0.518625 0.302120
Si Si6 0.565058 0.922532 0.954622
Si Si7 0.061771 0.611696 0.835818
Si Si8 0.219726 0.143902 0.916827
O O1 0.924361 0.504069 0.899589
O O2 0.779476 0.054163 0.937218
O O3 0.630098 0.266694 0.213621
O O4 0.741652 0.144583 0.836945
O O5 0.593299 0.389615 0.660666
O O6 0.697469 0.607353 0.408762
O O7 0.397599 0.281357 0.754791
O O8 0.568831 0.721426 0.797572
O O9 0.293623 0.364128 0.201098
O O10 0.448821 0.825092 0.193403
O O11 0.166076 0.542129 0.587157
O O12 0.882085 0.887755 0.831251
O O13 0.000000 0.000000 0.500000
O O14 0.500000 0.500000 0.500000
O O15 0.787072 0.702272 0.095218
O O16 0.500000 0.000000 0.000000
O O17 0.157984 0.894237 0.833058
O O18 0.000000 0.500000 0.000000
#
# Coordination Sequence:
#
# PCOD8028400 Si02
#       8
#     2   2   2   2   2   2   2   2
#     4  12  25  46  72 103 143 184 237 292 352 418
#     4  11  23  43  71 105 136 185 238 292 357 414
#     4  12  25  43  74 105 139 189 240 288 363 414
#     4  12  23  46  71 105 144 187 234 294 346 427
#     4  10  25  46  68 104 142 183 230 294 357 418
#     4  12  26  44  71 104 141 181 242 303 347 420
#     4  12  26  44  69 107 143 187 239 289 347 430
#     4  11  24  45  70 100 149 186 234 293 351 422
#
# _framework density 22.618238999999999
#
# number of rings (size 3 to 8) (size 9 to 14) (size 15 to 20)
#    0.000    0.500    5.000    3.375    5.250    1.000 
#    0.000    2.500    0.000    0.000    0.000    0.000 
#    0.000    0.000    0.000    0.000    0.000    0.000 
#
# Total GULP energy -198210.478248 kJ/mol
# GULP energy per Si atom -12388.154890 kJ/mol
# Density = 2.256676 g / cm^3
# Si number density = 22.618239 Si / 1000 Ang^3
#
#
#
# Elastic Constant Matrix: (Units=GPa)
#
#
# Indices 1 2 3 4 5 6 
#
# 1 170.3243 77.5882 50.4130 -7.1341 24.6206 -3.5201
# 2 77.5882 132.5478 52.7103 14.7888 6.7874 22.9839
# 3 50.4130 52.7103 104.7351 15.0766 20.2427 -23.5730
# 4 -7.1341 14.7888 15.0766 22.7308 -6.5053 -0.6942
# 5 24.6206 6.7874 20.2427 -6.5053 41.6398 -7.0414
# 6 -3.5201 22.9839 -23.5730 -0.6942 -7.0414 52.9695
#
#
#
# Elastic Compliance Matrix: (Units=1/GPa)
#
#
# Indices 1 2 3 4 5 6 
#
# 1 0.009988 -0.006318 -0.001740 0.007785 -0.002405 0.002413
# 2 -0.006318 0.016626 -0.006750 -0.008297 0.001221 -0.010584
# 3 -0.001740 -0.006750 0.018912 -0.010382 -0.006967 0.010167
# 4 0.007785 -0.008297 -0.010382 0.062162 0.011826 0.001884
# 5 -0.002405 0.001221 -0.006967 0.011826 0.030545 0.000425
# 6 0.002413 -0.010584 0.010167 0.001884 0.000425 0.028238
#
#
# Mechanical properties :
#
#
# Convention : Reuss Voigt Hill
#
# Bulk Modulus (GPa) = 62.85994 85.44781 74.15388
# Shear Modulus (GPa) = 24.82720 38.59442 31.71081
#
# Velocity S-wave (km/s) = 3.31669 4.13527 3.74839
# Velocity P-wave (km/s) = 6.52068 7.78851 7.18262
#
# Compressibility (1/GPa) = 0.01590838
#
# Stress axis : x y z
#
# Youngs Moduli (GPa) = 100.11760 60.14767 52.87592
#
# Poissons Ratio (x) = 0.38004 0.09203
# Poissons Ratio (y) = 0.63259 0.35691
# Poissons Ratio (z) = 0.17425 0.40599
#
# Static dielectric constant tensor:
#      x y z
#    x 4.561700 0.126460 0.510970 
#    y 0.126460 4.289990 -0.009330 
#    z 0.510970 -0.009330 4.277000 
# 
# 
# High freq. dielectric constant tensor:
#      x y z
#    x 1.905490 0.006600 0.011720 
#    y 0.006600 1.900580 0.019850 
#    z 0.011720 0.019850 1.880940 
# 
# From -- ./inp_files/470121.got.cif
#   From: 2010.06.25/outbox.cif.g09.slc.cpg/sg2_236_cif.got.tgz:470121.got - 2010.06.27 13:26:56.
