data_PCOD8028250
_publ_section_title
;
Structure prediction by ZEFSAII (Michael W. Deem and Ramdas Pophale) SiO2 
 PCOD8028250
Probable space group: P -1
;
_chemical_formula_sum "Si O2"
_cell_formula_units_Z 16
_cell_length_a 9.213389
_cell_length_b 16.977412
_cell_length_c 12.122203
_cell_angle_alpha 130.368676
_cell_angle_beta 101.551190
_cell_angle_gamma 39.772374
_cell_volume 731.970564
_symmetry_space_group_name_H-M "P -1"
_symmetry_group_IT_number 2
_symmetry_cell_setting 'triclinic'
loop_
_space_group_symop_operation_xyz
x,y,z
-x,-y,-z
loop_
_atom_site_type_symbol
_atom_site_label
_atom_site_fract_x
_atom_site_fract_y
_atom_site_fract_z
Si Si1 0.560129 0.459628 0.101509
Si Si2 0.751443 0.759906 0.429464
Si Si3 0.120186 0.874474 0.511958
Si Si4 0.575620 0.092776 0.699271
Si Si5 0.378284 0.360751 0.081422
Si Si6 0.033266 0.275505 0.139671
Si Si7 0.511685 0.148027 0.102884
Si Si8 0.382865 0.314253 0.470593
O O1 0.311195 0.664291 0.315226
O O2 0.565890 0.338688 0.034547
O O3 0.863634 0.333326 0.059516
O O4 0.500000 0.500000 0.000000
O O5 0.544742 0.829414 0.372266
O O6 0.768880 0.677429 0.464152
O O7 0.062234 0.589527 0.268749
O O8 0.623090 0.947121 0.613985
O O9 0.297729 0.851253 0.589468
O O10 0.000000 0.000000 0.500000
O O11 0.870276 0.980464 0.647340
O O12 0.356103 0.278205 0.918048
O O13 0.541626 0.225655 0.094235
O O14 0.812459 0.465654 0.360798
O O15 0.278380 0.206938 0.071747
O O16 0.181100 0.091840 0.059743
O O17 0.396561 0.257037 0.300944
#
# Coordination Sequence:
#
# PCOD8028250 Si02
#       8
#     2   2   2   2   2   2   2   2
#     4  11  26  45  72 102 143 178 228 291 346 409
#     4  11  24  43  67 102 137 180 233 282 350 397
#     4  11  22  44  67 104 133 179 228 278 351 404
#     4  11  25  42  65 101 143 179 225 290 340 416
#     4  12  26  44  68 103 139 182 227 283 344 406
#     4  10  25  45  66 104 134 182 233 278 335 408
#     4  11  26  45  71  98 139 189 233 275 340 409
#     4  11  24  43  74  95 138 180 231 288 332 409
#
# _framework density 21.858803000000002
#
# number of rings (size 3 to 8) (size 9 to 14) (size 15 to 20)
#    0.000    1.000    3.750    1.500    8.750    1.500 
#    0.000    1.250    0.000    0.000    0.000    0.000 
#    0.000    0.000    0.000    0.000    0.000    0.000 
#
# Total GULP energy -198482.521815 kJ/mol
# GULP energy per Si atom -12405.157613 kJ/mol
# Density = 2.180905 g / cm^3
# Si number density = 21.858803 Si / 1000 Ang^3
#
#
#
# Elastic Constant Matrix: (Units=GPa)
#
#
# Indices 1 2 3 4 5 6 
#
# 1 102.9248 68.2777 43.4398 -14.3841 3.0517 0.4968
# 2 68.2777 128.9201 48.0822 3.1289 4.5697 0.2639
# 3 43.4398 48.0822 96.3058 -9.2130 20.6315 11.3719
# 4 -14.3841 3.1289 -9.2130 33.4987 3.1990 0.4727
# 5 3.0517 4.5697 20.6315 3.1990 33.2148 2.8449
# 6 0.4968 0.2639 11.3719 0.4727 2.8449 41.0292
#
#
#
# Elastic Compliance Matrix: (Units=1/GPa)
#
#
# Indices 1 2 3 4 5 6 
#
# 1 0.017635 -0.008292 -0.003371 0.007329 0.000855 0.000630
# 2 -0.008292 0.013847 -0.004350 -0.006263 0.002064 0.001146
# 3 -0.003371 -0.004350 0.017102 0.004657 -0.009817 -0.004044
# 4 0.007329 -0.006263 0.004657 0.035457 -0.006005 -0.001331
# 5 0.000855 0.002064 -0.009817 -0.006005 0.036400 0.000243
# 6 0.000630 0.001146 -0.004044 -0.001331 0.000243 0.025477
#
#
# Mechanical properties :
#
#
# Convention : Reuss Voigt Hill
#
# Bulk Modulus (GPa) = 60.39165 71.97226 66.18195
# Shear Modulus (GPa) = 27.25332 32.77193 30.01263
#
# Velocity S-wave (km/s) = 3.53482 3.87622 3.70945
# Velocity P-wave (km/s) = 6.65943 7.28223 6.97778
#
# Compressibility (1/GPa) = 0.01655858
#
# Stress axis : x y z
#
# Youngs Moduli (GPa) = 56.70471 72.21707 58.47301
#
# Poissons Ratio (x) = 0.59883 0.19711
# Poissons Ratio (y) = 0.47020 0.25435
# Poissons Ratio (z) = 0.19115 0.31413
#
# Static dielectric constant tensor:
#      x y z
#    x 3.945030 -0.059780 0.255500 
#    y -0.059780 3.977740 0.198350 
#    z 0.255500 0.198350 3.948240 
# 
# 
# High freq. dielectric constant tensor:
#      x y z
#    x 1.857960 -0.002960 0.015220 
#    y -0.002960 1.861810 0.013360 
#    z 0.015220 0.013360 1.864930 
# 
# From -- ./inp_files/280059.got.cif
#   From: 2010.06.25/outbox.cif.g09.slc.cpg/sg2_141_cif.got.tgz:280059.got - 2010.06.27 13:26:56.
