data_PCOD8028997
_publ_section_title
;
Structure prediction by ZEFSAII (Michael W. Deem and Ramdas Pophale) SiO2 
 PCOD8028997
Probable space group: P -1
;
_chemical_formula_sum "Si O2"
_cell_formula_units_Z 14
_cell_length_a 18.920790
_cell_length_b 10.153055
_cell_length_c 9.188467
_cell_angle_alpha 64.629128
_cell_angle_beta 79.528260
_cell_angle_gamma 134.357152
_cell_volume 760.657954
_symmetry_space_group_name_H-M "P -1"
_symmetry_group_IT_number 2
_symmetry_cell_setting 'triclinic'
loop_
_space_group_symop_operation_xyz
x,y,z
-x,-y,-z
loop_
_atom_site_type_symbol
_atom_site_label
_atom_site_fract_x
_atom_site_fract_y
_atom_site_fract_z
Si Si1 0.088927 0.262844 0.446896
Si Si2 0.599584 0.288747 0.912924
Si Si3 0.095375 0.071720 0.039428
Si Si4 0.349958 0.707161 0.779055
Si Si5 0.734498 0.878953 0.186224
Si Si6 0.763835 0.247399 0.033551
Si Si7 0.497191 0.341504 0.740486
O O1 0.238836 0.444401 0.345136
O O2 0.122291 0.475402 0.252965
O O3 0.000000 0.000000 0.500000
O O4 0.998980 0.136626 0.685621
O O5 0.541688 0.351843 0.874749
O O6 0.608237 0.285694 0.083821
O O7 0.500000 0.000000 0.000000
O O8 0.249233 0.420804 0.858477
O O9 0.136553 0.992188 0.986161
O O10 0.000000 0.000000 0.000000
O O11 0.252953 0.683633 0.847591
O O12 0.500000 0.000000 0.500000
O O13 0.649816 0.647387 0.456632
O O14 0.611065 0.707654 0.189749
O O15 0.812463 0.166012 0.084047
O O16 0.596108 0.949529 0.171558
#
# Coordination Sequence:
#
# PCOD8028997 Si02
#       7
#     2   2   2   2   2   2   2
#     4  11  21  38  60  89 128 157 199 249 305 363
#     4  11  19  37  66  93 112 166 208 244 301 368
#     4  12  25  39  61  91 121 164 204 253 308 362
#     4  11  23  37  63  93 124 151 210 260 292 356
#     4   9  20  38  62  90 122 159 204 253 306 354
#     4   9  18  38  61  83 119 161 194 239 308 350
#     4   9  17  35  66  86 116 157 205 243 303 356
#
# _framework density 18.405118999999999
#
# number of rings (size 3 to 8) (size 9 to 14) (size 15 to 20)
#    0.857    0.857    5.714    1.714    2.000    0.571 
#    0.000    1.429    0.000    0.000    0.000    0.000 
#    0.000    0.000    0.000    0.000    0.000    0.000 
#
# Total GULP energy -173434.775950 kJ/mol
# GULP energy per Si atom -12388.198282 kJ/mol
# Density = 1.836323 g / cm^3
# Si number density = 18.405119 Si / 1000 Ang^3
#
#
#
# Elastic Constant Matrix: (Units=GPa)
#
#
# Indices 1 2 3 4 5 6 
#
# 1 123.3864 40.0960 51.1783 9.8913 -3.2912 -1.8990
# 2 40.0960 66.2560 22.7434 -4.6444 14.0148 2.2394
# 3 51.1783 22.7434 135.4930 -1.4615 5.1655 -7.1208
# 4 9.8913 -4.6444 -1.4615 29.6142 -7.4553 0.5574
# 5 -3.2912 14.0148 5.1655 -7.4553 31.4586 -2.6829
# 6 -1.8990 2.2394 -7.1208 0.5574 -2.6829 29.3433
#
#
#
# Elastic Compliance Matrix: (Units=1/GPa)
#
#
# Indices 1 2 3 4 5 6 
#
# 1 0.012585 -0.007635 -0.003633 -0.004509 0.004331 0.000997
# 2 -0.007635 0.022437 -0.000634 0.003549 -0.010135 -0.003354
# 3 -0.003633 -0.000634 0.009014 0.001241 -0.001124 0.001874
# 4 -0.004509 0.003549 0.001241 0.037563 0.006614 -0.000370
# 5 0.004331 -0.010135 -0.001124 0.006614 0.038867 0.004209
# 6 0.000997 -0.003354 0.001874 -0.000370 0.004209 0.035247
#
#
# Mechanical properties :
#
#
# Convention : Reuss Voigt Hill
#
# Bulk Modulus (GPa) = 49.42741 61.46342 55.44542
# Shear Modulus (GPa) = 26.84405 32.15773 29.50089
#
# Velocity S-wave (km/s) = 3.82319 4.18451 4.00792
# Velocity P-wave (km/s) = 6.81194 7.53751 7.18389
#
# Compressibility (1/GPa) = 0.02023169
#
# Stress axis : x y z
#
# Youngs Moduli (GPa) = 79.45985 44.56943 110.93814
#
# Poissons Ratio (x) = 0.34027 0.40308
# Poissons Ratio (y) = 0.60665 0.07034
# Poissons Ratio (z) = 0.28871 0.02826
#
# Static dielectric constant tensor:
#      x y z
#    x 3.474810 -0.057650 -0.020480 
#    y -0.057650 3.257210 -0.163420 
#    z -0.020480 -0.163420 3.260100 
# 
# 
# High freq. dielectric constant tensor:
#      x y z
#    x 1.711860 -0.001960 0.010620 
#    y -0.001960 1.692490 -0.016210 
#    z 0.010620 -0.016210 1.718380 
# 
# From -- ./inp_files/344157.got.cif
#   From: 2010.06.25/outbox.cif.g09.slc.cpg/sg2_173_cif.got.tgz:344157.got - 2010.06.27 13:26:56.
