data_PCOD8028198
_publ_section_title
;
Structure prediction by ZEFSAII (Michael W. Deem and Ramdas Pophale) SiO2 
 PCOD8028198
Probable space group: P -1
;
_chemical_formula_sum "Si O2"
_cell_formula_units_Z 16
_cell_length_a 11.665430
_cell_length_b 8.485517
_cell_length_c 9.857800
_cell_angle_alpha 51.118331
_cell_angle_beta 101.472344
_cell_angle_gamma 113.565317
_cell_volume 694.399670
_symmetry_space_group_name_H-M "P -1"
_symmetry_group_IT_number 2
_symmetry_cell_setting 'triclinic'
loop_
_space_group_symop_operation_xyz
x,y,z
-x,-y,-z
loop_
_atom_site_type_symbol
_atom_site_label
_atom_site_fract_x
_atom_site_fract_y
_atom_site_fract_z
Si Si1 0.227241 0.877975 0.723491
Si Si2 0.466945 0.477059 0.661477
Si Si3 0.958441 0.606649 0.804819
Si Si4 0.763696 0.935835 0.851995
Si Si5 0.992463 0.348097 0.705626
Si Si6 0.638200 0.000546 0.037891
Si Si7 0.721373 0.753500 0.664214
Si Si8 0.265369 0.496644 0.776663
O O1 0.268330 0.705914 0.745443
O O2 0.079168 0.825362 0.695007
O O3 0.270133 0.855362 0.901042
O O4 0.284971 0.120506 0.544912
O O5 0.500000 0.500000 0.500000
O O6 0.372561 0.237969 0.797849
O O7 0.595208 0.540100 0.744400
O O8 0.377592 0.597854 0.636887
O O9 0.934755 0.438475 0.767539
O O10 0.837819 0.674500 0.757003
O O11 0.000000 0.500000 0.000000
O O12 0.717631 0.917721 0.695214
O O13 0.910327 0.092891 0.801212
O O14 0.696282 0.057027 0.869934
O O15 0.723903 0.683687 0.019272
O O16 0.000000 0.500000 0.500000
O O17 0.133615 0.363599 0.748383
O O18 0.500000 0.000000 0.000000
#
# Coordination Sequence:
#
# PCOD8028198 Si02
#       8
#     2   2   2   2   2   2   2   2
#     4  11  24  47  68 104 134 186 231 287 345 407
#     4  11  26  46  67 102 139 188 228 289 343 411
#     4  11  25  44  71 101 137 181 224 291 348 415
#     4  11  25  43  68 103 133 183 226 289 347 405
#     4  11  24  43  71 102 133 180 230 287 348 410
#     4  11  27  43  72  99 141 185 234 282 340 417
#     4  12  26  44  70 102 142 178 232 285 350 414
#     4  10  25  44  70  98 144 177 236 281 347 413
#
# _framework density 23.041484000000001
#
# number of rings (size 3 to 8) (size 9 to 14) (size 15 to 20)
#    0.000    1.000    1.250    4.500    8.750    4.500 
#    0.000    0.000    0.000    0.000    0.000    0.000 
#    0.000    0.000    0.000    0.000    0.000    0.000 
#
# Total GULP energy -198249.798153 kJ/mol
# GULP energy per Si atom -12390.612385 kJ/mol
# Density = 2.298904 g / cm^3
# Si number density = 23.041484 Si / 1000 Ang^3
#
#
#
# Elastic Constant Matrix: (Units=GPa)
#
#
# Indices 1 2 3 4 5 6 
#
# 1 157.3334 51.3745 29.2283 22.0533 -15.2019 0.6754
# 2 51.3745 115.1120 23.6186 23.2418 -8.9604 10.9013
# 3 29.2283 23.6186 89.7070 19.4556 -12.4046 -16.6130
# 4 22.0533 23.2418 19.4556 45.8565 -2.3647 -0.6401
# 5 -15.2019 -8.9604 -12.4046 -2.3647 32.5015 0.7494
# 6 0.6754 10.9013 -16.6130 -0.6401 0.7494 27.4426
#
#
#
# Elastic Compliance Matrix: (Units=1/GPa)
#
#
# Indices 1 2 3 4 5 6 
#
# 1 0.007956 -0.002781 -0.001110 -0.001820 0.002396 0.000129
# 2 -0.002781 0.011828 -0.002440 -0.003662 0.000906 -0.006217
# 3 -0.001110 -0.002440 0.015598 -0.004488 0.004199 0.010220
# 4 -0.001820 -0.003662 -0.004488 0.026350 -0.001644 -0.000558
# 5 0.002396 0.000906 0.004199 -0.001644 0.033594 0.001168
# 6 0.000129 -0.006217 0.010220 -0.000558 0.001168 0.045048
#
#
# Mechanical properties :
#
#
# Convention : Reuss Voigt Hill
#
# Bulk Modulus (GPa) = 44.01434 63.39945 53.70689
# Shear Modulus (GPa) = 31.13121 38.35554 34.74337
#
# Velocity S-wave (km/s) = 3.67971 4.08441 3.88733
# Velocity P-wave (km/s) = 6.09897 7.05821 6.59605
#
# Compressibility (1/GPa) = 0.02271987
#
# Stress axis : x y z
#
# Youngs Moduli (GPa) = 125.68433 84.54661 64.11037
#
# Poissons Ratio (x) = 0.23516 0.07117
# Poissons Ratio (y) = 0.34958 0.15641
# Poissons Ratio (z) = 0.13952 0.20627
#
# Static dielectric constant tensor:
#      x y z
#    x 4.559410 -0.111720 -0.643190 
#    y -0.111720 4.513910 0.070190 
#    z -0.643190 0.070190 4.224150 
# 
# 
# High freq. dielectric constant tensor:
#      x y z
#    x 1.909620 0.006310 -0.017010 
#    y 0.006310 1.926860 0.005550 
#    z -0.017010 0.005550 1.911410 
# 
# From -- ./inp_files/242578.got.cif
#   From: 2010.06.25/outbox.cif.g09.slc.cpg/sg2_122_cif.got.tgz:242578.got - 2010.06.27 13:26:56.
