data_PCOD8028894
_publ_section_title
;
Structure prediction by ZEFSAII (Michael W. Deem and Ramdas Pophale) SiO2 
 PCOD8028894
Probable space group: P -1
;
_chemical_formula_sum "Si O2"
_cell_formula_units_Z 14
_cell_length_a 11.294659
_cell_length_b 9.283605
_cell_length_c 11.561359
_cell_angle_alpha 40.880026
_cell_angle_beta 61.488171
_cell_angle_gamma 52.741104
_cell_volume 631.027979
_symmetry_space_group_name_H-M "P -1"
_symmetry_group_IT_number 2
_symmetry_cell_setting 'triclinic'
loop_
_space_group_symop_operation_xyz
x,y,z
-x,-y,-z
loop_
_atom_site_type_symbol
_atom_site_label
_atom_site_fract_x
_atom_site_fract_y
_atom_site_fract_z
Si Si1 0.952383 0.985457 0.278202
Si Si2 0.159837 0.074914 0.945998
Si Si3 0.335753 0.200328 0.971473
Si Si4 0.640606 0.389011 0.163366
Si Si5 0.925338 0.729973 0.809829
Si Si6 0.955893 0.536154 0.654934
Si Si7 0.328297 0.525946 0.154456
O O1 0.998614 0.695525 0.445388
O O2 0.773545 0.120485 0.268213
O O3 0.028491 0.044193 0.096306
O O4 0.004240 0.080055 0.311799
O O5 0.240090 0.213085 0.894744
O O6 0.078487 0.253554 0.767398
O O7 0.718165 0.184692 0.992423
O O8 0.342268 0.459132 0.828011
O O9 0.251634 0.142906 0.154347
O O10 0.500000 0.000000 0.000000
O O11 0.479857 0.380229 0.245160
O O12 0.647308 0.535838 0.955380
O O13 0.950627 0.648325 0.715879
O O14 0.000000 0.500000 0.000000
O O15 0.794927 0.549489 0.689875
#
# Coordination Sequence:
#
# PCOD8028894 Si02
#       7
#     2   2   2   2   2   2   2
#     4  11  23  38  66  90 123 156 208 253 296 361
#     4  11  22  41  63  93 120 159 204 255 296 359
#     4  11  19  36  67  89 114 159 204 248 303 354
#     4  11  21  40  62  91 119 166 201 246 306 363
#     4  11  18  38  64  89 119 157 203 250 300 358
#     4  12  22  38  65  92 122 162 203 248 306 358
#     4  11  23  38  64  87 128 164 201 243 311 362
#
# _framework density 22.186021
#
# number of rings (size 3 to 8) (size 9 to 14) (size 15 to 20)
#    0.000    0.857    8.571    0.857    0.000    1.143 
#    0.000    0.000    3.143    2.571    0.000    0.000 
#    0.000    0.000    0.000    0.000    0.000    0.000 
#
# Total GULP energy -173593.356148 kJ/mol
# GULP energy per Si atom -12399.525439 kJ/mol
# Density = 2.213553 g / cm^3
# Si number density = 22.186021 Si / 1000 Ang^3
#
#
#
# Elastic Constant Matrix: (Units=GPa)
#
#
# Indices 1 2 3 4 5 6 
#
# 1 118.7485 21.9486 43.5590 -11.5788 -8.3974 -24.0076
# 2 21.9486 81.3324 21.6804 -17.2533 7.3147 -28.4234
# 3 43.5590 21.6804 108.3898 -13.5352 -5.6856 -11.6179
# 4 -11.5788 -17.2533 -13.5352 31.4664 5.3091 3.1310
# 5 -8.3974 7.3147 -5.6856 5.3091 24.1441 -5.9177
# 6 -24.0076 -28.4234 -11.6179 3.1310 -5.9177 44.5528
#
#
#
# Elastic Compliance Matrix: (Units=1/GPa)
#
#
# Indices 1 2 3 4 5 6 
#
# 1 0.011290 -0.000343 -0.003513 0.001194 0.004272 0.005433
# 2 -0.000343 0.018860 -0.001691 0.009488 -0.005877 0.009959
# 3 -0.003513 -0.001691 0.011355 0.002422 0.001434 0.000010
# 4 0.001194 0.009488 0.002422 0.039805 -0.009852 0.003222
# 5 0.004272 -0.005877 0.001434 -0.009852 0.048680 0.006085
# 6 0.005433 0.009959 0.000010 0.003222 0.006085 0.032311
#
#
# Mechanical properties :
#
#
# Convention : Reuss Voigt Hill
#
# Bulk Modulus (GPa) = 32.88184 53.64963 43.26573
# Shear Modulus (GPa) = 27.24339 34.78483 31.01411
#
# Velocity S-wave (km/s) = 3.50802 3.96393 3.74292
# Velocity P-wave (km/s) = 5.59119 6.72195 6.18247
#
# Compressibility (1/GPa) = 0.03041192
#
# Stress axis : x y z
#
# Youngs Moduli (GPa) = 88.57392 53.02171 88.07006
#
# Poissons Ratio (x) = 0.01817 0.30940
# Poissons Ratio (y) = 0.03035 0.14889
# Poissons Ratio (z) = 0.31117 0.08964
#
# Static dielectric constant tensor:
#      x y z
#    x 4.493280 0.082470 -0.135580 
#    y 0.082470 4.363820 -0.097540 
#    z -0.135580 -0.097540 3.590530 
# 
# 
# High freq. dielectric constant tensor:
#      x y z
#    x 1.901070 0.012740 -0.007490 
#    y 0.012740 1.887510 -0.012680 
#    z -0.007490 -0.012680 1.818420 
# 
# From -- ./inp_files/517450.got.cif
#   From: 2010.06.25/outbox.cif.g09.slc.cpg/sg2_259_cif.got.tgz:517450.got - 2010.06.27 13:26:56.
