data_PCOD8028086
_publ_section_title
;
Structure prediction by ZEFSAII (Michael W. Deem and Ramdas Pophale) SiO2 
 PCOD8028086
Probable space group: P -1
;
_chemical_formula_sum "Si O2"
_cell_formula_units_Z 16
_cell_length_a 9.133643
_cell_length_b 12.037933
_cell_length_c 14.261651
_cell_angle_alpha 51.487756
_cell_angle_beta 111.231247
_cell_angle_gamma 70.146850
_cell_volume 723.068899
_symmetry_space_group_name_H-M "P -1"
_symmetry_group_IT_number 2
_symmetry_cell_setting 'triclinic'
loop_
_space_group_symop_operation_xyz
x,y,z
-x,-y,-z
loop_
_atom_site_type_symbol
_atom_site_label
_atom_site_fract_x
_atom_site_fract_y
_atom_site_fract_z
Si Si1 0.542872 0.687428 0.102188
Si Si2 0.133277 0.553940 0.028866
Si Si3 0.450940 0.984444 0.789652
Si Si4 0.646903 0.135856 0.330367
Si Si5 0.149405 0.714292 0.757421
Si Si6 0.079162 0.598351 0.497870
Si Si7 0.834493 0.937505 0.910640
Si Si8 0.006060 0.112217 0.820635
O O1 0.654792 0.496408 0.156147
O O2 0.676671 0.581123 0.288693
O O3 0.572629 0.824024 0.993590
O O4 0.251491 0.869710 0.958637
O O5 0.146085 0.649553 0.892577
O O6 0.998047 0.721894 0.996136
O O7 0.423124 0.335455 0.244397
O O8 0.000000 0.500000 0.000000
O O9 0.517035 0.851941 0.781336
O O10 0.553367 0.073292 0.768651
O O11 0.153342 0.181934 0.612609
O O12 0.763455 0.183143 0.271564
O O13 0.866129 0.900814 0.557892
O O14 0.000000 0.500000 0.500000
O O15 0.124524 0.674081 0.382807
O O16 0.941064 0.855319 0.083489
O O17 0.816103 0.113417 0.781571
#
# Coordination Sequence:
#
# PCOD8028086 Si02
#       8
#     2   2   2   2   2   2   2   2
#     4  11  21  41  69  96 125 163 215 268 320 373
#     4  12  24  41  66  94 135 175 207 260 323 380
#     4  11  22  41  66  91 131 163 209 267 315 377
#     4  11  23  41  63  97 125 166 214 264 316 372
#     4  11  24  39  68  97 126 164 217 266 318 376
#     4  11  23  40  68  98 122 163 218 270 318 369
#     4  11  23  45  63  92 135 175 211 256 319 387
#     4  10  25  43  68  93 129 172 213 264 317 377
#
# _framework density 22.127904999999998
#
# number of rings (size 3 to 8) (size 9 to 14) (size 15 to 20)
#    0.000    1.000    3.750    2.625    3.500    2.500 
#    0.000    8.125    0.000    0.000    0.000    0.000 
#    0.000    0.000    0.000    0.000    0.000    0.000 
#
# Total GULP energy -198347.256203 kJ/mol
# GULP energy per Si atom -12396.703513 kJ/mol
# Density = 2.207754 g / cm^3
# Si number density = 22.127905 Si / 1000 Ang^3
#
#
#
# Elastic Constant Matrix: (Units=GPa)
#
#
# Indices 1 2 3 4 5 6 
#
# 1 103.5404 17.4940 29.4800 11.5494 0.6781 18.4988
# 2 17.4940 88.7932 14.3215 4.1231 -4.0447 -0.1814
# 3 29.4800 14.3215 111.2724 8.0751 -6.4264 -0.0295
# 4 11.5494 4.1231 8.0751 24.3599 4.4255 2.4508
# 5 0.6781 -4.0447 -6.4264 4.4255 21.7184 0.5825
# 6 18.4988 -0.1814 -0.0295 2.4508 0.5825 37.3902
#
#
#
# Elastic Compliance Matrix: (Units=1/GPa)
#
#
# Indices 1 2 3 4 5 6 
#
# 1 0.012223 -0.001822 -0.002758 -0.003882 -0.000590 -0.005795
# 2 -0.001822 0.011925 -0.000818 -0.001402 0.002294 0.001015
# 3 -0.002758 -0.000818 0.010221 -0.002724 0.003473 0.001493
# 4 -0.003882 -0.001402 -0.002724 0.045997 -0.010293 -0.000943
# 5 -0.000590 0.002294 0.003473 -0.010293 0.049609 0.000208
# 6 -0.005795 0.001015 0.001493 -0.000943 0.000208 0.029677
#
#
# Mechanical properties :
#
#
# Convention : Reuss Voigt Hill
#
# Bulk Modulus (GPa) = 42.41784 47.35522 44.88653
# Shear Modulus (GPa) = 28.04185 32.84774 30.44480
#
# Velocity S-wave (km/s) = 3.56372 3.85703 3.71328
# Velocity P-wave (km/s) = 6.01203 6.42517 6.22203
#
# Compressibility (1/GPa) = 0.02357499
#
# Stress axis : x y z
#
# Youngs Moduli (GPa) = 81.81072 83.86004 97.83332
#
# Poissons Ratio (x) = 0.15278 0.26980
# Poissons Ratio (y) = 0.14905 0.07998
# Poissons Ratio (z) = 0.22562 0.06856
#
# Static dielectric constant tensor:
#      x y z
#    x 4.060300 -0.118900 -0.210320 
#    y -0.118900 4.116510 -0.319970 
#    z -0.210320 -0.319970 3.513170 
# 
# 
# High freq. dielectric constant tensor:
#      x y z
#    x 1.878360 0.001580 0.003430 
#    y 0.001580 1.877680 -0.011050 
#    z 0.003430 -0.011050 1.866700 
# 
# From -- ./inp_files/500063.got.cif
#   From: 2010.06.25/outbox.cif.g09.slc.cpg/sg2_251_cif.got.tgz:500063.got - 2010.06.27 13:26:56.
