data_PCOD8028718
_publ_section_title
;
Structure prediction by ZEFSAII (Michael W. Deem and Ramdas Pophale) SiO2 
 PCOD8028718
Probable space group: P -1
;
_chemical_formula_sum "Si O2"
_cell_formula_units_Z 14
_cell_length_a 7.505265
_cell_length_b 7.555126
_cell_length_c 18.587452
_cell_angle_alpha 119.905357
_cell_angle_beta 127.783681
_cell_angle_gamma 36.475174
_cell_volume 495.147652
_symmetry_space_group_name_H-M "P -1"
_symmetry_group_IT_number 2
_symmetry_cell_setting 'triclinic'
loop_
_space_group_symop_operation_xyz
x,y,z
-x,-y,-z
loop_
_atom_site_type_symbol
_atom_site_label
_atom_site_fract_x
_atom_site_fract_y
_atom_site_fract_z
Si Si1 0.145327 0.266835 0.685623
Si Si2 0.820442 0.925766 0.568392
Si Si3 0.220835 0.477546 0.878235
Si Si4 0.405258 0.461246 0.114489
Si Si5 0.426438 0.764325 0.569019
Si Si6 0.738686 0.893130 0.962943
Si Si7 0.536487 0.633011 0.314054
O O1 0.181483 0.299881 0.784699
O O2 0.427824 0.190624 0.691823
O O3 0.800672 0.591768 0.639075
O O4 0.227054 0.966051 0.634516
O O5 0.841978 0.966896 0.498171
O O6 0.759051 0.146736 0.656751
O O7 0.500000 0.000000 0.500000
O O8 0.148328 0.593554 0.602706
O O9 0.326634 0.600421 0.880934
O O10 0.881881 0.748826 0.889689
O O11 0.487492 0.248384 0.960672
O O12 0.446885 0.185048 0.064848
O O13 0.458114 0.489791 0.216324
O O14 0.036264 0.768118 0.062713
O O15 0.500000 0.500000 0.500000
#
# Coordination Sequence:
#
# PCOD8028718 Si02
#       7
#     2   2   2   2   2   2   2
#     4  11  22  42  62  91 129 169 221 275 329 404
#     4  12  22  40  66  88 125 167 225 274 328 400
#     4  11  25  44  74 100 140 187 231 283 351 410
#     4  10  26  45  72 106 142 184 234 286 349 414
#     4  12  25  39  60  90 128 168 212 276 341 393
#     4  11  25  46  71 105 145 182 231 288 345 421
#     4  11  23  40  67  96 125 174 226 281 330 402
#
# _framework density 28.274395999999999
#
# number of rings (size 3 to 8) (size 9 to 14) (size 15 to 20)
#    0.000    0.857    2.857    3.429    0.000   12.571 
#    0.000    0.000    0.000    0.000    0.000    0.000 
#    0.000    0.000    0.000    0.000    0.000    0.000 
#
# Total GULP energy -173463.337547 kJ/mol
# GULP energy per Si atom -12390.238396 kJ/mol
# Density = 2.821004 g / cm^3
# Si number density = 28.274396 Si / 1000 Ang^3
#
#
#
# Elastic Constant Matrix: (Units=GPa)
#
#
# Indices 1 2 3 4 5 6 
#
# 1 78.5595 7.6264 16.5780 0.3257 -12.7798 -14.2365
# 2 7.6264 115.3544 11.2901 10.1559 -0.5218 -7.4714
# 3 16.5780 11.2901 133.7875 19.1657 -0.8651 3.4655
# 4 0.3257 10.1559 19.1657 43.6390 1.7143 -0.8650
# 5 -12.7798 -0.5218 -0.8651 1.7143 41.3615 4.2395
# 6 -14.2365 -7.4714 3.4655 -0.8650 4.2395 31.1894
#
#
#
# Elastic Compliance Matrix: (Units=1/GPa)
#
#
# Indices 1 2 3 4 5 6 
#
# 1 0.015016 -0.000428 -0.002094 0.000883 0.003890 0.006480
# 2 -0.000428 0.009036 -0.000499 -0.001835 -0.000157 0.001995
# 3 -0.002094 -0.000499 0.008340 -0.003568 -0.000117 -0.002085
# 4 0.000883 -0.001835 -0.003568 0.024965 -0.000981 0.001186
# 5 0.003890 -0.000157 -0.000117 -0.000981 0.025595 -0.001755
# 6 0.006480 0.001995 -0.002085 0.001186 -0.001755 0.036001
#
#
# Mechanical properties :
#
#
# Convention : Reuss Voigt Hill
#
# Bulk Modulus (GPa) = 37.95063 44.29895 41.12479
# Shear Modulus (GPa) = 37.37498 42.71845 40.04672
#
# Velocity S-wave (km/s) = 3.63969 3.89119 3.76754
# Velocity P-wave (km/s) = 5.57804 5.99082 5.78811
#
# Compressibility (1/GPa) = 0.02635003
#
# Stress axis : x y z
#
# Youngs Moduli (GPa) = 66.59573 110.66647 119.89706
#
# Poissons Ratio (x) = 0.04739 0.25103
# Poissons Ratio (y) = 0.02852 0.05987
# Poissons Ratio (z) = 0.13943 0.05526
#
# Static dielectric constant tensor:
#      x y z
#    x 5.921030 -0.933800 -0.474190 
#    y -0.933800 5.156090 0.478580 
#    z -0.474190 0.478580 6.012680 
# 
# 
# High freq. dielectric constant tensor:
#      x y z
#    x 2.136250 -0.019730 -0.005370 
#    y -0.019730 2.150910 0.017090 
#    z -0.005370 0.017090 2.177440 
# 
# From -- ./inp_files/588063.got.cif
#   From: 2010.06.25/outbox.cif.g09.slc.cpg/sg2_295_cif.got.tgz:588063.got - 2010.06.27 13:26:56.
