data_PCOD8028692
_publ_section_title
;
Structure prediction by ZEFSAII (Michael W. Deem and Ramdas Pophale) SiO2 
 PCOD8028692
Probable space group: P -1
;
_chemical_formula_sum "Si O2"
_cell_formula_units_Z 16
_cell_length_a 17.990745
_cell_length_b 9.481652
_cell_length_c 18.983320
_cell_angle_alpha 26.762515
_cell_angle_beta 30.166060
_cell_angle_gamma 42.459035
_cell_volume 724.312212
_symmetry_space_group_name_H-M "P -1"
_symmetry_group_IT_number 2
_symmetry_cell_setting 'triclinic'
loop_
_space_group_symop_operation_xyz
x,y,z
-x,-y,-z
loop_
_atom_site_type_symbol
_atom_site_label
_atom_site_fract_x
_atom_site_fract_y
_atom_site_fract_z
Si Si1 0.828344 0.477808 0.671265
Si Si2 0.512460 0.635929 0.647213
Si Si3 0.799986 0.638898 0.905904
Si Si4 0.797631 0.209548 0.971465
Si Si5 0.335340 0.803994 0.203331
Si Si6 0.199419 0.859211 0.648706
Si Si7 0.009715 0.297117 0.982132
Si Si8 0.516401 0.725987 0.452010
O O1 0.800516 0.311608 0.843034
O O2 0.710770 0.268483 0.808106
O O3 0.000000 0.500000 0.500000
O O4 0.802209 0.841106 0.534502
O O5 0.355469 0.459091 0.882472
O O6 0.654991 0.539152 0.616500
O O7 0.548712 0.540824 0.579404
O O8 0.500000 0.000000 0.500000
O O9 0.817938 0.518148 0.866313
O O10 0.929501 0.519209 0.898254
O O11 0.799759 0.020976 0.732124
O O12 0.922306 0.984512 0.987347
O O13 0.636841 0.027724 0.203792
O O14 0.500000 0.000000 0.000000
O O15 0.148490 0.528282 0.798322
O O16 0.368009 0.866846 0.530601
O O17 0.098701 0.877429 0.791925
O O18 0.500000 0.500000 0.500000
#
# Coordination Sequence:
#
# PCOD8028692 Si02
#       8
#     2   2   2   2   2   2   2   2
#     4  12  26  48  72 103 144 191 243 294 367 436
#     4  11  22  44  71 100 140 184 234 288 355 426
#     4  11  24  45  68 101 145 186 232 296 358 422
#     4  12  27  44  72 106 143 184 248 302 351 427
#     4  10  26  44  71 104 143 193 235 291 364 428
#     4  11  24  43  76 103 138 193 234 295 367 432
#     4  11  23  45  74 104 140 187 244 293 363 430
#     4  12  25  42  70 109 137 180 244 299 348 424
#
# _framework density 22.089919999999999
#
# number of rings (size 3 to 8) (size 9 to 14) (size 15 to 20)
#    0.000    0.750    5.000    1.875    7.000    1.500 
#    2.250    1.250    0.000    0.000    0.000    0.000 
#    0.000    0.000    0.000    0.000    0.000    0.000 
#
# Total GULP energy -198286.555016 kJ/mol
# GULP energy per Si atom -12392.909689 kJ/mol
# Density = 2.203964 g / cm^3
# Si number density = 22.089920 Si / 1000 Ang^3
#
#
#
# Elastic Constant Matrix: (Units=GPa)
#
#
# Indices 1 2 3 4 5 6 
#
# 1 142.6369 58.9036 38.0764 7.8756 24.4306 -8.0392
# 2 58.9036 145.6446 42.1394 -17.1745 15.7583 -3.8768
# 3 38.0764 42.1394 65.6279 14.7913 7.1488 -15.2701
# 4 7.8756 -17.1745 14.7913 30.6155 -3.8082 8.7110
# 5 24.4306 15.7583 7.1488 -3.8082 27.6544 2.1112
# 6 -8.0392 -3.8768 -15.2701 8.7110 2.1112 44.3355
#
#
#
# Elastic Compliance Matrix: (Units=1/GPa)
#
#
# Indices 1 2 3 4 5 6 
#
# 1 0.010767 -0.004006 -0.000551 -0.006662 -0.008242 0.003114
# 2 -0.004006 0.013505 -0.011887 0.016549 0.001728 -0.006974
# 3 -0.000551 -0.011887 0.034253 -0.028649 -0.006808 0.016611
# 4 -0.006662 0.016549 -0.028649 0.065959 0.014723 -0.023289
# 5 -0.008242 0.001728 -0.006808 0.014723 0.046917 -0.008815
# 6 0.003114 -0.006974 0.016611 -0.023289 -0.008815 0.033227
#
#
# Mechanical properties :
#
#
# Convention : Reuss Voigt Hill
#
# Bulk Modulus (GPa) = 39.00700 70.23869 54.62284
# Shear Modulus (GPa) = 20.31998 34.84043 27.58021
#
# Velocity S-wave (km/s) = 3.03624 3.97572 3.53731
# Velocity P-wave (km/s) = 5.47615 7.27605 6.43930
#
# Compressibility (1/GPa) = 0.02563642
#
# Stress axis : x y z
#
# Youngs Moduli (GPa) = 92.87363 74.04924 29.19422
#
# Poissons Ratio (x) = 0.29667 0.01608
# Poissons Ratio (y) = 0.37208 0.34704
# Poissons Ratio (z) = 0.05114 0.88025
#
# Static dielectric constant tensor:
#      x y z
#    x 5.317190 1.020950 -0.394460 
#    y 1.020950 5.235810 -0.325880 
#    z -0.394460 -0.325880 3.930120 
# 
# 
# High freq. dielectric constant tensor:
#      x y z
#    x 1.880410 -0.009330 -0.001790 
#    y -0.009330 1.885440 -0.009120 
#    z -0.001790 -0.009120 1.857200 
# 
# From -- ./inp_files/575491.got.cif
#   From: 2010.06.25/outbox.cif.g09.slc.cpg/sg2_288_cif.got.tgz:575491.got - 2010.06.27 13:26:56.
