data_PCOD8028323
_publ_section_title
;
Structure prediction by ZEFSAII (Michael W. Deem and Ramdas Pophale) SiO2 
 PCOD8028323
Probable space group: P -1
;
_chemical_formula_sum "Si O2"
_cell_formula_units_Z 14
_cell_length_a 14.005193
_cell_length_b 24.693274
_cell_length_c 24.659192
_cell_angle_alpha 168.141139
_cell_angle_beta 159.751685
_cell_angle_gamma 20.775521
_cell_volume 589.362815
_symmetry_space_group_name_H-M "P -1"
_symmetry_group_IT_number 2
_symmetry_cell_setting 'triclinic'
loop_
_space_group_symop_operation_xyz
x,y,z
-x,-y,-z
loop_
_atom_site_type_symbol
_atom_site_label
_atom_site_fract_x
_atom_site_fract_y
_atom_site_fract_z
Si Si1 0.726958 0.765244 0.029093
Si Si2 0.781263 0.593374 0.229946
Si Si3 0.463230 0.174434 0.777042
Si Si4 0.174495 0.386361 0.605825
Si Si5 0.663962 0.706449 0.814293
Si Si6 0.217693 0.920703 0.488270
Si Si7 0.437982 0.321595 0.475196
O O1 0.066317 0.732159 0.185662
O O2 0.555616 0.074926 0.254183
O O3 0.673734 0.675042 0.852494
O O4 0.617387 0.550726 0.796727
O O5 0.717260 0.821856 0.371960
O O6 0.881615 0.687550 0.433709
O O7 0.022299 0.341817 0.090587
O O8 0.500000 0.500000 0.000000
O O9 0.709893 0.899256 0.642011
O O10 0.261026 0.168336 0.715588
O O11 0.593365 0.436390 0.104244
O O12 0.887587 0.546404 0.581552
O O13 0.500000 0.500000 0.500000
O O14 0.500000 0.000000 0.000000
O O15 0.520871 0.781693 0.541282
O O16 0.000000 0.000000 0.500000
#
# Coordination Sequence:
#
# PCOD8028323 Si02
#       7
#     2   2   2   2   2   2   2
#     4  11  24  43  71 100 144 185 237 291 360 423
#     4  10  25  45  71 103 146 188 234 288 363 439
#     4  11  26  43  72 101 139 190 237 287 356 436
#     4  11  24  45  70 102 143 182 235 293 360 424
#     4  12  27  43  72 108 144 186 238 296 359 426
#     4  10  26  45  72 101 141 187 246 293 353 418
#     4  11  24  46  70 104 142 186 238 302 354 417
#
# _framework density 23.754467000000002
#
# number of rings (size 3 to 8) (size 9 to 14) (size 15 to 20)
#    0.000    1.143    0.000    4.286   10.000    6.857 
#    0.000    0.000    0.000    0.000    0.000    0.000 
#    0.000    0.000    0.000    0.000    0.000    0.000 
#
# Total GULP energy -173522.368711 kJ/mol
# GULP energy per Si atom -12394.454908 kJ/mol
# Density = 2.370040 g / cm^3
# Si number density = 23.754467 Si / 1000 Ang^3
#
#
#
# Elastic Constant Matrix: (Units=GPa)
#
#
# Indices 1 2 3 4 5 6 
#
# 1 138.1738 63.7646 29.6984 -4.0458 23.9414 23.9737
# 2 63.7646 144.6086 36.5122 -6.0141 -2.5632 10.5376
# 3 29.6984 36.5122 105.0879 1.3760 3.0239 -0.1239
# 4 -4.0458 -6.0141 1.3760 37.6310 -0.0726 -13.8065
# 5 23.9414 -2.5632 3.0239 -0.0726 37.1945 -0.8114
# 6 23.9737 10.5376 -0.1239 -13.8065 -0.8114 48.5878
#
#
#
# Elastic Compliance Matrix: (Units=1/GPa)
#
#
# Indices 1 2 3 4 5 6 
#
# 1 0.012058 -0.004738 -0.001516 -0.001426 -0.008086 -0.005466
# 2 -0.004738 0.009618 -0.002132 0.001370 0.003904 0.000701
# 3 -0.001516 -0.002132 0.010693 -0.000492 -0.000017 0.001098
# 4 -0.001426 0.001370 -0.000492 0.029938 0.001306 0.008934
# 5 -0.008086 0.003904 -0.000017 0.001306 0.032452 0.004056
# 6 -0.005466 0.000701 0.001098 0.008934 0.004056 0.025735
#
#
# Mechanical properties :
#
#
# Convention : Reuss Voigt Hill
#
# Bulk Modulus (GPa) = 64.12092 71.98008 68.05050
# Shear Modulus (GPa) = 35.09604 41.87566 38.48585
#
# Velocity S-wave (km/s) = 3.84793 4.20319 4.02948
# Velocity P-wave (km/s) = 6.84061 7.34324 7.09638
#
# Compressibility (1/GPa) = 0.01559553
#
# Stress axis : x y z
#
# Youngs Moduli (GPa) = 82.93586 103.97221 93.51569
#
# Poissons Ratio (x) = 0.49264 0.14180
# Poissons Ratio (y) = 0.39297 0.19939
# Poissons Ratio (z) = 0.12576 0.22168
#
# Static dielectric constant tensor:
#      x y z
#    x 4.831440 0.543000 0.115430 
#    y 0.543000 4.951300 0.138920 
#    z 0.115430 0.138920 4.435700 
# 
# 
# High freq. dielectric constant tensor:
#      x y z
#    x 1.951870 0.014150 0.000980 
#    y 0.014150 1.954770 -0.000760 
#    z 0.000980 -0.000760 1.932030 
# 
# From -- ./inp_files/620007.got.cif
#   From: 2010.06.25/outbox.cif.g09.slc.cpg/sg2_311_cif.got.tgz:620007.got - 2010.06.27 13:26:56.
