data_PCOD8028383
_publ_section_title
;
Structure prediction by ZEFSAII (Michael W. Deem and Ramdas Pophale) SiO2 
 PCOD8028383
Probable space group: P -1
;
_chemical_formula_sum "Si O2"
_cell_formula_units_Z 16
_cell_length_a 12.800460
_cell_length_b 15.461264
_cell_length_c 8.264325
_cell_angle_alpha 89.188444
_cell_angle_beta 98.941496
_cell_angle_gamma 151.865939
_cell_volume 734.877861
_symmetry_space_group_name_H-M "P -1"
_symmetry_group_IT_number 2
_symmetry_cell_setting 'triclinic'
loop_
_space_group_symop_operation_xyz
x,y,z
-x,-y,-z
loop_
_atom_site_type_symbol
_atom_site_label
_atom_site_fract_x
_atom_site_fract_y
_atom_site_fract_z
Si Si1 0.855570 0.812189 0.033382
Si Si2 0.396363 0.717166 0.470332
Si Si3 0.457030 0.443411 0.746901
Si Si4 0.098451 0.806974 0.134204
Si Si5 0.813363 0.132595 0.487373
Si Si6 0.015604 0.428108 0.113944
Si Si7 0.714826 0.545807 0.540269
Si Si8 0.372136 0.839960 0.712890
O O1 0.743372 0.746275 0.185840
O O2 0.018288 0.845892 0.071268
O O3 0.628474 0.633905 0.873631
O O4 0.000000 0.000000 0.000000
O O5 0.239414 0.597225 0.276499
O O6 0.405663 0.628496 0.554667
O O7 0.285349 0.699447 0.578643
O O8 0.657424 0.933552 0.477495
O O9 0.614272 0.485073 0.698220
O O10 0.322889 0.398816 0.579745
O O11 0.049527 0.750054 0.313535
O O12 0.372525 0.995899 0.164960
O O13 0.962184 0.640396 0.992255
O O14 0.634757 0.078728 0.400655
O O15 0.004755 0.263024 0.387862
O O16 0.782966 0.258497 0.166578
O O17 0.000000 0.500000 0.000000
#
# Coordination Sequence:
#
# PCOD8028383 Si02
#       8
#     2   2   2   2   2   2   2   2
#     4  11  25  46  70  98 140 181 226 284 354 401
#     4  11  24  41  69 100 129 183 227 266 340 411
#     4  10  25  46  67 101 132 175 233 292 334 401
#     4  11  24  44  67  99 138 182 222 284 343 406
#     4  11  23  44  70  97 138 178 224 278 336 409
#     4  12  24  40  64 103 142 179 222 276 340 412
#     4  11  23  44  73  96 134 176 232 287 335 394
#     4  11  24  43  67  97 142 177 223 276 334 415
#
# _framework density 21.772327000000001
#
# number of rings (size 3 to 8) (size 9 to 14) (size 15 to 20)
#    0.000    1.000    2.500    4.500    5.250    1.000 
#    4.500    2.500    0.000    0.000    0.000    0.000 
#    0.000    0.000    0.000    0.000    0.000    0.000 
#
# Total GULP energy -198360.215446 kJ/mol
# GULP energy per Si atom -12397.513465 kJ/mol
# Density = 2.172277 g / cm^3
# Si number density = 21.772327 Si / 1000 Ang^3
#
#
#
# Elastic Constant Matrix: (Units=GPa)
#
#
# Indices 1 2 3 4 5 6 
#
# 1 110.2033 55.8735 29.0298 -13.2207 -3.6877 6.6383
# 2 55.8735 144.1163 30.8779 -18.4061 -17.2418 2.3742
# 3 29.0298 30.8779 90.7735 2.2531 -6.0827 5.0604
# 4 -13.2207 -18.4061 2.2531 35.3176 -0.1807 0.3841
# 5 -3.6877 -17.2418 -6.0827 -0.1807 28.9338 -5.6974
# 6 6.6383 2.3742 5.0604 0.3841 -5.6974 37.1279
#
#
#
# Elastic Compliance Matrix: (Units=1/GPa)
#
#
# Indices 1 2 3 4 5 6 
#
# 1 0.012157 -0.003992 -0.002608 0.002648 -0.001727 -0.001855
# 2 -0.003992 0.010008 -0.001931 0.003859 0.005292 0.001109
# 3 -0.002608 -0.001931 0.012695 -0.002777 0.000979 -0.000962
# 4 0.002648 0.003859 -0.002777 0.031509 0.002185 -0.000332
# 5 -0.001727 0.005292 0.000979 0.002185 0.038852 0.005776
# 6 -0.001855 0.001109 -0.000962 -0.000332 0.005776 0.028216
#
#
# Mechanical properties :
#
#
# Convention : Reuss Voigt Hill
#
# Bulk Modulus (GPa) = 56.18375 64.07285 60.12830
# Shear Modulus (GPa) = 31.96298 35.56329 33.76314
#
# Velocity S-wave (km/s) = 3.83568 4.04594 3.94221
# Velocity P-wave (km/s) = 6.74372 7.16370 6.95688
#
# Compressibility (1/GPa) = 0.01779874
#
# Stress axis : x y z
#
# Youngs Moduli (GPa) = 82.25850 99.91993 78.76920
#
# Poissons Ratio (x) = 0.39891 0.20541
# Poissons Ratio (y) = 0.32840 0.15208
# Poissons Ratio (z) = 0.21451 0.19291
#
# Static dielectric constant tensor:
#      x y z
#    x 4.034620 0.006850 0.182030 
#    y 0.006850 3.858100 -0.095670 
#    z 0.182030 -0.095670 3.878030 
# 
# 
# High freq. dielectric constant tensor:
#      x y z
#    x 1.866970 0.007020 0.003900 
#    y 0.007020 1.854110 -0.009430 
#    z 0.003900 -0.009430 1.858270 
# 
# From -- ./inp_files/273408.got.cif
#   From: 2010.06.25/outbox.cif.g09.slc.cpg/sg2_137_cif.got.tgz:273408.got - 2010.06.27 13:26:56.
