data_PCOD8028085
_publ_section_title
;
Structure prediction by ZEFSAII (Michael W. Deem and Ramdas Pophale) SiO2 
 PCOD8028085
Probable space group: P -1
;
_chemical_formula_sum "Si O2"
_cell_formula_units_Z 14
_cell_length_a 5.326580
_cell_length_b 8.935850
_cell_length_c 21.696871
_cell_angle_alpha 38.627557
_cell_angle_beta 75.390607
_cell_angle_gamma 89.067756
_cell_volume 595.245718
_symmetry_space_group_name_H-M "P -1"
_symmetry_group_IT_number 2
_symmetry_cell_setting 'triclinic'
loop_
_space_group_symop_operation_xyz
x,y,z
-x,-y,-z
loop_
_atom_site_type_symbol
_atom_site_label
_atom_site_fract_x
_atom_site_fract_y
_atom_site_fract_z
Si Si1 0.737343 0.902293 0.994768
Si Si2 0.974653 0.200997 0.526258
Si Si3 0.600223 0.802066 0.596071
Si Si4 0.769907 0.731036 0.182050
Si Si5 0.130919 0.299725 0.617184
Si Si6 0.491769 0.893356 0.254102
Si Si7 0.306847 0.541468 0.946258
O O1 0.839954 0.815992 0.080190
O O2 0.651196 0.640059 0.050249
O O3 0.920802 0.116148 0.866285
O O4 0.500000 0.000000 0.000000
O O5 0.199630 0.299860 0.426725
O O6 0.803075 0.396881 0.486268
O O7 0.129206 0.178800 0.587885
O O8 0.763759 0.934188 0.604358
O O9 0.337261 0.570615 0.705779
O O10 0.500000 0.000000 0.500000
O O11 0.573837 0.858206 0.189852
O O12 0.831277 0.197985 0.696025
O O13 0.363867 0.252914 0.660862
O O14 0.587414 0.179791 0.176968
O O15 0.500000 0.500000 0.000000
O O16 0.000000 0.500000 0.000000
#
# Coordination Sequence:
#
# PCOD8028085 Si02
#       7
#     2   2   2   2   2   2   2
#     4  11  27  47  75 105 148 196 248 312 370 450
#     4  10  25  43  68 106 145 194 243 309 362 448
#     4  11  24  45  71 103 149 192 246 302 373 445
#     4  11  25  46  71 103 144 196 248 298 379 436
#     4  11  26  45  73 106 145 193 250 302 376 435
#     4  12  25  46  75 105 143 198 243 312 369 450
#     4  12  26  48  74 109 147 187 254 310 377 444
#
# _framework density 23.519701999999999
#
# number of rings (size 3 to 8) (size 9 to 14) (size 15 to 20)
#    0.000    0.857    2.857    2.571    8.000    3.429 
#    0.000    0.000    0.000    0.000    0.000    0.000 
#    0.000    0.000    0.000    0.000    0.000    0.000 
#
# Total GULP energy -173436.489881 kJ/mol
# GULP energy per Si atom -12388.320706 kJ/mol
# Density = 2.346617 g / cm^3
# Si number density = 23.519702 Si / 1000 Ang^3
#
#
#
# Elastic Constant Matrix: (Units=GPa)
#
#
# Indices 1 2 3 4 5 6 
#
# 1 71.8919 9.6012 17.4122 1.5952 -4.0208 -5.0120
# 2 9.6012 161.0675 41.6350 0.9793 -7.9561 0.0786
# 3 17.4122 41.6350 131.8510 -18.0105 -21.6514 1.1149
# 4 1.5952 0.9793 -18.0105 40.4123 1.0099 5.5733
# 5 -4.0208 -7.9561 -21.6514 1.0099 43.9580 2.0976
# 6 -5.0120 0.0786 1.1149 5.5733 2.0976 31.8430
#
#
#
# Elastic Compliance Matrix: (Units=1/GPa)
#
#
# Indices 1 2 3 4 5 6 
#
# 1 0.014699 -0.000317 -0.002093 -0.001883 0.000170 0.002706
# 2 -0.000317 0.006824 -0.002260 -0.001192 0.000110 0.000214
# 3 -0.002093 -0.002260 0.009933 0.004702 0.004269 -0.001776
# 4 -0.001883 -0.001192 0.004702 0.027650 0.001551 -0.005400
# 5 0.000170 0.000110 0.004269 0.001551 0.024949 -0.002038
# 6 0.002706 0.000214 -0.001776 -0.005400 -0.002038 0.032971
#
#
# Mechanical properties :
#
#
# Convention : Reuss Voigt Hill
#
# Bulk Modulus (GPa) = 45.21458 55.78971 50.50214
# Shear Modulus (GPa) = 37.38705 42.98678 40.18692
#
# Velocity S-wave (km/s) = 3.99131 4.27979 4.13807
# Velocity P-wave (km/s) = 6.36448 6.94219 6.65960
#
# Compressibility (1/GPa) = 0.02211676
#
# Stress axis : x y z
#
# Youngs Moduli (GPa) = 68.03185 146.53863 100.67911
#
# Poissons Ratio (x) = 0.04639 0.21075
# Poissons Ratio (y) = 0.02154 0.22749
# Poissons Ratio (z) = 0.14241 0.33112
#
# Static dielectric constant tensor:
#      x y z
#    x 4.225050 0.118320 -0.217130 
#    y 0.118320 4.553780 -0.167140 
#    z -0.217130 -0.167140 4.701120 
# 
# 
# High freq. dielectric constant tensor:
#      x y z
#    x 1.930090 0.006980 -0.015010 
#    y 0.006980 1.952950 -0.001320 
#    z -0.015010 -0.001320 1.932910 
# 
# From -- ./inp_files/81182.got.cif
#   From: 2010.06.25/outbox.cif.g09.slc.cpg/sg2_41_cif.got.tgz:81182.got - 2010.06.27 13:26:56.
