data_PCOD8028702
_publ_section_title
;
Structure prediction by ZEFSAII (Michael W. Deem and Ramdas Pophale) SiO2 
 PCOD8028702
Probable space group: P -1
;
_chemical_formula_sum "Si O2"
_cell_formula_units_Z 16
_cell_length_a 8.591234
_cell_length_b 9.381528
_cell_length_c 13.689340
_cell_angle_alpha 72.277333
_cell_angle_beta 137.970383
_cell_angle_gamma 105.518852
_cell_volume 702.160916
_symmetry_space_group_name_H-M "P -1"
_symmetry_group_IT_number 2
_symmetry_cell_setting 'triclinic'
loop_
_space_group_symop_operation_xyz
x,y,z
-x,-y,-z
loop_
_atom_site_type_symbol
_atom_site_label
_atom_site_fract_x
_atom_site_fract_y
_atom_site_fract_z
Si Si1 0.613060 0.492237 0.280327
Si Si2 0.059229 0.093379 0.212171
Si Si3 0.228479 0.474625 0.852953
Si Si4 0.145385 0.612210 0.974555
Si Si5 0.139072 0.065701 0.458826
Si Si6 0.136483 0.781130 0.256590
Si Si7 0.566044 0.637641 0.427440
Si Si8 0.425799 0.812294 0.579212
O O1 0.812917 0.495348 0.288475
O O2 0.677728 0.570766 0.396195
O O3 0.548649 0.317476 0.302417
O O4 0.412311 0.587275 0.122031
O O5 0.964408 0.046968 0.286446
O O6 0.317768 0.157820 0.350678
O O7 0.911449 0.216788 0.064903
O O8 0.076255 0.953581 0.175671
O O9 0.089645 0.580870 0.839475
O O10 0.114222 0.307922 0.853655
O O11 0.500000 0.500000 0.000000
O O12 0.000000 0.500000 0.000000
O O13 0.231516 0.239622 0.473100
O O14 0.356529 0.962007 0.569400
O O15 0.000000 0.000000 0.500000
O O16 0.324329 0.720757 0.279523
O O17 0.248183 0.761778 0.420449
O O18 0.500000 0.500000 0.500000
#
# Coordination Sequence:
#
# PCOD8028702 Si02
#       8
#     2   2   2   2   2   2   2   2
#     4  11  24  41  66  98 137 174 231 282 340 400
#     4  11  22  43  67 101 139 175 226 276 341 416
#     4  10  26  45  63  97 136 176 231 286 338 402
#     4  11  23  44  71  93 128 187 231 274 334 411
#     4  11  25  40  66 104 145 178 220 286 358 405
#     4  11  22  41  67  96 135 176 223 279 342 405
#     4  12  23  41  69 105 135 181 232 277 337 422
#     4  11  21  42  66 100 139 175 218 283 343 407
#
# _framework density 22.786798999999998
#
# number of rings (size 3 to 8) (size 9 to 14) (size 15 to 20)
#    0.000    1.000    5.000    1.500    7.000    0.500 
#    0.000    7.500    0.000    0.000    0.000    0.000 
#    0.000    0.000    0.000    0.000    0.000    0.000 
#
# Total GULP energy -198211.705451 kJ/mol
# GULP energy per Si atom -12388.231591 kJ/mol
# Density = 2.273494 g / cm^3
# Si number density = 22.786799 Si / 1000 Ang^3
#
#
#
# Elastic Constant Matrix: (Units=GPa)
#
#
# Indices 1 2 3 4 5 6 
#
# 1 110.8340 27.0249 7.5872 -4.9070 -22.8274 -6.3779
# 2 27.0249 149.5526 33.1568 -20.1220 4.9515 -7.5316
# 3 7.5872 33.1568 55.1620 -15.2243 9.2194 -3.1590
# 4 -4.9070 -20.1220 -15.2243 46.0878 0.8416 8.0981
# 5 -22.8274 4.9515 9.2194 0.8416 25.6039 8.3950
# 6 -6.3779 -7.5316 -3.1590 8.0981 8.3950 32.9719
#
#
#
# Elastic Compliance Matrix: (Units=1/GPa)
#
#
# Indices 1 2 3 4 5 6 
#
# 1 0.012288 -0.002182 -0.002767 -0.000523 0.012897 -0.001542
# 2 -0.002182 0.008310 -0.003598 0.002022 -0.002762 0.001338
# 3 -0.002767 -0.003598 0.024392 0.005971 -0.011555 0.002455
# 4 -0.000523 0.002022 0.005971 0.025368 -0.002296 -0.004713
# 5 0.012897 -0.002762 -0.011555 -0.002296 0.059892 -0.013928
# 6 -0.001542 0.001338 0.002455 -0.004713 -0.013928 0.035275
#
#
# Mechanical properties :
#
#
# Convention : Reuss Voigt Hill
#
# Bulk Modulus (GPa) = 35.84785 50.12069 42.98427
# Shear Modulus (GPa) = 26.05298 37.45136 31.75217
#
# Velocity S-wave (km/s) = 3.38499 4.05848 3.73694
# Velocity P-wave (km/s) = 5.57168 6.63362 6.12570
#
# Compressibility (1/GPa) = 0.02789568
#
# Stress axis : x y z
#
# Youngs Moduli (GPa) = 81.37822 120.34257 40.99765
#
# Poissons Ratio (x) = 0.26261 0.11342
# Poissons Ratio (y) = 0.17758 0.14752
# Poissons Ratio (z) = 0.22514 0.43302
#
# Static dielectric constant tensor:
#      x y z
#    x 4.684560 -0.336090 0.692760 
#    y -0.336090 4.282920 -0.029220 
#    z 0.692760 -0.029220 -0.612600 
# 
# 
# High freq. dielectric constant tensor:
#      x y z
#    x 1.911770 -0.014580 -0.007680 
#    y -0.014580 1.907440 -0.008330 
#    z -0.007680 -0.008330 1.867160 
# 
# From -- ./inp_files/225861.got.cif
#   From: 2010.06.25/outbox.cif.g09.slc.cpg/sg2_113_cif.got.tgz:225861.got - 2010.06.27 13:26:56.
