data_PCOD8028484
_publ_section_title
;
Structure prediction by ZEFSAII (Michael W. Deem and Ramdas Pophale) SiO2 
 PCOD8028484
Probable space group: P -1
;
_chemical_formula_sum "Si O2"
_cell_formula_units_Z 12
_cell_length_a 22.306798
_cell_length_b 22.637581
_cell_length_c 9.930764
_cell_angle_alpha 154.219626
_cell_angle_beta 27.866710
_cell_angle_gamma 166.856646
_cell_volume 494.640145
_symmetry_space_group_name_H-M "P -1"
_symmetry_group_IT_number 2
_symmetry_cell_setting 'triclinic'
loop_
_space_group_symop_operation_xyz
x,y,z
-x,-y,-z
loop_
_atom_site_type_symbol
_atom_site_label
_atom_site_fract_x
_atom_site_fract_y
_atom_site_fract_z
Si Si1 0.339723 0.928868 0.557424
Si Si2 0.748915 0.185704 0.801093
Si Si3 0.231323 0.382711 0.568228
Si Si4 0.057883 0.210058 0.277824
Si Si5 0.803017 0.536124 0.924044
Si Si6 0.781400 0.751263 0.225136
O O1 0.500000 0.000000 0.500000
O O2 0.316280 0.835072 0.266636
O O3 0.516982 0.228671 0.800472
O O4 0.043565 0.668914 0.666243
O O5 0.805948 0.075172 0.473263
O O6 0.000000 0.500000 0.000000
O O7 0.500000 0.000000 0.000000
O O8 0.203774 0.477977 0.927843
O O9 0.507466 0.567535 0.421135
O O10 0.214327 0.421982 0.528952
O O11 0.998268 0.062715 0.401864
O O12 0.234383 0.368715 0.117034
O O13 0.000000 0.000000 0.000000
O O14 0.857548 0.739966 0.185168
#
# Coordination Sequence:
#
# PCOD8028484 Si02
#       6
#     2   2   2   2   2   2
#     4  12  28  48  73 101 143 196 246 303 365 435
#     4  12  29  50  79 108 148 194 251 302 367 442
#     4  11  24  39  69 107 140 188 238 296 359 442
#     4  10  25  46  75 106 150 189 246 301 371 427
#     4  12  24  44  72  99 145 184 247 294 372 424
#     4  11  22  43  66 103 146 186 237 296 368 428
#
# _framework density 24.260062000000001
#
# number of rings (size 3 to 8) (size 9 to 14) (size 15 to 20)
#    0.000    0.667    1.667    5.000    7.000    2.667 
#    0.000    0.000    0.000    0.000    0.000    0.000 
#    0.000    0.000    0.000    0.000    0.000    0.000 
#
# Total GULP energy -148743.065461 kJ/mol
# GULP energy per Si atom -12395.255455 kJ/mol
# Density = 2.420484 g / cm^3
# Si number density = 24.260062 Si / 1000 Ang^3
#
#
#
# Elastic Constant Matrix: (Units=GPa)
#
#
# Indices 1 2 3 4 5 6 
#
# 1 151.5946 22.7678 51.1315 -14.2619 31.1834 11.8179
# 2 22.7678 139.9633 46.3284 -18.4138 18.9942 3.6861
# 3 51.1315 46.3284 101.9741 -30.4403 30.8206 -2.9605
# 4 -14.2619 -18.4138 -30.4403 51.4715 -1.5462 7.9451
# 5 31.1834 18.9942 30.8206 -1.5462 67.1402 0.0875
# 6 11.8179 3.6861 -2.9605 7.9451 0.0875 30.0094
#
#
#
# Elastic Compliance Matrix: (Units=1/GPa)
#
#
# Indices 1 2 3 4 5 6 
#
# 1 0.008666 0.000344 -0.003598 0.000949 -0.002444 -0.004054
# 2 0.000344 0.008587 -0.003407 0.001416 -0.000990 -0.001898
# 3 -0.003598 -0.003407 0.016910 0.007395 -0.004959 0.001560
# 4 0.000949 0.001416 0.007395 0.025473 -0.003641 -0.006552
# 5 -0.002444 -0.000990 -0.004959 -0.003641 0.018500 0.001505
# 6 -0.004054 -0.001898 0.001560 -0.006552 0.001505 0.037037
#
#
# Mechanical properties :
#
#
# Convention : Reuss Voigt Hill
#
# Bulk Modulus (GPa) = 47.97859 70.44304 59.21082
# Shear Modulus (GPa) = 36.91620 47.94449 42.43034
#
# Velocity S-wave (km/s) = 3.90511 4.45035 4.18662
# Velocity P-wave (km/s) = 6.33663 7.45031 6.91593
#
# Compressibility (1/GPa) = 0.02084263
#
# Stress axis : x y z
#
# Youngs Moduli (GPa) = 115.38887 116.45348 59.13672
#
# Poissons Ratio (x) = -0.04011 0.21275
# Poissons Ratio (y) = -0.03974 0.20149
# Poissons Ratio (z) = 0.41512 0.39678
#
# Static dielectric constant tensor:
#      x y z
#    x 5.063010 -0.091840 0.521420 
#    y -0.091840 4.472540 0.056300 
#    z 0.521420 0.056300 4.723440 
# 
# 
# High freq. dielectric constant tensor:
#      x y z
#    x 1.987320 -0.003190 0.015520 
#    y -0.003190 1.961520 -0.008280 
#    z 0.015520 -0.008280 1.964020 
# 
# From -- ./inp_files/119070.got.cif
#   From: 2010.06.25/outbox.cif.g09.slc.cpg/sg2_60_cif.got.tgz:119070.got - 2010.06.27 13:26:56.
