data_PCOD8028494
_publ_section_title
;
Structure prediction by ZEFSAII (Michael W. Deem and Ramdas Pophale) SiO2 
 PCOD8028494
Probable space group: P -1
;
_chemical_formula_sum "Si O2"
_cell_formula_units_Z 14
_cell_length_a 9.518986
_cell_length_b 5.016787
_cell_length_c 14.095518
_cell_angle_alpha 109.776424
_cell_angle_beta 111.583328
_cell_angle_gamma 68.833684
_cell_volume 567.070680
_symmetry_space_group_name_H-M "P -1"
_symmetry_group_IT_number 2
_symmetry_cell_setting 'triclinic'
loop_
_space_group_symop_operation_xyz
x,y,z
-x,-y,-z
loop_
_atom_site_type_symbol
_atom_site_label
_atom_site_fract_x
_atom_site_fract_y
_atom_site_fract_z
Si Si1 0.602637 0.779661 0.258532
Si Si2 0.810329 0.462274 0.121824
Si Si3 0.279456 0.863586 0.102275
Si Si4 0.414565 0.832944 0.531405
Si Si5 0.101822 0.645931 0.670152
Si Si6 0.908329 0.228670 0.618654
Si Si7 0.120978 0.532806 0.154521
O O1 0.699217 0.761590 0.180223
O O2 0.438766 0.720041 0.182473
O O3 0.715334 0.532714 0.327199
O O4 0.564933 0.082359 0.343732
O O5 0.906333 0.265132 0.208786
O O6 0.938844 0.540162 0.094694
O O7 0.708926 0.284750 0.017075
O O8 0.144032 0.778759 0.117714
O O9 0.240279 0.214236 0.123068
O O10 0.500000 0.500000 0.500000
O O11 0.229976 0.881308 0.475245
O O12 0.500000 0.000000 0.500000
O O13 0.977488 0.448845 0.597738
O O14 0.054864 0.938795 0.631638
O O15 0.844995 0.379994 0.720244
#
# Coordination Sequence:
#
# PCOD8028494 Si02
#       7
#     2   2   2   2   2   2   2
#     4  10  25  47  67 102 133 177 227 279 328 403
#     4   9  22  45  64 102 132 179 225 275 327 402
#     4  12  23  42  68  97 138 180 217 281 337 383
#     4  12  26  45  70 101 134 173 219 276 342 399
#     4   9  23  39  66  93 130 167 222 268 319 390
#     4  11  21  43  65  94 134 170 218 271 326 386
#     4  11  23  40  66  99 133 177 225 270 333 403
#
# _framework density 24.688282000000001
#
# number of rings (size 3 to 8) (size 9 to 14) (size 15 to 20)
#    0.857    0.571    0.000    5.571    0.000    5.714 
#    0.000    1.429    0.000    0.000    0.000    0.000 
#    0.000    0.000    0.000    0.000    0.000    0.000 
#
# Total GULP energy -173500.285831 kJ/mol
# GULP energy per Si atom -12392.877559 kJ/mol
# Density = 2.463209 g / cm^3
# Si number density = 24.688282 Si / 1000 Ang^3
#
#
#
# Elastic Constant Matrix: (Units=GPa)
#
#
# Indices 1 2 3 4 5 6 
#
# 1 84.5657 30.9623 51.1686 8.0984 10.5462 -17.5850
# 2 30.9623 96.0857 16.7721 19.4590 3.6143 -4.5681
# 3 51.1686 16.7721 146.1508 21.7272 16.2368 -18.7428
# 4 8.0984 19.4590 21.7272 23.6440 -13.2206 -0.0837
# 5 10.5462 3.6143 16.2368 -13.2206 44.1194 -0.3016
# 6 -17.5850 -4.5681 -18.7428 -0.0837 -0.3016 39.0582
#
#
#
# Elastic Compliance Matrix: (Units=1/GPa)
#
#
# Indices 1 2 3 4 5 6 
#
# 1 0.017761 -0.004952 -0.005180 0.002052 -0.001285 0.004926
# 2 -0.004952 0.015327 0.003541 -0.017937 -0.006742 0.001172
# 3 -0.005180 0.003541 0.012289 -0.017301 -0.008732 0.003874
# 4 0.002052 -0.017937 -0.017301 0.091649 0.034747 -0.009012
# 5 -0.001285 -0.006742 -0.008732 0.034747 0.037115 -0.005196
# 6 0.004926 0.001172 0.003874 -0.009012 -0.005196 0.029757
#
#
# Mechanical properties :
#
#
# Convention : Reuss Voigt Hill
#
# Bulk Modulus (GPa) = 31.06284 58.28980 44.67632
# Shear Modulus (GPa) = 21.94789 36.55758 29.25274
#
# Velocity S-wave (km/s) = 2.98485 3.85225 3.44595
# Velocity P-wave (km/s) = 4.94858 6.59151 5.82822
#
# Compressibility (1/GPa) = 0.03219281
#
# Stress axis : x y z
#
# Youngs Moduli (GPa) = 56.30372 65.24471 81.37670
#
# Poissons Ratio (x) = 0.32308 0.42157
# Poissons Ratio (y) = 0.27881 -0.28813
# Poissons Ratio (z) = 0.29168 -0.23101
#
# Static dielectric constant tensor:
#      x y z
#    x 4.325370 -0.243550 0.083550 
#    y -0.243550 4.054620 0.003200 
#    z 0.083550 0.003200 4.756560 
# 
# 
# High freq. dielectric constant tensor:
#      x y z
#    x 1.977710 -0.013690 0.002290 
#    y -0.013690 1.954540 0.009010 
#    z 0.002290 0.009010 2.003320 
# 
# From -- ./inp_files/553113.got.cif
#   From: 2010.06.25/outbox.cif.g09.slc.cpg/sg2_277_cif.got.tgz:553113.got - 2010.06.27 13:26:56.
