data_PCOD8028677
_publ_section_title
;
Structure prediction by ZEFSAII (Michael W. Deem and Ramdas Pophale) SiO2 
 PCOD8028677
Probable space group: P -1
;
_chemical_formula_sum "Si O2"
_cell_formula_units_Z 16
_cell_length_a 23.423342
_cell_length_b 7.721811
_cell_length_c 4.784718
_cell_angle_alpha 56.702653
_cell_angle_beta 89.761325
_cell_angle_gamma 61.821858
_cell_volume 598.184107
_symmetry_space_group_name_H-M "P -1"
_symmetry_group_IT_number 2
_symmetry_cell_setting 'triclinic'
loop_
_space_group_symop_operation_xyz
x,y,z
-x,-y,-z
loop_
_atom_site_type_symbol
_atom_site_label
_atom_site_fract_x
_atom_site_fract_y
_atom_site_fract_z
Si Si1 0.347044 0.880805 0.633300
Si Si2 0.641459 0.514364 0.381606
Si Si3 0.419093 0.143801 0.406680
Si Si4 0.781306 0.373452 0.628671
Si Si5 0.892838 0.578751 0.486516
Si Si6 0.015116 0.284589 0.398046
Si Si7 0.874024 0.260279 0.204780
Si Si8 0.260093 0.114596 0.915289
O O1 0.401587 0.944362 0.670174
O O2 0.312374 0.867082 0.938834
O O3 0.386095 0.626649 0.671082
O O4 0.283408 0.089227 0.257307
O O5 0.606123 0.625850 0.581804
O O6 0.726622 0.310589 0.583020
O O7 0.620593 0.751148 0.979765
O O8 0.500000 0.000000 0.500000
O O9 0.835461 0.356284 0.417052
O O10 0.733230 0.672899 0.425749
O O11 0.823023 0.227508 0.034948
O O12 0.933420 0.714327 0.380251
O O13 0.819274 0.799899 0.168856
O O14 0.942039 0.347488 0.472481
O O15 0.887261 0.457733 0.881954
O O16 0.054485 0.007993 0.511070
O O17 0.000000 0.500000 0.000000
#
# Coordination Sequence:
#
# PCOD8028677 Si02
#       8
#     2   2   2   2   2   2   2   2
#     4  12  25  44  74 108 145 191 237 305 353 429
#     4  12  26  44  73 110 147 188 245 293 361 430
#     4  12  26  49  74 107 155 195 235 293 353 435
#     4  11  23  44  71 103 138 182 239 304 364 434
#     4  10  26  44  65  97 136 190 236 307 363 447
#     4  11  27  44  65  97 140 185 247 300 374 446
#     4  11  26  43  71  97 135 187 240 300 374 428
#     4  11  23  44  72  99 141 184 242 294 372 410
#
# _framework density 26.747620999999999
#
# number of rings (size 3 to 8) (size 9 to 14) (size 15 to 20)
#    0.000    0.750    2.500    3.750   12.250    1.500 
#    0.000    0.000    0.000    0.000    0.000    0.000 
#    0.000    0.000    0.000    0.000    0.000    0.000 
#
# Total GULP energy -198355.272229 kJ/mol
# GULP energy per Si atom -12397.204514 kJ/mol
# Density = 2.668674 g / cm^3
# Si number density = 26.747621 Si / 1000 Ang^3
#
#
#
# Elastic Constant Matrix: (Units=GPa)
#
#
# Indices 1 2 3 4 5 6 
#
# 1 163.2327 53.6929 8.3549 0.2124 -3.4760 -21.8379
# 2 53.6929 147.8778 5.8826 8.2009 3.7807 -20.2183
# 3 8.3549 5.8826 55.2645 15.3728 9.5930 -17.2191
# 4 0.2124 8.2009 15.3728 39.2898 1.1886 0.6550
# 5 -3.4760 3.7807 9.5930 1.1886 25.3731 0.3417
# 6 -21.8379 -20.2183 -17.2191 0.6550 0.3417 39.2479
#
#
#
# Elastic Compliance Matrix: (Units=1/GPa)
#
#
# Indices 1 2 3 4 5 6 
#
# 1 0.007302 -0.002338 -0.000428 0.000528 0.001450 0.002649
# 2 -0.002338 0.008240 0.001661 -0.002355 -0.002116 0.003730
# 3 -0.000428 0.001661 0.026600 -0.010658 -0.010033 0.012553
# 4 0.000528 -0.002355 -0.010658 0.030118 0.003124 -0.006125
# 5 0.001450 -0.002116 -0.010033 0.003124 0.043642 -0.005117
# 6 0.002649 0.003730 0.012553 -0.006125 -0.005117 0.034529
#
#
# Mechanical properties :
#
#
# Convention : Reuss Voigt Hill
#
# Bulk Modulus (GPa) = 25.04326 55.80398 40.42362
# Shear Modulus (GPa) = 30.12920 40.67847 35.40383
#
# Velocity S-wave (km/s) = 3.35987 3.90401 3.64211
# Velocity P-wave (km/s) = 4.94315 6.42107 5.72996
#
# Compressibility (1/GPa) = 0.03993091
#
# Stress axis : x y z
#
# Youngs Moduli (GPa) = 136.95051 121.35848 37.59386
#
# Poissons Ratio (x) = 0.28379 0.01610
# Poissons Ratio (y) = 0.32025 -0.06245
# Poissons Ratio (z) = 0.05866 -0.20160
#
# Static dielectric constant tensor:
#      x y z
#    x 5.022760 0.241610 0.182220 
#    y 0.241610 4.916220 -0.021780 
#    z 0.182220 -0.021780 4.754510 
# 
# 
# High freq. dielectric constant tensor:
#      x y z
#    x 2.080980 0.014460 0.002400 
#    y 0.014460 2.081610 0.001170 
#    z 0.002400 0.001170 2.075880 
# 
# From -- ./inp_files/122341.got.cif
#   From: 2010.06.25/outbox.cif.g09.slc.cpg/sg2_62_cif.got.tgz:122341.got - 2010.06.27 13:26:56.
