data_PCOD8028717
_publ_section_title
;
Structure prediction by ZEFSAII (Michael W. Deem and Ramdas Pophale) SiO2 
 PCOD8028717
Probable space group: P -1
;
_chemical_formula_sum "Si O2"
_cell_formula_units_Z 16
_cell_length_a 8.921944
_cell_length_b 10.798054
_cell_length_c 14.125043
_cell_angle_alpha 122.363217
_cell_angle_beta 140.981896
_cell_angle_gamma 77.584310
_cell_volume 670.022328
_symmetry_space_group_name_H-M "P -1"
_symmetry_group_IT_number 2
_symmetry_cell_setting 'triclinic'
loop_
_space_group_symop_operation_xyz
x,y,z
-x,-y,-z
loop_
_atom_site_type_symbol
_atom_site_label
_atom_site_fract_x
_atom_site_fract_y
_atom_site_fract_z
Si Si1 0.564661 0.865982 0.563416
Si Si2 0.905515 0.574625 0.897348
Si Si3 0.577485 0.162604 0.041688
Si Si4 0.341503 0.311260 0.833867
Si Si5 0.452679 0.670753 0.734430
Si Si6 0.830304 0.358808 0.598642
Si Si7 0.425098 0.807878 0.272146
Si Si8 0.893001 0.008123 0.052314
O O1 0.454492 0.757014 0.555979
O O2 0.449839 0.751850 0.369416
O O3 0.872509 0.945183 0.739226
O O4 0.450025 0.002750 0.577487
O O5 0.618337 0.560991 0.774274
O O6 0.928643 0.506955 0.777930
O O7 0.000000 0.500000 0.000000
O O8 0.123467 0.753151 0.072257
O O9 0.370968 0.200029 0.888723
O O10 0.679681 0.314802 0.224770
O O11 0.792936 0.153622 0.071122
O O12 0.500000 0.000000 0.000000
O O13 0.418180 0.255936 0.749383
O O14 0.038940 0.277519 0.666735
O O15 0.500000 0.500000 0.000000
O O16 0.223805 0.598263 0.516716
O O17 0.659455 0.846540 0.891600
O O18 0.000000 0.000000 0.000000
#
# Coordination Sequence:
#
# PCOD8028717 Si02
#       8
#     2   2   2   2   2   2   2   2
#     4  11  24  42  71 108 136 189 246 303 362 433
#     4  12  23  45  72  99 147 193 240 301 372 443
#     4  10  26  45  72 105 143 196 237 298 372 429
#     4  12  27  49  74 105 150 195 242 304 374 441
#     4  11  25  44  70 103 146 191 239 301 364 437
#     4  12  26  44  73 108 142 191 248 298 371 441
#     4  11  25  43  73 104 143 188 243 306 365 433
#     4  11  21  43  71 100 146 183 240 301 364 424
#
# _framework density 23.879801
#
# number of rings (size 3 to 8) (size 9 to 14) (size 15 to 20)
#    0.000    0.750    5.000    1.875    3.500    1.500 
#    2.250    0.625    0.000    0.000    0.000    0.000 
#    0.000    0.000    0.000    0.000    0.000    0.000 
#
# Total GULP energy -198214.715756 kJ/mol
# GULP energy per Si atom -12388.419735 kJ/mol
# Density = 2.382545 g / cm^3
# Si number density = 23.879801 Si / 1000 Ang^3
#
#
#
# Elastic Constant Matrix: (Units=GPa)
#
#
# Indices 1 2 3 4 5 6 
#
# 1 119.5146 45.6148 50.3952 -5.8776 -37.8398 -32.6780
# 2 45.6148 116.7484 44.4088 -26.2542 -14.1849 -23.8800
# 3 50.3952 44.4088 143.1319 -22.2063 -27.1512 -17.6255
# 4 -5.8776 -26.2542 -22.2063 42.5047 -0.1130 1.4523
# 5 -37.8398 -14.1849 -27.1512 -0.1130 46.7174 9.5670
# 6 -32.6780 -23.8800 -17.6255 1.4523 9.5670 40.8301
#
#
#
# Elastic Compliance Matrix: (Units=1/GPa)
#
#
# Indices 1 2 3 4 5 6 
#
# 1 0.014998 -0.002697 -0.002016 -0.000881 0.008605 0.007571
# 2 -0.002697 0.012479 -0.001404 0.006454 -0.000081 0.004323
# 3 -0.002016 -0.001404 0.009428 0.003763 0.003279 0.000733
# 4 -0.000881 0.006454 0.003763 0.029263 0.002895 0.002975
# 5 0.008605 -0.000081 0.003279 0.002895 0.030035 0.001114
# 6 0.007571 0.004323 0.000733 0.002975 0.001114 0.033029
#
#
# Mechanical properties :
#
#
# Convention : Reuss Voigt Hill
#
# Bulk Modulus (GPa) = 40.53347 73.35918 56.94633
# Shear Modulus (GPa) = 33.40248 41.94217 37.67233
#
# Velocity S-wave (km/s) = 3.74408 4.19547 3.97619
# Velocity P-wave (km/s) = 5.97508 7.36588 6.70663
#
# Compressibility (1/GPa) = 0.02467097
#
# Stress axis : x y z
#
# Youngs Moduli (GPa) = 66.67733 80.13505 106.06532
#
# Poissons Ratio (x) = 0.21613 0.21381
# Poissons Ratio (y) = 0.17983 0.14891
# Poissons Ratio (z) = 0.13441 0.11251
#
# Static dielectric constant tensor:
#      x y z
#    x -1.082480 0.961230 -0.990550 
#    y 0.961230 4.098540 0.153040 
#    z -0.990550 0.153040 4.404700 
# 
# 
# High freq. dielectric constant tensor:
#      x y z
#    x 1.953720 -0.014670 -0.021960 
#    y -0.014670 1.946820 -0.001620 
#    z -0.021960 -0.001620 1.948680 
# 
# From -- ./inp_files/298125.got.cif
#   From: 2010.06.25/outbox.cif.g09.slc.cpg/sg2_150_cif.got.tgz:298125.got - 2010.06.27 13:26:56.
