data_PCOD8028239
_publ_section_title
;
Structure prediction by ZEFSAII (Michael W. Deem and Ramdas Pophale) SiO2 
 PCOD8028239
Probable space group: P -1
;
_chemical_formula_sum "Si O2"
_cell_formula_units_Z 12
_cell_length_a 14.264085
_cell_length_b 8.149208
_cell_length_c 11.995255
_cell_angle_alpha 112.942858
_cell_angle_beta 152.702399
_cell_angle_gamma 54.267796
_cell_volume 486.850111
_symmetry_space_group_name_H-M "P -1"
_symmetry_group_IT_number 2
_symmetry_cell_setting 'triclinic'
loop_
_space_group_symop_operation_xyz
x,y,z
-x,-y,-z
loop_
_atom_site_type_symbol
_atom_site_label
_atom_site_fract_x
_atom_site_fract_y
_atom_site_fract_z
Si Si1 0.849442 0.776404 0.321574
Si Si2 0.213499 0.659609 0.353855
Si Si3 0.643589 0.610341 0.224140
Si Si4 0.434960 0.748599 0.814758
Si Si5 0.330081 0.986462 0.154365
Si Si6 0.429938 0.802708 0.444427
O O1 0.791051 0.715115 0.364176
O O2 0.139118 0.618245 0.551360
O O3 0.794987 0.013260 0.331876
O O4 0.668629 0.765933 0.038081
O O5 0.383090 0.650923 0.630176
O O6 0.262272 0.742253 0.313660
O O7 0.302427 0.412672 0.364928
O O8 0.924334 0.818663 0.118696
O O9 0.440979 0.772499 0.141521
O O10 0.511172 0.590632 0.964715
O O11 0.279911 0.937186 0.212395
O O12 0.522158 0.055288 0.384812
#
# Coordination Sequence:
#
# PCOD8028239 Si02
#       6
#     2   2   2   2   2   2
#     4   8  17  35  57  94 121 165 197 239 319 372
#     4  11  23  43  66  93 125 163 213 260 305 373
#     4   9  18  35  60  90 122 159 199 248 312 367
#     4   9  18  35  61  91 121 159 202 250 312 365
#     4  11  23  43  65  93 126 164 210 259 309 371
#     4  10  25  45  61  91 125 172 209 255 313 359
#
# _framework density 24.648243999999998
#
# number of rings (size 3 to 8) (size 9 to 14) (size 15 to 20)
#    1.000    1.333    0.000    2.000    0.000    3.333 
#   15.000    1.667    0.000    0.000    0.000    0.000 
#    0.000    0.000    0.000    0.000    0.000    0.000 
#
# Total GULP energy -148807.048902 kJ/mol
# GULP energy per Si atom -12400.587408 kJ/mol
# Density = 2.459214 g / cm^3
# Si number density = 24.648244 Si / 1000 Ang^3
#
#
#
# Elastic Constant Matrix: (Units=GPa)
#
#
# Indices 1 2 3 4 5 6 
#
# 1 37.2934 14.2188 19.0938 2.2375 -5.2813 -14.5768
# 2 14.2188 99.8935 44.0370 -16.3683 -13.7437 -19.2568
# 3 19.0938 44.0370 109.9898 -22.9023 -6.8149 -25.3972
# 4 2.2375 -16.3683 -22.9023 45.4401 -7.8674 -2.5688
# 5 -5.2813 -13.7437 -6.8149 -7.8674 32.0856 -2.6991
# 6 -14.5768 -19.2568 -25.3972 -2.5688 -2.6991 41.1353
#
#
#
# Elastic Compliance Matrix: (Units=1/GPa)
#
#
# Indices 1 2 3 4 5 6 
#
# 1 0.033449 -0.001283 -0.003408 -0.002542 0.004389 0.009277
# 2 -0.001283 0.014274 -0.002692 0.005381 0.007102 0.005367
# 3 -0.003408 -0.002692 0.014123 0.007345 0.003671 0.006951
# 4 -0.002542 0.005381 0.007345 0.030281 0.011612 0.008806
# 5 0.004389 0.007102 0.003671 0.011612 0.039438 0.010459
# 6 0.009277 0.005367 0.006951 0.008806 0.010459 0.035638
#
#
# Mechanical properties :
#
#
# Convention : Reuss Voigt Hill
#
# Bulk Modulus (GPa) = 21.24100 44.65287 32.94693
# Shear Modulus (GPa) = 25.29572 35.05400 30.17486
#
# Velocity S-wave (km/s) = 3.20702 3.77526 3.50268
# Velocity P-wave (km/s) = 4.72754 6.09580 5.45474
#
# Compressibility (1/GPa) = 0.04707876
#
# Stress axis : x y z
#
# Youngs Moduli (GPa) = 29.89641 70.05955 70.80535
#
# Poissons Ratio (x) = 0.08988 0.24132
# Poissons Ratio (y) = 0.03835 0.19063
# Poissons Ratio (z) = 0.10189 0.18863
#
# Static dielectric constant tensor:
#      x y z
#    x 4.190710 0.276050 -0.101570 
#    y 0.276050 4.483320 -0.156850 
#    z -0.101570 -0.156850 4.320350 
# 
# 
# High freq. dielectric constant tensor:
#      x y z
#    x 1.973430 0.022010 -0.004310 
#    y 0.022010 1.992090 -0.006360 
#    z -0.004310 -0.006360 1.981210 
# 
# From -- ./inp_files/536756.got.cif
#   From: 2010.06.25/outbox.cif.g09.slc.cpg/sg2_269_cif.got.tgz:536756.got - 2010.06.27 13:26:56.
