data_PCOD8028645
_publ_section_title
;
Structure prediction by ZEFSAII (Michael W. Deem and Ramdas Pophale) SiO2 
 PCOD8028645
Probable space group: P -1
;
_chemical_formula_sum "Si O2"
_cell_formula_units_Z 16
_cell_length_a 14.193687
_cell_length_b 12.494521
_cell_length_c 16.091420
_cell_angle_alpha 50.233721
_cell_angle_beta 149.325457
_cell_angle_gamma 149.603030
_cell_volume 676.454273
_symmetry_space_group_name_H-M "P -1"
_symmetry_group_IT_number 2
_symmetry_cell_setting 'triclinic'
loop_
_space_group_symop_operation_xyz
x,y,z
-x,-y,-z
loop_
_atom_site_type_symbol
_atom_site_label
_atom_site_fract_x
_atom_site_fract_y
_atom_site_fract_z
Si Si1 0.994538 0.248851 0.748318
Si Si2 0.194106 0.402832 0.512599
Si Si3 0.659249 0.776246 0.193745
Si Si4 0.744328 0.739846 0.520076
Si Si5 0.573690 0.166265 0.579278
Si Si6 0.608185 0.755590 0.969068
Si Si7 0.534791 0.031343 0.241293
Si Si8 0.348829 0.722157 0.129566
O O1 0.862448 0.246863 0.729940
O O2 0.105088 0.156211 0.895758
O O3 0.736001 0.091701 0.559827
O O4 0.293916 0.509336 0.812855
O O5 0.374358 0.402091 0.708493
O O6 0.087016 0.257246 0.420506
O O7 0.406473 0.662402 0.521611
O O8 0.895362 0.280246 0.393578
O O9 0.584506 0.726817 0.065093
O O10 0.412726 0.729009 0.077293
O O11 0.003786 0.041628 0.336635
O O12 0.500000 0.500000 0.500000
O O13 0.570634 0.755614 0.332467
O O14 0.557649 0.148538 0.675918
O O15 0.646334 0.939428 0.882651
O O16 0.437296 0.930886 0.123326
O O17 0.000000 0.500000 0.000000
#
# Coordination Sequence:
#
# PCOD8028645 Si02
#       8
#     2   2   2   2   2   2   2   2
#     4  10  25  50  64 103 133 175 243 284 344 407
#     4  11  22  45  71 101 137 181 231 278 334 421
#     4  11  24  46  69 100 148 185 223 278 344 417
#     4  11  23  41  69 101 140 187 228 271 337 422
#     4  11  25  47  76  98 130 183 239 283 341 409
#     4  11  26  45  69 100 143 178 223 294 352 390
#     4  12  24  44  73 102 141 178 227 284 349 408
#     4  11  25  41  64 106 141 178 230 274 341 413
#
# _framework density 23.652746
#
# number of rings (size 3 to 8) (size 9 to 14) (size 15 to 20)
#    0.000    1.000    3.750    2.250    5.250    3.500 
#    9.000    0.000    0.000    0.000    0.000    0.000 
#    0.000    0.000    0.000    0.000    0.000    0.000 
#
# Total GULP energy -198363.592016 kJ/mol
# GULP energy per Si atom -12397.724501 kJ/mol
# Density = 2.359891 g / cm^3
# Si number density = 23.652746 Si / 1000 Ang^3
#
#
#
# Elastic Constant Matrix: (Units=GPa)
#
#
# Indices 1 2 3 4 5 6 
#
# 1 71.4500 23.4214 21.0725 0.9144 13.7415 -8.2051
# 2 23.4214 117.9265 25.5040 -8.9756 0.3070 -2.1805
# 3 21.0725 25.5040 66.5687 12.8093 23.0996 -3.4812
# 4 0.9144 -8.9756 12.8093 30.7154 -1.4731 3.1505
# 5 13.7415 0.3070 23.0996 -1.4731 42.1271 -5.1004
# 6 -8.2051 -2.1805 -3.4812 3.1505 -5.1004 39.3939
#
#
#
# Elastic Compliance Matrix: (Units=1/GPa)
#
#
# Indices 1 2 3 4 5 6 
#
# 1 0.016703 -0.002712 -0.002736 -0.000596 -0.003627 0.002665
# 2 -0.002712 0.010713 -0.005849 0.005893 0.004169 -0.000420
# 3 -0.002736 -0.005849 0.025245 -0.012859 -0.013279 0.000646
# 4 -0.000596 0.005893 -0.012859 0.040372 0.008239 -0.003096
# 5 -0.003627 0.004169 -0.013279 0.008239 0.032687 0.001875
# 6 0.002665 -0.000420 0.000646 -0.003096 0.001875 0.026464
#
#
# Mechanical properties :
#
#
# Convention : Reuss Voigt Hill
#
# Bulk Modulus (GPa) = 33.25797 43.99344 38.62571
# Shear Modulus (GPa) = 27.05639 34.84376 30.95008
#
# Velocity S-wave (km/s) = 3.38583 3.84231 3.62127
# Velocity P-wave (km/s) = 5.42002 6.19068 5.81813
#
# Compressibility (1/GPa) = 0.03006798
#
# Stress axis : x y z
#
# Youngs Moduli (GPa) = 59.86974 93.34133 39.61243
#
# Poissons Ratio (x) = 0.25318 0.10836
# Poissons Ratio (y) = 0.16239 0.23167
# Poissons Ratio (z) = 0.16377 0.54591
#
# Static dielectric constant tensor:
#      x y z
#    x 4.510430 -0.309200 0.294900 
#    y -0.309200 4.176070 -0.065430 
#    z 0.294900 -0.065430 4.096190 
# 
# 
# High freq. dielectric constant tensor:
#      x y z
#    x 1.943960 -0.018110 0.020760 
#    y -0.018110 1.933170 0.004380 
#    z 0.020760 0.004380 1.927830 
# 
# From -- ./inp_files/299749.got.cif
#   From: 2010.06.25/outbox.cif.g09.slc.cpg/sg2_150_cif.got.tgz:299749.got - 2010.06.27 13:26:56.
