data_PCOD8028889
_publ_section_title
;
Structure prediction by ZEFSAII (Michael W. Deem and Ramdas Pophale) SiO2 
 PCOD8028889
Probable space group: P -1
;
_chemical_formula_sum "Si O2"
_cell_formula_units_Z 16
_cell_length_a 9.785612
_cell_length_b 12.127688
_cell_length_c 10.051547
_cell_angle_alpha 36.602741
_cell_angle_beta 71.423615
_cell_angle_gamma 62.258076
_cell_volume 626.072009
_symmetry_space_group_name_H-M "P -1"
_symmetry_group_IT_number 2
_symmetry_cell_setting 'triclinic'
loop_
_space_group_symop_operation_xyz
x,y,z
-x,-y,-z
loop_
_atom_site_type_symbol
_atom_site_label
_atom_site_fract_x
_atom_site_fract_y
_atom_site_fract_z
Si Si1 0.961881 0.778453 0.528043
Si Si2 0.994363 0.896440 0.926221
Si Si3 0.232590 0.498685 0.154947
Si Si4 0.296480 0.087297 0.861192
Si Si5 0.528312 0.879780 0.469410
Si Si6 0.536518 0.684667 0.256482
Si Si7 0.761842 0.522768 0.123143
Si Si8 0.188931 0.085050 0.298705
O O1 0.873587 0.631625 0.668035
O O2 0.878057 0.941250 0.511815
O O3 0.137254 0.655294 0.640675
O O4 0.961379 0.906213 0.269810
O O5 0.901505 0.949408 0.764584
O O6 0.885735 0.874776 0.100041
O O7 0.151722 0.700151 0.068360
O O8 0.402532 0.358723 0.293508
O O9 0.255042 0.558878 0.938505
O O10 0.346290 0.067570 0.709959
O O11 0.333183 0.270580 0.738623
O O12 0.383669 0.882848 0.111473
O O13 0.500000 0.000000 0.500000
O O14 0.369916 0.938203 0.377686
O O15 0.500000 0.500000 0.500000
O O16 0.595964 0.634038 0.135716
O O17 0.843121 0.680780 0.924237
#
# Coordination Sequence:
#
# PCOD8028889 Si02
#       8
#     2   2   2   2   2   2   2   2
#     4  11  21  36  67 100 121 168 214 267 321 373
#     4  12  23  41  66  98 130 159 222 273 317 383
#     4  11  23  41  65  92 131 175 212 258 324 385
#     4  11  23  41  63  93 131 173 212 266 328 381
#     4  12  23  43  69  90 130 183 212 265 329 385
#     4  11  21  39  64  97 133 165 213 270 329 382
#     4  11  18  37  64  95 123 163 214 265 321 374
#     4  11  19  38  66  92 127 162 212 265 321 373
#
# _framework density 25.556163000000002
#
# number of rings (size 3 to 8) (size 9 to 14) (size 15 to 20)
#    0.000    0.750    7.500    2.625    0.000    0.500 
#    0.000    2.500    2.750    0.000    0.000    0.000 
#    0.000    0.000    0.000    0.000    0.000    0.000 
#
# Total GULP energy -198355.485008 kJ/mol
# GULP energy per Si atom -12397.217813 kJ/mol
# Density = 2.549800 g / cm^3
# Si number density = 25.556163 Si / 1000 Ang^3
#
#
#
# Elastic Constant Matrix: (Units=GPa)
#
#
# Indices 1 2 3 4 5 6 
#
# 1 26.0559 17.9869 29.1938 -2.5110 10.1998 -16.8391
# 2 17.9869 129.7213 57.8403 9.5604 2.3509 -24.8932
# 3 29.1938 57.8403 136.2637 -18.2623 -4.2332 -4.8959
# 4 -2.5110 9.5604 -18.2623 45.9305 -18.8237 11.7690
# 5 10.1998 2.3509 -4.2332 -18.8237 37.6007 -3.3528
# 6 -16.8391 -24.8932 -4.8959 11.7690 -3.3528 29.6468
#
#
#
# Elastic Compliance Matrix: (Units=1/GPa)
#
#
# Indices 1 2 3 4 5 6 
#
# 1 -3.973435 -1.072948 1.578690 2.482482 2.241868 -3.629028
# 2 -1.072948 -0.274155 0.418223 0.656747 0.598138 -0.963624
# 3 1.578690 0.418223 -0.615009 -0.974752 -0.883812 1.433284
# 4 2.482482 0.656747 -0.974752 -1.506298 -1.378334 2.242585
# 5 2.241868 0.598138 -0.883812 -1.378334 -1.226741 2.038070
# 6 -3.629028 -0.963624 1.433284 2.242585 2.038070 -3.259710
#
#
# Mechanical properties :
#
#
# Convention : Reuss Voigt Hill
#
# Bulk Modulus (GPa) = -0.33171 55.78699 27.72764
# Shear Modulus (GPa) = -0.36475 35.10359 17.36942
#
# Velocity S-wave (km/s) = -0.37820 3.71021 2.60985
# Velocity P-wave (km/s) = 0.56638 6.34278 4.46710
#
# Compressibility (1/GPa) = -3.01467145
#
# Stress axis : x y z
#
# Youngs Moduli (GPa) = -0.25167 -3.64757 -1.62599
#
# Poissons Ratio (x) = -3.91365 2.56694
# Poissons Ratio (y) = -0.27003 0.68003
# Poissons Ratio (z) = 0.39731 1.52550
#
# Static dielectric constant tensor:
#      x y z
#    x 4.439470 -0.247170 0.108120 
#    y -0.247170 4.708280 0.048370 
#    z 0.108120 0.048370 4.762300 
# 
# 
# High freq. dielectric constant tensor:
#      x y z
#    x 1.995910 -0.015640 0.002500 
#    y -0.015640 2.024860 0.004010 
#    z 0.002500 0.004010 2.030630 
# 
# From -- ./inp_files/432269.got.cif
#   From: 2010.06.25/outbox.cif.g09.slc.cpg/sg2_217_cif.got.tgz:432269.got - 2010.06.27 13:26:56.
