data_PCOD8028532
_publ_section_title
;
Structure prediction by ZEFSAII (Michael W. Deem and Ramdas Pophale) SiO2 
 PCOD8028532
Probable space group: P -1
;
_chemical_formula_sum "Si O2"
_cell_formula_units_Z 16
_cell_length_a 7.370327
_cell_length_b 18.023958
_cell_length_c 7.533223
_cell_angle_alpha 48.435234
_cell_angle_beta 57.109639
_cell_angle_gamma 67.572755
_cell_volume 628.378104
_symmetry_space_group_name_H-M "P -1"
_symmetry_group_IT_number 2
_symmetry_cell_setting 'triclinic'
loop_
_space_group_symop_operation_xyz
x,y,z
-x,-y,-z
loop_
_atom_site_type_symbol
_atom_site_label
_atom_site_fract_x
_atom_site_fract_y
_atom_site_fract_z
Si Si1 0.566762 0.786853 0.647447
Si Si2 0.925264 0.635937 0.689478
Si Si3 0.135526 0.098748 0.431190
Si Si4 0.404138 0.423707 0.499887
Si Si5 0.329745 0.948486 0.297294
Si Si6 0.947686 0.698321 0.991407
Si Si7 0.715852 0.442407 0.028495
Si Si8 0.324457 0.636688 0.237698
O O1 0.712769 0.696244 0.631013
O O2 0.729800 0.862309 0.536542
O O3 0.433800 0.843447 0.473514
O O4 0.404038 0.738758 0.949318
O O5 0.944335 0.657338 0.855621
O O6 0.126089 0.671366 0.411349
O O7 0.902250 0.518804 0.853413
O O8 0.084234 0.184132 0.174596
O O9 0.896022 0.064063 0.670936
O O10 0.278429 0.012603 0.399077
O O11 0.628623 0.389513 0.338051
O O12 0.293546 0.530649 0.314644
O O13 0.465695 0.413230 0.691577
O O14 0.214415 0.344819 0.708966
O O15 0.500000 0.000000 0.000000
O O16 0.187983 0.651612 0.997993
O O17 0.500000 0.500000 0.000000
#
# Coordination Sequence:
#
# PCOD8028532 Si02
#       8
#     2   2   2   2   2   2   2   2
#     4  11  24  45  73 105 139 179 234 282 345 421
#     4  11  21  39  62  96 129 181 229 268 326 398
#     4  10  25  47  72 106 131 179 232 286 352 415
#     4  11  20  37  63  90 134 186 222 266 323 392
#     4  11  27  50  76 101 138 171 225 305 362 414
#     4  11  22  41  68  93 133 179 232 272 324 413
#     4  12  25  37  55  95 141 184 227 274 324 396
#     4  11  20  36  67  95 130 180 228 270 323 395
#
# _framework density 25.462377
#
# number of rings (size 3 to 8) (size 9 to 14) (size 15 to 20)
#    0.000    1.000    6.250    1.500    1.750    6.000 
#    2.250    0.000    0.000    0.000    0.000    0.000 
#    0.000    0.000    0.000    0.000    0.000    0.000 
#
# Total GULP energy -198212.333817 kJ/mol
# GULP energy per Si atom -12388.270864 kJ/mol
# Density = 2.540442 g / cm^3
# Si number density = 25.462377 Si / 1000 Ang^3
#
#
#
# Elastic Constant Matrix: (Units=GPa)
#
#
# Indices 1 2 3 4 5 6 
#
# 1 71.5913 10.3887 25.4280 3.3477 -7.6634 -10.1521
# 2 10.3887 88.1360 33.2873 1.4030 -10.2551 -20.9358
# 3 25.4280 33.2873 169.8118 11.1289 -29.4432 -23.5207
# 4 3.3477 1.4030 11.1289 39.8849 -19.0862 -4.6396
# 5 -7.6634 -10.2551 -29.4432 -19.0862 40.6749 -9.7863
# 6 -10.1521 -20.9358 -23.5207 -4.6396 -9.7863 46.9340
#
#
#
# Elastic Compliance Matrix: (Units=1/GPa)
#
#
# Indices 1 2 3 4 5 6 
#
# 1 0.015216 -0.000163 -0.001308 0.000980 0.003136 0.003314
# 2 -0.000163 0.014187 -0.000809 0.003769 0.006565 0.007629
# 3 -0.001308 -0.000809 0.008181 0.002191 0.007773 0.005293
# 4 0.000980 0.003769 0.002191 0.036308 0.022469 0.011266
# 5 0.003136 0.006565 0.007773 0.022469 0.047735 0.019677
# 6 0.003314 0.007629 0.005293 0.011266 0.019677 0.033296
#
#
# Mechanical properties :
#
#
# Convention : Reuss Voigt Hill
#
# Bulk Modulus (GPa) = 30.28071 51.97189 41.12630
# Shear Modulus (GPa) = 29.32716 42.86110 36.09413
#
# Velocity S-wave (km/s) = 3.39748 4.10727 3.76912
# Velocity P-wave (km/s) = 5.22576 6.55351 5.92693
#
# Compressibility (1/GPa) = 0.03302432
#
# Stress axis : x y z
#
# Youngs Moduli (GPa) = 65.71938 70.48784 122.24070
#
# Poissons Ratio (x) = 0.01150 0.15990
# Poissons Ratio (y) = 0.01072 0.09883
# Poissons Ratio (z) = 0.08596 0.05699
#
# Static dielectric constant tensor:
#      x y z
#    x 5.291410 -0.264700 0.107740 
#    y -0.264700 4.595070 -0.395490 
#    z 0.107740 -0.395490 4.031530 
# 
# 
# High freq. dielectric constant tensor:
#      x y z
#    x 2.045590 -0.019990 -0.000840 
#    y -0.019990 2.004900 0.005810 
#    z -0.000840 0.005810 2.023160 
# 
# From -- ./inp_files/222973.got.cif
#   From: 2010.06.25/outbox.cif.g09.slc.cpg/sg2_112_cif.got.tgz:222973.got - 2010.06.27 13:26:56.
