data_PCOD8028541
_publ_section_title
;
Structure prediction by ZEFSAII (Michael W. Deem and Ramdas Pophale) SiO2 
 PCOD8028541
Probable space group: P -1
;
_chemical_formula_sum "Si O2"
_cell_formula_units_Z 14
_cell_length_a 5.074892
_cell_length_b 11.613979
_cell_length_c 13.229004
_cell_angle_alpha 92.266349
_cell_angle_beta 97.170782
_cell_angle_gamma 128.334350
_cell_volume 599.934378
_symmetry_space_group_name_H-M "P -1"
_symmetry_group_IT_number 2
_symmetry_cell_setting 'triclinic'
loop_
_space_group_symop_operation_xyz
x,y,z
-x,-y,-z
loop_
_atom_site_type_symbol
_atom_site_label
_atom_site_fract_x
_atom_site_fract_y
_atom_site_fract_z
Si Si1 0.520004 0.799432 0.151417
Si Si2 0.782242 0.508966 0.571390
Si Si3 0.903854 0.185748 0.308997
Si Si4 0.694148 0.924284 0.593643
Si Si5 0.840610 0.091469 0.085153
Si Si6 0.581768 0.800006 0.379521
Si Si7 0.780853 0.671733 0.045328
O O1 0.489562 0.830523 0.267804
O O2 0.639119 0.700107 0.138089
O O3 0.148375 0.713814 0.080749
O O4 0.835310 0.959320 0.123163
O O5 0.500000 0.500000 0.500000
O O6 0.598497 0.372925 0.635944
O O7 0.000000 0.500000 0.500000
O O8 0.999483 0.657301 0.652433
O O9 0.541774 0.066116 0.342646
O O10 0.836879 0.172577 0.185660
O O11 0.177231 0.163482 0.356153
O O12 0.475412 0.841886 0.476929
O O13 0.006086 0.095716 0.590048
O O14 0.170897 0.220443 0.039378
O O15 0.500000 0.000000 0.000000
O O16 0.500000 0.500000 0.000000
#
# Coordination Sequence:
#
# PCOD8028541 Si02
#       7
#     2   2   2   2   2   2   2
#     4  11  25  45  73 100 136 181 228 282 347 403
#     4  12  25  46  66 100 144 187 221 279 345 414
#     4  12  24  47  68 103 136 186 231 278 351 406
#     4  11  26  43  72 101 140 180 229 280 333 421
#     4  10  25  47  73  98 137 180 235 291 340 405
#     4  11  25  45  70 104 141 180 228 283 338 415
#     4  11  26  48  70 104 136 177 230 288 345 408
#
# _framework density 23.335885000000001
#
# number of rings (size 3 to 8) (size 9 to 14) (size 15 to 20)
#    0.000    0.857    4.286    0.857    6.000    8.000 
#    2.571    0.000    0.000    0.000    0.000    0.000 
#    0.000    0.000    0.000    0.000    0.000    0.000 
#
# Total GULP energy -173501.553711 kJ/mol
# GULP energy per Si atom -12392.968122 kJ/mol
# Density = 2.328277 g / cm^3
# Si number density = 23.335885 Si / 1000 Ang^3
#
#
#
# Elastic Constant Matrix: (Units=GPa)
#
#
# Indices 1 2 3 4 5 6 
#
# 1 94.9448 19.7207 32.6817 5.7534 -15.6393 2.7715
# 2 19.7207 144.5830 44.9422 9.0361 -0.9887 10.7899
# 3 32.6817 44.9422 163.6181 10.3682 -12.1006 0.2335
# 4 5.7534 9.0361 10.3682 46.6964 -6.8640 -1.2541
# 5 -15.6393 -0.9887 -12.1006 -6.8640 29.9104 2.0851
# 6 2.7715 10.7899 0.2335 -1.2541 2.0851 25.8466
#
#
#
# Elastic Compliance Matrix: (Units=1/GPa)
#
#
# Indices 1 2 3 4 5 6 
#
# 1 0.012341 -0.000988 -0.001757 -0.000127 0.005776 -0.001367
# 2 -0.000988 0.007977 -0.001994 -0.001229 -0.001120 -0.003175
# 3 -0.001757 -0.001994 0.007181 -0.000721 0.001701 0.000784
# 4 -0.000127 -0.001229 -0.000721 0.022551 0.004689 0.001249
# 5 0.005776 -0.001120 0.001701 0.004689 0.038392 -0.003037
# 6 -0.001367 -0.003175 0.000784 0.001249 -0.003037 0.040461
#
#
# Mechanical properties :
#
#
# Convention : Reuss Voigt Hill
#
# Bulk Modulus (GPa) = 55.48820 66.42612 60.95716
# Shear Modulus (GPa) = 34.62895 40.87743 37.75319
#
# Velocity S-wave (km/s) = 3.85637 4.18987 4.02657
# Velocity P-wave (km/s) = 6.60745 7.20650 6.91347
#
# Compressibility (1/GPa) = 0.01802185
#
# Stress axis : x y z
#
# Youngs Moduli (GPa) = 81.02897 125.35698 139.26049
#
# Poissons Ratio (x) = 0.12383 0.24463
# Poissons Ratio (y) = 0.08004 0.27773
# Poissons Ratio (z) = 0.14234 0.25000
#
# Static dielectric constant tensor:
#      x y z
#    x 3.822550 0.080880 -0.094630 
#    y 0.080880 4.507710 -0.087760 
#    z -0.094630 -0.087760 4.516790 
# 
# 
# High freq. dielectric constant tensor:
#      x y z
#    x 1.902610 0.003050 -0.010520 
#    y 0.003050 1.938410 0.005680 
#    z -0.010520 0.005680 1.934480 
# 
# From -- ./inp_files/364808.got.cif
#   From: 2010.06.25/outbox.cif.g09.slc.cpg/sg2_183_cif.got.tgz:364808.got - 2010.06.27 13:26:56.
