data_PCOD8028393
_publ_section_title
;
Structure prediction by ZEFSAII (Michael W. Deem and Ramdas Pophale) SiO2 
 PCOD8028393
Probable space group: P -1
;
_chemical_formula_sum "Si O2"
_cell_formula_units_Z 16
_cell_length_a 12.075505
_cell_length_b 9.708778
_cell_length_c 14.170212
_cell_angle_alpha 116.727544
_cell_angle_beta 149.653578
_cell_angle_gamma 73.344479
_cell_volume 730.437899
_symmetry_space_group_name_H-M "P -1"
_symmetry_group_IT_number 2
_symmetry_cell_setting 'triclinic'
loop_
_space_group_symop_operation_xyz
x,y,z
-x,-y,-z
loop_
_atom_site_type_symbol
_atom_site_label
_atom_site_fract_x
_atom_site_fract_y
_atom_site_fract_z
Si Si1 0.333529 0.590348 0.851793
Si Si2 0.693921 0.596613 0.606857
Si Si3 0.135809 0.884766 0.516508
Si Si4 0.155763 0.558501 0.507104
Si Si5 0.555899 0.840736 0.459105
Si Si6 0.072985 0.667907 0.052956
Si Si7 0.578550 0.048127 0.967836
Si Si8 0.037972 0.942868 0.257216
O O1 0.310242 0.550919 0.710455
O O2 0.083773 0.561552 0.701036
O O3 0.500000 0.500000 0.000000
O O4 0.434849 0.772557 0.999980
O O5 0.500000 0.500000 0.500000
O O6 0.704790 0.485011 0.491219
O O7 0.641468 0.761532 0.588231
O O8 0.930355 0.649625 0.848158
O O9 0.093379 0.727214 0.499319
O O10 0.053779 0.852233 0.338924
O O11 0.402901 0.954499 0.734002
O O12 0.000000 0.000000 0.500000
O O13 0.332510 0.713289 0.220731
O O14 0.500000 0.000000 0.500000
O O15 0.757608 0.898521 0.549875
O O16 0.032277 0.811607 0.132127
O O17 0.000000 0.500000 0.000000
O O18 0.500000 0.000000 0.000000
O O19 0.815960 0.009704 0.108058
#
# Coordination Sequence:
#
# PCOD8028393 Si02
#       8
#     2   2   2   2   2   2   2   2
#     4  11  25  47  72 101 140 183 232 293 360 415
#     4  12  26  44  73 105 146 187 233 295 347 417
#     4  12  24  43  72 102 142 183 234 297 352 415
#     4  11  26  44  70 104 143 180 236 290 353 422
#     4  10  25  46  68 101 142 176 242 288 345 416
#     4  11  24  46  72 103 138 186 239 280 351 424
#     4  12  24  43  69 102 137 180 240 282 350 426
#     4  11  26  43  71 103 143 188 230 295 354 411
#
# _framework density 21.904668000000001
#
# number of rings (size 3 to 8) (size 9 to 14) (size 15 to 20)
#    0.000    0.750    3.750    2.250    3.500    8.000 
#    0.000    0.000    0.000    0.000    0.000    0.000 
#    0.000    0.000    0.000    0.000    0.000    0.000 
#
# Total GULP energy -198369.801413 kJ/mol
# GULP energy per Si atom -12398.112588 kJ/mol
# Density = 2.185481 g / cm^3
# Si number density = 21.904668 Si / 1000 Ang^3
#
#
#
# Elastic Constant Matrix: (Units=GPa)
#
#
# Indices 1 2 3 4 5 6 
#
# 1 114.7682 36.3255 33.2883 -7.2387 2.6189 -2.3261
# 2 36.3255 160.2759 39.3548 -10.9589 -1.4293 10.0009
# 3 33.2883 39.3548 128.9017 -13.0434 2.1348 5.6299
# 4 -7.2387 -10.9589 -13.0434 47.7384 8.8161 0.5363
# 5 2.6189 -1.4293 2.1348 8.8161 41.2778 -2.6720
# 6 -2.3261 10.0009 5.6299 0.5363 -2.6720 34.1664
#
#
#
# Elastic Compliance Matrix: (Units=1/GPa)
#
#
# Indices 1 2 3 4 5 6 
#
# 1 0.009955 -0.001818 -0.002005 0.000645 -0.000633 0.001481
# 2 -0.001818 0.007223 -0.001554 0.000960 0.000112 -0.001988
# 3 -0.002005 -0.001554 0.009021 0.001984 -0.000899 -0.001270
# 4 0.000645 0.000960 0.001984 0.022756 -0.005056 -0.001317
# 5 -0.000633 0.000112 -0.000899 -0.005056 0.025536 0.002149
# 6 0.001481 -0.001988 -0.001270 -0.001317 0.002149 0.030349
#
#
# Mechanical properties :
#
#
# Convention : Reuss Voigt Hill
#
# Bulk Modulus (GPa) = 64.73901 69.09812 66.91856
# Shear Modulus (GPa) = 41.41028 44.30165 42.85596
#
# Velocity S-wave (km/s) = 4.35268 4.50207 4.42801
# Velocity P-wave (km/s) = 7.40811 7.65756 7.53387
#
# Compressibility (1/GPa) = 0.01544664
#
# Stress axis : x y z
#
# Youngs Moduli (GPa) = 100.44978 138.43708 110.85097
#
# Poissons Ratio (x) = 0.25168 0.22224
# Poissons Ratio (y) = 0.18262 0.17224
# Poissons Ratio (z) = 0.20138 0.21511
#
# Static dielectric constant tensor:
#      x y z
#    x 3.933930 0.185620 0.217370 
#    y 0.185620 4.151080 0.071870 
#    z 0.217370 0.071870 4.629850 
# 
# 
# High freq. dielectric constant tensor:
#      x y z
#    x 1.853510 0.007070 0.009750 
#    y 0.007070 1.881740 -0.002030 
#    z 0.009750 -0.002030 1.879110 
# 
# From -- ./inp_files/516034.got.cif
#   From: 2010.06.25/outbox.cif.g09.slc.cpg/sg2_259_cif.got.tgz:516034.got - 2010.06.27 13:26:56.
