data_PCOD8028030
_publ_section_title
;
Structure prediction by ZEFSAII (Michael W. Deem and Ramdas Pophale) SiO2 
 PCOD8028030
Probable space group: P -1
;
_chemical_formula_sum "Si O2"
_cell_formula_units_Z 14
_cell_length_a 22.776755
_cell_length_b 9.594761
_cell_length_c 5.400542
_cell_angle_alpha 67.747733
_cell_angle_beta 59.266137
_cell_angle_gamma 39.074533
_cell_volume 639.089810
_symmetry_space_group_name_H-M "P -1"
_symmetry_group_IT_number 2
_symmetry_cell_setting 'triclinic'
loop_
_space_group_symop_operation_xyz
x,y,z
-x,-y,-z
loop_
_atom_site_type_symbol
_atom_site_label
_atom_site_fract_x
_atom_site_fract_y
_atom_site_fract_z
Si Si1 0.194398 0.392245 0.088722
Si Si2 0.785140 0.101916 0.232894
Si Si3 0.729987 0.872476 0.384104
Si Si4 0.563946 0.905885 0.675940
Si Si5 0.897347 0.083427 0.614729
Si Si6 0.270774 0.546109 0.586801
Si Si7 0.973810 0.714310 0.378135
O O1 0.217280 0.273023 0.379969
O O2 0.078460 0.632913 0.164788
O O3 0.208053 0.260740 0.910239
O O4 0.267280 0.419866 0.888743
O O5 0.715932 0.302729 0.448223
O O6 0.718659 0.072388 0.289950
O O7 0.893428 0.858975 0.235854
O O8 0.815172 0.193001 0.931497
O O9 0.620757 0.974458 0.520410
O O10 0.642157 0.639013 0.671777
O O11 0.500000 0.000000 0.500000
O O12 0.500000 0.000000 0.000000
O O13 0.840162 0.281856 0.409565
O O14 0.920353 0.875845 0.619545
O O15 0.000000 0.000000 0.500000
O O16 0.000000 0.500000 0.500000
#
# Coordination Sequence:
#
# PCOD8028030 Si02
#       7
#     2   2   2   2   2   2   2
#     4  11  23  40  66  97 136 188 229 269 324 397
#     4  11  24  40  63  99 143 184 223 282 340 389
#     4  11  25  43  70 100 133 174 226 287 344 399
#     4  11  25  48  76 101 124 171 231 287 351 419
#     4  11  24  38  64  97 142 187 228 265 328 398
#     4  10  25  42  67  98 136 175 224 285 337 407
#     4  11  22  36  57  95 138 182 235 264 315 391
#
# _framework density 21.906151999999999
#
# number of rings (size 3 to 8) (size 9 to 14) (size 15 to 20)
#    0.000    1.143    1.429    4.286   14.000    3.429 
#    0.000    1.429    0.000    0.000    0.000    0.000 
#    0.000    0.000    0.000    0.000    0.000    0.000 
#
# Total GULP energy -173440.673552 kJ/mol
# GULP energy per Si atom -12388.619539 kJ/mol
# Density = 2.185629 g / cm^3
# Si number density = 21.906152 Si / 1000 Ang^3
#
#
#
# Elastic Constant Matrix: (Units=GPa)
#
#
# Indices 1 2 3 4 5 6 
#
# 1 143.1612 54.9095 45.7001 6.1196 0.3080 5.6144
# 2 54.9095 114.2786 36.5878 17.8515 1.5437 23.8341
# 3 45.7001 36.5878 97.0803 11.5848 10.0958 3.1816
# 4 6.1196 17.8515 11.5848 37.4328 -0.6445 -1.7843
# 5 0.3080 1.5437 10.0958 -0.6445 38.1115 0.9198
# 6 5.6144 23.8341 3.1816 -1.7843 0.9198 27.5084
#
#
#
# Elastic Compliance Matrix: (Units=1/GPa)
#
#
# Indices 1 2 3 4 5 6 
#
# 1 0.009486 -0.004242 -0.003224 0.001590 0.000923 0.002185
# 2 -0.004242 0.015197 -0.002599 -0.006337 0.000300 -0.012422
# 3 -0.003224 -0.002599 0.013401 -0.002378 -0.003491 0.001322
# 4 0.001590 -0.006337 -0.002378 0.030585 0.001213 0.007384
# 5 0.000923 0.000300 -0.003491 0.001213 0.027186 -0.000875
# 6 0.002185 -0.012422 0.001322 0.007384 -0.000875 0.047025
#
#
# Mechanical properties :
#
#
# Convention : Reuss Voigt Hill
#
# Bulk Modulus (GPa) = 55.69419 69.87944 62.78682
# Shear Modulus (GPa) = 29.58677 35.09873 32.34275
#
# Velocity S-wave (km/s) = 3.67906 4.00713 3.84659
# Velocity P-wave (km/s) = 6.59746 7.30604 6.96077
#
# Compressibility (1/GPa) = 0.01795519
#
# Stress axis : x y z
#
# Youngs Moduli (GPa) = 105.42196 65.80087 74.61980
#
# Poissons Ratio (x) = 0.27913 0.24057
# Poissons Ratio (y) = 0.44720 0.19391
# Poissons Ratio (z) = 0.33988 0.17099
#
# Static dielectric constant tensor:
#      x y z
#    x 4.184760 0.065820 0.099780 
#    y 0.065820 4.108750 0.048650 
#    z 0.099780 0.048650 4.282390 
# 
# 
# High freq. dielectric constant tensor:
#      x y z
#    x 1.864450 0.016310 0.010710 
#    y 0.016310 1.854250 0.005150 
#    z 0.010710 0.005150 1.858590 
# 
# From -- ./inp_files/34746.got.cif
#   From: 2010.06.25/outbox.cif.g09.slc.cpg/sg2_18_cif.got.tgz:34746.got - 2010.06.27 13:26:56.
