data_PCOD8028158
_publ_section_title
;
Structure prediction by ZEFSAII (Michael W. Deem and Ramdas Pophale) SiO2 
 PCOD8028158
Probable space group: P -1
;
_chemical_formula_sum "Si O2"
_cell_formula_units_Z 16
_cell_length_a 14.499289
_cell_length_b 5.257837
_cell_length_c 9.449614
_cell_angle_alpha 100.399229
_cell_angle_beta 76.494161
_cell_angle_gamma 111.907345
_cell_volume 646.396707
_symmetry_space_group_name_H-M "P -1"
_symmetry_group_IT_number 2
_symmetry_cell_setting 'triclinic'
loop_
_space_group_symop_operation_xyz
x,y,z
-x,-y,-z
loop_
_atom_site_type_symbol
_atom_site_label
_atom_site_fract_x
_atom_site_fract_y
_atom_site_fract_z
Si Si1 0.708316 0.661227 0.725031
Si Si2 0.628943 0.174015 0.227266
Si Si3 0.083553 0.907030 0.281152
Si Si4 0.439894 0.236691 0.406202
Si Si5 0.041264 0.681802 0.672512
Si Si6 0.305996 0.310245 0.940311
Si Si7 0.093601 0.906191 0.962182
Si Si8 0.259292 0.776083 0.535215
O O1 0.604454 0.697402 0.718449
O O2 0.721312 0.405269 0.614736
O O3 0.806215 0.930113 0.677758
O O4 0.700388 0.599980 0.887403
O O5 0.517168 0.075620 0.328577
O O6 0.636719 0.414072 0.137403
O O7 0.718064 0.310286 0.323792
O O8 0.636491 0.908608 0.117456
O O9 0.982880 0.893002 0.680931
O O10 0.027196 0.636999 0.371416
O O11 0.103464 0.801846 0.106965
O O12 0.500000 0.500000 0.500000
O O13 0.343193 0.078095 0.520730
O O14 0.145763 0.776111 0.557998
O O15 0.072401 0.672782 0.826042
O O16 0.192524 0.162897 0.908633
O O17 0.000000 0.000000 0.000000
#
# Coordination Sequence:
#
# PCOD8028158 Si02
#       8
#     2   2   2   2   2   2   2   2
#     4  11  29  49  77 109 164 191 253 317 394 441
#     4  12  27  49  80 108 150 195 266 309 372 453
#     4  10  25  44  67 112 150 200 237 317 370 445
#     4  12  28  51  80 110 150 203 258 319 387 449
#     4  11  24  42  74 106 152 197 258 288 374 458
#     4  11  27  48  75 117 150 198 250 323 374 442
#     4   9  20  39  71 102 151 190 248 294 367 440
#     4  12  28  47  80 111 153 202 255 316 375 462
#
# _framework density 24.752602
#
# number of rings (size 3 to 8) (size 9 to 14) (size 15 to 20)
#    0.000    1.000    2.500    1.500   10.500    7.000 
#    0.000    0.000    0.000    0.000    0.000    0.000 
#    0.000    0.000    0.000    0.000    0.000    0.000 
#
# Total GULP energy -198400.695416 kJ/mol
# GULP energy per Si atom -12400.043464 kJ/mol
# Density = 2.469626 g / cm^3
# Si number density = 24.752602 Si / 1000 Ang^3
#
#
#
# Elastic Constant Matrix: (Units=GPa)
#
#
# Indices 1 2 3 4 5 6 
#
# 1 139.5212 41.5640 35.8798 9.2128 -10.0872 13.1349
# 2 41.5640 152.0241 44.2184 -6.7633 -4.1946 5.6259
# 3 35.8798 44.2184 84.8919 18.2860 -10.0144 2.3112
# 4 9.2128 -6.7633 18.2860 43.7462 6.0647 -7.3416
# 5 -10.0872 -4.1946 -10.0144 6.0647 42.0558 6.0872
# 6 13.1349 5.6259 2.3112 -7.3416 6.0872 43.5231
#
#
#
# Elastic Compliance Matrix: (Units=1/GPa)
#
#
# Indices 1 2 3 4 5 6 
#
# 1 0.008778 -0.001734 -0.002023 -0.002072 0.002180 -0.002972
# 2 -0.001734 0.008550 -0.004742 0.003942 -0.001336 0.000522
# 3 -0.002023 -0.004742 0.017567 -0.008612 0.004731 -0.001824
# 4 -0.002072 0.003942 -0.008612 0.029637 -0.007385 0.006605
# 5 0.002180 -0.001336 0.004731 -0.007385 0.027196 -0.005786
# 6 -0.002972 0.000522 -0.001824 0.006605 -0.005786 0.025826
#
#
# Mechanical properties :
#
#
# Convention : Reuss Voigt Hill
#
# Bulk Modulus (GPa) = 55.86738 68.86241 62.36489
# Shear Modulus (GPa) = 35.58246 42.85002 39.21624
#
# Velocity S-wave (km/s) = 3.79558 4.16520 3.98468
# Velocity P-wave (km/s) = 6.46745 7.14231 6.81324
#
# Compressibility (1/GPa) = 0.01789953
#
# Stress axis : x y z
#
# Youngs Moduli (GPa) = 113.91789 116.95421 56.92367
#
# Poissons Ratio (x) = 0.20277 0.11514
# Poissons Ratio (y) = 0.19751 0.26992
# Poissons Ratio (z) = 0.23041 0.55458
#
# Static dielectric constant tensor:
#      x y z
#    x 4.828700 0.310890 -0.054000 
#    y 0.310890 4.218480 0.125140 
#    z -0.054000 0.125140 5.591930 
# 
# 
# High freq. dielectric constant tensor:
#      x y z
#    x 1.997670 0.014430 -0.000470 
#    y 0.014430 1.971500 0.005010 
#    z -0.000470 0.005010 2.003580 
# 
# From -- ./inp_files/322747.got.cif
#   From: 2010.06.25/outbox.cif.g09.slc.cpg/sg2_162_cif.got.tgz:322747.got - 2010.06.27 13:26:56.
