data_PCOD8028635
_publ_section_title
;
Structure prediction by ZEFSAII (Michael W. Deem and Ramdas Pophale) SiO2 
 PCOD8028635
Probable space group: P -1
;
_chemical_formula_sum "Si O2"
_cell_formula_units_Z 14
_cell_length_a 9.293537
_cell_length_b 5.233202
_cell_length_c 26.082640
_cell_angle_alpha 64.732281
_cell_angle_beta 148.111655
_cell_angle_gamma 107.348486
_cell_volume 600.499875
_symmetry_space_group_name_H-M "P -1"
_symmetry_group_IT_number 2
_symmetry_cell_setting 'triclinic'
loop_
_space_group_symop_operation_xyz
x,y,z
-x,-y,-z
loop_
_atom_site_type_symbol
_atom_site_label
_atom_site_fract_x
_atom_site_fract_y
_atom_site_fract_z
Si Si1 0.422600 0.282048 0.419102
Si Si2 0.989924 0.596240 0.071286
Si Si3 0.193536 0.931418 0.612462
Si Si4 0.937382 0.744967 0.253798
Si Si5 0.693040 0.208412 0.941664
Si Si6 0.996443 0.347353 0.608510
Si Si7 0.262708 0.178921 0.266887
O O1 0.419466 0.225371 0.362719
O O2 0.674817 0.465181 0.490058
O O3 0.131247 0.442971 0.334850
O O4 0.500000 0.000000 0.500000
O O5 0.233304 0.683854 0.101641
O O6 0.112228 0.474030 0.172765
O O7 0.852764 0.351618 0.021947
O O8 0.768343 0.866879 0.994765
O O9 0.163405 0.610190 0.647775
O O10 0.509295 0.957490 0.692775
O O11 0.119405 0.156787 0.615290
O O12 0.000000 0.000000 0.500000
O O13 0.626904 0.705904 0.150337
O O14 0.966933 0.851089 0.312298
O O15 0.037256 0.967169 0.225198
#
# Coordination Sequence:
#
# PCOD8028635 Si02
#       7
#     2   2   2   2   2   2   2
#     4  12  26  47  69 109 156 198 240 302 363 443
#     4  10  25  49  76 108 139 190 242 316 356 444
#     4  12  26  45  69 104 142 194 243 303 344 426
#     4  12  28  45  76 107 145 203 238 304 370 447
#     4  10  25  51  77 102 147 187 247 298 385 430
#     4  12  26  47  72  98 149 197 247 282 362 436
#     4  12  28  44  75 111 150 188 252 303 370 424
#
# _framework density 23.313908999999999
#
# number of rings (size 3 to 8) (size 9 to 14) (size 15 to 20)
#    0.000    0.571    2.857    3.429    6.000    4.571 
#    0.000    0.000    0.000    0.000    0.000    0.000 
#    0.000    0.000    0.000    0.000    0.000    0.000 
#
# Total GULP energy -173661.587715 kJ/mol
# GULP energy per Si atom -12404.399123 kJ/mol
# Density = 2.326085 g / cm^3
# Si number density = 23.313909 Si / 1000 Ang^3
#
#
#
# Elastic Constant Matrix: (Units=GPa)
#
#
# Indices 1 2 3 4 5 6 
#
# 1 116.7584 35.8700 58.6492 -15.3240 17.3446 12.2112
# 2 35.8700 87.3625 33.0713 -16.1615 6.4209 8.4302
# 3 58.6492 33.0713 124.2832 -17.4053 11.8431 23.3529
# 4 -15.3240 -16.1615 -17.4053 34.4202 10.6179 3.0927
# 5 17.3446 6.4209 11.8431 10.6179 53.7547 0.0171
# 6 12.2112 8.4302 23.3529 3.0927 0.0171 36.5262
#
#
#
# Elastic Compliance Matrix: (Units=1/GPa)
#
#
# Indices 1 2 3 4 5 6 
#
# 1 0.012561 -0.002552 -0.004202 0.003460 -0.003506 -0.001215
# 2 -0.002552 0.014357 -0.001248 0.005704 -0.001742 -0.002145
# 3 -0.004202 -0.001248 0.012590 0.005230 -0.002300 -0.006798
# 4 0.003460 0.005704 0.005230 0.040096 -0.010867 -0.009207
# 5 -0.003506 -0.001742 -0.002300 -0.010867 0.022594 0.003954
# 6 -0.001215 -0.002145 -0.006798 -0.009207 0.003954 0.033403
#
#
# Mechanical properties :
#
#
# Convention : Reuss Voigt Hill
#
# Bulk Modulus (GPa) = 42.54450 64.84279 53.69364
# Shear Modulus (GPa) = 31.35980 38.32780 34.84380
#
# Velocity S-wave (km/s) = 3.67155 4.05901 3.87013
# Velocity P-wave (km/s) = 6.02179 7.05980 6.56135
#
# Compressibility (1/GPa) = 0.02350480
#
# Stress axis : x y z
#
# Youngs Moduli (GPa) = 79.61041 69.65185 79.42774
#
# Poissons Ratio (x) = 0.17775 0.33372
# Poissons Ratio (y) = 0.20316 0.09915
# Poissons Ratio (z) = 0.33449 0.08695
#
# Static dielectric constant tensor:
#      x y z
#    x 4.524960 0.246600 0.046460 
#    y 0.246600 4.263010 0.065700 
#    z 0.046460 0.065700 4.183370 
# 
# 
# High freq. dielectric constant tensor:
#      x y z
#    x 1.936880 0.007380 0.000940 
#    y 0.007380 1.921120 -0.000100 
#    z 0.000940 -0.000100 1.923730 
# 
# From -- ./inp_files/135244.got.cif
#   From: 2010.06.25/outbox.cif.g09.slc.cpg/sg2_68_cif.got.tgz:135244.got - 2010.06.27 13:26:56.
