data_PCOD8028387
_publ_section_title
;
Structure prediction by ZEFSAII (Michael W. Deem and Ramdas Pophale) SiO2 
 PCOD8028387
Probable space group: P -1
;
_chemical_formula_sum "Si O2"
_cell_formula_units_Z 16
_cell_length_a 14.655101
_cell_length_b 13.815308
_cell_length_c 11.821224
_cell_angle_alpha 54.103483
_cell_angle_beta 41.337544
_cell_angle_gamma 28.967650
_cell_volume 746.747512
_symmetry_space_group_name_H-M "P -1"
_symmetry_group_IT_number 2
_symmetry_cell_setting 'triclinic'
loop_
_space_group_symop_operation_xyz
x,y,z
-x,-y,-z
loop_
_atom_site_type_symbol
_atom_site_label
_atom_site_fract_x
_atom_site_fract_y
_atom_site_fract_z
Si Si1 0.930585 0.026140 0.419161
Si Si2 0.937638 0.872857 0.934989
Si Si3 0.156506 0.327758 0.880505
Si Si4 0.558599 0.743198 0.960879
Si Si5 0.610226 0.061264 0.767845
Si Si6 0.971504 0.620834 0.668378
Si Si7 0.234764 0.623709 0.282506
Si Si8 0.736717 0.361890 0.010042
O O1 0.681292 0.130636 0.583903
O O2 0.000000 0.000000 0.500000
O O3 0.133711 0.807080 0.319057
O O4 0.911002 0.166332 0.276938
O O5 0.965611 0.711690 0.006618
O O6 0.659856 0.100845 0.030398
O O7 0.046166 0.838799 0.977560
O O8 0.419407 0.125894 0.823943
O O9 0.153878 0.413989 0.713721
O O10 0.000000 0.500000 0.000000
O O11 0.771740 0.675518 0.761643
O O12 0.484046 0.843024 0.085827
O O13 0.644603 0.548054 0.025081
O O14 0.839731 0.814239 0.735585
O O15 0.124514 0.576246 0.459042
O O16 0.519691 0.419876 0.171063
O O17 0.163497 0.687949 0.174018
#
# Coordination Sequence:
#
# PCOD8028387 Si02
#       8
#     2   2   2   2   2   2   2   2
#     4  11  23  42  68  98 131 165 213 264 327 384
#     4  12  24  40  67  96 126 174 214 260 324 379
#     4  12  23  37  62 100 130 173 211 254 330 388
#     4  12  21  42  64  94 132 171 207 265 325 377
#     4  11  22  39  62  95 138 167 207 268 322 384
#     4  11  23  40  65  93 130 168 215 264 320 381
#     4  10  25  46  67  92 129 173 214 268 322 372
#     4  11  24  47  64  93 130 170 222 265 314 381
#
# _framework density 21.426251000000001
#
# number of rings (size 3 to 8) (size 9 to 14) (size 15 to 20)
#    0.000    0.750    6.250    1.125    3.500    1.000 
#    0.000    2.500    0.000    0.000    0.000    0.000 
#    0.000    0.000    0.000    0.000    0.000    0.000 
#
# Total GULP energy -198401.278766 kJ/mol
# GULP energy per Si atom -12400.079923 kJ/mol
# Density = 2.137748 g / cm^3
# Si number density = 21.426251 Si / 1000 Ang^3
#
#
#
# Elastic Constant Matrix: (Units=GPa)
#
#
# Indices 1 2 3 4 5 6 
#
# 1 106.4005 30.0886 57.0075 -6.3342 5.0541 -33.5879
# 2 30.0886 67.1782 33.1240 -12.7278 6.1610 -24.1018
# 3 57.0075 33.1240 177.2797 -18.1579 -12.6427 -15.5779
# 4 -6.3342 -12.7278 -18.1579 30.3136 -1.9417 -1.1825
# 5 5.0541 6.1610 -12.6427 -1.9417 39.4844 -4.1535
# 6 -33.5879 -24.1018 -15.5779 -1.1825 -4.1535 37.9350
#
#
#
# Elastic Compliance Matrix: (Units=1/GPa)
#
#
# Indices 1 2 3 4 5 6 
#
# 1 0.015418 -0.000467 -0.003880 0.001033 -0.001873 0.011588
# 2 -0.000467 0.022729 -0.002252 0.008453 -0.002414 0.013101
# 3 -0.003880 -0.002252 0.007754 0.003056 0.003353 -0.001219
# 4 0.001033 0.008453 0.003056 0.039090 0.002398 0.009022
# 5 -0.001873 -0.002414 0.003353 0.002398 0.027265 0.001245
# 6 0.011588 0.013101 -0.001219 0.009022 0.001245 0.044862
#
#
# Mechanical properties :
#
#
# Convention : Reuss Voigt Hill
#
# Bulk Modulus (GPa) = 30.57837 65.69985 48.13911
# Shear Modulus (GPa) = 27.59127 36.92247 32.25687
#
# Velocity S-wave (km/s) = 3.59239 4.15569 3.88427
# Velocity P-wave (km/s) = 5.61333 7.33186 6.52938
#
# Compressibility (1/GPa) = 0.03270286
#
# Stress axis : x y z
#
# Youngs Moduli (GPa) = 64.85891 43.99731 128.96295
#
# Poissons Ratio (x) = 0.02056 0.50039
# Poissons Ratio (y) = 0.03031 0.29037
# Poissons Ratio (z) = 0.25166 0.09906
#
# Static dielectric constant tensor:
#      x y z
#    x 3.885110 -0.223350 -0.302020 
#    y -0.223350 4.001020 -0.092470 
#    z -0.302020 -0.092470 4.162780 
# 
# 
# High freq. dielectric constant tensor:
#      x y z
#    x 1.843470 -0.004090 -0.021220 
#    y -0.004090 1.827650 -0.009950 
#    z -0.021220 -0.009950 1.847160 
# 
# From -- ./inp_files/455534.got.cif
#   From: 2010.06.25/outbox.cif.g09.slc.cpg/sg2_228_cif.got.tgz:455534.got - 2010.06.27 13:26:56.
