data_PCOD8028436
_publ_section_title
;
Structure prediction by ZEFSAII (Michael W. Deem and Ramdas Pophale) SiO2 
 PCOD8028436
Probable space group: P -1
;
_chemical_formula_sum "Si O2"
_cell_formula_units_Z 14
_cell_length_a 6.855864
_cell_length_b 17.865746
_cell_length_c 4.934148
_cell_angle_alpha 109.486884
_cell_angle_beta 72.830141
_cell_angle_gamma 120.421524
_cell_volume 485.336113
_symmetry_space_group_name_H-M "P -1"
_symmetry_group_IT_number 2
_symmetry_cell_setting 'triclinic'
loop_
_space_group_symop_operation_xyz
x,y,z
-x,-y,-z
loop_
_atom_site_type_symbol
_atom_site_label
_atom_site_fract_x
_atom_site_fract_y
_atom_site_fract_z
Si Si1 0.035378 0.704485 0.947356
Si Si2 0.803738 0.956636 0.316105
Si Si3 0.630291 0.459928 0.714351
Si Si4 0.989289 0.587073 0.335016
Si Si5 0.340577 0.814161 0.398364
Si Si6 0.027992 0.141555 0.209276
Si Si7 0.651745 0.734237 0.332512
O O1 0.240553 0.792882 0.107331
O O2 0.960570 0.624482 0.102494
O O3 0.819519 0.727812 0.017834
O O4 0.099507 0.670657 0.603621
O O5 0.540002 0.915598 0.469395
O O6 0.851298 0.035490 0.180927
O O7 0.000000 0.000000 0.500000
O O8 0.815090 0.864619 0.106050
O O9 0.262463 0.481653 0.530397
O O10 0.452198 0.359838 0.576581
O O11 0.840946 0.459109 0.806710
O O12 0.500000 0.500000 0.000000
O O13 0.137447 0.809218 0.688095
O O14 0.429288 0.741360 0.329114
O O15 0.200191 0.182853 0.436294
#
# Coordination Sequence:
#
# PCOD8028436 Si02
#       7
#     2   2   2   2   2   2   2
#     4  11  26  49  76 109 150 195 258 305 378 449
#     4  11  23  46  72 104 145 187 243 300 370 448
#     4  11  24  48  73 109 148 198 252 312 374 442
#     4  11  26  50  73 107 149 198 252 315 374 444
#     4  11  24  46  74 107 145 193 241 306 374 436
#     4  10  25  46  70 107 144 189 245 300 368 452
#     4  11  23  48  71 110 142 197 246 306 371 447
#
# _framework density 28.845991000000001
#
# number of rings (size 3 to 8) (size 9 to 14) (size 15 to 20)
#    0.000    1.143    4.286    0.429    2.000    5.714 
#    5.143    0.000    0.000    0.000    0.000    0.000 
#    0.000    0.000    0.000    0.000    0.000    0.000 
#
# Total GULP energy -173537.651116 kJ/mol
# GULP energy per Si atom -12395.546508 kJ/mol
# Density = 2.878034 g / cm^3
# Si number density = 28.845991 Si / 1000 Ang^3
#
#
#
# Elastic Constant Matrix: (Units=GPa)
#
#
# Indices 1 2 3 4 5 6 
#
# 1 158.7261 34.0458 63.9183 0.8452 -41.1621 -1.8794
# 2 34.0458 116.2369 13.1880 23.7370 -25.7284 6.3247
# 3 63.9183 13.1880 113.9605 5.6881 -42.9798 -8.8241
# 4 0.8452 23.7370 5.6881 42.7218 5.5290 -1.0206
# 5 -41.1621 -25.7284 -42.9798 5.5290 41.6434 -1.5088
# 6 -1.8794 6.3247 -8.8241 -1.0206 -1.5088 60.9458
#
#
#
# Elastic Compliance Matrix: (Units=1/GPa)
#
#
# Indices 1 2 3 4 5 6 
#
# 1 0.009112 -0.001279 -0.003086 0.000297 0.004996 0.000096
# 2 -0.001279 0.013305 0.004432 -0.009627 0.012785 -0.000623
# 3 -0.003086 0.004432 0.017692 -0.007157 0.018983 0.002357
# 4 0.000297 -0.009627 -0.007157 0.031941 -0.017279 0.000079
# 5 0.004996 0.012785 0.018983 -0.017279 0.058836 0.002743
# 6 0.000096 -0.000623 0.002357 0.000079 0.002743 0.016886
#
#
# Mechanical properties :
#
#
# Convention : Reuss Voigt Hill
#
# Bulk Modulus (GPa) = 24.84926 67.91420 46.38173
# Shear Modulus (GPa) = 31.04545 47.58028 39.31286
#
# Velocity S-wave (km/s) = 3.28418 4.06576 3.69569
# Velocity P-wave (km/s) = 4.79732 6.75540 5.85874
#
# Compressibility (1/GPa) = 0.04024265
#
# Stress axis : x y z
#
# Youngs Moduli (GPa) = 109.74084 75.16145 56.52150
#
# Poissons Ratio (x) = 0.09613 0.17444
# Poissons Ratio (y) = 0.14036 -0.25050
# Poissons Ratio (z) = 0.33870 -0.33311
#
# Static dielectric constant tensor:
#      x y z
#    x 5.449130 0.066230 -0.384630 
#    y 0.066230 6.932540 0.310840 
#    z -0.384630 0.310840 5.036570 
# 
# 
# High freq. dielectric constant tensor:
#      x y z
#    x 2.182970 0.003920 -0.028320 
#    y 0.003920 2.230460 0.007990 
#    z -0.028320 0.007990 2.152630 
# 
# From -- ./inp_files/11644.got.cif
#   From: 2010.06.25/outbox.cif.g09.slc.cpg/sg2_6_cif.got.tgz:11644.got - 2010.06.27 13:26:56.
