data_PCOD8028098
_publ_section_title
;
Structure prediction by ZEFSAII (Michael W. Deem and Ramdas Pophale) SiO2 
 PCOD8028098
Probable space group: P -1
;
_chemical_formula_sum "Si O2"
_cell_formula_units_Z 16
_cell_length_a 21.779748
_cell_length_b 5.124639
_cell_length_c 8.013557
_cell_angle_alpha 57.738363
_cell_angle_beta 119.121337
_cell_angle_gamma 100.641201
_cell_volume 657.306288
_symmetry_space_group_name_H-M "P -1"
_symmetry_group_IT_number 2
_symmetry_cell_setting 'triclinic'
loop_
_space_group_symop_operation_xyz
x,y,z
-x,-y,-z
loop_
_atom_site_type_symbol
_atom_site_label
_atom_site_fract_x
_atom_site_fract_y
_atom_site_fract_z
Si Si1 0.390503 0.656440 0.435565
Si Si2 0.021043 0.968540 0.274258
Si Si3 0.176562 0.013858 0.421813
Si Si4 0.241754 0.640426 0.326274
Si Si5 0.790037 0.361544 0.075546
Si Si6 0.360275 0.357389 0.165993
Si Si7 0.941763 0.462804 0.211937
Si Si8 0.517011 0.349415 0.901949
O O1 0.325009 0.638905 0.484319
O O2 0.377932 0.403534 0.366163
O O3 0.468201 0.553904 0.638333
O O4 0.388676 0.015935 0.252219
O O5 0.092360 0.102185 0.256502
O O6 0.039665 0.733937 0.530633
O O7 0.983232 0.770778 0.152376
O O8 0.965191 0.254098 0.154551
O O9 0.198744 0.778666 0.380630
O O10 0.189448 0.887250 0.669239
O O11 0.221828 0.300085 0.373076
O O12 0.228488 0.807023 0.067788
O O13 0.857049 0.558855 0.062441
O O14 0.724362 0.588045 0.983626
O O15 0.400485 0.618862 0.035115
O O16 0.500000 0.500000 0.000000
O O17 0.500000 0.000000 0.000000
#
# Coordination Sequence:
#
# PCOD8028098 Si02
#       8
#     2   2   2   2   2   2   2   2
#     4  11  24  45  68  94 137 180 217 280 332 396
#     4   9  18  35  59  90 125 173 221 272 347 394
#     4  11  24  42  68  96 136 180 226 289 340 408
#     4  11  25  42  66  99 137 173 234 277 344 403
#     4  10  25  43  69  98 134 180 229 282 345 402
#     4  11  24  44  69  96 132 179 226 266 343 406
#     4   9  18  35  60  88 127 170 221 279 332 406
#     4  12  26  42  70 103 136 171 221 274 329 405
#
# _framework density 24.341771999999999
#
# number of rings (size 3 to 8) (size 9 to 14) (size 15 to 20)
#    0.000    1.500    0.000    4.500    3.500    9.000 
#    0.000    3.750    0.000    0.000    0.000    0.000 
#    0.000    0.000    0.000    0.000    0.000    0.000 
#
# Total GULP energy -198340.922388 kJ/mol
# GULP energy per Si atom -12396.307649 kJ/mol
# Density = 2.428637 g / cm^3
# Si number density = 24.341772 Si / 1000 Ang^3
#
#
#
# Elastic Constant Matrix: (Units=GPa)
#
#
# Indices 1 2 3 4 5 6 
#
# 1 157.0718 41.2722 25.7965 -3.6259 13.6426 15.4517
# 2 41.2722 141.5400 18.1641 -4.2922 7.0784 9.6719
# 3 25.7965 18.1641 62.5474 7.3772 15.0084 -0.4863
# 4 -3.6259 -4.2922 7.3772 27.9842 -2.3817 -5.7671
# 5 13.6426 7.0784 15.0084 -2.3817 35.0186 2.4686
# 6 15.4517 9.6719 -0.4863 -5.7671 2.4686 45.6798
#
#
#
# Elastic Compliance Matrix: (Units=1/GPa)
#
#
# Indices 1 2 3 4 5 6 
#
# 1 0.007537 -0.001655 -0.002412 0.000820 -0.001368 -0.002047
# 2 -0.001655 0.007879 -0.001750 0.001252 -0.000044 -0.000966
# 3 -0.002412 -0.001750 0.020127 -0.006343 -0.007836 0.001023
# 4 0.000820 0.001252 -0.006343 0.038925 0.004507 0.004061
# 5 -0.001368 -0.000044 -0.007836 0.004507 0.032821 -0.000816
# 6 -0.002047 -0.000966 0.001023 0.004061 -0.000816 0.023356
#
#
# Mechanical properties :
#
#
# Convention : Reuss Voigt Hill
#
# Bulk Modulus (GPa) = 41.82650 59.06942 50.44796
# Shear Modulus (GPa) = 33.27822 40.13163 36.70492
#
# Velocity S-wave (km/s) = 3.70148 4.06479 3.88738
# Velocity P-wave (km/s) = 5.95720 6.80804 6.39678
#
# Compressibility (1/GPa) = 0.02390829
#
# Stress axis : x y z
#
# Youngs Moduli (GPa) = 132.68505 126.92739 49.68355
#
# Poissons Ratio (x) = 0.21005 0.11985
# Poissons Ratio (y) = 0.21958 0.08695
# Poissons Ratio (z) = 0.32007 0.22212
#
# Static dielectric constant tensor:
#      x y z
#    x 4.593310 0.066160 -0.032670 
#    y 0.066160 4.265780 0.189460 
#    z -0.032670 0.189460 4.430230 
# 
# 
# High freq. dielectric constant tensor:
#      x y z
#    x 1.989050 0.008680 0.001340 
#    y 0.008680 1.968820 0.012280 
#    z 0.001340 0.012280 1.962030 
# 
# From -- ./inp_files/340162.got.cif
#   From: 2010.06.25/outbox.cif.g09.slc.cpg/sg2_171_cif.got.tgz:340162.got - 2010.06.27 13:26:56.
