data_PCOD8028842
_publ_section_title
;
Structure prediction by ZEFSAII (Michael W. Deem and Ramdas Pophale) SiO2 
 PCOD8028842
Probable space group: P -1
;
_chemical_formula_sum "Si O2"
_cell_formula_units_Z 16
_cell_length_a 21.309452
_cell_length_b 24.615844
_cell_length_c 8.974760
_cell_angle_alpha 124.250607
_cell_angle_beta 130.554317
_cell_angle_gamma 15.811500
_cell_volume 928.746576
_symmetry_space_group_name_H-M "P -1"
_symmetry_group_IT_number 2
_symmetry_cell_setting 'triclinic'
loop_
_space_group_symop_operation_xyz
x,y,z
-x,-y,-z
loop_
_atom_site_type_symbol
_atom_site_label
_atom_site_fract_x
_atom_site_fract_y
_atom_site_fract_z
Si Si1 0.349106 0.432569 0.958732
Si Si2 0.950249 0.417810 0.023193
Si Si3 0.008252 0.246012 0.673249
Si Si4 0.222202 0.996137 0.041224
Si Si5 0.523332 0.988450 0.342353
Si Si6 0.478503 0.153470 0.976764
Si Si7 0.285577 0.607123 0.308776
Si Si8 0.048749 0.225669 0.366655
O O1 0.147073 0.542407 0.913535
O O2 0.620357 0.189762 0.973257
O O3 0.209260 0.552051 0.770726
O O4 0.415834 0.449445 0.173209
O O5 0.771242 0.614498 0.003943
O O6 0.244271 0.221013 0.201521
O O7 0.940074 0.372695 0.805165
O O8 0.813878 0.343430 0.608932
O O9 0.962511 0.268804 0.464026
O O10 0.310103 0.002357 0.805021
O O11 0.389500 0.921237 0.087183
O O12 0.162851 0.075509 0.228687
O O13 0.955096 0.179791 0.826416
O O14 0.500000 0.000000 0.500000
O O15 0.616084 0.849152 0.201146
O O16 0.732024 0.884142 0.452454
O O17 0.500000 0.500000 0.500000
#
# Coordination Sequence:
#
# PCOD8028842 Si02
#       8
#     2   2   2   2   2   2   2   2
#     4   9  18  33  52  74 100 131 164 198 241 293
#     4   9  18  33  50  69  98 135 174 206 233 279
#     4   9  20  35  50  72 102 130 158 201 256 295
#     4   9  18  33  52  74 100 131 164 198 241 293
#     4  11  18  30  48  74  98 131 177 206 231 277
#     4   9  18  33  50  69  98 135 174 206 233 279
#     4   9  18  36  59  76  92 123 165 202 240 297
#     4  11  20  32  49  73 105 133 160 203 249 286
#
# _framework density 17.227519999999998
#
# number of rings (size 3 to 8) (size 9 to 14) (size 15 to 20)
#    0.000    2.500    2.500    1.500    0.000    5.000 
#    0.000    3.750    0.000    1.500    0.000    0.000 
#    0.000    0.000    0.000    0.000    0.000    0.000 
#
# Total GULP energy -198426.525887 kJ/mol
# GULP energy per Si atom -12401.657868 kJ/mol
# Density = 1.718831 g / cm^3
# Si number density = 17.227520 Si / 1000 Ang^3
#
#
#
# Elastic Constant Matrix: (Units=GPa)
#
#
# Indices 1 2 3 4 5 6 
#
# 1 77.2811 52.0586 67.5706 1.1441 -6.4824 0.6763
# 2 52.0586 154.9741 68.4634 0.7077 -2.6703 27.4319
# 3 67.5706 68.4634 121.7621 -1.4537 5.3901 0.2364
# 4 1.1441 0.7077 -1.4537 16.2529 -7.7551 -2.5071
# 5 -6.4824 -2.6703 5.3901 -7.7551 37.5776 1.2289
# 6 0.6763 27.4319 0.2364 -2.5071 1.2289 24.0420
#
#
#
# Elastic Compliance Matrix: (Units=1/GPa)
#
#
# Indices 1 2 3 4 5 6 
#
# 1 0.027987 -0.003894 -0.013629 0.000636 0.006522 0.003523
# 2 -0.003894 0.012512 -0.004915 -0.002518 0.000874 -0.014426
# 3 -0.013629 -0.004915 0.018779 0.001265 -0.005336 0.006211
# 4 0.000636 -0.002518 0.001265 0.069760 0.013838 0.009410
# 5 0.006522 0.000874 -0.005336 0.013838 0.031463 -0.001294
# 6 0.003523 -0.014426 0.006211 0.009410 -0.001294 0.058941
#
#
# Mechanical properties :
#
#
# Convention : Reuss Voigt Hill
#
# Bulk Modulus (GPa) = 69.44032 81.13362 75.28697
# Shear Modulus (GPa) = 18.57918 26.63613 22.60765
#
# Velocity S-wave (km/s) = 3.28755 3.93636 3.62650
# Velocity P-wave (km/s) = 7.40310 8.23757 7.83146
#
# Compressibility (1/GPa) = 0.01440086
#
# Stress axis : x y z
#
# Youngs Moduli (GPa) = 35.73146 79.92171 53.25137
#
# Poissons Ratio (x) = 0.31124 0.72577
# Poissons Ratio (y) = 0.13915 0.26173
# Poissons Ratio (z) = 0.48699 0.39281
#
# Static dielectric constant tensor:
#      x y z
#    x 3.004090 0.168940 -0.052610 
#    y 0.168940 3.464000 0.009480 
#    z -0.052610 0.009480 3.064730 
# 
# 
# High freq. dielectric constant tensor:
#      x y z
#    x 1.640220 0.010910 -0.007130 
#    y 0.010910 1.669990 0.002120 
#    z -0.007130 0.002120 1.660110 
# 
# From -- ./inp_files/267284.got.cif
#   From: 2010.06.25/outbox.cif.g09.slc.cpg/sg2_134_cif.got.tgz:267284.got - 2010.06.27 13:26:56.
