data_PCOD8028307
_publ_section_title
;
Structure prediction by ZEFSAII (Michael W. Deem and Ramdas Pophale) SiO2 
 PCOD8028307
Probable space group: P -1
;
_chemical_formula_sum "Si O2"
_cell_formula_units_Z 16
_cell_length_a 10.415976
_cell_length_b 6.662198
_cell_length_c 26.297478
_cell_angle_alpha 79.636614
_cell_angle_beta 23.202769
_cell_angle_gamma 79.517313
_cell_volume 706.595517
_symmetry_space_group_name_H-M "P -1"
_symmetry_group_IT_number 2
_symmetry_cell_setting 'triclinic'
loop_
_space_group_symop_operation_xyz
x,y,z
-x,-y,-z
loop_
_atom_site_type_symbol
_atom_site_label
_atom_site_fract_x
_atom_site_fract_y
_atom_site_fract_z
Si Si1 0.303359 0.988177 0.152926
Si Si2 0.778232 0.432206 0.471439
Si Si3 0.565895 0.422884 0.728951
Si Si4 0.178781 0.784401 0.814879
Si Si5 0.316779 0.797385 0.587178
Si Si6 0.802873 0.832492 0.051578
Si Si7 0.667949 0.130906 0.615569
Si Si8 0.473464 0.275955 0.999389
O O1 0.453851 0.931220 0.155359
O O2 0.561478 0.121513 0.021103
O O3 0.283056 0.780591 0.134562
O O4 0.976716 0.125376 0.273011
O O5 0.540667 0.633218 0.543978
O O6 0.804050 0.303412 0.416026
O O7 0.643067 0.293242 0.571673
O O8 0.138836 0.502476 0.348054
O O9 0.450318 0.600048 0.723592
O O10 0.274256 0.356019 0.875174
O O11 0.677817 0.232573 0.662492
O O12 0.906089 0.754487 0.873391
O O13 0.351017 0.995919 0.732733
O O14 0.017567 0.758707 0.929660
O O15 0.500000 0.000000 0.500000
O O16 0.000000 0.000000 0.000000
O O17 0.000000 0.000000 0.500000
O O18 0.500000 0.500000 0.000000
#
# Coordination Sequence:
#
# PCOD8028307 Si02
#       8
#     2   2   2   2   2   2   2   2
#     4  10  25  45  70 102 140 186 233 294 368 417
#     4  11  28  46  72 113 140 199 246 296 367 430
#     4  12  26  45  75 105 145 185 243 298 365 433
#     4  11  26  45  73 107 139 198 232 303 369 433
#     4  11  27  48  74 103 146 193 245 298 357 429
#     4  11  24  45  72 104 141 183 237 294 364 430
#     4  12  27  46  72 105 152 188 244 301 364 436
#     4  10  25  46  72 105 140 183 244 298 363 434
#
# _framework density 22.643787
#
# number of rings (size 3 to 8) (size 9 to 14) (size 15 to 20)
#    0.000    1.000    2.500    1.500   10.500    5.000 
#    0.000    0.000    0.000    0.000    0.000    0.000 
#    0.000    0.000    0.000    0.000    0.000    0.000 
#
# Total GULP energy -198392.709995 kJ/mol
# GULP energy per Si atom -12399.544375 kJ/mol
# Density = 2.259225 g / cm^3
# Si number density = 22.643787 Si / 1000 Ang^3
#
#
#
# Elastic Constant Matrix: (Units=GPa)
#
#
# Indices 1 2 3 4 5 6 
#
# 1 96.2604 61.4537 34.2334 -9.3698 2.4662 3.0025
# 2 61.4537 160.6892 58.1690 -6.3010 -2.7471 8.7555
# 3 34.2334 58.1690 113.4717 -3.3568 4.2762 9.5928
# 4 -9.3698 -6.3010 -3.3568 52.2230 -2.1674 2.4344
# 5 2.4662 -2.7471 4.2762 -2.1674 36.6223 -4.4156
# 6 3.0025 8.7555 9.5928 2.4344 -4.4156 46.8249
#
#
#
# Elastic Compliance Matrix: (Units=1/GPa)
#
#
# Indices 1 2 3 4 5 6 
#
# 1 0.014260 -0.004762 -0.001783 0.001821 -0.000983 0.000154
# 2 -0.004762 0.009313 -0.003330 0.000140 0.001340 -0.000635
# 3 -0.001783 -0.003330 0.011267 0.000014 -0.001653 -0.001728
# 4 0.001821 0.000140 0.000014 0.019582 0.000915 -0.001078
# 5 -0.000983 0.001340 -0.001653 0.000915 0.028051 0.002749
# 6 0.000154 -0.000635 -0.001728 -0.001078 0.002749 0.022134
#
#
# Mechanical properties :
#
#
# Convention : Reuss Voigt Hill
#
# Bulk Modulus (GPa) = 66.27184 75.34816 70.81000
# Shear Modulus (GPa) = 38.64377 41.57171 40.10774
#
# Velocity S-wave (km/s) = 4.13558 4.28939 4.21318
# Velocity P-wave (km/s) = 7.22043 7.60785 7.41667
#
# Compressibility (1/GPa) = 0.01508936
#
# Stress axis : x y z
#
# Youngs Moduli (GPa) = 70.12404 107.37866 88.75788
#
# Poissons Ratio (x) = 0.51134 0.15827
# Poissons Ratio (y) = 0.33393 0.29557
# Poissons Ratio (z) = 0.12504 0.35758
#
# Static dielectric constant tensor:
#      x y z
#    x 4.031550 -0.098880 -0.170510 
#    y -0.098880 4.334800 0.109140 
#    z -0.170510 0.109140 3.992330 
# 
# 
# High freq. dielectric constant tensor:
#      x y z
#    x 1.905110 -0.003990 0.005340 
#    y -0.003990 1.908690 0.006330 
#    z 0.005340 0.006330 1.893360 
# 
# From -- ./inp_files/549401.got.cif
#   From: 2010.06.25/outbox.cif.g09.slc.cpg/sg2_275_cif.got.tgz:549401.got - 2010.06.27 13:26:56.
