data_PCOD8028191
_publ_section_title
;
Structure prediction by ZEFSAII (Michael W. Deem and Ramdas Pophale) SiO2 
 PCOD8028191
Probable space group: P -1
;
_chemical_formula_sum "Si O2"
_cell_formula_units_Z 14
_cell_length_a 6.196214
_cell_length_b 20.917965
_cell_length_c 6.620835
_cell_angle_alpha 129.163172
_cell_angle_beta 70.813135
_cell_angle_gamma 119.023989
_cell_volume 581.488607
_symmetry_space_group_name_H-M "P -1"
_symmetry_group_IT_number 2
_symmetry_cell_setting 'triclinic'
loop_
_space_group_symop_operation_xyz
x,y,z
-x,-y,-z
loop_
_atom_site_type_symbol
_atom_site_label
_atom_site_fract_x
_atom_site_fract_y
_atom_site_fract_z
Si Si1 0.007940 0.556844 0.417660
Si Si2 0.243501 0.767721 0.278394
Si Si3 0.679013 0.824387 0.983403
Si Si4 0.329733 0.597098 0.036847
Si Si5 0.856065 0.701158 0.937726
Si Si6 0.432567 0.868052 0.806313
Si Si7 0.134519 0.980158 0.225941
O O1 0.996320 0.648950 0.673754
O O2 0.000000 0.500000 0.500000
O O3 0.262512 0.581726 0.263816
O O4 0.779997 0.498549 0.229875
O O5 0.510340 0.830707 0.235648
O O6 0.218665 0.665698 0.110637
O O7 0.234271 0.813477 0.587758
O O8 0.028704 0.767014 0.188134
O O9 0.896998 0.918056 0.046271
O O10 0.790512 0.752690 0.875959
O O11 0.498908 0.798450 0.790177
O O12 0.622176 0.634553 0.997483
O O13 0.696579 0.930638 0.758979
O O14 0.309489 0.923011 0.092173
O O15 0.000000 0.000000 0.500000
#
# Coordination Sequence:
#
# PCOD8028191 Si02
#       7
#     2   2   2   2   2   2   2
#     4  11  23  48  73 103 147 188 243 297 350 429
#     4  11  24  47  69 111 146 185 246 297 353 432
#     4  11  25  47  72 105 147 190 241 295 360 428
#     4  10  25  44  70 107 142 189 240 295 359 424
#     4  11  25  48  73 106 148 195 235 298 362 422
#     4  11  26  47  74 106 147 189 240 303 354 427
#     4  11  24  49  75 108 139 193 242 296 361 429
#
# _framework density 24.076139000000001
#
# number of rings (size 3 to 8) (size 9 to 14) (size 15 to 20)
#    0.000    1.143    2.857    1.714    4.000    3.429 
#   10.286    0.000    0.000    0.000    0.000    0.000 
#    0.000    0.000    0.000    0.000    0.000    0.000 
#
# Total GULP energy -173493.111245 kJ/mol
# GULP energy per Si atom -12392.365089 kJ/mol
# Density = 2.402134 g / cm^3
# Si number density = 24.076139 Si / 1000 Ang^3
#
#
#
# Elastic Constant Matrix: (Units=GPa)
#
#
# Indices 1 2 3 4 5 6 
#
# 1 89.6977 38.4235 66.7745 -11.2969 9.8657 -2.0351
# 2 38.4235 88.6837 49.6502 -19.2357 10.7506 11.2288
# 3 66.7745 49.6502 154.3826 -9.1376 0.8932 -7.3773
# 4 -11.2969 -19.2357 -9.1376 34.2719 6.1156 -0.1695
# 5 9.8657 10.7506 0.8932 6.1156 34.6853 -10.7749
# 6 -2.0351 11.2288 -7.3773 -0.1695 -10.7749 60.1251
#
#
#
# Elastic Compliance Matrix: (Units=1/GPa)
#
#
# Indices 1 2 3 4 5 6 
#
# 1 0.018422 -0.002620 -0.006909 0.003666 -0.005094 -0.000638
# 2 -0.002620 0.018896 -0.004573 0.010016 -0.008524 -0.005678
# 3 -0.006909 -0.004573 0.010881 -0.002721 0.004434 0.002742
# 4 0.003666 0.010016 -0.002721 0.037395 -0.011949 -0.004116
# 5 -0.005094 -0.008524 0.004434 -0.011949 0.037607 0.008669
# 6 -0.000638 -0.005678 0.002742 -0.004116 0.008669 0.019549
#
#
# Mechanical properties :
#
#
# Convention : Reuss Voigt Hill
#
# Bulk Modulus (GPa) = 50.01464 71.38450 60.69957
# Shear Modulus (GPa) = 28.15000 37.67753 32.91377
#
# Velocity S-wave (km/s) = 3.42308 3.96021 3.70140
# Velocity P-wave (km/s) = 6.03671 7.11512 6.59799
#
# Compressibility (1/GPa) = 0.01999415
#
# Stress axis : x y z
#
# Youngs Moduli (GPa) = 54.28285 52.92099 91.90329
#
# Poissons Ratio (x) = 0.13865 0.63500
# Poissons Ratio (y) = 0.14222 0.42028
# Poissons Ratio (z) = 0.37506 0.24201
#
# Static dielectric constant tensor:
#      x y z
#    x 4.335910 0.241910 -0.067590 
#    y 0.241910 4.650060 0.041890 
#    z -0.067590 0.041890 4.491570 
# 
# 
# High freq. dielectric constant tensor:
#      x y z
#    x 1.948230 0.020970 -0.003140 
#    y 0.020970 1.968630 -0.009970 
#    z -0.003140 -0.009970 1.951300 
# 
# From -- ./inp_files/8065.got.cif
#   From: 2010.06.25/outbox.cif.g09.slc.cpg/sg2_5_cif.got.tgz:8065.got - 2010.06.27 13:26:56.
