data_PCOD8028212
_publ_section_title
;
Structure prediction by ZEFSAII (Michael W. Deem and Ramdas Pophale) SiO2 
 PCOD8028212
Probable space group: P -1
;
_chemical_formula_sum "Si O2"
_cell_formula_units_Z 14
_cell_length_a 9.435032
_cell_length_b 20.297184
_cell_length_c 5.563122
_cell_angle_alpha 53.781181
_cell_angle_beta 117.403707
_cell_angle_gamma 139.574251
_cell_volume 557.241263
_symmetry_space_group_name_H-M "P -1"
_symmetry_group_IT_number 2
_symmetry_cell_setting 'triclinic'
loop_
_space_group_symop_operation_xyz
x,y,z
-x,-y,-z
loop_
_atom_site_type_symbol
_atom_site_label
_atom_site_fract_x
_atom_site_fract_y
_atom_site_fract_z
Si Si1 0.084035 0.757237 0.730445
Si Si2 0.082559 0.616975 0.377988
Si Si3 0.220990 0.035214 0.817431
Si Si4 0.529208 0.870947 0.698350
Si Si5 0.569024 0.326637 0.131575
Si Si6 0.740513 0.551976 0.605037
Si Si7 0.894260 0.834014 0.713383
O O1 0.304548 0.846149 0.554332
O O2 0.860365 0.661205 0.623822
O O3 0.045577 0.819820 0.737267
O O4 0.153878 0.696618 0.040972
O O5 0.298022 0.685656 0.558549
O O6 0.000000 0.500000 0.500000
O O7 0.878253 0.595063 0.377337
O O8 0.351112 0.070502 0.588704
O O9 0.129184 0.095661 0.631426
O O10 0.344470 0.055993 0.116787
O O11 0.013628 0.901506 0.912181
O O12 0.494381 0.759918 0.940250
O O13 0.346849 0.286487 0.158223
O O14 0.730274 0.456314 0.906303
O O15 0.500000 0.500000 0.500000
#
# Coordination Sequence:
#
# PCOD8028212 Si02
#       7
#     2   2   2   2   2   2   2
#     4  12  25  44  68 105 143 186 234 299 360 421
#     4  12  24  44  69  94 145 194 238 281 349 431
#     4  10  25  51  72 105 139 192 243 300 358 437
#     4  11  24  46  76 101 141 189 244 292 362 428
#     4  11  23  46  69 103 138 196 234 287 357 441
#     4  12  27  41  64 108 143 180 237 297 353 427
#     4  10  25  44  72 102 140 185 237 301 363 419
#
# _framework density 25.123766
#
# number of rings (size 3 to 8) (size 9 to 14) (size 15 to 20)
#    0.000    0.857    2.857    3.857    4.000    7.429 
#    2.571    0.000    0.000    0.000    0.000    0.000 
#    0.000    0.000    0.000    0.000    0.000    0.000 
#
# Total GULP energy -173527.033398 kJ/mol
# GULP energy per Si atom -12394.788100 kJ/mol
# Density = 2.506658 g / cm^3
# Si number density = 25.123766 Si / 1000 Ang^3
#
#
#
# Elastic Constant Matrix: (Units=GPa)
#
#
# Indices 1 2 3 4 5 6 
#
# 1 152.0715 32.6671 26.9012 11.9203 3.1969 11.7370
# 2 32.6671 118.2915 22.9764 27.0921 2.0777 3.8796
# 3 26.9012 22.9764 59.3215 26.0229 -8.9797 5.3383
# 4 11.9203 27.0921 26.0229 43.1299 2.2548 6.3960
# 5 3.1969 2.0777 -8.9797 2.2548 29.3724 7.2014
# 6 11.7370 3.8796 5.3383 6.3960 7.2014 44.5873
#
#
#
# Elastic Compliance Matrix: (Units=1/GPa)
#
#
# Indices 1 2 3 4 5 6 
#
# 1 0.007582 -0.001648 -0.003494 0.001333 -0.001542 -0.001376
# 2 -0.001648 0.010353 -0.000980 -0.005506 -0.000560 0.000531
# 3 -0.003494 -0.000980 0.027164 -0.015089 0.010342 -0.001753
# 4 0.001333 -0.005506 -0.015089 0.036047 -0.006604 -0.002169
# 5 -0.001542 -0.000560 0.010342 -0.006604 0.039444 -0.006207
# 6 -0.001376 0.000531 -0.001753 -0.002169 -0.006207 0.024268
#
#
# Mechanical properties :
#
#
# Convention : Reuss Voigt Hill
#
# Bulk Modulus (GPa) = 30.43696 54.97489 42.70592
# Shear Modulus (GPa) = 29.75266 39.89391 34.82329
#
# Velocity S-wave (km/s) = 3.44502 3.98916 3.72703
# Velocity P-wave (km/s) = 5.28822 6.56864 5.96290
#
# Compressibility (1/GPa) = 0.03285480
#
# Stress axis : x y z
#
# Youngs Moduli (GPa) = 131.88809 96.59474 36.81372
#
# Poissons Ratio (x) = 0.15921 0.12863
# Poissons Ratio (y) = 0.21738 0.03606
# Poissons Ratio (z) = 0.46083 0.09462
#
# Static dielectric constant tensor:
#      x y z
#    x 4.469800 0.146560 -0.213840 
#    y 0.146560 5.135200 -0.088580 
#    z -0.213840 -0.088580 4.268900 
# 
# 
# High freq. dielectric constant tensor:
#      x y z
#    x 2.017240 0.008590 0.003130 
#    y 0.008590 2.025410 0.000500 
#    z 0.003130 0.000500 1.970840 
# 
# From -- ./inp_files/52600.got.cif
#   From: 2010.06.25/outbox.cif.g09.slc.cpg/sg2_27_cif.got.tgz:52600.got - 2010.06.27 13:26:56.
