data_PCOD8028118
_publ_section_title
;
Structure prediction by ZEFSAII (Michael W. Deem and Ramdas Pophale) SiO2 
 PCOD8028118
Probable space group: P -1
;
_chemical_formula_sum "Si O2"
_cell_formula_units_Z 14
_cell_length_a 23.508752
_cell_length_b 8.121135
_cell_length_c 4.910730
_cell_angle_alpha 96.551641
_cell_angle_beta 86.494759
_cell_angle_gamma 147.005888
_cell_volume 506.173074
_symmetry_space_group_name_H-M "P -1"
_symmetry_group_IT_number 2
_symmetry_cell_setting 'triclinic'
loop_
_space_group_symop_operation_xyz
x,y,z
-x,-y,-z
loop_
_atom_site_type_symbol
_atom_site_label
_atom_site_fract_x
_atom_site_fract_y
_atom_site_fract_z
Si Si1 0.817829 0.885722 0.098385
Si Si2 0.001122 0.809990 0.537946
Si Si3 0.662615 0.965101 0.966587
Si Si4 0.509728 0.366413 0.650110
Si Si5 0.113557 0.602456 0.998127
Si Si6 0.606714 0.334899 0.252124
Si Si7 0.666602 0.298772 0.735540
O O1 0.875932 0.172526 0.968812
O O2 0.889251 0.977335 0.326643
O O3 0.713558 0.703593 0.247118
O O4 0.780874 0.650149 0.855242
O O5 0.980714 0.670805 0.230171
O O6 0.910921 0.528624 0.720101
O O7 0.000000 0.000000 0.500000
O O8 0.778204 0.218191 0.098189
O O9 0.666306 0.098315 0.729727
O O10 0.591522 0.896479 0.182122
O O11 0.613517 0.661347 0.856834
O O12 0.500000 0.500000 0.500000
O O13 0.519988 0.234287 0.416133
O O14 0.579198 0.185841 0.932864
O O15 0.640166 0.264924 0.423400
#
# Coordination Sequence:
#
# PCOD8028118 Si02
#       7
#     2   2   2   2   2   2   2
#     4  10  25  45  74 105 149 189 245 292 360 429
#     4  12  28  45  73 107 146 188 242 297 361 423
#     4  11  27  45  72 107 144 190 244 297 367 417
#     4  11  26  46  73 101 145 189 242 298 358 443
#     4  12  27  44  75 104 146 191 241 294 359 434
#     4  10  25  44  73  99 146 185 238 293 358 426
#     4  10  25  43  73 103 147 187 237 301 354 426
#
# _framework density 27.658522999999999
#
# number of rings (size 3 to 8) (size 9 to 14) (size 15 to 20)
#    0.857    0.286    0.000    3.857   16.000    1.143 
#    0.000    0.000    0.000    0.000    0.000    0.000 
#    0.000    0.000    0.000    0.000    0.000    0.000 
#
# Total GULP energy -173503.418540 kJ/mol
# GULP energy per Si atom -12393.101324 kJ/mol
# Density = 2.759557 g / cm^3
# Si number density = 27.658523 Si / 1000 Ang^3
#
#
#
# Elastic Constant Matrix: (Units=GPa)
#
#
# Indices 1 2 3 4 5 6 
#
# 1 89.4139 26.0211 19.8536 -4.5292 1.5844 -23.7308
# 2 26.0211 92.4651 6.2025 -9.0052 -14.8305 -40.2837
# 3 19.8536 6.2025 123.6160 -4.7920 3.6466 -23.4880
# 4 -4.5292 -9.0052 -4.7920 45.2784 -21.5132 1.3761
# 5 1.5844 -14.8305 3.6466 -21.5132 45.4170 -0.7656
# 6 -23.7308 -40.2837 -23.4880 1.3761 -0.7656 46.6059
#
#
#
# Elastic Compliance Matrix: (Units=1/GPa)
#
#
# Indices 1 2 3 4 5 6 
#
# 1 0.013192 -0.001637 -0.001104 0.000440 -0.000618 0.004722
# 2 -0.001637 0.022914 0.003011 0.009966 0.012362 0.020398
# 3 -0.001104 0.003011 0.009436 0.001885 0.001271 0.006761
# 4 0.000440 0.009966 0.001885 0.033001 0.018873 0.009124
# 5 -0.000618 0.012362 0.001271 0.018873 0.035100 0.011030
# 6 0.004722 0.020398 0.006761 0.009124 0.011030 0.044811
#
#
# Mechanical properties :
#
#
# Convention : Reuss Voigt Hill
#
# Bulk Modulus (GPa) = 21.70133 45.51659 33.60896
# Shear Modulus (GPa) = 28.85579 44.35479 36.60529
#
# Velocity S-wave (km/s) = 3.23350 4.00891 3.64190
# Velocity P-wave (km/s) = 4.66946 6.15799 5.46465
#
# Compressibility (1/GPa) = 0.04608013
#
# Stress axis : x y z
#
# Youngs Moduli (GPa) = 75.80261 43.64231 105.97699
#
# Poissons Ratio (x) = 0.07146 0.11700
# Poissons Ratio (y) = 0.12412 -0.31906
# Poissons Ratio (z) = 0.08369 -0.13139
#
# Static dielectric constant tensor:
#      x y z
#    x -5.250190 29.954640 18.204120 
#    y 29.954640 -85.323830 -54.473150 
#    z 18.204120 -54.473150 -27.768150 
# 
# 
# High freq. dielectric constant tensor:
#      x y z
#    x 2.103430 -0.001440 0.014170 
#    y -0.001440 2.153410 -0.000120 
#    z 0.014170 -0.000120 2.122930 
# 
# From -- ./inp_files/126277.got.cif
#   From: 2010.06.25/outbox.cif.g09.slc.cpg/sg2_64_cif.got.tgz:126277.got - 2010.06.27 13:26:56.
