data_PCOD8028396
_publ_section_title
;
Structure prediction by ZEFSAII (Michael W. Deem and Ramdas Pophale) SiO2 
 PCOD8028396
Probable space group: P -1
;
_chemical_formula_sum "Si O2"
_cell_formula_units_Z 12
_cell_length_a 7.143813
_cell_length_b 11.339759
_cell_length_c 11.493803
_cell_angle_alpha 62.677144
_cell_angle_beta 78.122291
_cell_angle_gamma 127.013773
_cell_volume 484.524161
_symmetry_space_group_name_H-M "P -1"
_symmetry_group_IT_number 2
_symmetry_cell_setting 'triclinic'
loop_
_space_group_symop_operation_xyz
x,y,z
-x,-y,-z
loop_
_atom_site_type_symbol
_atom_site_label
_atom_site_fract_x
_atom_site_fract_y
_atom_site_fract_z
Si Si1 0.421903 0.237038 0.146831
Si Si2 0.607235 0.411893 0.661339
Si Si3 0.270642 0.097231 0.650205
Si Si4 0.682379 0.233630 0.912418
Si Si5 0.385324 0.551784 0.736561
Si Si6 0.300942 0.882994 0.304586
O O1 0.612029 0.422542 0.137091
O O2 0.293391 0.021832 0.305964
O O3 0.658659 0.342107 0.960314
O O4 0.106539 0.143999 0.190809
O O5 0.353156 0.262094 0.656208
O O6 0.610131 0.265730 0.783923
O O7 0.506119 0.469386 0.737234
O O8 0.046387 0.373386 0.535980
O O9 0.382004 0.210026 0.458775
O O10 0.450703 0.063508 0.676690
O O11 0.034260 0.369720 0.811788
O O12 0.418009 0.973931 0.111079
#
# Coordination Sequence:
#
# PCOD8028396 Si02
#       6
#     2   2   2   2   2   2
#     4  10  26  46  66 107 136 179 232 279 341 406
#     4  12  26  46  71 103 139 180 228 283 340 409
#     4  12  25  45  72 102 138 184 226 281 344 403
#     4  10  26  45  69 106 134 181 228 283 343 399
#     4  12  24  45  74  99 140 182 227 283 341 406
#     4  10  25  46  68 103 138 175 231 281 336 407
#
# _framework density 24.766566999999998
#
# number of rings (size 3 to 8) (size 9 to 14) (size 15 to 20)
#    1.000    0.000    3.333    2.000    2.333    4.000 
#    0.000    0.000    0.000    0.000    0.000    0.000 
#    0.000    0.000    0.000    0.000    0.000    0.000 
#
# Total GULP energy -148847.140639 kJ/mol
# GULP energy per Si atom -12403.928387 kJ/mol
# Density = 2.471020 g / cm^3
# Si number density = 24.766567 Si / 1000 Ang^3
#
#
#
# Elastic Constant Matrix: (Units=GPa)
#
#
# Indices 1 2 3 4 5 6 
#
# 1 136.7644 30.0178 37.9687 1.4696 -11.0086 8.0274
# 2 30.0178 91.1780 18.3421 7.1135 2.6577 0.1244
# 3 37.9687 18.3421 98.0918 6.5924 -2.1242 -10.3276
# 4 1.4696 7.1135 6.5924 23.7591 -2.3144 -1.9480
# 5 -11.0086 2.6577 -2.1242 -2.3144 33.1927 -0.1406
# 6 8.0274 0.1244 -10.3276 -1.9480 -0.1406 29.1219
#
#
#
# Elastic Compliance Matrix: (Units=1/GPa)
#
#
# Indices 1 2 3 4 5 6 
#
# 1 0.009304 -0.002530 -0.003530 0.001162 0.003128 -0.003713
# 2 -0.002530 0.012362 -0.001148 -0.003435 -0.002142 -0.000003
# 3 -0.003530 -0.001148 0.012486 -0.002515 -0.000433 0.005236
# 4 0.001162 -0.003435 -0.002515 0.044239 0.003591 0.001779
# 5 0.003128 -0.002142 -0.000433 0.003591 0.031556 -0.000614
# 6 -0.003713 -0.000003 0.005236 0.001779 -0.000614 0.037335
#
#
# Mechanical properties :
#
#
# Convention : Reuss Voigt Hill
#
# Bulk Modulus (GPa) = 50.66552 55.41015 53.03783
# Shear Modulus (GPa) = 29.71298 33.19510 31.45404
#
# Velocity S-wave (km/s) = 3.46746 3.66501 3.56760
# Velocity P-wave (km/s) = 6.04422 6.35069 6.19935
#
# Compressibility (1/GPa) = 0.01973729
#
# Stress axis : x y z
#
# Youngs Moduli (GPa) = 107.47839 80.89425 80.08756
#
# Poissons Ratio (x) = 0.20465 0.28268
# Poissons Ratio (y) = 0.27190 0.09195
# Poissons Ratio (z) = 0.37935 0.09288
#
# Static dielectric constant tensor:
#      x y z
#    x 4.444640 -0.198700 0.053750 
#    y -0.198700 4.262310 0.118180 
#    z 0.053750 0.118180 4.394300 
# 
# 
# High freq. dielectric constant tensor:
#      x y z
#    x 2.002380 -0.017090 0.002100 
#    y -0.017090 1.992440 0.008250 
#    z 0.002100 0.008250 1.986380 
# 
# From -- ./inp_files/481476.got.cif
#   From: 2010.06.25/outbox.cif.g09.slc.cpg/sg2_241_cif.got.tgz:481476.got - 2010.06.27 13:26:56.
