data_PCOD8028608
_publ_section_title
;
Structure prediction by ZEFSAII (Michael W. Deem and Ramdas Pophale) SiO2 
 PCOD8028608
Probable space group: P -1
;
_chemical_formula_sum "Si O2"
_cell_formula_units_Z 16
_cell_length_a 9.312866
_cell_length_b 24.666766
_cell_length_c 8.667092
_cell_angle_alpha 44.173999
_cell_angle_beta 48.574489
_cell_angle_gamma 27.475312
_cell_volume 638.112504
_symmetry_space_group_name_H-M "P -1"
_symmetry_group_IT_number 2
_symmetry_cell_setting 'triclinic'
loop_
_space_group_symop_operation_xyz
x,y,z
-x,-y,-z
loop_
_atom_site_type_symbol
_atom_site_label
_atom_site_fract_x
_atom_site_fract_y
_atom_site_fract_z
Si Si1 0.779715 0.221918 0.723315
Si Si2 0.857491 0.072649 0.613742
Si Si3 0.659975 0.393893 0.979031
Si Si4 0.554955 0.158308 0.185744
Si Si5 0.292452 0.511844 0.518373
Si Si6 0.845926 0.834234 0.693201
Si Si7 0.354586 0.013559 0.921587
Si Si8 0.605042 0.682134 0.740912
O O1 0.497525 0.372201 0.611801
O O2 0.955041 0.168057 0.543337
O O3 0.650284 0.175524 0.928157
O O4 0.020193 0.160906 0.820110
O O5 0.608993 0.220913 0.450473
O O6 0.677730 0.066514 0.854659
O O7 0.000000 0.000000 0.500000
O O8 0.173064 0.990506 0.655300
O O9 0.431194 0.400309 0.056845
O O10 0.957208 0.256850 0.116617
O O11 0.500000 0.500000 0.000000
O O12 0.796540 0.407874 0.727457
O O13 0.245757 0.207813 0.268777
O O14 0.504133 0.240994 0.182153
O O15 0.500000 0.500000 0.500000
O O16 0.969630 0.585009 0.668168
O O17 0.546442 0.967444 0.720534
O O18 0.500000 0.000000 0.000000
#
# Coordination Sequence:
#
# PCOD8028608 Si02
#       8
#     2   2   2   2   2   2   2   2
#     4  11  26  46  72 107 148 198 247 305 378 442
#     4   9  22  45  73 111 146 191 253 306 380 447
#     4  12  29  50  73 116 151 197 260 313 374 455
#     4  10  25  48  75 114 150 194 257 307 378 455
#     4  12  27  47  78 111 149 203 264 304 376 452
#     4  12  27  48  77 106 157 191 252 314 379 446
#     4  11  27  45  75 111 148 191 248 313 383 453
#     4  11  26  47  81 107 157 204 249 323 377 438
#
# _framework density 25.073948999999999
#
# number of rings (size 3 to 8) (size 9 to 14) (size 15 to 20)
#    0.000    1.000    1.250    2.625   14.000    6.500 
#    0.000    0.000    0.000    0.000    0.000    0.000 
#    0.000    0.000    0.000    0.000    0.000    0.000 
#
# Total GULP energy -198299.190869 kJ/mol
# GULP energy per Si atom -12393.699429 kJ/mol
# Density = 2.501688 g / cm^3
# Si number density = 25.073949 Si / 1000 Ang^3
#
#
#
# Elastic Constant Matrix: (Units=GPa)
#
#
# Indices 1 2 3 4 5 6 
#
# 1 113.5819 31.3626 16.0474 1.9382 -8.5686 0.7816
# 2 31.3626 119.7347 41.3829 6.4077 -10.4917 -7.1976
# 3 16.0474 41.3829 134.7807 8.2780 1.3428 -11.6259
# 4 1.9382 6.4077 8.2780 42.4353 -5.2537 4.4786
# 5 -8.5686 -10.4917 1.3428 -5.2537 34.2446 -1.0269
# 6 0.7816 -7.1976 -11.6259 4.4786 -1.0269 40.4467
#
#
#
# Elastic Compliance Matrix: (Units=1/GPa)
#
#
# Indices 1 2 3 4 5 6 
#
# 1 0.009634 -0.002235 -0.000560 0.000304 0.001772 -0.000734
# 2 -0.002235 0.010228 -0.002752 -0.000711 0.002610 0.001217
# 3 -0.000560 -0.002752 0.008633 -0.001657 -0.001512 0.002148
# 4 0.000304 -0.000711 -0.001657 0.024775 0.003626 -0.003260
# 5 0.001772 0.002610 -0.001512 0.003626 0.031072 0.000383
# 6 -0.000734 0.001217 0.002148 -0.003260 0.000383 0.025943
#
#
# Mechanical properties :
#
#
# Convention : Reuss Voigt Hill
#
# Bulk Modulus (GPa) = 57.46661 60.63145 59.04903
# Shear Modulus (GPa) = 39.31458 42.04562 40.68010
#
# Velocity S-wave (km/s) = 3.96402 4.09940 4.03228
# Velocity P-wave (km/s) = 6.62721 6.82937 6.72905
#
# Compressibility (1/GPa) = 0.01740141
#
# Stress axis : x y z
#
# Youngs Moduli (GPa) = 103.79833 97.76972 115.83268
#
# Poissons Ratio (x) = 0.21850 0.06492
# Poissons Ratio (y) = 0.23197 0.31873
# Poissons Ratio (z) = 0.05818 0.26903
#
# Static dielectric constant tensor:
#      x y z
#    x 3.911150 0.120090 -0.073750 
#    y 0.120090 4.341060 0.039730 
#    z -0.073750 0.039730 4.734380 
# 
# 
# High freq. dielectric constant tensor:
#      x y z
#    x 2.006170 -0.008610 0.003290 
#    y -0.008610 1.998970 -0.001510 
#    z 0.003290 -0.001510 2.023420 
# 
# From -- ./inp_files/226078.got.cif
#   From: 2010.06.25/outbox.cif.g09.slc.cpg/sg2_114_cif.got.tgz:226078.got - 2010.06.27 13:26:56.
