data_PCOD8028963
_publ_section_title
;
Structure prediction by ZEFSAII (Michael W. Deem and Ramdas Pophale) SiO2 
 PCOD8028963
Probable space group: P -1
;
_chemical_formula_sum "Si O2"
_cell_formula_units_Z 16
_cell_length_a 10.734372
_cell_length_b 13.523111
_cell_length_c 12.261075
_cell_angle_alpha 33.537585
_cell_angle_beta 85.931690
_cell_angle_gamma 102.688004
_cell_volume 846.100800
_symmetry_space_group_name_H-M "P -1"
_symmetry_group_IT_number 2
_symmetry_cell_setting 'triclinic'
loop_
_space_group_symop_operation_xyz
x,y,z
-x,-y,-z
loop_
_atom_site_type_symbol
_atom_site_label
_atom_site_fract_x
_atom_site_fract_y
_atom_site_fract_z
Si Si1 0.237324 0.963909 0.181835
Si Si2 0.781698 0.664432 0.067861
Si Si3 0.947773 0.502332 0.321536
Si Si4 0.227133 0.868751 0.031014
Si Si5 0.477485 0.487138 0.142105
Si Si6 0.976545 0.344281 0.050100
Si Si7 0.457692 0.856769 0.898595
Si Si8 0.705531 0.962766 0.353080
O O1 0.110229 0.729664 0.423207
O O2 0.271382 0.004137 0.013891
O O3 0.184165 0.114372 0.092273
O O4 0.379110 0.002452 0.201026
O O5 0.889964 0.699902 0.927375
O O6 0.814120 0.546220 0.272621
O O7 0.618871 0.526506 0.162816
O O8 0.068513 0.665872 0.247297
O O9 0.033939 0.545531 0.161485
O O10 0.346392 0.800528 0.059142
O O11 0.225491 0.008168 0.800659
O O12 0.347087 0.262129 0.389295
O O13 0.500000 0.500000 0.000000
O O14 0.430037 0.648473 0.034025
O O15 0.828037 0.127165 0.276430
O O16 0.000000 0.500000 0.000000
O O17 0.426810 0.990044 0.688468
#
# Coordination Sequence:
#
# PCOD8028963 Si02
#       8
#     2   2   2   2   2   2   2   2
#     4  11  19  36  58  83 113 144 182 229 271 317
#     4   9  22  38  53  88 108 140 193 222 268 336
#     4   9  20  37  55  83 111 145 187 223 267 330
#     4   9  20  38  56  81 113 148 181 223 276 322
#     4  11  23  37  58  84 110 142 187 228 273 325
#     4   9  20  39  58  77 111 148 180 222 277 322
#     4   9  21  37  55  85 111 142 189 221 267 337
#     4   9  21  41  55  82 111 146 183 224 274 327
#
# _framework density 18.910276
#
# number of rings (size 3 to 8) (size 9 to 14) (size 15 to 20)
#    1.500    1.000    0.000    1.500    1.750    4.000 
#    2.250    2.500    0.000    0.000    0.000    0.000 
#    0.000    0.000    0.000    0.000    0.000    0.000 
#
# Total GULP energy -198266.152859 kJ/mol
# GULP energy per Si atom -12391.634554 kJ/mol
# Density = 1.886723 g / cm^3
# Si number density = 18.910276 Si / 1000 Ang^3
#
#
#
# Elastic Constant Matrix: (Units=GPa)
#
#
# Indices 1 2 3 4 5 6 
#
# 1 47.1077 29.9194 4.1741 -10.1081 -5.0567 -16.9922
# 2 29.9194 107.0555 37.1647 -11.8656 -4.0034 -14.8330
# 3 4.1741 37.1647 107.8178 -13.8754 -8.8752 -2.3601
# 4 -10.1081 -11.8656 -13.8754 19.4575 0.5126 -4.0110
# 5 -5.0567 -4.0034 -8.8752 0.5126 19.9480 -6.6205
# 6 -16.9922 -14.8330 -2.3601 -4.0110 -6.6205 22.8025
#
#
#
# Elastic Compliance Matrix: (Units=1/GPa)
#
#
# Indices 1 2 3 4 5 6 
#
# 1 0.059827 -0.005036 0.009892 0.046750 0.037773 0.061521
# 2 -0.005036 0.013299 -0.003615 0.004048 0.001569 0.005692
# 3 0.009892 -0.003615 0.013218 0.014587 0.011354 0.012251
# 4 0.046750 0.004048 0.014587 0.101584 0.039187 0.068228
# 5 0.037773 0.001569 0.011354 0.039187 0.084574 0.061793
# 6 0.061521 0.005692 0.012251 0.068228 0.061793 0.124613
#
#
# Mechanical properties :
#
#
# Convention : Reuss Voigt Hill
#
# Bulk Modulus (GPa) = 11.25776 44.94415 28.10096
# Shear Modulus (GPa) = 11.78574 25.15645 18.47109
#
# Velocity S-wave (km/s) = 2.49920 3.65129 3.12873
# Velocity P-wave (km/s) = 3.78076 6.44938 5.28624
#
# Compressibility (1/GPa) = 0.08882758
#
# Stress axis : x y z
#
# Youngs Moduli (GPa) = 16.71473 75.19219 75.65482
#
# Poissons Ratio (x) = 0.37869 -0.74840
# Poissons Ratio (y) = 0.08418 0.27346
# Poissons Ratio (z) = -0.16535 0.27178
#
# Static dielectric constant tensor:
#      x y z
#    x 3.427750 0.080470 -0.049850 
#    y 0.080470 3.379730 -0.059820 
#    z -0.049850 -0.059820 3.128330 
# 
# 
# High freq. dielectric constant tensor:
#      x y z
#    x 1.734230 0.010630 -0.008630 
#    y 0.010630 1.733500 -0.011560 
#    z -0.008630 -0.011560 1.714670 
# 
# From -- ./inp_files/424987.got.cif
#   From: 2010.06.25/outbox.cif.g09.slc.cpg/sg2_213_cif.got.tgz:424987.got - 2010.06.27 13:26:56.
