data_PCOD8028566
_publ_section_title
;
Structure prediction by ZEFSAII (Michael W. Deem and Ramdas Pophale) SiO2 
 PCOD8028566
Probable space group: P -1
;
_chemical_formula_sum "Si O2"
_cell_formula_units_Z 16
_cell_length_a 21.904936
_cell_length_b 5.637410
_cell_length_c 8.650038
_cell_angle_alpha 116.256630
_cell_angle_beta 49.920206
_cell_angle_gamma 130.168958
_cell_volume 623.871618
_symmetry_space_group_name_H-M "P -1"
_symmetry_group_IT_number 2
_symmetry_cell_setting 'triclinic'
loop_
_space_group_symop_operation_xyz
x,y,z
-x,-y,-z
loop_
_atom_site_type_symbol
_atom_site_label
_atom_site_fract_x
_atom_site_fract_y
_atom_site_fract_z
Si Si1 0.212513 0.649882 0.104598
Si Si2 0.360994 0.229980 0.885936
Si Si3 0.404899 0.762996 0.167706
Si Si4 0.449457 0.674072 0.405474
Si Si5 0.220099 0.699382 0.463009
Si Si6 0.055451 0.204701 0.740635
Si Si7 0.962909 0.537988 0.831874
Si Si8 0.263444 0.215609 0.748165
O O1 0.189275 0.643071 0.320089
O O2 0.138284 0.700881 0.147444
O O3 0.200646 0.330139 0.966609
O O4 0.319841 0.928476 0.977063
O O5 0.473940 0.426811 0.732698
O O6 0.306561 0.103268 0.777634
O O7 0.341013 0.472778 0.073626
O O8 0.432433 0.665557 0.249944
O O9 0.333546 0.879566 0.351633
O O10 0.500000 0.000000 0.000000
O O11 0.350390 0.481770 0.590846
O O12 0.500000 0.000000 0.500000
O O13 0.163682 0.371893 0.553349
O O14 0.195902 0.935070 0.659779
O O15 0.009472 0.329462 0.723785
O O16 0.050772 0.334105 0.949965
O O17 0.015122 0.834095 0.711214
#
# Coordination Sequence:
#
# PCOD8028566 Si02
#       8
#     2   2   2   2   2   2   2   2
#     4  12  27  47  73 110 146 193 247 313 377 450
#     4  12  24  46  71  99 150 196 246 313 376 445
#     4  12  25  45  71 108 151 192 251 309 371 448
#     4  12  23  41  68 101 143 195 248 304 372 447
#     4  12  27  47  75 110 145 199 250 305 378 461
#     4  10  25  48  79 114 149 203 251 313 389 461
#     4  10  25  47  80 110 157 194 251 323 386 451
#     4  12  26  46  71 104 146 194 251 308 375 448
#
# _framework density 25.6463
#
# number of rings (size 3 to 8) (size 9 to 14) (size 15 to 20)
#    0.000    0.500    2.500    5.250    8.750    2.000 
#    0.000    0.000    0.000    0.000    0.000    0.000 
#    0.000    0.000    0.000    0.000    0.000    0.000 
#
# Total GULP energy -198329.683951 kJ/mol
# GULP energy per Si atom -12395.605247 kJ/mol
# Density = 2.558793 g / cm^3
# Si number density = 25.646300 Si / 1000 Ang^3
#
#
#
# Elastic Constant Matrix: (Units=GPa)
#
#
# Indices 1 2 3 4 5 6 
#
# 1 114.4821 29.7394 35.0914 -1.6512 4.1844 -2.5172
# 2 29.7394 97.9616 47.4611 -9.5291 14.3653 -4.1047
# 3 35.0914 47.4611 116.3326 -1.8034 19.1257 -0.7647
# 4 -1.6512 -9.5291 -1.8034 56.6105 6.5775 2.4230
# 5 4.1844 14.3653 19.1257 6.5775 30.2283 -4.7512
# 6 -2.5172 -4.1047 -0.7647 2.4230 -4.7512 34.8563
#
#
#
# Elastic Compliance Matrix: (Units=1/GPa)
#
#
# Indices 1 2 3 4 5 6 
#
# 1 0.009961 -0.002065 -0.002371 -0.000306 0.001266 0.000618
# 2 -0.002065 0.013780 -0.004298 0.002559 -0.003997 0.000657
# 3 -0.002371 -0.004298 0.011955 0.000270 -0.005437 -0.001175
# 4 -0.000306 0.002559 0.000270 0.018838 -0.005727 -0.001805
# 5 0.001266 -0.003997 -0.005437 -0.005727 0.040340 0.005398
# 6 0.000618 0.000657 -0.001175 -0.001805 0.005398 0.029647
#
#
# Mechanical properties :
#
#
# Convention : Reuss Voigt Hill
#
# Bulk Modulus (GPa) = 54.86051 61.48447 58.17249
# Shear Modulus (GPa) = 33.76913 38.77132 36.27023
#
# Velocity S-wave (km/s) = 3.63261 3.89237 3.76473
# Velocity P-wave (km/s) = 6.24757 6.65032 6.45209
#
# Compressibility (1/GPa) = 0.01822805
#
# Stress axis : x y z
#
# Youngs Moduli (GPa) = 100.39058 72.57058 83.64651
#
# Poissons Ratio (x) = 0.14984 0.19835
# Poissons Ratio (y) = 0.20728 0.35950
# Poissons Ratio (z) = 0.23805 0.31190
#
# Static dielectric constant tensor:
#      x y z
#    x 4.231470 0.288550 0.429000 
#    y 0.288550 4.524820 -0.470670 
#    z 0.429000 -0.470670 4.379030 
# 
# 
# High freq. dielectric constant tensor:
#      x y z
#    x 2.022220 0.009970 0.004940 
#    y 0.009970 2.021090 -0.006380 
#    z 0.004940 -0.006380 2.042400 
# 
# From -- ./inp_files/340549.got.cif
#   From: 2010.06.25/outbox.cif.g09.slc.cpg/sg2_171_cif.got.tgz:340549.got - 2010.06.27 13:26:56.
