data_PCOD8028877
_publ_section_title
;
Structure prediction by ZEFSAII (Michael W. Deem and Ramdas Pophale) SiO2 
 PCOD8028877
Probable space group: P -1
;
_chemical_formula_sum "Si O2"
_cell_formula_units_Z 16
_cell_length_a 8.360447
_cell_length_b 27.195126
_cell_length_c 27.695929
_cell_angle_alpha 169.087730
_cell_angle_beta 38.571411
_cell_angle_gamma 142.771403
_cell_volume 721.195810
_symmetry_space_group_name_H-M "P -1"
_symmetry_group_IT_number 2
_symmetry_cell_setting 'triclinic'
loop_
_space_group_symop_operation_xyz
x,y,z
-x,-y,-z
loop_
_atom_site_type_symbol
_atom_site_label
_atom_site_fract_x
_atom_site_fract_y
_atom_site_fract_z
Si Si1 0.049079 0.124420 0.500014
Si Si2 0.900663 0.420521 0.999987
Si Si3 0.538465 0.626754 0.499990
Si Si4 0.746506 0.975718 0.000005
Si Si5 0.695983 0.697248 0.000004
Si Si6 0.928113 0.852114 0.000011
Si Si7 0.876524 0.193767 0.500003
Si Si8 0.380052 0.698028 0.499985
O O1 0.912120 0.143996 0.500010
O O2 0.360509 0.206450 0.500018
O O3 0.974610 0.822256 0.246171
O O4 0.974608 0.329950 0.753863
O O5 0.581146 0.341091 0.999982
O O6 0.000000 0.500000 0.000000
O O7 0.435627 0.827190 0.752414
O O8 0.854194 0.708732 0.499991
O O9 0.416320 0.649777 0.499985
O O10 0.435638 0.322343 0.247565
O O11 0.813824 0.050499 0.999994
O O12 0.000000 0.000000 0.000000
O O13 0.946216 0.796938 0.000003
O O14 0.710363 0.916074 0.249384
O O15 0.710347 0.417302 0.750613
O O16 0.774536 0.078304 0.250708
O O17 0.774529 0.576920 0.749324
#
# Coordination Sequence:
#
# PCOD8028877 Si02
#       8
#     2   2   2   2   2   2   2   2
#     4  11  22  44  69 102 130 177 223 260 328 394
#     4  12  25  45  75 107 137 164 211 280 332 391
#     4  11  22  38  58  90 131 166 229 272 333 376
#     4  12  21  35  57  96 130 170 220 296 332 377
#     4  12  24  46  64 101 131 175 225 270 337 403
#     4  12  22  34  62  90 126 165 221 274 333 362
#     4  11  26  44  71  92 137 187 222 270 321 407
#     4  11  18  35  60  91 118 163 213 279 304 381
#
# _framework density 22.185375000000001
#
# number of rings (size 3 to 8) (size 9 to 14) (size 15 to 20)
#    0.000    0.500    5.000    4.500    0.000    4.000 
#    0.000    7.500    0.000    0.000    0.000    0.000 
#    0.000    0.000    0.000    0.000    0.000    0.000 
#
# Total GULP energy -198337.892182 kJ/mol
# GULP energy per Si atom -12396.118261 kJ/mol
# Density = 2.213488 g / cm^3
# Si number density = 22.185375 Si / 1000 Ang^3
#
#
#
# Elastic Constant Matrix: (Units=GPa)
#
#
# Indices 1 2 3 4 5 6 
#
# 1 113.4099 17.4629 61.4786 2.7112 2.9640 -47.6122
# 2 17.4629 94.0021 30.6287 -0.6223 1.0048 -40.3528
# 3 61.4786 30.6287 222.5153 8.4807 3.3476 -33.1980
# 4 2.7112 -0.6223 8.4807 28.1056 -11.8934 -0.2256
# 5 2.9640 1.0048 3.3476 -11.8934 31.9301 -1.6696
# 6 -47.6122 -40.3528 -33.1980 -0.2256 -1.6696 58.2824
#
#
#
# Elastic Compliance Matrix: (Units=1/GPa)
#
#
# Indices 1 2 3 4 5 6 
#
# 1 0.015547 0.003952 -0.002727 -0.000848 -0.000873 0.013855
# 2 0.003952 0.016222 -0.001301 0.000559 0.000185 0.013726
# 3 -0.002727 -0.001301 0.005507 -0.001838 -0.000969 -0.000026
# 4 -0.000848 0.000559 -0.001838 0.043110 0.016274 -0.000719
# 5 -0.000873 0.000185 -0.000969 0.016274 0.037557 0.000002
# 6 0.013855 0.013726 -0.000026 -0.000719 0.000002 0.037963
#
#
# Mechanical properties :
#
#
# Convention : Reuss Voigt Hill
#
# Bulk Modulus (GPa) = 26.93659 72.11866 49.52762
# Shear Modulus (GPa) = 29.68551 45.02077 37.35314
#
# Velocity S-wave (km/s) = 3.66193 4.50966 4.10772
# Velocity P-wave (km/s) = 5.48157 7.72618 6.69856
#
# Compressibility (1/GPa) = 0.03712423
#
# Stress axis : x y z
#
# Youngs Moduli (GPa) = 64.32020 61.64510 181.57834
#
# Poissons Ratio (x) = -0.24361 0.49515
# Poissons Ratio (y) = -0.25418 0.23623
# Poissons Ratio (z) = 0.17540 0.08020
#
# Static dielectric constant tensor:
#      x y z
#    x 3.881300 -0.216310 0.012600 
#    y -0.216310 4.156440 0.007550 
#    z 0.012600 0.007550 4.285320 
# 
# 
# High freq. dielectric constant tensor:
#      x y z
#    x 1.859540 -0.019620 0.001130 
#    y -0.019620 1.874240 0.001740 
#    z 0.001130 0.001740 1.902670 
# 
# From -- ./inp_files/340561.got.cif
#   From: 2010.06.25/outbox.cif.g09.slc.cpg/sg2_171_cif.got.tgz:340561.got - 2010.06.27 13:26:56.
