data_PCOD8028113
_publ_section_title
;
Structure prediction by ZEFSAII (Michael W. Deem and Ramdas Pophale) SiO2 
 PCOD8028113
Probable space group: P -1
;
_chemical_formula_sum "Si O2"
_cell_formula_units_Z 14
_cell_length_a 11.241997
_cell_length_b 8.425651
_cell_length_c 17.117884
_cell_angle_alpha 47.645079
_cell_angle_beta 30.161455
_cell_angle_gamma 55.487029
_cell_volume 601.473492
_symmetry_space_group_name_H-M "P -1"
_symmetry_group_IT_number 2
_symmetry_cell_setting 'triclinic'
loop_
_space_group_symop_operation_xyz
x,y,z
-x,-y,-z
loop_
_atom_site_type_symbol
_atom_site_label
_atom_site_fract_x
_atom_site_fract_y
_atom_site_fract_z
Si Si1 0.084662 0.577044 0.341539
Si Si2 0.917496 0.338249 0.229340
Si Si3 0.210398 0.171428 0.328479
Si Si4 0.544866 0.103355 0.608661
Si Si5 0.852754 0.980085 0.268865
Si Si6 0.141971 0.170159 0.917594
Si Si7 0.572958 0.804417 0.970561
O O1 0.073263 0.391919 0.343605
O O2 0.000000 0.500000 0.500000
O O3 0.913517 0.766837 0.352074
O O4 0.364577 0.630974 0.162982
O O5 0.752741 0.287024 0.415359
O O6 0.947390 0.588246 0.109128
O O7 0.181696 0.270240 0.111374
O O8 0.780143 0.177317 0.299239
O O9 0.387276 0.160369 0.157053
O O10 0.353196 0.121486 0.344478
O O11 0.000000 0.000000 0.500000
O O12 0.363813 0.062799 0.653316
O O13 0.412452 0.194631 0.729499
O O14 0.101494 0.065584 0.060070
O O15 0.000000 0.000000 0.000000
O O16 0.500000 0.000000 0.000000
#
# Coordination Sequence:
#
# PCOD8028113 Si02
#       7
#     2   2   2   2   2   2   2
#     4  12  27  49  77 111 149 198 253 308 372 446
#     4  12  24  46  73 110 146 197 243 304 375 440
#     4  12  26  47  78 110 149 197 247 309 377 444
#     4  11  25  46  75 109 147 190 246 304 371 448
#     4  11  25  49  73 107 150 192 245 306 370 443
#     4  10  25  43  71 106 147 188 243 297 367 440
#     4  12  26  48  76 108 154 194 256 307 373 444
#
# _framework density 23.27617
#
# number of rings (size 3 to 8) (size 9 to 14) (size 15 to 20)
#    0.000    0.571    2.857    4.286    8.000    1.143 
#    2.571    0.000    0.000    0.000    0.000    0.000 
#    0.000    0.000    0.000    0.000    0.000    0.000 
#
# Total GULP energy -173439.166146 kJ/mol
# GULP energy per Si atom -12388.511868 kJ/mol
# Density = 2.322319 g / cm^3
# Si number density = 23.276170 Si / 1000 Ang^3
#
#
#
# Elastic Constant Matrix: (Units=GPa)
#
#
# Indices 1 2 3 4 5 6 
#
# 1 100.3727 52.6402 46.4766 -7.0831 12.1758 -8.0580
# 2 52.6402 160.5690 61.4242 -16.3883 4.9720 9.6755
# 3 46.4766 61.4242 184.2531 8.1879 14.8844 7.0313
# 4 -7.0831 -16.3883 8.1879 45.3544 -2.6518 -0.0600
# 5 12.1758 4.9720 14.8844 -2.6518 42.4107 -2.7522
# 6 -8.0580 9.6755 7.0313 -0.0600 -2.7522 34.4100
#
#
#
# Elastic Compliance Matrix: (Units=1/GPa)
#
#
# Indices 1 2 3 4 5 6 
#
# 1 0.013671 -0.003716 -0.002240 0.001066 -0.002343 0.004519
# 2 -0.003716 0.008676 -0.002041 0.002964 0.000768 -0.002826
# 3 -0.002240 -0.002041 0.006988 -0.002457 -0.001823 -0.001529
# 4 0.001066 0.002964 -0.002457 0.023830 0.001705 0.000096
# 5 -0.002343 0.000768 -0.001823 0.001705 0.025013 0.001611
# 6 0.004519 -0.002826 -0.001529 0.000096 0.001611 0.031356
#
#
# Mechanical properties :
#
#
# Convention : Reuss Voigt Hill
#
# Bulk Modulus (GPa) = 74.95891 85.14188 80.05039
# Shear Modulus (GPa) = 38.46958 43.41192 40.94075
#
# Velocity S-wave (km/s) = 4.06981 4.32334 4.19849
# Velocity P-wave (km/s) = 7.37282 7.84730 7.61376
#
# Compressibility (1/GPa) = 0.01334064
#
# Stress axis : x y z
#
# Youngs Moduli (GPa) = 73.14677 115.26315 143.11192
#
# Poissons Ratio (x) = 0.42830 0.32060
# Poissons Ratio (y) = 0.27180 0.29207
# Poissons Ratio (z) = 0.16386 0.23523
#
# Static dielectric constant tensor:
#      x y z
#    x 4.255110 -0.054500 0.366470 
#    y -0.054500 4.097270 -0.215520 
#    z 0.366470 -0.215520 4.533700 
# 
# 
# High freq. dielectric constant tensor:
#      x y z
#    x 1.914340 0.003890 0.005470 
#    y 0.003890 1.928200 0.010290 
#    z 0.005470 0.010290 1.949120 
# 
# From -- ./inp_files/566396.got.cif
#   From: 2010.06.25/outbox.cif.g09.slc.cpg/sg2_284_cif.got.tgz:566396.got - 2010.06.27 13:26:56.
