data_PCOD8028708
_publ_section_title
;
Structure prediction by ZEFSAII (Michael W. Deem and Ramdas Pophale) SiO2 
 PCOD8028708
Probable space group: P -1
;
_chemical_formula_sum "Si O2"
_cell_formula_units_Z 16
_cell_length_a 17.910910
_cell_length_b 11.522997
_cell_length_c 9.067134
_cell_angle_alpha 139.989093
_cell_angle_beta 38.538479
_cell_angle_gamma 141.235907
_cell_volume 669.067729
_symmetry_space_group_name_H-M "P -1"
_symmetry_group_IT_number 2
_symmetry_cell_setting 'triclinic'
loop_
_space_group_symop_operation_xyz
x,y,z
-x,-y,-z
loop_
_atom_site_type_symbol
_atom_site_label
_atom_site_fract_x
_atom_site_fract_y
_atom_site_fract_z
Si Si1 0.798265 0.334023 0.477397
Si Si2 0.856879 0.309505 0.034173
Si Si3 0.460255 0.827309 0.092371
Si Si4 0.391446 0.716066 0.766612
Si Si5 0.866240 0.030267 0.235833
Si Si6 0.666341 0.664149 0.664428
Si Si7 0.178657 0.250738 0.203790
Si Si8 0.111968 0.007653 0.512348
O O1 0.791628 0.260743 0.249054
O O2 0.881827 0.244420 0.357266
O O3 0.866045 0.580023 0.620860
O O4 0.646881 0.250087 0.686968
O O5 0.760920 0.348999 0.108539
O O6 0.872225 0.118491 0.768928
O O7 0.000000 0.500000 0.000000
O O8 0.395781 0.699664 0.920157
O O9 0.590918 0.803809 0.914498
O O10 0.502406 0.062676 0.233917
O O11 0.430206 0.554318 0.468592
O O12 0.818147 0.014200 0.464023
O O13 0.766265 0.842365 0.103550
O O14 0.000000 0.000000 0.000000
O O15 0.705189 0.643230 0.752212
O O16 0.803029 0.762011 0.449236
O O17 0.046176 0.060288 0.288930
#
# Coordination Sequence:
#
# PCOD8028708 Si02
#       8
#     2   2   2   2   2   2   2   2
#     4  12  26  47  73 107 147 197 239 308 369 436
#     4  12  23  47  77 108 145 193 243 307 372 440
#     4  11  28  47  73 105 154 200 251 300 361 451
#     4  11  25  49  72 108 147 200 251 299 371 438
#     4  10  26  45  70 107 148 191 241 305 373 445
#     4  12  24  46  75 106 144 201 248 306 368 439
#     4  11  25  47  70 113 149 192 248 309 379 437
#     4  11  23  46  72 107 152 190 247 312 373 444
#
# _framework density 23.913869999999999
#
# number of rings (size 3 to 8) (size 9 to 14) (size 15 to 20)
#    0.000    0.750    3.750    2.250    3.500    7.000 
#    2.250    0.000    0.000    0.000    0.000    0.000 
#    0.000    0.000    0.000    0.000    0.000    0.000 
#
# Total GULP energy -198386.798337 kJ/mol
# GULP energy per Si atom -12399.174896 kJ/mol
# Density = 2.385944 g / cm^3
# Si number density = 23.913870 Si / 1000 Ang^3
#
#
#
# Elastic Constant Matrix: (Units=GPa)
#
#
# Indices 1 2 3 4 5 6 
#
# 1 135.6850 35.6411 35.9504 4.1442 17.5310 -4.7448
# 2 35.6411 89.7153 40.4477 4.3447 11.8787 2.2972
# 3 35.9504 40.4477 96.6528 5.1793 29.1627 0.3156
# 4 4.1442 4.3447 5.1793 41.6867 -0.0132 -6.4412
# 5 17.5310 11.8787 29.1627 -0.0132 49.6339 6.0292
# 6 -4.7448 2.2972 0.3156 -6.4412 6.0292 30.7170
#
#
#
# Elastic Compliance Matrix: (Units=1/GPa)
#
#
# Indices 1 2 3 4 5 6 
#
# 1 0.008776 -0.002544 -0.001677 -0.000109 -0.001734 0.001881
# 2 -0.002544 0.014540 -0.005314 -0.000874 0.000754 -0.001757
# 3 -0.001677 -0.005314 0.015469 -0.001016 -0.007372 0.001213
# 4 -0.000109 -0.000874 -0.001016 0.025030 0.000212 0.005266
# 5 -0.001734 0.000754 -0.007372 0.000212 0.025545 -0.005218
# 6 0.001881 -0.001757 0.001213 0.005266 -0.005218 0.035093
#
#
# Mechanical properties :
#
#
# Convention : Reuss Voigt Hill
#
# Bulk Modulus (GPa) = 50.71931 60.68127 55.70029
# Shear Modulus (GPa) = 33.31277 38.40845 35.86061
#
# Velocity S-wave (km/s) = 3.73638 4.01199 3.87663
# Velocity P-wave (km/s) = 6.31421 6.84773 6.58637
#
# Compressibility (1/GPa) = 0.01971636
#
# Stress axis : x y z
#
# Youngs Moduli (GPa) = 113.95306 68.77617 64.64725
#
# Poissons Ratio (x) = 0.17494 0.10840
# Poissons Ratio (y) = 0.28985 0.34351
# Poissons Ratio (z) = 0.19107 0.36544
#
# Static dielectric constant tensor:
#      x y z
#    x 4.564240 -0.017480 0.431540 
#    y -0.017480 4.421640 0.198730 
#    z 0.431540 0.198730 4.720760 
# 
# 
# High freq. dielectric constant tensor:
#      x y z
#    x 1.958180 -0.006340 0.013870 
#    y -0.006340 1.937720 0.017150 
#    z 0.013870 0.017150 1.953770 
# 
# From -- ./inp_files/333875.got.cif
#   From: 2010.06.25/outbox.cif.g09.slc.cpg/sg2_167_cif.got.tgz:333875.got - 2010.06.27 13:26:56.
