data_PCOD8028127
_publ_section_title
;
Structure prediction by ZEFSAII (Michael W. Deem and Ramdas Pophale) SiO2 
 PCOD8028127
Probable space group: P -1
;
_chemical_formula_sum "Si O2"
_cell_formula_units_Z 14
_cell_length_a 14.488531
_cell_length_b 15.624513
_cell_length_c 7.721568
_cell_angle_alpha 105.908760
_cell_angle_beta 53.673650
_cell_angle_gamma 147.778375
_cell_volume 637.431735
_symmetry_space_group_name_H-M "P -1"
_symmetry_group_IT_number 2
_symmetry_cell_setting 'triclinic'
loop_
_space_group_symop_operation_xyz
x,y,z
-x,-y,-z
loop_
_atom_site_type_symbol
_atom_site_label
_atom_site_fract_x
_atom_site_fract_y
_atom_site_fract_z
Si Si1 0.351552 0.579191 0.396960
Si Si2 0.682148 0.540790 0.973743
Si Si3 0.195463 0.830427 0.573667
Si Si4 0.788367 0.790579 0.168569
Si Si5 0.882914 0.171294 0.719099
Si Si6 0.477471 0.109967 0.717612
Si Si7 0.841183 0.810045 0.507503
O O1 0.538944 0.677771 0.393175
O O2 0.417211 0.718505 0.314548
O O3 0.070877 0.382527 0.669735
O O4 0.383576 0.523536 0.187049
O O5 0.774565 0.704487 0.991871
O O6 0.440743 0.358429 0.250383
O O7 0.906623 0.629262 0.824193
O O8 0.251133 0.900953 0.354140
O O9 0.293219 0.798307 0.476337
O O10 0.325457 0.988539 0.645576
O O11 0.862270 0.800773 0.276497
O O12 0.000000 0.000000 0.000000
O O13 0.058246 0.206596 0.513411
O O14 0.687970 0.020227 0.001459
O O15 0.000000 0.000000 0.500000
#
# Coordination Sequence:
#
# PCOD8028127 Si02
#       7
#     2   2   2   2   2   2   2
#     4  11  25  41  70  98 136 181 228 284 342 411
#     4  11  23  43  63  99 135 172 224 278 341 409
#     4  10  25  43  76  93 140 183 228 294 336 409
#     4  12  24  39  66  97 138 179 218 285 343 412
#     4  11  24  44  68  99 138 181 227 288 344 409
#     4  11  24  50  66 104 134 182 243 281 343 405
#     4  12  26  40  66 102 138 179 225 279 352 416
#
# _framework density 21.963137
#
# number of rings (size 3 to 8) (size 9 to 14) (size 15 to 20)
#    0.000    0.857    1.429    5.571   10.000    2.286 
#    0.000    4.286    0.000    0.000    0.000    0.000 
#    0.000    0.000    0.000    0.000    0.000    0.000 
#
# Total GULP energy -173536.119078 kJ/mol
# GULP energy per Si atom -12395.437077 kJ/mol
# Density = 2.191315 g / cm^3
# Si number density = 21.963137 Si / 1000 Ang^3
#
#
#
# Elastic Constant Matrix: (Units=GPa)
#
#
# Indices 1 2 3 4 5 6 
#
# 1 95.6463 42.9481 14.3002 1.2713 -1.4338 15.8280
# 2 42.9481 142.7716 41.4397 -10.9218 5.4841 -8.3305
# 3 14.3002 41.4397 91.0918 -17.5130 -9.9749 -6.2248
# 4 1.2713 -10.9218 -17.5130 34.7242 0.8825 1.5787
# 5 -1.4338 5.4841 -9.9749 0.8825 34.2047 -7.0747
# 6 15.8280 -8.3305 -6.2248 1.5787 -7.0747 35.1990
#
#
#
# Elastic Compliance Matrix: (Units=1/GPa)
#
#
# Indices 1 2 3 4 5 6 
#
# 1 0.013872 -0.004419 -0.001147 -0.002122 -0.000541 -0.007500
# 2 -0.004419 0.009716 -0.003479 0.001373 -0.002135 0.003181
# 3 -0.001147 -0.003479 0.014699 0.006087 0.005276 0.003079
# 4 -0.002122 0.001373 0.006087 0.032307 0.000856 0.001078
# 5 -0.000541 -0.002135 0.005276 0.000856 0.032556 0.007176
# 6 -0.007500 0.003181 0.003079 0.001078 0.007176 0.034474
#
#
# Mechanical properties :
#
#
# Convention : Reuss Voigt Hill
#
# Bulk Modulus (GPa) = 49.51160 58.54287 54.02723
# Shear Modulus (GPa) = 30.77927 36.21369 33.49648
#
# Velocity S-wave (km/s) = 3.74760 4.06500 3.90952
# Velocity P-wave (km/s) = 6.42790 6.98177 6.71056
#
# Compressibility (1/GPa) = 0.02019729
#
# Stress axis : x y z
#
# Youngs Moduli (GPa) = 72.08592 102.92402 68.03166
#
# Poissons Ratio (x) = 0.45485 0.07803
# Poissons Ratio (y) = 0.31857 0.23666
# Poissons Ratio (z) = 0.08269 0.35804
#
# Static dielectric constant tensor:
#      x y z
#    x 4.051610 0.173340 -0.150300 
#    y 0.173340 4.150960 -0.216980 
#    z -0.150300 -0.216980 3.959630 
# 
# 
# High freq. dielectric constant tensor:
#      x y z
#    x 1.871680 0.013240 -0.004740 
#    y 0.013240 1.871060 -0.011610 
#    z -0.004740 -0.011610 1.860300 
# 
# From -- ./inp_files/225872.got.cif
#   From: 2010.06.25/outbox.cif.g09.slc.cpg/sg2_113_cif.got.tgz:225872.got - 2010.06.27 13:26:56.
