data_PCOD8028883
_publ_section_title
;
Structure prediction by ZEFSAII (Michael W. Deem and Ramdas Pophale) SiO2 
 PCOD8028883
Probable space group: P -1
;
_chemical_formula_sum "Si O2"
_cell_formula_units_Z 16
_cell_length_a 9.083669
_cell_length_b 12.126984
_cell_length_c 12.349448
_cell_angle_alpha 122.385864
_cell_angle_beta 48.878002
_cell_angle_gamma 89.423851
_cell_volume 711.319585
_symmetry_space_group_name_H-M "P -1"
_symmetry_group_IT_number 2
_symmetry_cell_setting 'triclinic'
loop_
_space_group_symop_operation_xyz
x,y,z
-x,-y,-z
loop_
_atom_site_type_symbol
_atom_site_label
_atom_site_fract_x
_atom_site_fract_y
_atom_site_fract_z
Si Si1 0.012462 0.151290 0.338489
Si Si2 0.243053 0.949774 0.304329
Si Si3 0.646835 0.275431 0.399811
Si Si4 0.789014 0.660361 0.637179
Si Si5 0.382617 0.640304 0.778077
Si Si6 0.752123 0.764749 0.475998
Si Si7 0.416904 0.654039 0.189589
Si Si8 0.136412 0.566692 0.018433
O O1 0.875366 0.152089 0.299141
O O2 0.835000 0.264760 0.582677
O O3 0.186748 0.205108 0.251239
O O4 0.189103 0.975024 0.213141
O O5 0.431446 0.770034 0.158831
O O6 0.333615 0.057367 0.357849
O O7 0.000000 0.000000 0.500000
O O8 0.552143 0.452702 0.572658
O O9 0.721789 0.254996 0.226098
O O10 0.453937 0.233659 0.489259
O O11 0.536716 0.686788 0.797195
O O12 0.813337 0.654349 0.492422
O O13 0.000000 0.500000 0.500000
O O14 0.166214 0.672951 0.973792
O O15 0.994560 0.684098 0.248240
O O16 0.612545 0.594101 0.156647
O O17 0.500000 0.500000 0.000000
O O18 0.000000 0.500000 0.000000
#
# Coordination Sequence:
#
# PCOD8028883 Si02
#       8
#     2   2   2   2   2   2   2   2
#     4  10  18  34  57  86 116 155 195 238 287 354
#     4   9  20  37  55  84 117 156 192 235 297 359
#     4  10  18  35  55  87 121 154 199 239 283 349
#     4  10  17  30  53  82 115 157 201 236 282 344
#     4  10  20  31  52  86 126 151 198 247 282 332
#     4  10  21  35  57  86 122 155 191 242 297 346
#     4  11  21  37  58  88 121 145 188 250 298 346
#     4  12  21  35  55  90 123 152 191 250 292 337
#
# _framework density 22.493406
#
# number of rings (size 3 to 8) (size 9 to 14) (size 15 to 20)
#    0.000    1.750    3.750    2.250    0.000    0.000 
#    0.000    6.875    0.000    0.000    0.000  166.250 
#    0.000    0.000    0.000    0.000    0.000    0.000 
#
# Total GULP energy -198291.736512 kJ/mol
# GULP energy per Si atom -12393.233532 kJ/mol
# Density = 2.244221 g / cm^3
# Si number density = 22.493406 Si / 1000 Ang^3
#
#
#
# Elastic Constant Matrix: (Units=GPa)
#
#
# Indices 1 2 3 4 5 6 
#
# 1 140.0326 61.4842 11.0757 -5.7830 -7.2212 4.9812
# 2 61.4842 150.9991 27.6671 -3.5043 -5.1216 -1.4979
# 3 11.0757 27.6671 49.2988 -9.1983 -2.9785 2.0238
# 4 -5.7830 -3.5043 -9.1983 34.6039 6.1067 -4.8151
# 5 -7.2212 -5.1216 -2.9785 6.1067 11.7719 -12.3335
# 6 4.9812 -1.4979 2.0238 -4.8151 -12.3335 39.0269
#
#
#
# Elastic Compliance Matrix: (Units=1/GPa)
#
#
# Indices 1 2 3 4 5 6 
#
# 1 0.008883 -0.003540 0.000318 0.000561 0.003623 -0.000072
# 2 -0.003540 0.008958 -0.004328 -0.001137 0.003203 0.001892
# 3 0.000318 -0.004328 0.023781 0.005716 0.000888 -0.000454
# 4 0.000561 -0.001137 0.005716 0.033310 -0.018103 -0.002023
# 5 0.003623 0.003203 0.000888 -0.018103 0.142675 0.042470
# 6 -0.000072 0.001892 -0.000454 -0.002023 0.042470 0.038901
#
#
# Mechanical properties :
#
#
# Convention : Reuss Voigt Hill
#
# Bulk Modulus (GPa) = 37.70673 60.08717 48.89695
# Shear Modulus (GPa) = 17.82855 33.08743 25.45799
#
# Velocity S-wave (km/s) = 2.81839 3.83950 3.36787
# Velocity P-wave (km/s) = 5.23364 6.81373 6.07527
#
# Compressibility (1/GPa) = 0.02652046
#
# Stress axis : x y z
#
# Youngs Moduli (GPa) = 112.57554 111.63142 42.05017
#
# Poissons Ratio (x) = 0.39517 -0.01335
# Poissons Ratio (y) = 0.39851 0.18201
# Poissons Ratio (z) = -0.03574 0.48318
#
# Static dielectric constant tensor:
#      x y z
#    x 9.355510 -4.879710 -4.648690 
#    y -4.879710 9.586380 4.322040 
#    z -4.648690 4.322040 8.002030 
# 
# 
# High freq. dielectric constant tensor:
#      x y z
#    x 1.900640 0.000200 0.001330 
#    y 0.000200 1.899150 -0.017510 
#    z 0.001330 -0.017510 1.842730 
# 
# From -- ./inp_files/392781.got.cif
#   From: 2010.06.25/outbox.cif.g09.slc.cpg/sg2_197_cif.got.tgz:392781.got - 2010.06.27 13:26:56.
