data_PCOD8028849
_publ_section_title
;
Structure prediction by ZEFSAII (Michael W. Deem and Ramdas Pophale) SiO2 
 PCOD8028849
Probable space group: P -1
;
_chemical_formula_sum "Si O2"
_cell_formula_units_Z 16
_cell_length_a 14.911258
_cell_length_b 10.212030
_cell_length_c 15.518624
_cell_angle_alpha 103.055798
_cell_angle_beta 48.146882
_cell_angle_gamma 63.456187
_cell_volume 972.505822
_symmetry_space_group_name_H-M "P -1"
_symmetry_group_IT_number 2
_symmetry_cell_setting 'triclinic'
loop_
_space_group_symop_operation_xyz
x,y,z
-x,-y,-z
loop_
_atom_site_type_symbol
_atom_site_label
_atom_site_fract_x
_atom_site_fract_y
_atom_site_fract_z
Si Si1 0.377426 0.941304 0.500427
Si Si2 0.500090 0.216753 0.785554
Si Si3 0.045592 0.354684 0.215604
Si Si4 0.951192 0.891472 0.498944
Si Si5 0.472306 0.926939 0.788913
Si Si6 0.087347 0.552210 0.496347
Si Si7 0.404490 0.230014 0.497379
Si Si8 0.072539 0.644011 0.212446
O O1 0.493056 0.764090 0.318873
O O2 0.481194 0.793895 0.501632
O O3 0.411540 0.067614 0.490304
O O4 0.126742 0.137978 0.689022
O O5 0.515325 0.045402 0.770608
O O6 0.285249 0.479341 0.998595
O O7 0.698434 0.104734 0.687370
O O8 0.060456 0.501732 0.229922
O O9 0.029117 0.319750 0.318682
O O10 0.839198 0.497756 0.315174
O O11 0.249786 0.099744 0.002865
O O12 0.043513 0.723336 0.494131
O O13 0.068132 0.739356 0.314021
O O14 0.000000 0.000000 0.500000
O O15 0.659490 0.692585 0.691216
O O16 0.470140 0.860560 0.685913
O O17 0.000000 0.500000 0.500000
#
# Coordination Sequence:
#
# PCOD8028849 Si02
#       8
#     2   2   2   2   2   2   2   2
#     4   8  14  25  42  65  96 131 150 181 231 283
#     4   9  17  30  46  67  93 123 159 193 229 277
#     4   9  17  28  46  70  94 121 156 194 229 273
#     4  11  22  34  47  67  95 125 158 198 236 270
#     4   9  17  28  46  70  94 121 156 194 229 273
#     4  11  18  32  49  67  91 125 161 192 230 281
#     4   8  14  25  40  66 102 124 149 185 231 278
#     4   9  17  30  46  67  93 123 159 193 229 277
#
# _framework density 16.452342000000002
#
# number of rings (size 3 to 8) (size 9 to 14) (size 15 to 20)
#    0.000    2.750    2.500    1.500    0.000    3.000 
#    0.000    5.000    0.000    0.000    0.000   14.000 
#    0.000   16.000    0.000    0.000    0.000    0.000 
#
# Total GULP energy -198350.575183 kJ/mol
# GULP energy per Si atom -12396.910949 kJ/mol
# Density = 1.641490 g / cm^3
# Si number density = 16.452342 Si / 1000 Ang^3
#
#
#
# Elastic Constant Matrix: (Units=GPa)
#
#
# Indices 1 2 3 4 5 6 
#
# 1 96.9815 60.8290 65.8966 9.0961 2.3686 -32.1097
# 2 60.8290 75.1929 46.5783 4.3100 -0.0658 -20.4131
# 3 65.8966 46.5783 167.2455 21.6602 6.2794 -22.7574
# 4 9.0961 4.3100 21.6602 4.3867 -1.1715 -5.3001
# 5 2.3686 -0.0658 6.2794 -1.1715 14.9739 -0.1254
# 6 -32.1097 -20.4131 -22.7574 -5.3001 -0.1254 29.1753
#
#
#
# Elastic Compliance Matrix: (Units=1/GPa)
#
#
# Indices 1 2 3 4 5 6 
#
# 1 0.029581 -0.016855 -0.003363 -0.009386 -0.003940 0.016417
# 2 -0.016855 0.031600 -0.010341 0.067811 0.012513 0.007865
# 3 -0.003363 -0.010341 0.027458 -0.143335 -0.022373 -0.015654
# 4 -0.009386 0.067811 -0.143335 1.074063 0.146938 0.121059
# 5 -0.003940 0.012513 -0.022373 0.146938 0.088457 0.014041
# 6 0.016417 0.007865 -0.015654 0.121059 0.014041 0.067688
#
#
# Mechanical properties :
#
#
# Convention : Reuss Voigt Hill
#
# Bulk Modulus (GPa) = 36.33923 76.22531 56.28227
# Shear Modulus (GPa) = 3.59935 20.78157 12.19046
#
# Velocity S-wave (km/s) = 1.48071 3.55792 2.72500
# Velocity P-wave (km/s) = 5.00588 7.95675 6.64713
#
# Compressibility (1/GPa) = 0.02751847
#
# Stress axis : x y z
#
# Youngs Moduli (GPa) = 33.80588 31.64591 36.41918
#
# Poissons Ratio (x) = 0.53339 0.12250
# Poissons Ratio (y) = 0.56980 0.37663
# Poissons Ratio (z) = 0.11371 0.32726
#
# Static dielectric constant tensor:
#      x y z
#    x 3.173810 -0.536730 0.058700 
#    y -0.536730 3.270770 0.078290 
#    z 0.058700 0.078290 3.260980 
# 
# 
# High freq. dielectric constant tensor:
#      x y z
#    x 1.621320 -0.036320 0.004750 
#    y -0.036320 1.593790 0.007530 
#    z 0.004750 0.007530 1.641330 
# 
# From -- ./inp_files/216591.got.cif
#   From: 2010.06.25/outbox.cif.g09.slc.cpg/sg2_109_cif.got.tgz:216591.got - 2010.06.27 13:26:56.
