data_PCOD8028716
_publ_section_title
;
Structure prediction by ZEFSAII (Michael W. Deem and Ramdas Pophale) SiO2 
 PCOD8028716
Probable space group: P -1
;
_chemical_formula_sum "Si O2"
_cell_formula_units_Z 16
_cell_length_a 15.189596
_cell_length_b 16.184279
_cell_length_c 11.380372
_cell_angle_alpha 138.345724
_cell_angle_beta 27.721165
_cell_angle_gamma 146.818480
_cell_volume 712.023616
_symmetry_space_group_name_H-M "P -1"
_symmetry_group_IT_number 2
_symmetry_cell_setting 'triclinic'
loop_
_space_group_symop_operation_xyz
x,y,z
-x,-y,-z
loop_
_atom_site_type_symbol
_atom_site_label
_atom_site_fract_x
_atom_site_fract_y
_atom_site_fract_z
Si Si1 0.836207 0.161315 0.239734
Si Si2 0.978508 0.012459 0.259303
Si Si3 0.988893 0.558881 0.200842
Si Si4 0.787002 0.556476 0.029275
Si Si5 0.428778 0.858610 0.011325
Si Si6 0.282116 0.320611 0.340482
Si Si7 0.414257 0.980823 0.388264
Si Si8 0.754691 0.773010 0.462488
O O1 0.739925 0.148213 0.469978
O O2 0.640634 0.123485 0.333914
O O3 0.064080 0.329272 0.130971
O O4 0.905003 0.041725 0.024345
O O5 0.734300 0.968726 0.449537
O O6 0.158243 0.192298 0.250838
O O7 0.938919 0.928052 0.341913
O O8 0.750316 0.541643 0.492036
O O9 0.042551 0.478066 0.149734
O O10 0.156641 0.741396 0.202765
O O11 0.000000 0.500000 0.000000
O O12 0.557255 0.400727 0.091517
O O13 0.702031 0.630411 0.298514
O O14 0.522950 0.764618 0.748787
O O15 0.503960 0.913073 0.115249
O O16 0.500000 0.000000 0.000000
O O17 0.163336 0.238061 0.517426
#
# Coordination Sequence:
#
# PCOD8028716 Si02
#       8
#     2   2   2   2   2   2   2   2
#     4  10  26  45  71  92 128 180 226 275 323 390
#     4  11  23  41  71  96 130 168 224 277 328 390
#     4  12  24  39  64  96 140 180 208 266 337 398
#     4  11  25  42  62  96 137 178 221 265 331 403
#     4  12  23  39  69 101 131 166 217 276 326 389
#     4  12  22  39  63  98 138 172 213 272 338 393
#     4  11  23  46  69  98 128 170 231 275 326 384
#     4  11  21  40  62  98 138 172 212 267 331 401
#
# _framework density 22.471164000000002
#
# number of rings (size 3 to 8) (size 9 to 14) (size 15 to 20)
#    0.000    0.750    5.000    2.625    1.750    3.000 
#    0.000    1.250    0.000    0.000    0.000    0.000 
#    0.000    0.000    0.000    0.000    0.000    0.000 
#
# Total GULP energy -198383.633561 kJ/mol
# GULP energy per Si atom -12398.977098 kJ/mol
# Density = 2.242002 g / cm^3
# Si number density = 22.471164 Si / 1000 Ang^3
#
#
#
# Elastic Constant Matrix: (Units=GPa)
#
#
# Indices 1 2 3 4 5 6 
#
# 1 85.4719 36.3134 33.0646 0.6253 -3.8878 -8.1083
# 2 36.3134 95.8963 22.9974 -1.6382 2.6720 -6.3929
# 3 33.0646 22.9974 74.4572 -1.1430 -3.2402 -16.5649
# 4 0.6253 -1.6382 -1.1430 32.5338 -11.2700 -6.6547
# 5 -3.8878 2.6720 -3.2402 -11.2700 41.8211 0.9567
# 6 -8.1083 -6.3929 -16.5649 -6.6547 0.9567 26.5390
#
#
#
# Elastic Compliance Matrix: (Units=1/GPa)
#
#
# Indices 1 2 3 4 5 6 
#
# 1 0.015923 -0.004735 -0.005519 -0.000260 0.001281 0.000168
# 2 -0.004735 0.012723 -0.001728 0.000357 -0.001306 0.000676
# 3 -0.005519 -0.001728 0.018874 0.003429 0.001744 0.010475
# 4 -0.000260 0.000357 0.003429 0.036519 0.009809 0.010950
# 5 0.001281 -0.001306 0.001744 0.009809 0.026832 0.002658
# 6 0.000168 0.000676 0.010475 0.010950 0.002658 0.047083
#
#
# Mechanical properties :
#
#
# Convention : Reuss Voigt Hill
#
# Bulk Modulus (GPa) = 42.45306 48.95290 45.70298
# Shear Modulus (GPa) = 26.34784 31.07545 28.71164
#
# Velocity S-wave (km/s) = 3.42792 3.72278 3.57839
# Velocity P-wave (km/s) = 5.88224 6.34908 6.12011
#
# Compressibility (1/GPa) = 0.02355543
#
# Stress axis : x y z
#
# Youngs Moduli (GPa) = 62.80379 78.59874 52.98213
#
# Poissons Ratio (x) = 0.37215 0.29243
# Poissons Ratio (y) = 0.29736 0.09155
# Poissons Ratio (z) = 0.34664 0.13582
#
# Static dielectric constant tensor:
#      x y z
#    x 3.981500 -0.112010 -0.156240 
#    y -0.112010 3.973340 0.137470 
#    z -0.156240 0.137470 4.196780 
# 
# 
# High freq. dielectric constant tensor:
#      x y z
#    x 1.873820 -0.002810 -0.017430 
#    y -0.002810 1.878590 0.008410 
#    z -0.017430 0.008410 1.892480 
# 
# From -- ./inp_files/454922.got.cif
#   From: 2010.06.25/outbox.cif.g09.slc.cpg/sg2_228_cif.got.tgz:454922.got - 2010.06.27 13:26:56.
