data_PCOD8028121
_publ_section_title
;
Structure prediction by ZEFSAII (Michael W. Deem and Ramdas Pophale) SiO2 
 PCOD8028121
Probable space group: P -1
;
_chemical_formula_sum "Si O2"
_cell_formula_units_Z 14
_cell_length_a 17.275225
_cell_length_b 7.517785
_cell_length_c 9.101206
_cell_angle_alpha 62.713052
_cell_angle_beta 118.234158
_cell_angle_gamma 146.359618
_cell_volume 571.813613
_symmetry_space_group_name_H-M "P -1"
_symmetry_group_IT_number 2
_symmetry_cell_setting 'triclinic'
loop_
_space_group_symop_operation_xyz
x,y,z
-x,-y,-z
loop_
_atom_site_type_symbol
_atom_site_label
_atom_site_fract_x
_atom_site_fract_y
_atom_site_fract_z
Si Si1 0.602493 0.190815 0.300633
Si Si2 0.972437 0.465151 0.315617
Si Si3 0.325387 0.522759 0.435683
Si Si4 0.903148 0.150862 0.973238
Si Si5 0.958417 0.797432 0.677727
Si Si6 0.418012 0.487864 0.045703
Si Si7 0.665347 0.904222 0.334501
O O1 0.672777 0.443127 0.399214
O O2 0.442140 0.855366 0.328425
O O3 0.688175 0.136562 0.373457
O O4 0.602576 0.324061 0.103477
O O5 0.000000 0.500000 0.500000
O O6 0.033915 0.770583 0.167326
O O7 0.064481 0.461076 0.316464
O O8 0.802385 0.138024 0.260268
O O9 0.179024 0.353299 0.311052
O O10 0.340056 0.311892 0.495664
O O11 0.733736 0.885258 0.911749
O O12 0.000000 0.500000 0.000000
O O13 0.926486 0.003304 0.160662
O O14 0.000000 0.000000 0.500000
O O15 0.515552 0.670974 0.208119
O O16 0.500000 0.500000 0.000000
#
# Coordination Sequence:
#
# PCOD8028121 Si02
#       7
#     2   2   2   2   2   2   2
#     4  11  26  43  70 110 144 190 245 299 369 439
#     4  11  25  45  71 108 149 188 242 310 363 439
#     4  11  24  43  73 103 144 194 241 301 364 442
#     4  10  25  43  74 108 142 196 247 300 371 443
#     4  11  21  43  70 100 142 188 247 291 365 436
#     4  12  24  46  74 104 149 191 248 307 367 438
#     4  12  25  47  73 105 148 191 243 305 368 436
#
# _framework density 24.483502000000001
#
# number of rings (size 3 to 8) (size 9 to 14) (size 15 to 20)
#    0.000    0.857    2.857    4.286    6.000    2.286 
#    0.000    1.429    0.000    0.000    0.000    0.000 
#    0.000    0.000    0.000    0.000    0.000    0.000 
#
# Total GULP energy -173495.941703 kJ/mol
# GULP energy per Si atom -12392.567264 kJ/mol
# Density = 2.442778 g / cm^3
# Si number density = 24.483502 Si / 1000 Ang^3
#
#
#
# Elastic Constant Matrix: (Units=GPa)
#
#
# Indices 1 2 3 4 5 6 
#
# 1 108.0631 26.4136 27.3078 8.4625 17.0519 -6.7729
# 2 26.4136 138.2201 50.0887 -0.4234 6.4857 32.8138
# 3 27.3078 50.0887 151.0518 -4.7572 -6.3011 16.7452
# 4 8.4625 -0.4234 -4.7572 32.2883 8.3209 6.9146
# 5 17.0519 6.4857 -6.3011 8.3209 32.2889 -1.4998
# 6 -6.7729 32.8138 16.7452 6.9146 -1.4998 37.1759
#
#
#
# Elastic Compliance Matrix: (Units=1/GPa)
#
#
# Indices 1 2 3 4 5 6 
#
# 1 0.011910 -0.002651 -0.002255 -0.003472 -0.005026 0.005968
# 2 -0.002651 0.010983 -0.002058 0.003322 -0.002527 -0.009970
# 3 -0.002255 -0.002058 0.008144 0.001602 0.002667 -0.002453
# 4 -0.003472 0.003322 0.001602 0.036820 -0.008543 -0.011479
# 5 -0.005026 -0.002527 0.002667 -0.008543 0.037003 0.003196
# 6 0.005968 -0.009970 -0.002453 -0.011479 0.003196 0.040155
#
#
# Mechanical properties :
#
#
# Convention : Reuss Voigt Hill
#
# Bulk Modulus (GPa) = 58.44609 67.21725 62.83167
# Shear Modulus (GPa) = 30.36819 39.91896 35.14358
#
# Velocity S-wave (km/s) = 3.52569 4.04226 3.79278
# Velocity P-wave (km/s) = 6.36376 7.02141 6.70065
#
# Compressibility (1/GPa) = 0.01710978
#
# Stress axis : x y z
#
# Youngs Moduli (GPa) = 83.95959 91.05121 122.78953
#
# Poissons Ratio (x) = 0.24134 0.27688
# Poissons Ratio (y) = 0.22254 0.25274
# Poissons Ratio (z) = 0.18932 0.18741
#
# Static dielectric constant tensor:
#      x y z
#    x 4.411280 0.253040 -0.381550 
#    y 0.253040 4.701310 -0.092310 
#    z -0.381550 -0.092310 3.757310 
# 
# 
# High freq. dielectric constant tensor:
#      x y z
#    x 1.964010 0.016090 0.006490 
#    y 0.016090 1.976550 -0.006860 
#    z 0.006490 -0.006860 1.983130 
# 
# From -- ./inp_files/328607.got.cif
#   From: 2010.06.25/outbox.cif.g09.slc.cpg/sg2_165_cif.got.tgz:328607.got - 2010.06.27 13:26:56.
