data_PCOD8028674
_publ_section_title
;
Structure prediction by ZEFSAII (Michael W. Deem and Ramdas Pophale) SiO2 
 PCOD8028674
Probable space group: P -1
;
_chemical_formula_sum "Si O2"
_cell_formula_units_Z 16
_cell_length_a 9.070035
_cell_length_b 15.412282
_cell_length_c 18.739999
_cell_angle_alpha 151.536243
_cell_angle_beta 144.213766
_cell_angle_gamma 36.929396
_cell_volume 694.272876
_symmetry_space_group_name_H-M "P -1"
_symmetry_group_IT_number 2
_symmetry_cell_setting 'triclinic'
loop_
_space_group_symop_operation_xyz
x,y,z
-x,-y,-z
loop_
_atom_site_type_symbol
_atom_site_label
_atom_site_fract_x
_atom_site_fract_y
_atom_site_fract_z
Si Si1 0.450349 0.537003 0.280842
Si Si2 0.343822 0.154950 0.605585
Si Si3 0.930265 0.531066 0.373626
Si Si4 0.369799 0.707754 0.066359
Si Si5 0.559714 0.394837 0.372514
Si Si6 0.532880 0.808368 0.051490
Si Si7 0.021148 0.931608 0.379094
Si Si8 0.806146 0.813784 0.869521
O O1 0.754100 0.516323 0.362336
O O2 0.419375 0.530998 0.349824
O O3 0.258027 0.735382 0.319608
O O4 0.362412 0.362773 0.087634
O O5 0.262990 0.367190 0.693667
O O6 0.523325 0.145871 0.739695
O O7 0.500000 0.000000 0.500000
O O8 0.078350 0.102446 0.481572
O O9 0.124454 0.660144 0.560251
O O10 0.107958 0.322968 0.265300
O O11 0.451533 0.713478 0.020516
O O12 0.500000 0.500000 0.000000
O O13 0.050316 0.775821 0.993462
O O14 0.500000 0.500000 0.500000
O O15 0.439647 0.218687 0.205500
O O16 0.751883 0.909105 0.227480
O O17 0.279296 0.969177 0.035408
O O18 0.000000 0.000000 0.500000
#
# Coordination Sequence:
#
# PCOD8028674 Si02
#       8
#     2   2   2   2   2   2   2   2
#     4  12  26  47  74 110 147 194 246 312 363 439
#     4  12  25  45  71 112 143 191 248 302 359 437
#     4  11  23  46  72 111 147 189 245 301 369 433
#     4  12  25  45  76 106 152 198 238 302 368 436
#     4  10  26  43  74 104 149 187 240 300 371 433
#     4  12  27  48  76 110 148 194 249 304 367 441
#     4  12  28  46  76 107 148 196 250 301 373 434
#     4  11  25  47  78 105 149 195 242 294 377 438
#
# _framework density 23.045694000000001
#
# number of rings (size 3 to 8) (size 9 to 14) (size 15 to 20)
#    0.000    0.500    5.000    1.875    8.750    2.500 
#    0.000    0.000    0.000    0.000    0.000    0.000 
#    0.000    0.000    0.000    0.000    0.000    0.000 
#
# Total GULP energy -198409.655139 kJ/mol
# GULP energy per Si atom -12400.603446 kJ/mol
# Density = 2.299324 g / cm^3
# Si number density = 23.045694 Si / 1000 Ang^3
#
#
#
# Elastic Constant Matrix: (Units=GPa)
#
#
# Indices 1 2 3 4 5 6 
#
# 1 111.5059 28.6439 40.7758 -0.3219 12.9687 14.6001
# 2 28.6439 117.5980 41.3309 2.5915 1.2483 12.0896
# 3 40.7758 41.3309 119.9324 -12.5277 11.8900 -3.5468
# 4 -0.3219 2.5915 -12.5277 42.3118 -6.9145 2.6117
# 5 12.9687 1.2483 11.8900 -6.9145 43.6464 -2.3150
# 6 14.6001 12.0896 -3.5468 2.6117 -2.3150 42.7351
#
#
#
# Elastic Compliance Matrix: (Units=1/GPa)
#
#
# Indices 1 2 3 4 5 6 
#
# 1 0.011340 -0.001099 -0.003429 -0.001074 -0.002783 -0.003933
# 2 -0.001099 0.010289 -0.003458 -0.001396 0.000610 -0.002704
# 3 -0.003429 -0.003458 0.011234 0.003126 -0.001298 0.002821
# 4 -0.001074 -0.001396 0.003126 0.025227 0.003486 -0.000332
# 5 -0.002783 0.000610 -0.001298 0.003486 0.024722 0.001797
# 6 -0.003933 -0.002704 0.002821 -0.000332 0.001797 0.025860
#
#
# Mechanical properties :
#
#
# Convention : Reuss Voigt Hill
#
# Bulk Modulus (GPa) = 59.20791 63.39305 61.30048
# Shear Modulus (GPa) = 38.38001 41.62437 40.00219
#
# Velocity S-wave (km/s) = 4.08534 4.25451 4.17079
# Velocity P-wave (km/s) = 6.92825 7.19039 7.06054
#
# Compressibility (1/GPa) = 0.01688964
#
# Stress axis : x y z
#
# Youngs Moduli (GPa) = 88.18302 97.19111 89.01316
#
# Poissons Ratio (x) = 0.10685 0.30525
# Poissons Ratio (y) = 0.09695 0.30783
# Poissons Ratio (z) = 0.30240 0.33611
#
# Static dielectric constant tensor:
#      x y z
#    x 4.235170 -0.180550 0.335880 
#    y -0.180550 5.049940 -0.521500 
#    z 0.335880 -0.521500 4.524270 
# 
# 
# High freq. dielectric constant tensor:
#      x y z
#    x 1.915530 0.008720 0.015420 
#    y 0.008720 1.907280 -0.008170 
#    z 0.015420 -0.008170 1.917990 
# 
# From -- ./inp_files/561444.got.cif
#   From: 2010.06.25/outbox.cif.g09.slc.cpg/sg2_281_cif.got.tgz:561444.got - 2010.06.27 13:26:56.
