data_PCOD8028087
_publ_section_title
;
Structure prediction by ZEFSAII (Michael W. Deem and Ramdas Pophale) SiO2 
 PCOD8028087
Probable space group: P -1
;
_chemical_formula_sum "Si O2"
_cell_formula_units_Z 16
_cell_length_a 9.150012
_cell_length_b 8.946935
_cell_length_c 15.746233
_cell_angle_alpha 134.472922
_cell_angle_beta 77.068066
_cell_angle_gamma 77.997888
_cell_volume 763.344127
_symmetry_space_group_name_H-M "P -1"
_symmetry_group_IT_number 2
_symmetry_cell_setting 'triclinic'
loop_
_space_group_symop_operation_xyz
x,y,z
-x,-y,-z
loop_
_atom_site_type_symbol
_atom_site_label
_atom_site_fract_x
_atom_site_fract_y
_atom_site_fract_z
Si Si1 0.318312 0.643088 0.630238
Si Si2 0.473721 0.418608 0.270712
Si Si3 0.777468 0.745453 0.708755
Si Si4 0.562962 0.275713 0.011670
Si Si5 0.735574 0.543741 0.014040
Si Si6 0.139201 0.158967 0.778978
Si Si7 0.146869 0.324137 0.518300
Si Si8 0.326754 0.986457 0.512476
O O1 0.500000 0.500000 0.500000
O O2 0.344888 0.688086 0.743257
O O3 0.247218 0.464752 0.570797
O O4 0.182110 0.897620 0.704271
O O5 0.369687 0.324315 0.301791
O O6 0.508128 0.306885 0.128655
O O7 0.368295 0.712010 0.400232
O O8 0.826569 0.785754 0.623545
O O9 0.943607 0.517759 0.642707
O O10 0.715872 0.994498 0.866651
O O11 0.391067 0.340283 0.004718
O O12 0.642714 0.445267 0.049107
O O13 0.929248 0.332771 0.876314
O O14 0.754242 0.750062 0.142391
O O15 0.200697 0.142130 0.668064
O O16 0.222258 0.098924 0.483607
O O17 0.500000 0.000000 0.500000
#
# Coordination Sequence:
#
# PCOD8028087 Si02
#       8
#     2   2   2   2   2   2   2   2
#     4  12  21  43  68  94 130 170 214 265 327 382
#     4  12  25  41  67  98 125 174 220 259 324 389
#     4  11  25  45  65  95 135 171 212 267 329 387
#     4  11  25  44  66  93 134 172 217 263 329 385
#     4  10  25  43  68  94 129 174 216 269 325 384
#     4  11  23  44  69  97 128 169 222 269 321 381
#     4  11  25  42  68  99 128 170 216 270 326 378
#     4  12  24  41  71  99 132 164 222 272 317 386
#
# _framework density 20.960401999999998
#
# number of rings (size 3 to 8) (size 9 to 14) (size 15 to 20)
#    0.000    0.750    3.750    2.625    7.000    1.500 
#    2.250    1.250    0.000    0.000    0.000    0.000 
#    0.000    0.000    0.000    0.000    0.000    0.000 
#
# Total GULP energy -198465.390329 kJ/mol
# GULP energy per Si atom -12404.086896 kJ/mol
# Density = 2.091270 g / cm^3
# Si number density = 20.960402 Si / 1000 Ang^3
#
#
#
# Elastic Constant Matrix: (Units=GPa)
#
#
# Indices 1 2 3 4 5 6 
#
# 1 62.1606 -1.4068 14.5027 -9.6515 -4.1833 -8.3526
# 2 -1.4068 93.2436 27.8627 -8.0503 -6.2323 -11.6402
# 3 14.5027 27.8627 108.6493 -7.8463 -7.0347 -13.0910
# 4 -9.6515 -8.0503 -7.8463 31.1420 -0.1726 6.1920
# 5 -4.1833 -6.2323 -7.0347 -0.1726 28.4885 3.5031
# 6 -8.3526 -11.6402 -13.0910 6.1920 3.5031 29.6947
#
#
#
# Elastic Compliance Matrix: (Units=1/GPa)
#
#
# Indices 1 2 3 4 5 6 
#
# 1 0.017974 0.001873 -0.001949 0.004847 0.002146 0.003667
# 2 0.001873 0.012324 -0.002699 0.002413 0.001896 0.003441
# 3 -0.001949 -0.002699 0.010639 0.000842 0.001419 0.002741
# 4 0.004847 0.002413 0.000842 0.035452 0.002275 -0.004981
# 5 0.002146 0.001896 0.001419 0.002275 0.036542 -0.002813
# 6 0.003667 0.003441 0.002741 -0.004981 -0.002813 0.038635
#
#
# Mechanical properties :
#
#
# Convention : Reuss Voigt Hill
#
# Bulk Modulus (GPa) = 28.25788 38.44119 33.34953
# Shear Modulus (GPa) = 29.60138 32.73803 31.16970
#
# Velocity S-wave (km/s) = 3.76207 3.95637 3.86045
# Velocity P-wave (km/s) = 5.69049 6.26500 5.98465
#
# Compressibility (1/GPa) = 0.03538836
#
# Stress axis : x y z
#
# Youngs Moduli (GPa) = 55.63551 81.14277 93.99292
#
# Poissons Ratio (x) = -0.15200 0.18317
# Poissons Ratio (y) = -0.10422 0.25367
# Poissons Ratio (z) = 0.10842 0.21899
#
# Static dielectric constant tensor:
#      x y z
#    x 3.893170 -0.069160 0.047680 
#    y -0.069160 4.025190 0.023040 
#    z 0.047680 0.023040 3.872360 
# 
# 
# High freq. dielectric constant tensor:
#      x y z
#    x 1.831830 -0.000100 0.004690 
#    y -0.000100 1.829930 0.002850 
#    z 0.004690 0.002850 1.826450 
# 
# From -- ./inp_files/185063.got.cif
#   From: 2010.06.25/outbox.cif.g09.slc.cpg/sg2_93_cif.got.tgz:185063.got - 2010.06.27 13:26:56.
