data_PCOD8028594
_publ_section_title
;
Structure prediction by ZEFSAII (Michael W. Deem and Ramdas Pophale) SiO2 
 PCOD8028594
Probable space group: P -1
;
_chemical_formula_sum "Si O2"
_cell_formula_units_Z 14
_cell_length_a 5.131714
_cell_length_b 14.360778
_cell_length_c 8.411500
_cell_angle_alpha 101.191305
_cell_angle_beta 82.806282
_cell_angle_gamma 69.548885
_cell_volume 557.065794
_symmetry_space_group_name_H-M "P -1"
_symmetry_group_IT_number 2
_symmetry_cell_setting 'triclinic'
loop_
_space_group_symop_operation_xyz
x,y,z
-x,-y,-z
loop_
_atom_site_type_symbol
_atom_site_label
_atom_site_fract_x
_atom_site_fract_y
_atom_site_fract_z
Si Si1 0.253388 0.091826 0.464413
Si Si2 0.623919 0.551310 0.137982
Si Si3 0.221483 0.276347 0.345761
Si Si4 0.925406 0.660315 0.957468
Si Si5 0.416706 0.614773 0.496298
Si Si6 0.381472 0.952217 0.136361
Si Si7 0.999394 0.834626 0.173667
O O1 0.372764 0.170950 0.397106
O O2 0.993636 0.150310 0.628101
O O3 0.500000 0.000000 0.500000
O O4 0.167740 0.039369 0.300682
O O5 0.400213 0.616703 0.307222
O O6 0.872312 0.451498 0.165937
O O7 0.500000 0.500000 0.000000
O O8 0.723392 0.637878 0.091549
O O9 0.267078 0.268720 0.147928
O O10 0.331433 0.356977 0.441481
O O11 0.883370 0.308300 0.393364
O O12 0.102580 0.717304 0.060232
O O13 0.500000 0.500000 0.500000
O O14 0.663489 0.878478 0.178406
O O15 0.185950 0.888127 0.083568
O O16 0.500000 0.000000 0.000000
#
# Coordination Sequence:
#
# PCOD8028594 Si02
#       7
#     2   2   2   2   2   2   2
#     4  10  25  48  73 106 143 192 247 304 363 434
#     4  11  26  44  72 102 153 192 239 306 360 434
#     4  12  27  46  75 105 146 195 245 299 367 434
#     4  11  26  44  69 109 143 195 245 297 366 437
#     4  12  26  47  72 107 148 192 243 300 363 438
#     4  11  24  45  71 101 138 179 234 304 359 421
#     4  11  25  43  70  99 140 182 237 291 361 431
#
# _framework density 25.131679999999999
#
# number of rings (size 3 to 8) (size 9 to 14) (size 15 to 20)
#    0.000    0.857    1.429    3.857    8.000    5.714 
#    0.000    0.000    0.000    0.000    0.000    0.000 
#    0.000    0.000    0.000    0.000    0.000    0.000 
#
# Total GULP energy -173475.231576 kJ/mol
# GULP energy per Si atom -12391.087970 kJ/mol
# Density = 2.507448 g / cm^3
# Si number density = 25.131680 Si / 1000 Ang^3
#
#
#
# Elastic Constant Matrix: (Units=GPa)
#
#
# Indices 1 2 3 4 5 6 
#
# 1 90.3491 38.8379 28.5860 -1.2738 3.9392 32.1415
# 2 38.8379 175.0284 58.6231 -19.9764 -0.1596 38.6811
# 3 28.5860 58.6231 153.9175 2.0965 6.5073 22.8611
# 4 -1.2738 -19.9764 2.0965 30.9206 -1.2526 7.7762
# 5 3.9392 -0.1596 6.5073 -1.2526 31.2617 6.8717
# 6 32.1415 38.6811 22.8611 7.7762 6.8717 50.8860
#
#
#
# Elastic Compliance Matrix: (Units=1/GPa)
#
#
# Indices 1 2 3 4 5 6 
#
# 1 0.014889 -0.000655 -0.001264 0.002500 0.000413 -0.008776
# 2 -0.000655 0.009151 -0.002546 0.007905 0.002502 -0.006944
# 3 -0.001264 -0.002546 0.007831 -0.002229 -0.001521 -0.000239
# 4 0.002500 0.007905 -0.002229 0.041305 0.004823 -0.013550
# 5 0.000413 0.002502 -0.001521 0.004823 0.033954 -0.006802
# 6 -0.008776 -0.006944 -0.000239 -0.013550 -0.006802 0.033570
#
#
# Mechanical properties :
#
#
# Convention : Reuss Voigt Hill
#
# Bulk Modulus (GPa) = 43.58817 74.59878 59.09347
# Shear Modulus (GPa) = 31.79109 42.16351 36.97730
#
# Velocity S-wave (km/s) = 3.56052 4.10042 3.83997
# Velocity P-wave (km/s) = 5.85530 7.22257 6.57458
#
# Compressibility (1/GPa) = 0.02294201
#
# Stress axis : x y z
#
# Youngs Moduli (GPa) = 67.16321 109.28314 127.69146
#
# Poissons Ratio (x) = 0.07162 0.16135
# Poissons Ratio (y) = 0.04402 0.32504
# Poissons Ratio (z) = 0.08487 0.27819
#
# Static dielectric constant tensor:
#      x y z
#    x 4.518900 -0.076370 -0.174870 
#    y -0.076370 4.973430 0.122150 
#    z -0.174870 0.122150 5.049740 
# 
# 
# High freq. dielectric constant tensor:
#      x y z
#    x 1.976630 0.009050 -0.003370 
#    y 0.009050 2.021610 0.000370 
#    z -0.003370 0.000370 2.018450 
# 
# From -- ./inp_files/131733.got.cif
#   From: 2010.06.25/outbox.cif.g09.slc.cpg/sg2_66_cif.got.tgz:131733.got - 2010.06.27 13:26:56.
