data_PCOD8028959
_publ_section_title
;
Structure prediction by ZEFSAII (Michael W. Deem and Ramdas Pophale) SiO2 
 PCOD8028959
Probable space group: P -1
;
_chemical_formula_sum "Si O2"
_cell_formula_units_Z 12
_cell_length_a 11.138187
_cell_length_b 14.907586
_cell_length_c 9.233331
_cell_angle_alpha 66.607989
_cell_angle_beta 117.547994
_cell_angle_gamma 57.614994
_cell_volume 583.617283
_symmetry_space_group_name_H-M "P -1"
_symmetry_group_IT_number 2
_symmetry_cell_setting 'triclinic'
loop_
_space_group_symop_operation_xyz
x,y,z
-x,-y,-z
loop_
_atom_site_type_symbol
_atom_site_label
_atom_site_fract_x
_atom_site_fract_y
_atom_site_fract_z
Si Si1 0.497094 0.662225 0.130453
Si Si2 0.878975 0.280006 0.225659
Si Si3 0.670408 0.990035 0.579139
Si Si4 0.014310 0.898544 0.324058
Si Si5 0.804610 0.328714 0.702111
Si Si6 0.535302 0.685938 0.821622
O O1 0.766389 0.454653 0.511847
O O2 0.314417 0.681558 0.976629
O O3 0.611883 0.643400 0.062534
O O4 0.315958 0.855287 0.001785
O O5 0.915303 0.238841 0.444316
O O6 0.196580 0.085582 0.458912
O O7 0.725713 0.481616 0.981554
O O8 0.500000 0.000000 0.500000
O O9 0.437066 0.228246 0.303113
O O10 0.935701 0.826021 0.942551
O O11 0.096068 0.820848 0.255176
O O12 0.197464 0.873802 0.498852
O O13 0.500000 0.500000 0.500000
#
# Coordination Sequence:
#
# PCOD8028959 Si02
#       6
#     2   2   2   2   2   2
#     4  11  19  36  67  99 119 156 207 260 310 364
#     4  11  19  39  65  92 124 163 205 251 310 380
#     4  12  27  43  59  90 132 168 204 253 314 370
#     4  11  19  35  69  98 120 156 207 263 312 358
#     4  12  23  40  62 102 128 147 208 274 306 351
#     4  11  19  38  67  91 123 167 205 251 310 375
#
# _framework density 20.561423000000001
#
# number of rings (size 3 to 8) (size 9 to 14) (size 15 to 20)
#    0.000    0.667    8.333    2.000    0.000    4.667 
#    0.000    1.667    0.000    0.000    0.000    0.000 
#    0.000    0.000    0.000    0.000    0.000    0.000 
#
# Total GULP energy -148757.623096 kJ/mol
# GULP energy per Si atom -12396.468591 kJ/mol
# Density = 2.051462 g / cm^3
# Si number density = 20.561423 Si / 1000 Ang^3
#
#
#
# Elastic Constant Matrix: (Units=GPa)
#
#
# Indices 1 2 3 4 5 6 
#
# 1 101.1215 32.2088 40.9444 7.3202 -15.9429 18.4799
# 2 32.2088 108.7005 40.8437 -13.5109 -12.1821 -0.8863
# 3 40.9444 40.8437 93.8169 -7.3129 -28.8489 13.8646
# 4 7.3202 -13.5109 -7.3129 33.2352 4.5406 -16.7629
# 5 -15.9429 -12.1821 -28.8489 4.5406 23.8270 -10.6221
# 6 18.4799 -0.8863 13.8646 -16.7629 -10.6221 33.3574
#
#
#
# Elastic Compliance Matrix: (Units=1/GPa)
#
#
# Indices 1 2 3 4 5 6 
#
# 1 0.017103 -0.005540 -0.004019 -0.014630 -0.000337 -0.015411
# 2 -0.005540 0.014057 -0.004030 0.011606 0.001481 0.011421
# 3 -0.004019 -0.004030 0.020274 0.001344 0.019848 0.000688
# 4 -0.014630 0.011606 0.001344 0.056762 0.003697 0.037557
# 5 -0.000337 0.001481 0.019848 0.003697 0.073516 0.017244
# 6 -0.015411 0.011421 0.000688 0.037557 0.017244 0.062898
#
#
# Mechanical properties :
#
#
# Convention : Reuss Voigt Hill
#
# Bulk Modulus (GPa) = 41.22537 59.07032 50.14784
# Shear Modulus (GPa) = 17.86525 30.72671 24.29598
#
# Velocity S-wave (km/s) = 2.95086 3.86992 3.44121
# Velocity P-wave (km/s) = 5.63059 6.98280 6.34283
#
# Compressibility (1/GPa) = 0.02425691
#
# Stress axis : x y z
#
# Youngs Moduli (GPa) = 58.46826 71.13937 49.32433
#
# Poissons Ratio (x) = 0.39408 0.19824
# Poissons Ratio (y) = 0.32389 0.19877
# Poissons Ratio (z) = 0.23499 0.28669
#
# Static dielectric constant tensor:
#      x y z
#    x 3.658110 -0.169580 -0.417020 
#    y -0.169580 3.701570 -0.211520 
#    z -0.417020 -0.211520 3.932870 
# 
# 
# High freq. dielectric constant tensor:
#      x y z
#    x 1.770290 -0.015600 -0.047520 
#    y -0.015600 1.810410 -0.028370 
#    z -0.047520 -0.028370 1.793110 
# 
# From -- ./inp_files/184713.got.cif
#   From: 2010.06.25/outbox.cif.g09.slc.cpg/sg2_93_cif.got.tgz:184713.got - 2010.06.27 13:26:56.
