data_PCOD8028402
_publ_section_title
;
Structure prediction by ZEFSAII (Michael W. Deem and Ramdas Pophale) SiO2 
 PCOD8028402
Probable space group: P -1
;
_chemical_formula_sum "Si O2"
_cell_formula_units_Z 14
_cell_length_a 16.587810
_cell_length_b 7.817607
_cell_length_c 5.422715
_cell_angle_alpha 120.199173
_cell_angle_beta 80.904841
_cell_angle_gamma 76.000584
_cell_volume 555.931358
_symmetry_space_group_name_H-M "P -1"
_symmetry_group_IT_number 2
_symmetry_cell_setting 'triclinic'
loop_
_space_group_symop_operation_xyz
x,y,z
-x,-y,-z
loop_
_atom_site_type_symbol
_atom_site_label
_atom_site_fract_x
_atom_site_fract_y
_atom_site_fract_z
Si Si1 0.014987 0.159619 0.422003
Si Si2 0.857030 0.653607 0.320948
Si Si3 0.868092 0.237197 0.189009
Si Si4 0.316399 0.544650 0.359808
Si Si5 0.754367 0.780553 0.977389
Si Si6 0.396008 0.868994 0.488923
Si Si7 0.561429 0.837212 0.658511
O O1 0.049380 0.323901 0.661950
O O2 0.923738 0.289061 0.421987
O O3 0.000000 0.000000 0.500000
O O4 0.089885 0.010019 0.088234
O O5 0.870992 0.404554 0.096453
O O6 0.816763 0.779277 0.178920
O O7 0.797934 0.742665 0.658779
O O8 0.769143 0.276249 0.344061
O O9 0.371620 0.665108 0.279030
O O10 0.376341 0.387808 0.425494
O O11 0.284778 0.404752 0.083567
O O12 0.671025 0.005633 0.168490
O O13 0.498545 0.784233 0.452989
O O14 0.379384 0.042804 0.404629
O O15 0.500000 0.000000 0.000000
#
# Coordination Sequence:
#
# PCOD8028402 Si02
#       7
#     2   2   2   2   2   2   2
#     4  11  26  44  70 105 142 189 243 297 356 432
#     4  11  26  45  75  99 151 188 236 302 360 417
#     4  10  25  46  68 105 140 187 243 294 357 435
#     4  11  24  48  72 105 141 193 245 292 370 434
#     4  11  25  46  72 113 140 192 246 299 355 437
#     4  11  24  44  76  98 153 189 235 306 362 427
#     4  11  24  48  68 111 144 186 242 299 361 441
#
# _framework density 25.182964999999999
#
# number of rings (size 3 to 8) (size 9 to 14) (size 15 to 20)
#    0.000    1.143    1.429    3.429   10.000    1.143 
#    7.714    0.000    0.000    0.000    0.000    0.000 
#    0.000    0.000    0.000    0.000    0.000    0.000 
#
# Total GULP energy -173576.621513 kJ/mol
# GULP energy per Si atom -12398.330108 kJ/mol
# Density = 2.512565 g / cm^3
# Si number density = 25.182965 Si / 1000 Ang^3
#
#
#
# Elastic Constant Matrix: (Units=GPa)
#
#
# Indices 1 2 3 4 5 6 
#
# 1 125.1168 43.0746 5.0573 4.7995 14.9100 13.8046
# 2 43.0746 100.6508 10.7697 -4.3233 -7.4338 -2.7273
# 3 5.0573 10.7697 55.5675 -2.3174 6.6349 -1.7026
# 4 4.7995 -4.3233 -2.3174 33.3764 -4.5805 2.5307
# 5 14.9100 -7.4338 6.6349 -4.5805 30.6998 8.9617
# 6 13.8046 -2.7273 -1.7026 2.5307 8.9617 54.6298
#
#
#
# Elastic Compliance Matrix: (Units=1/GPa)
#
#
# Indices 1 2 3 4 5 6 
#
# 1 0.010946 -0.005430 0.000677 -0.003016 -0.006709 -0.001776
# 2 -0.005430 0.013198 -0.002708 0.003166 0.006685 0.000703
# 3 0.000677 -0.002708 0.019150 0.000042 -0.005463 0.001185
# 4 -0.003016 0.003166 0.000042 0.031976 0.007517 -0.001793
# 5 -0.006709 0.006685 -0.005463 0.007517 0.041289 -0.005263
# 6 -0.001776 0.000703 0.001185 -0.001793 -0.005263 0.019772
#
#
# Mechanical properties :
#
#
# Convention : Reuss Voigt Hill
#
# Bulk Modulus (GPa) = 35.24763 44.34870 39.79816
# Shear Modulus (GPa) = 31.11208 38.57011 34.84109
#
# Velocity S-wave (km/s) = 3.51870 3.91781 3.72360
# Velocity P-wave (km/s) = 5.52588 6.17369 5.85874
#
# Compressibility (1/GPa) = 0.02837070
#
# Stress axis : x y z
#
# Youngs Moduli (GPa) = 91.36049 75.77037 52.21997
#
# Poissons Ratio (x) = 0.41143 -0.03536
# Poissons Ratio (y) = 0.49608 0.14143
# Poissons Ratio (z) = -0.06186 0.20521
#
# Static dielectric constant tensor:
#      x y z
#    x 5.025810 -0.219490 -0.060940 
#    y -0.219490 4.634000 0.304090 
#    z -0.060940 0.304090 4.691070 
# 
# 
# High freq. dielectric constant tensor:
#      x y z
#    x 2.021970 -0.001580 -0.004620 
#    y -0.001580 2.002190 0.009230 
#    z -0.004620 0.009230 1.989530 
# 
# From -- ./inp_files/91137.got.cif
#   From: 2010.06.25/outbox.cif.g09.slc.cpg/sg2_46_cif.got.tgz:91137.got - 2010.06.27 13:26:56.
