data_PCOD8028352
_publ_section_title
;
Structure prediction by ZEFSAII (Michael W. Deem and Ramdas Pophale) SiO2 
 PCOD8028352
Probable space group: P -1
;
_chemical_formula_sum "Si O2"
_cell_formula_units_Z 16
_cell_length_a 17.844186
_cell_length_b 5.140823
_cell_length_c 9.257096
_cell_angle_alpha 95.329591
_cell_angle_beta 55.251508
_cell_angle_gamma 99.427704
_cell_volume 688.321437
_symmetry_space_group_name_H-M "P -1"
_symmetry_group_IT_number 2
_symmetry_cell_setting 'triclinic'
loop_
_space_group_symop_operation_xyz
x,y,z
-x,-y,-z
loop_
_atom_site_type_symbol
_atom_site_label
_atom_site_fract_x
_atom_site_fract_y
_atom_site_fract_z
Si Si1 0.405438 0.917993 0.681363
Si Si2 0.839537 0.536888 0.341132
Si Si3 0.397779 0.808262 0.004952
Si Si4 0.244341 0.466154 0.268363
Si Si5 0.333034 0.353019 0.619831
Si Si6 0.047076 0.920185 0.802402
Si Si7 0.047631 0.254520 0.380455
Si Si8 0.587017 0.738061 0.784483
O O1 0.380718 0.607240 0.664997
O O2 0.500000 0.000000 0.500000
O O3 0.331037 0.094724 0.709139
O O4 0.413715 0.973380 0.846747
O O5 0.790454 0.426347 0.537438
O O6 0.770559 0.597201 0.294870
O O7 0.890722 0.296354 0.222869
O O8 0.901599 0.817327 0.319038
O O9 0.288592 0.687076 0.117671
O O10 0.413016 0.958695 0.150663
O O11 0.478254 0.611940 0.910102
O O12 0.158246 0.285703 0.280724
O O13 0.338116 0.345094 0.191149
O O14 0.384025 0.296329 0.413344
O O15 0.970687 0.776941 0.770992
O O16 0.000000 0.000000 0.000000
O O17 0.000000 0.500000 0.500000
O O18 0.000000 0.000000 0.500000
#
# Coordination Sequence:
#
# PCOD8028352 Si02
#       8
#     2   2   2   2   2   2   2   2
#     4  12  26  47  70 105 152 197 243 302 374 430
#     4  11  25  46  77 106 143 190 248 297 369 441
#     4  11  26  44  73 110 149 194 254 309 360 433
#     4  11  25  42  77 104 150 190 258 299 369 430
#     4  11  26  46  77 101 147 202 241 296 369 445
#     4  12  25  48  76 109 145 186 236 308 374 441
#     4  12  25  47  75 106 144 194 241 301 368 442
#     4  10  25  45  73 107 148 196 251 302 360 433
#
# _framework density 23.244955999999998
#
# number of rings (size 3 to 8) (size 9 to 14) (size 15 to 20)
#    0.000    0.750    3.750    1.875   10.500    1.000 
#    2.250    0.000    0.000    0.000    0.000    0.000 
#    0.000    0.000    0.000    0.000    0.000    0.000 
#
# Total GULP energy -198230.209332 kJ/mol
# GULP energy per Si atom -12389.388083 kJ/mol
# Density = 2.319205 g / cm^3
# Si number density = 23.244956 Si / 1000 Ang^3
#
#
#
# Elastic Constant Matrix: (Units=GPa)
#
#
# Indices 1 2 3 4 5 6 
#
# 1 147.7443 47.2686 85.2814 5.3448 -13.7781 -0.9793
# 2 47.2686 116.9402 52.9246 8.4631 -5.6355 -6.3809
# 3 85.2814 52.9246 112.4122 5.6669 1.7894 1.5903
# 4 5.3448 8.4631 5.6669 40.3831 6.5378 -6.9842
# 5 -13.7781 -5.6355 1.7894 6.5378 47.1043 -1.0142
# 6 -0.9793 -6.3809 1.5903 -6.9842 -1.0142 43.7890
#
#
#
# Elastic Compliance Matrix: (Units=1/GPa)
#
#
# Indices 1 2 3 4 5 6 
#
# 1 0.012880 -0.000610 -0.009516 -0.000830 0.004182 0.000509
# 2 -0.000610 0.011250 -0.004802 -0.001589 0.001605 0.001584
# 3 -0.009516 -0.004802 0.018462 0.000050 -0.004102 -0.001670
# 4 -0.000830 -0.001589 0.000050 0.026523 -0.004033 0.003885
# 5 0.004182 0.001605 -0.004102 -0.004033 0.023368 0.000374
# 6 0.000509 0.001584 -0.001670 0.003885 0.000374 0.023768
#
#
# Mechanical properties :
#
#
# Convention : Reuss Voigt Hill
#
# Bulk Modulus (GPa) = 78.51362 83.11621 80.81492
# Shear Modulus (GPa) = 33.25522 39.03008 36.14265
#
# Velocity S-wave (km/s) = 3.78649 4.10210 3.94745
# Velocity P-wave (km/s) = 7.27782 7.63352 7.45779
#
# Compressibility (1/GPa) = 0.01273664
#
# Stress axis : x y z
#
# Youngs Moduli (GPa) = 77.64020 88.89074 54.16487
#
# Poissons Ratio (x) = 0.05423 0.51544
# Poissons Ratio (y) = 0.04736 0.26007
# Poissons Ratio (z) = 0.73883 0.42681
#
# Static dielectric constant tensor:
#      x y z
#    x 4.495310 -0.235570 -0.103130 
#    y -0.235570 4.000040 0.050440 
#    z -0.103130 0.050440 4.087580 
# 
# 
# High freq. dielectric constant tensor:
#      x y z
#    x 1.936660 -0.003050 -0.002660 
#    y -0.003050 1.910780 0.004010 
#    z -0.002660 0.004010 1.921600 
# 
# From -- ./inp_files/323835.got.cif
#   From: 2010.06.25/outbox.cif.g09.slc.cpg/sg2_162_cif.got.tgz:323835.got - 2010.06.27 13:26:56.
