data_PCOD8028132
_publ_section_title
;
Structure prediction by ZEFSAII (Michael W. Deem and Ramdas Pophale) SiO2 
 PCOD8028132
Probable space group: P -1
;
_chemical_formula_sum "Si O2"
_cell_formula_units_Z 14
_cell_length_a 20.947843
_cell_length_b 8.784554
_cell_length_c 21.030451
_cell_angle_alpha 152.810916
_cell_angle_beta 159.879715
_cell_angle_gamma 29.469578
_cell_volume 592.655209
_symmetry_space_group_name_H-M "P -1"
_symmetry_group_IT_number 2
_symmetry_cell_setting 'triclinic'
loop_
_space_group_symop_operation_xyz
x,y,z
-x,-y,-z
loop_
_atom_site_type_symbol
_atom_site_label
_atom_site_fract_x
_atom_site_fract_y
_atom_site_fract_z
Si Si1 0.499901 0.279398 0.550807
Si Si2 0.170613 0.260285 0.607613
Si Si3 0.361209 0.461971 0.749670
Si Si4 0.288530 0.173114 0.018394
Si Si5 0.768679 0.194277 0.044516
Si Si6 0.847847 0.802238 0.650747
Si Si7 0.901746 0.457263 0.709759
O O1 0.281594 0.366012 0.351824
O O2 0.500000 0.000000 0.500000
O O3 0.667083 0.129485 0.601299
O O4 0.536323 0.636300 0.746290
O O5 0.344591 0.213679 0.702275
O O6 0.227288 0.431486 0.787040
O O7 0.000000 0.500000 0.500000
O O8 0.099760 0.936215 0.443451
O O9 0.199330 0.456638 0.543288
O O10 0.340241 0.852699 0.899325
O O11 0.571851 0.283205 0.852495
O O12 0.105562 0.469764 0.934621
O O13 0.234900 0.066596 0.998541
O O14 0.960786 0.062919 0.134639
O O15 0.877055 0.620559 0.677999
#
# Coordination Sequence:
#
# PCOD8028132 Si02
#       7
#     2   2   2   2   2   2   2
#     4  10  25  44  62  90 131 172 214 255 317 381
#     4  11  18  40  67  92 131 162 208 261 314 373
#     4  11  22  40  67  96 130 163 210 265 316 372
#     4  11  22  42  69  92 120 174 219 252 315 383
#     4  11  22  39  64  96 131 164 211 263 314 375
#     4  11  25  41  60  97 136 165 206 267 316 369
#     4  11  22  41  68  91 127 172 211 259 319 376
#
# _framework density 23.622502999999998
#
# number of rings (size 3 to 8) (size 9 to 14) (size 15 to 20)
#    0.000    1.143    4.286    3.429    0.000    8.571 
#    0.000    9.286    0.000    0.000    0.000    0.000 
#    0.000    0.000    0.000    0.000    0.000    0.000 
#
# Total GULP energy -173477.589820 kJ/mol
# GULP energy per Si atom -12391.256416 kJ/mol
# Density = 2.356874 g / cm^3
# Si number density = 23.622503 Si / 1000 Ang^3
#
#
#
# Elastic Constant Matrix: (Units=GPa)
#
#
# Indices 1 2 3 4 5 6 
#
# 1 74.9464 30.0282 18.0944 -9.5407 23.9353 -5.2375
# 2 30.0282 74.0771 21.2664 -16.3737 6.9310 -0.7497
# 3 18.0944 21.2664 88.2883 -21.6717 24.4675 -2.9776
# 4 -9.5407 -16.3737 -21.6717 54.5343 -2.4536 11.8723
# 5 23.9353 6.9310 24.4675 -2.4536 23.6694 -8.3811
# 6 -5.2375 -0.7497 -2.9776 11.8723 -8.3811 32.8187
#
#
#
# Elastic Compliance Matrix: (Units=1/GPa)
#
#
# Indices 1 2 3 4 5 6 
#
# 1 0.025136 -0.008239 0.006179 0.004071 -0.030718 -0.004934
# 2 -0.008239 0.017904 -0.004005 0.002758 0.007379 -0.000382
# 3 0.006179 -0.004005 0.020667 0.008453 -0.028217 -0.007494
# 4 0.004071 0.002758 0.008453 0.025048 -0.015118 -0.011442
# 5 -0.030718 0.007379 -0.028217 -0.015118 0.107859 0.025720
# 6 -0.004934 -0.000382 -0.007494 -0.011442 0.025720 0.039702
#
#
# Mechanical properties :
#
#
# Convention : Reuss Voigt Hill
#
# Bulk Modulus (GPa) = 19.38852 41.78775 30.58813
# Shear Modulus (GPa) = 18.82256 33.39935 26.11096
#
# Velocity S-wave (km/s) = 2.82584 3.76424 3.32828
# Velocity P-wave (km/s) = 4.34426 6.05152 5.26752
#
# Compressibility (1/GPa) = 0.05157692
#
# Stress axis : x y z
#
# Youngs Moduli (GPa) = 39.78367 55.85240 48.38638
#
# Poissons Ratio (x) = 0.46017 -0.29898
# Poissons Ratio (y) = 0.32778 0.19379
# Poissons Ratio (z) = -0.24582 0.22370
#
# Static dielectric constant tensor:
#      x y z
#    x 3.810820 -0.662930 0.209900 
#    y -0.662930 4.138180 -0.726730 
#    z 0.209900 -0.726730 4.597800 
# 
# 
# High freq. dielectric constant tensor:
#      x y z
#    x 1.905840 -0.007800 0.026910 
#    y -0.007800 1.941130 -0.021140 
#    z 0.026910 -0.021140 1.953060 
# 
# From -- ./inp_files/389924.got.cif
#   From: 2010.06.25/outbox.cif.g09.slc.cpg/sg2_195_cif.got.tgz:389924.got - 2010.06.27 13:26:56.
