data_PCOD8028035
_publ_section_title
;
Structure prediction by ZEFSAII (Michael W. Deem and Ramdas Pophale) SiO2 
 PCOD8028035
Probable space group: P -1
;
_chemical_formula_sum "Si O2"
_cell_formula_units_Z 14
_cell_length_a 15.769974
_cell_length_b 19.854585
_cell_length_c 7.743900
_cell_angle_alpha 123.269734
_cell_angle_beta 45.381694
_cell_angle_gamma 158.955043
_cell_volume 562.905030
_symmetry_space_group_name_H-M "P -1"
_symmetry_group_IT_number 2
_symmetry_cell_setting 'triclinic'
loop_
_space_group_symop_operation_xyz
x,y,z
-x,-y,-z
loop_
_atom_site_type_symbol
_atom_site_label
_atom_site_fract_x
_atom_site_fract_y
_atom_site_fract_z
Si Si1 0.856642 0.065270 0.036506
Si Si2 0.227089 0.969463 0.515882
Si Si3 0.012783 0.036527 0.334974
Si Si4 0.842884 0.585159 0.535231
Si Si5 0.622805 0.373777 0.208865
Si Si6 0.359903 0.505293 0.935660
Si Si7 0.604788 0.186463 0.958359
O O1 0.682513 0.985578 0.348464
O O2 0.886822 0.988483 0.907887
O O3 0.669959 0.981380 0.022609
O O4 0.198143 0.317492 0.895777
O O5 0.176477 0.032639 0.638630
O O6 0.917429 0.724681 0.583905
O O7 0.482830 0.092345 0.193931
O O8 0.285716 0.270716 0.314975
O O9 0.754609 0.869301 0.626608
O O10 0.647569 0.427438 0.437716
O O11 0.654683 0.462754 0.809938
O O12 0.158441 0.733839 0.321724
O O13 0.796124 0.533414 0.039823
O O14 0.770079 0.376855 0.993461
#
# Coordination Sequence:
#
# PCOD8028035 Si02
#       7
#     2   2   2   2   2   2   2
#     4  11  25  44  71 104 134 181 220 281 342 396
#     4  10  25  42  70 100 135 181 219 285 336 394
#     4  11  25  45  70 103 139 173 228 278 343 401
#     4  11  26  44  68 104 134 181 231 272 338 403
#     4  11  25  43  68 102 137 181 221 283 337 395
#     4  11  26  43  69 105 135 178 223 279 341 401
#     4  11  24  45  69  99 140 178 228 277 334 403
#
# _framework density 24.870981
#
# number of rings (size 3 to 8) (size 9 to 14) (size 15 to 20)
#    0.000    1.143    1.429    2.571   10.000    5.714 
#    0.000    0.000    0.000    0.000    0.000    0.000 
#    0.000    0.000    0.000    0.000    0.000    0.000 
#
# Total GULP energy -173512.435897 kJ/mol
# GULP energy per Si atom -12393.745421 kJ/mol
# Density = 2.481437 g / cm^3
# Si number density = 24.870981 Si / 1000 Ang^3
#
#
#
# Elastic Constant Matrix: (Units=GPa)
#
#
# Indices 1 2 3 4 5 6 
#
# 1 81.6550 36.5230 42.7409 3.4038 27.3004 -17.2049
# 2 36.5230 110.5642 25.6450 14.6306 8.6799 -14.1304
# 3 42.7409 25.6450 66.0082 6.0588 13.6906 -5.4370
# 4 3.4038 14.6306 6.0588 33.4407 7.0520 7.5455
# 5 27.3004 8.6799 13.6906 7.0520 40.8641 2.7742
# 6 -17.2049 -14.1304 -5.4370 7.5455 2.7742 33.7039
#
#
#
# Elastic Compliance Matrix: (Units=1/GPa)
#
#
# Indices 1 2 3 4 5 6 
#
# 1 0.027823 -0.003870 -0.012709 0.001674 -0.014568 0.011355
# 2 -0.003870 0.011818 -0.001514 -0.005654 0.001294 0.003894
# 3 -0.012709 -0.001514 0.023599 -0.001948 0.001446 -0.002999
# 4 0.001674 -0.005654 -0.001948 0.035696 -0.004785 -0.009428
# 5 -0.014568 0.001294 0.001446 -0.004785 0.034845 -0.008458
# 6 0.011355 0.003894 -0.002999 -0.009428 -0.008458 0.039422
#
#
# Mechanical properties :
#
#
# Convention : Reuss Voigt Hill
#
# Bulk Modulus (GPa) = 36.96297 52.00502 44.48399
# Shear Modulus (GPa) = 22.89285 31.82298 27.35792
#
# Velocity S-wave (km/s) = 3.03721 3.58092 3.32021
# Velocity P-wave (km/s) = 5.21475 6.16868 5.71167
#
# Compressibility (1/GPa) = 0.02705411
#
# Stress axis : x y z
#
# Youngs Moduli (GPa) = 35.94123 84.61353 42.37423
#
# Poissons Ratio (x) = 0.32743 0.53854
# Poissons Ratio (y) = 0.13908 0.06417
# Poissons Ratio (z) = 0.45678 0.12815
#
# Static dielectric constant tensor:
#      x y z
#    x 4.750920 -0.262430 0.269700 
#    y -0.262430 4.513680 0.050530 
#    z 0.269700 0.050530 4.273310 
# 
# 
# High freq. dielectric constant tensor:
#      x y z
#    x 2.009040 -0.015300 0.023290 
#    y -0.015300 1.998840 0.007740 
#    z 0.023290 0.007740 1.973610 
# 
# From -- ./inp_files/337782.got.cif
#   From: 2010.06.25/outbox.cif.g09.slc.cpg/sg2_169_cif.got.tgz:337782.got - 2010.06.27 13:26:56.
