data_PCOD8028502
_publ_section_title
;
Structure prediction by ZEFSAII (Michael W. Deem and Ramdas Pophale) SiO2 
 PCOD8028502
Probable space group: P -1
;
_chemical_formula_sum "Si O2"
_cell_formula_units_Z 16
_cell_length_a 13.419590
_cell_length_b 13.477858
_cell_length_c 9.020420
_cell_angle_alpha 125.606700
_cell_angle_beta 90.032884
_cell_angle_gamma 133.170386
_cell_volume 715.772147
_symmetry_space_group_name_H-M "P -1"
_symmetry_group_IT_number 2
_symmetry_cell_setting 'triclinic'
loop_
_space_group_symop_operation_xyz
x,y,z
-x,-y,-z
loop_
_atom_site_type_symbol
_atom_site_label
_atom_site_fract_x
_atom_site_fract_y
_atom_site_fract_z
Si Si1 0.408893 0.846433 0.508369
Si Si2 0.559857 0.350869 0.269948
Si Si3 0.162777 0.564640 0.714244
Si Si4 0.901678 0.777496 0.156284
Si Si5 0.730008 0.725509 0.386122
Si Si6 0.887366 0.506199 0.017848
Si Si7 0.244129 0.854817 0.749331
Si Si8 0.555342 0.378760 0.620045
O O1 0.375342 0.907641 0.692091
O O2 0.515141 0.835290 0.556137
O O3 0.500000 0.000000 0.500000
O O4 0.221323 0.600789 0.228589
O O5 0.705771 0.392197 0.336615
O O6 0.639584 0.519969 0.292230
O O7 0.539107 0.402193 0.468664
O O8 0.359196 0.094397 0.996053
O O9 0.222483 0.621170 0.936935
O O10 0.194647 0.732327 0.794242
O O11 0.946159 0.304661 0.472590
O O12 0.783109 0.738881 0.233676
O O13 0.978069 0.734733 0.207863
O O14 0.767147 0.614207 0.875916
O O15 0.083585 0.035606 0.323376
O O16 0.581838 0.681307 0.334319
O O17 0.000000 0.500000 0.000000
#
# Coordination Sequence:
#
# PCOD8028502 Si02
#       8
#     2   2   2   2   2   2   2   2
#     4  11  24  40  65 102 133 172 220 273 342 400
#     4  12  25  44  69  99 136 178 226 271 331 401
#     4  11  23  43  66  97 139 177 214 276 339 396
#     4  10  25  47  68  98 135 171 228 278 329 397
#     4  11  25  47  70  94 131 184 227 275 333 383
#     4  11  22  40  68 100 131 166 221 273 335 402
#     4  11  25  42  67 101 137 179 217 271 348 401
#     4  11  26  44  67  99 135 173 225 278 327 401
#
# _framework density 22.353480999999999
#
# number of rings (size 3 to 8) (size 9 to 14) (size 15 to 20)
#    0.000    1.000    3.750    1.875    5.250    2.500 
#    0.000    0.000    0.000    0.000    0.000    0.000 
#    0.000    0.000    0.000    0.000    0.000    0.000 
#
# Total GULP energy -198329.734721 kJ/mol
# GULP energy per Si atom -12395.608420 kJ/mol
# Density = 2.230260 g / cm^3
# Si number density = 22.353481 Si / 1000 Ang^3
#
#
#
# Elastic Constant Matrix: (Units=GPa)
#
#
# Indices 1 2 3 4 5 6 
#
# 1 89.1472 10.9118 18.6918 9.2285 1.5705 12.7360
# 2 10.9118 92.9216 42.4905 13.7186 -5.4985 -8.3699
# 3 18.6918 42.4905 102.4756 7.9935 -9.1031 -1.6132
# 4 9.2285 13.7186 7.9935 40.8740 1.3395 -1.2936
# 5 1.5705 -5.4985 -9.1031 1.3395 25.3818 0.8299
# 6 12.7360 -8.3699 -1.6132 -1.2936 0.8299 26.7482
#
#
#
# Elastic Compliance Matrix: (Units=1/GPa)
#
#
# Indices 1 2 3 4 5 6 
#
# 1 0.012979 -0.000928 -0.002024 -0.002389 -0.001386 -0.006665
# 2 -0.000928 0.014273 -0.005296 -0.003449 0.001289 0.004382
# 3 -0.002024 -0.005296 0.012665 -0.000360 0.003541 -0.000057
# 4 -0.002389 -0.003449 -0.000360 0.026347 -0.002164 0.001378
# 5 -0.001386 0.001289 0.003541 -0.002164 0.041151 -0.000105
# 6 -0.006665 0.004382 -0.000057 0.001378 -0.000105 0.041997
#
#
# Mechanical properties :
#
#
# Convention : Reuss Voigt Hill
#
# Bulk Modulus (GPa) = 42.69883 47.63697 45.16790
# Shear Modulus (GPa) = 28.78249 32.76415 30.77332
#
# Velocity S-wave (km/s) = 3.59222 3.83264 3.71437
# Velocity P-wave (km/s) = 6.02897 6.39863 6.21655
#
# Compressibility (1/GPa) = 0.02341984
#
# Stress axis : x y z
#
# Youngs Moduli (GPa) = 77.04541 70.06389 78.95482
#
# Poissons Ratio (x) = 0.06504 0.15983
# Poissons Ratio (y) = 0.07152 0.41817
# Poissons Ratio (z) = 0.15597 0.37108
#
# Static dielectric constant tensor:
#      x y z
#    x 4.045310 0.202380 -0.438050 
#    y 0.202380 3.823810 0.210490 
#    z -0.438050 0.210490 4.209150 
# 
# 
# High freq. dielectric constant tensor:
#      x y z
#    x 1.882570 -0.000190 -0.007240 
#    y -0.000190 1.879000 -0.001410 
#    z -0.007240 -0.001410 1.880980 
# 
# From -- ./inp_files/313939.got.cif
#   From: 2010.06.25/outbox.cif.g09.slc.cpg/sg2_157_cif.got.tgz:313939.got - 2010.06.27 13:26:56.
