data_PCOD8028182
_publ_section_title
;
Structure prediction by ZEFSAII (Michael W. Deem and Ramdas Pophale) SiO2 
 PCOD8028182
Probable space group: P -1
;
_chemical_formula_sum "Si O2"
_cell_formula_units_Z 12
_cell_length_a 8.825031
_cell_length_b 9.580510
_cell_length_c 9.122086
_cell_angle_alpha 43.290216
_cell_angle_beta 80.573705
_cell_angle_gamma 77.699433
_cell_volume 516.662105
_symmetry_space_group_name_H-M "P -1"
_symmetry_group_IT_number 2
_symmetry_cell_setting 'triclinic'
loop_
_space_group_symop_operation_xyz
x,y,z
-x,-y,-z
loop_
_atom_site_type_symbol
_atom_site_label
_atom_site_fract_x
_atom_site_fract_y
_atom_site_fract_z
Si Si1 0.463062 0.949906 0.383202
Si Si2 0.842808 0.565334 0.292933
Si Si3 0.856134 0.171400 0.410731
Si Si4 0.701562 0.551105 0.624383
Si Si5 0.514795 0.783755 0.080930
Si Si6 0.903549 0.402848 0.962602
O O1 0.285628 0.915899 0.423527
O O2 0.572682 0.746280 0.466925
O O3 0.500000 0.000000 0.500000
O O4 0.487893 0.154496 0.135451
O O5 0.903041 0.342501 0.383989
O O6 0.837807 0.559477 0.475340
O O7 0.672536 0.640573 0.202196
O O8 0.971340 0.700732 0.102009
O O9 0.814444 0.247329 0.190683
O O10 0.000000 0.000000 0.500000
O O11 0.627146 0.342140 0.767652
O O12 0.773826 0.553117 0.775460
O O13 0.500000 0.000000 0.000000
O O14 0.000000 0.500000 0.000000
#
# Coordination Sequence:
#
# PCOD8028182 Si02
#       6
#     2   2   2   2   2   2
#     4  12  27  41  72 106 144 186 239 294 352 426
#     4  11  23  46  73 100 146 186 232 300 353 426
#     4  11  24  45  68 103 144 186 235 288 358 427
#     4  12  25  47  70 110 143 184 246 296 351 426
#     4  12  24  45  73 108 142 182 235 293 365 419
#     4  10  25  44  69  97 140 193 230 291 358 414
#
# _framework density 23.226012000000001
#
# number of rings (size 3 to 8) (size 9 to 14) (size 15 to 20)
#    0.000    0.667    3.333    4.000    9.333    1.333 
#    0.000    1.667    0.000    0.000    0.000    0.000 
#    0.000    0.000    0.000    0.000    0.000    0.000 
#
# Total GULP energy -148709.503157 kJ/mol
# GULP energy per Si atom -12392.458596 kJ/mol
# Density = 2.317315 g / cm^3
# Si number density = 23.226012 Si / 1000 Ang^3
#
#
#
# Elastic Constant Matrix: (Units=GPa)
#
#
# Indices 1 2 3 4 5 6 
#
# 1 64.6555 6.3099 2.9704 -7.3655 1.9675 -19.6549
# 2 6.3099 106.1110 24.3613 -0.7672 0.4440 -17.5706
# 3 2.9704 24.3613 119.9808 18.8850 3.7021 -9.7427
# 4 -7.3655 -0.7672 18.8850 40.6639 -6.5921 -0.9044
# 5 1.9675 0.4440 3.7021 -6.5921 47.3148 5.0174
# 6 -19.6549 -17.5706 -9.7427 -0.9044 5.0174 40.6468
#
#
#
# Elastic Compliance Matrix: (Units=1/GPa)
#
#
# Indices 1 2 3 4 5 6 
#
# 1 0.018749 0.000559 -0.000331 0.003566 -0.001266 0.009464
# 2 0.000559 0.010594 -0.002000 0.001287 -0.000257 0.004431
# 3 -0.000331 -0.002000 0.009664 -0.004805 -0.001539 0.001375
# 4 0.003566 0.001287 -0.004805 0.028171 0.004007 0.001261
# 5 -0.001266 -0.000257 -0.001539 0.004007 0.022267 -0.003751
# 6 0.009464 0.004431 0.001375 0.001261 -0.003751 0.031915
#
#
# Mechanical properties :
#
#
# Convention : Reuss Voigt Hill
#
# Bulk Modulus (GPa) = 28.19773 39.78114 33.98943
# Shear Modulus (GPa) = 36.56992 42.86548 39.71770
#
# Velocity S-wave (km/s) = 3.97233 4.30068 4.13976
# Velocity P-wave (km/s) = 5.76248 6.46732 6.12504
#
# Compressibility (1/GPa) = 0.03546385
#
# Stress axis : x y z
#
# Youngs Moduli (GPa) = 53.33618 94.39273 103.47343
#
# Poissons Ratio (x) = -0.05280 0.03430
# Poissons Ratio (y) = -0.02984 0.20692
# Poissons Ratio (z) = 0.01768 0.18876
#
# Static dielectric constant tensor:
#      x y z
#    x 3.962570 0.128180 -0.559900 
#    y 0.128180 5.650640 -2.587050 
#    z -0.559900 -2.587050 10.135420 
# 
# 
# High freq. dielectric constant tensor:
#      x y z
#    x 1.922350 -0.016330 -0.003920 
#    y -0.016330 1.904020 0.024610 
#    z -0.003920 0.024610 1.939610 
# 
# From -- ./inp_files/40410.got.cif
#   From: 2010.06.25/outbox.cif.g09.slc.cpg/sg2_21_cif.got.tgz:40410.got - 2010.06.27 13:26:56.
