data_PCOD8028214
_publ_section_title
;
Structure prediction by ZEFSAII (Michael W. Deem and Ramdas Pophale) SiO2 
 PCOD8028214
Probable space group: P -1
;
_chemical_formula_sum "Si O2"
_cell_formula_units_Z 16
_cell_length_a 30.100112
_cell_length_b 5.656358
_cell_length_c 8.747370
_cell_angle_alpha 103.978523
_cell_angle_beta 150.423738
_cell_angle_gamma 67.192958
_cell_volume 662.504277
_symmetry_space_group_name_H-M "P -1"
_symmetry_group_IT_number 2
_symmetry_cell_setting 'triclinic'
loop_
_space_group_symop_operation_xyz
x,y,z
-x,-y,-z
loop_
_atom_site_type_symbol
_atom_site_label
_atom_site_fract_x
_atom_site_fract_y
_atom_site_fract_z
Si Si1 0.396647 0.523872 0.752351
Si Si2 0.953453 0.732785 0.733649
Si Si3 0.783765 0.069365 0.855596
Si Si4 0.530160 0.660713 0.741866
Si Si5 0.128234 0.260054 0.204700
Si Si6 0.859962 0.280746 0.372399
Si Si7 0.702326 0.704836 0.106540
Si Si8 0.660845 0.891541 0.672027
O O1 0.314239 0.801162 0.513577
O O2 0.366671 0.314218 0.539683
O O3 0.500000 0.500000 0.000000
O O4 0.398186 0.508550 0.938452
O O5 0.927583 0.841681 0.847108
O O6 0.908915 0.500839 0.545511
O O7 0.923106 0.980695 0.567252
O O8 0.069691 0.573383 0.047338
O O9 0.867449 0.886852 0.965437
O O10 0.755491 0.914240 0.882617
O O11 0.826180 0.268147 0.094371
O O12 0.500000 0.500000 0.500000
O O13 0.436250 0.849571 0.578843
O O14 0.594138 0.792655 0.862404
O O15 0.237432 0.195271 0.578090
O O16 0.764216 0.393147 0.213001
O O17 0.692271 0.833110 0.930944
#
# Coordination Sequence:
#
# PCOD8028214 Si02
#       8
#     2   2   2   2   2   2   2   2
#     4  12  26  44  66 101 142 188 237 294 362 418
#     4  10  25  51  73 106 147 188 233 310 371 434
#     4  12  25  44  72 104 138 190 241 294 356 437
#     4  12  26  42  69 102 141 192 238 296 352 423
#     4  10  25  44  72 106 137 185 239 300 364 436
#     4  11  24  48  74 102 147 189 240 297 369 435
#     4  11  24  44  71 104 136 195 240 295 353 437
#     4  12  25  48  67  97 151 188 236 297 358 419
#
# _framework density 24.150787000000001
#
# number of rings (size 3 to 8) (size 9 to 14) (size 15 to 20)
#    0.000    0.750    2.500    4.500    5.250    5.500 
#    2.250    0.000    0.000    0.000    0.000    0.000 
#    0.000    0.000    0.000    0.000    0.000    0.000 
#
# Total GULP energy -198246.154029 kJ/mol
# GULP energy per Si atom -12390.384627 kJ/mol
# Density = 2.409582 g / cm^3
# Si number density = 24.150787 Si / 1000 Ang^3
#
#
#
# Elastic Constant Matrix: (Units=GPa)
#
#
# Indices 1 2 3 4 5 6 
#
# 1 124.1369 32.6793 31.5275 9.4202 -12.0273 -16.0808
# 2 32.6793 78.2429 22.1930 3.7618 -8.3527 5.4892
# 3 31.5275 22.1930 95.7714 -3.1905 -14.9724 10.3309
# 4 9.4202 3.7618 -3.1905 42.6395 2.2191 -6.5636
# 5 -12.0273 -8.3527 -14.9724 2.2191 38.6277 -4.6184
# 6 -16.0808 5.4892 10.3309 -6.5636 -4.6184 37.2937
#
#
#
# Elastic Compliance Matrix: (Units=1/GPa)
#
#
# Indices 1 2 3 4 5 6 
#
# 1 0.010976 -0.003832 -0.003094 -0.001484 0.002212 0.006167
# 2 -0.003832 0.015306 -0.001781 -0.001231 0.001079 -0.003495
# 3 -0.003094 -0.001781 0.012826 0.001014 0.003079 -0.004065
# 4 -0.001484 -0.001231 0.001014 0.024560 -0.001338 0.003417
# 5 0.002212 0.001079 0.003079 -0.001338 0.028467 0.003232
# 6 0.006167 -0.003495 -0.004065 0.003417 0.003232 0.032115
#
#
# Mechanical properties :
#
#
# Convention : Reuss Voigt Hill
#
# Bulk Modulus (GPa) = 46.09354 52.32788 49.21071
# Shear Modulus (GPa) = 33.58052 37.82892 35.70472
#
# Velocity S-wave (km/s) = 3.73292 3.96203 3.84918
# Velocity P-wave (km/s) = 6.14058 6.53027 6.33842
#
# Compressibility (1/GPa) = 0.02169501
#
# Stress axis : x y z
#
# Youngs Moduli (GPa) = 91.10826 65.33487 77.96428
#
# Poissons Ratio (x) = 0.25035 0.24123
# Poissons Ratio (y) = 0.34910 0.13883
# Poissons Ratio (z) = 0.28190 0.11634
#
# Static dielectric constant tensor:
#      x y z
#    x 4.941010 -0.393240 0.050900 
#    y -0.393240 4.411920 -0.303260 
#    z 0.050900 -0.303260 4.854480 
# 
# 
# High freq. dielectric constant tensor:
#      x y z
#    x 1.954210 -0.015640 -0.009880 
#    y -0.015640 1.946820 -0.002570 
#    z -0.009880 -0.002570 1.986960 
# 
# From -- ./inp_files/107310.got.cif
#   From: 2010.06.25/outbox.cif.g09.slc.cpg/sg2_54_cif.got.tgz:107310.got - 2010.06.27 13:26:56.
