data_PCOD8028275
_publ_section_title
;
Structure prediction by ZEFSAII (Michael W. Deem and Ramdas Pophale) SiO2 
 PCOD8028275
Probable space group: P -1
;
_chemical_formula_sum "Si O2"
_cell_formula_units_Z 16
_cell_length_a 12.924288
_cell_length_b 8.376563
_cell_length_c 8.935452
_cell_angle_alpha 56.096704
_cell_angle_beta 116.758697
_cell_angle_gamma 96.368294
_cell_volume 703.961254
_symmetry_space_group_name_H-M "P -1"
_symmetry_group_IT_number 2
_symmetry_cell_setting 'triclinic'
loop_
_space_group_symop_operation_xyz
x,y,z
-x,-y,-z
loop_
_atom_site_type_symbol
_atom_site_label
_atom_site_fract_x
_atom_site_fract_y
_atom_site_fract_z
Si Si1 0.487421 0.203449 0.129375
Si Si2 0.247596 0.118558 0.953384
Si Si3 0.665151 0.491474 0.625540
Si Si4 0.291652 0.109146 0.639439
Si Si5 0.959154 0.569672 0.274475
Si Si6 0.893787 0.217800 0.930669
Si Si7 0.523485 0.456409 0.283905
Si Si8 0.964561 0.822435 0.657183
O O1 0.498126 0.270948 0.271624
O O2 0.615271 0.089896 0.220760
O O3 0.383132 0.077442 0.120405
O O4 0.446027 0.383857 0.895521
O O5 0.243360 0.120043 0.770523
O O6 0.179087 0.328479 0.861783
O O7 0.181063 0.951033 0.059062
O O8 0.638616 0.720257 0.446850
O O9 0.800530 0.417799 0.796183
O O10 0.630639 0.384784 0.507369
O O11 0.589639 0.448292 0.741119
O O12 0.177251 0.132964 0.446230
O O13 0.000000 0.500000 0.500000
O O14 0.031954 0.739791 0.188023
O O15 0.980561 0.387169 0.270902
O O16 0.985457 0.173565 0.147218
O O17 0.000000 0.000000 0.500000
#
# Coordination Sequence:
#
# PCOD8028275 Si02
#       8
#     2   2   2   2   2   2   2   2
#     4  11  26  46  74 103 141 186 244 293 354 428
#     4  12  25  45  72 106 143 189 239 297 359 418
#     4  11  24  45  71 100 149 184 237 293 364 424
#     4  12  24  47  69 105 147 188 234 299 360 421
#     4  12  25  48  71 105 143 187 241 295 357 429
#     4  12  26  47  72 105 142 195 237 296 363 424
#     4  10  25  45  68 107 137 192 234 293 358 427
#     4  12  26  47  74 105 142 190 239 294 360 427
#
# _framework density 22.728524
#
# number of rings (size 3 to 8) (size 9 to 14) (size 15 to 20)
#    0.000    0.500    5.000    1.875    5.250    1.500 
#    4.500    0.000    0.000    0.000    0.000    0.000 
#    0.000    0.000    0.000    0.000    0.000    0.000 
#
# Total GULP energy -198422.807894 kJ/mol
# GULP energy per Si atom -12401.425493 kJ/mol
# Density = 2.267679 g / cm^3
# Si number density = 22.728524 Si / 1000 Ang^3
#
#
#
# Elastic Constant Matrix: (Units=GPa)
#
#
# Indices 1 2 3 4 5 6 
#
# 1 126.0537 46.7425 59.8818 8.6340 10.2019 2.3031
# 2 46.7425 100.6115 42.3758 7.8909 1.0485 7.1502
# 3 59.8818 42.3758 110.1057 11.1079 3.7503 5.7271
# 4 8.6340 7.8909 11.1079 34.9758 0.7237 5.6379
# 5 10.2019 1.0485 3.7503 0.7237 50.9473 -11.7825
# 6 2.3031 7.1502 5.7271 5.6379 -11.7825 35.2048
#
#
#
# Elastic Compliance Matrix: (Units=1/GPa)
#
#
# Indices 1 2 3 4 5 6 
#
# 1 0.011709 -0.003287 -0.004993 -0.000554 -0.001860 0.000180
# 2 -0.003287 0.012924 -0.003018 -0.000877 0.000234 -0.001700
# 3 -0.004993 -0.003018 0.013225 -0.002140 -0.000089 -0.000899
# 4 -0.000554 -0.000877 -0.002140 0.030392 -0.001236 -0.004718
# 5 -0.001860 0.000234 -0.000089 -0.001236 0.021771 0.007573
# 6 0.000180 -0.001700 -0.000899 -0.004718 0.007573 0.032175
#
#
# Mechanical properties :
#
#
# Convention : Reuss Voigt Hill
#
# Bulk Modulus (GPa) = 65.51805 70.53011 68.02408
# Shear Modulus (GPa) = 33.36009 36.74363 35.05186
#
# Velocity S-wave (km/s) = 3.83530 4.02510 3.93134
# Velocity P-wave (km/s) = 6.96431 7.25953 7.11345
#
# Compressibility (1/GPa) = 0.01526297
#
# Stress axis : x y z
#
# Youngs Moduli (GPa) = 85.40331 77.37327 75.61511
#
# Poissons Ratio (x) = 0.25431 0.37757
# Poissons Ratio (y) = 0.28070 0.22818
# Poissons Ratio (z) = 0.42644 0.23348
#
# Static dielectric constant tensor:
#      x y z
#    x 4.160910 0.081070 0.115870 
#    y 0.081070 4.209810 -0.029490 
#    z 0.115870 -0.029490 4.134900 
# 
# 
# High freq. dielectric constant tensor:
#      x y z
#    x 1.908130 0.007990 0.001050 
#    y 0.007990 1.890230 -0.004650 
#    z 0.001050 -0.004650 1.905410 
# 
# From -- ./inp_files/242692.got.cif
#   From: 2010.06.25/outbox.cif.g09.slc.cpg/sg2_122_cif.got.tgz:242692.got - 2010.06.27 13:26:56.
