data_PCOD8028414
_publ_section_title
;
Structure prediction by ZEFSAII (Michael W. Deem and Ramdas Pophale) SiO2 
 PCOD8028414
Probable space group: P -1
;
_chemical_formula_sum "Si O2"
_cell_formula_units_Z 14
_cell_length_a 6.211877
_cell_length_b 15.992781
_cell_length_c 12.325858
_cell_angle_alpha 148.113427
_cell_angle_beta 113.241833
_cell_angle_gamma 65.212809
_cell_volume 585.336297
_symmetry_space_group_name_H-M "P -1"
_symmetry_group_IT_number 2
_symmetry_cell_setting 'triclinic'
loop_
_space_group_symop_operation_xyz
x,y,z
-x,-y,-z
loop_
_atom_site_type_symbol
_atom_site_label
_atom_site_fract_x
_atom_site_fract_y
_atom_site_fract_z
Si Si1 0.034511 0.463417 0.325216
Si Si2 0.123043 0.863706 0.016361
Si Si3 0.739548 0.055682 0.639774
Si Si4 0.221486 0.463610 0.140807
Si Si5 0.955915 0.246219 0.723460
Si Si6 0.685634 0.116870 0.152596
Si Si7 0.583116 0.563278 0.466622
O O1 0.017127 0.492522 0.225225
O O2 0.300296 0.497655 0.457481
O O3 0.827669 0.587864 0.479979
O O4 0.024003 0.279942 0.152217
O O5 0.281215 0.885130 0.175794
O O6 0.297486 0.827554 0.907876
O O7 0.942743 0.030616 0.148426
O O8 0.782183 0.203157 0.735183
O O9 0.500000 0.000000 0.500000
O O10 0.956245 0.907450 0.503218
O O11 0.474603 0.437753 0.227660
O O12 0.200734 0.616919 0.228246
O O13 0.184121 0.309488 0.892693
O O14 0.599286 0.269862 0.380884
O O15 0.500000 0.000000 0.000000
#
# Coordination Sequence:
#
# PCOD8028414 Si02
#       7
#     2   2   2   2   2   2   2
#     4  11  25  42  68 105 141 174 231 276 343 422
#     4  11  25  44  68 102 136 178 233 281 335 422
#     4  11  25  46  72  96 137 179 232 286 343 396
#     4  11  24  45  72  97 145 177 228 286 341 406
#     4  10  25  46  69 104 128 184 235 280 338 409
#     4  11  25  44  69  99 141 183 225 279 349 409
#     4  11  26  41  70 102 137 184 222 278 351 407
#
# _framework density 23.917871999999999
#
# number of rings (size 3 to 8) (size 9 to 14) (size 15 to 20)
#    0.000    1.143    2.857    1.286    8.000    5.714 
#    0.000    2.857    0.000    0.000    0.000    0.000 
#    0.000    0.000    0.000    0.000    0.000    0.000 
#
# Total GULP energy -173624.483570 kJ/mol
# GULP energy per Si atom -12401.748826 kJ/mol
# Density = 2.386343 g / cm^3
# Si number density = 23.917872 Si / 1000 Ang^3
#
#
#
# Elastic Constant Matrix: (Units=GPa)
#
#
# Indices 1 2 3 4 5 6 
#
# 1 81.2738 45.1965 39.9896 -3.3481 11.6395 -0.0331
# 2 45.1965 119.2401 50.0437 -10.2942 8.9734 26.8229
# 3 39.9896 50.0437 126.1885 -14.9686 7.5811 6.1547
# 4 -3.3481 -10.2942 -14.9686 44.6434 -4.2187 3.3492
# 5 11.6395 8.9734 7.5811 -4.2187 50.3006 2.3637
# 6 -0.0331 26.8229 6.1547 3.3492 2.3637 36.4320
#
#
#
# Elastic Compliance Matrix: (Units=1/GPa)
#
#
# Indices 1 2 3 4 5 6 
#
# 1 0.018041 -0.006686 -0.003422 -0.002054 -0.002915 0.005895
# 2 -0.006686 0.014760 -0.002896 0.002737 0.000080 -0.010641
# 3 -0.003422 -0.002896 0.010459 0.002567 -0.000059 0.000130
# 4 -0.002054 0.002737 0.002567 0.024274 0.001862 -0.004803
# 5 -0.002915 0.000080 -0.000059 0.001862 0.020780 -0.001571
# 6 0.005895 -0.010641 0.000130 -0.004803 -0.001571 0.035809
#
#
# Mechanical properties :
#
#
# Convention : Reuss Voigt Hill
#
# Bulk Modulus (GPa) = 57.96128 66.35133 62.15631
# Shear Modulus (GPa) = 32.07558 39.04002 35.55780
#
# Velocity S-wave (km/s) = 3.66604 4.04450 3.85991
# Velocity P-wave (km/s) = 6.49660 7.04359 6.77562
#
# Compressibility (1/GPa) = 0.01725290
#
# Stress axis : x y z
#
# Youngs Moduli (GPa) = 55.42840 67.75078 95.61030
#
# Poissons Ratio (x) = 0.45300 0.32715
# Poissons Ratio (y) = 0.37061 0.27686
# Poissons Ratio (z) = 0.18966 0.19619
#
# Static dielectric constant tensor:
#      x y z
#    x 4.438950 0.216530 -0.077320 
#    y 0.216530 4.215620 -0.041450 
#    z -0.077320 -0.041450 4.574690 
# 
# 
# High freq. dielectric constant tensor:
#      x y z
#    x 1.957630 0.014740 0.002500 
#    y 0.014740 1.944610 -0.006730 
#    z 0.002500 -0.006730 1.962880 
# 
# From -- ./inp_files/368177.got.cif
#   From: 2010.06.25/outbox.cif.g09.slc.cpg/sg2_185_cif.got.tgz:368177.got - 2010.06.27 13:26:56.
