data_PCOD8028623
_publ_section_title
;
Structure prediction by ZEFSAII (Michael W. Deem and Ramdas Pophale) SiO2 
 PCOD8028623
Probable space group: P -1
;
_chemical_formula_sum "Si O2"
_cell_formula_units_Z 14
_cell_length_a 14.270154
_cell_length_b 5.157390
_cell_length_c 13.704853
_cell_angle_alpha 104.384369
_cell_angle_beta 131.957515
_cell_angle_gamma 105.763877
_cell_volume 576.981998
_symmetry_space_group_name_H-M "P -1"
_symmetry_group_IT_number 2
_symmetry_cell_setting 'triclinic'
loop_
_space_group_symop_operation_xyz
x,y,z
-x,-y,-z
loop_
_atom_site_type_symbol
_atom_site_label
_atom_site_fract_x
_atom_site_fract_y
_atom_site_fract_z
Si Si1 0.398698 0.522386 0.353535
Si Si2 0.387995 0.509180 0.998895
Si Si3 0.291820 0.828647 0.432859
Si Si4 0.200452 0.077015 0.004365
Si Si5 0.318612 0.828367 0.672512
Si Si6 0.814693 0.776531 0.338206
Si Si7 0.994644 0.630026 0.114115
O O1 0.500000 0.500000 0.500000
O O2 0.271638 0.545187 0.322343
O O3 0.524231 0.849075 0.407143
O O4 0.302920 0.203413 0.186679
O O5 0.490411 0.879229 0.155410
O O6 0.500000 0.500000 0.000000
O O7 0.317818 0.224298 0.007031
O O8 0.240485 0.425345 0.822625
O O9 0.255930 0.710834 0.508273
O O10 0.171025 0.891885 0.308347
O O11 0.087244 0.189075 0.932154
O O12 0.098240 0.675453 0.900623
O O13 0.273978 0.494243 0.662463
O O14 0.229356 0.967588 0.668833
O O15 0.000000 0.000000 0.500000
O O16 0.000000 0.500000 0.000000
#
# Coordination Sequence:
#
# PCOD8028623 Si02
#       7
#     2   2   2   2   2   2   2
#     4  11  25  44  73 101 143 188 236 286 346 430
#     4  10  25  49  73 102 140 188 241 298 351 417
#     4  11  26  43  69 105 141 187 234 288 351 426
#     4  12  27  47  73 105 144 193 240 289 361 424
#     4  11  25  45  71 100 138 182 227 289 351 411
#     4  11  26  45  71 102 138 177 233 288 350 416
#     4  12  27  46  71 104 151 191 233 291 359 427
#
# _framework density 24.264191
#
# number of rings (size 3 to 8) (size 9 to 14) (size 15 to 20)
#    0.000    0.857    2.857    2.143   10.000    4.571 
#    0.000    0.000    0.000    0.000    0.000    0.000 
#    0.000    0.000    0.000    0.000    0.000    0.000 
#
# Total GULP energy -173590.014073 kJ/mol
# GULP energy per Si atom -12399.286720 kJ/mol
# Density = 2.420896 g / cm^3
# Si number density = 24.264191 Si / 1000 Ang^3
#
#
#
# Elastic Constant Matrix: (Units=GPa)
#
#
# Indices 1 2 3 4 5 6 
#
# 1 62.6005 10.7976 28.6422 -2.1379 2.8323 13.2937
# 2 10.7976 86.1147 14.4821 -7.3542 4.6027 10.1629
# 3 28.6422 14.4821 174.0849 -14.1515 7.4674 11.5780
# 4 -2.1379 -7.3542 -14.1515 40.0410 6.1675 2.2803
# 5 2.8323 4.6027 7.4674 6.1675 35.4385 -8.1956
# 6 13.2937 10.1629 11.5780 2.2803 -8.1956 34.5735
#
#
#
# Elastic Compliance Matrix: (Units=1/GPa)
#
#
# Indices 1 2 3 4 5 6 
#
# 1 0.018824 -0.000948 -0.002390 0.000774 -0.002590 -0.006824
# 2 -0.000948 0.012673 -0.000259 0.002882 -0.002982 -0.004171
# 3 -0.002390 -0.000259 0.006579 0.002570 -0.002039 -0.001861
# 4 0.000774 0.002882 0.002570 0.027863 -0.007105 -0.005527
# 5 -0.002590 -0.002982 -0.002039 -0.007105 0.032986 0.010843
# 6 -0.006824 -0.004171 -0.001861 -0.005527 0.010843 0.036332
#
#
# Mechanical properties :
#
#
# Convention : Reuss Voigt Hill
#
# Bulk Modulus (GPa) = 32.38213 47.84936 40.11575
# Shear Modulus (GPa) = 32.73415 39.93580 36.33497
#
# Velocity S-wave (km/s) = 3.67696 4.06134 3.87392
# Velocity P-wave (km/s) = 5.60369 6.46186 6.04801
#
# Compressibility (1/GPa) = 0.03088123
#
# Stress axis : x y z
#
# Youngs Moduli (GPa) = 53.12274 78.91064 151.99110
#
# Poissons Ratio (x) = 0.07485 0.36332
# Poissons Ratio (y) = 0.05039 0.03930
# Poissons Ratio (z) = 0.12699 0.02041
#
# Static dielectric constant tensor:
#      x y z
#    x 4.367600 0.283440 0.125280 
#    y 0.283440 4.473180 0.035650 
#    z 0.125280 0.035650 5.118500 
# 
# 
# High freq. dielectric constant tensor:
#      x y z
#    x 1.952890 0.014770 0.003620 
#    y 0.014770 1.961270 -0.006630 
#    z 0.003620 -0.006630 1.987080 
# 
# From -- ./inp_files/27474.got.cif
#   From: 2010.06.25/outbox.cif.g09.slc.cpg/sg2_14_cif.got.tgz:27474.got - 2010.06.27 13:26:56.
