data_PCOD8028991
_publ_section_title
;
Structure prediction by ZEFSAII (Michael W. Deem and Ramdas Pophale) SiO2 
 PCOD8028991
Probable space group: P -1
;
_chemical_formula_sum "Si O2"
_cell_formula_units_Z 12
_cell_length_a 8.896337
_cell_length_b 11.739588
_cell_length_c 9.692466
_cell_angle_alpha 100.449137
_cell_angle_beta 59.264431
_cell_angle_gamma 131.372195
_cell_volume 633.447071
_symmetry_space_group_name_H-M "P -1"
_symmetry_group_IT_number 2
_symmetry_cell_setting 'triclinic'
loop_
_space_group_symop_operation_xyz
x,y,z
-x,-y,-z
loop_
_atom_site_type_symbol
_atom_site_label
_atom_site_fract_x
_atom_site_fract_y
_atom_site_fract_z
Si Si1 0.424071 0.073200 0.142485
Si Si2 0.665421 0.012483 0.534212
Si Si3 0.132333 0.146314 0.661677
Si Si4 0.488309 0.336829 0.063593
Si Si5 0.425048 0.388977 0.810744
Si Si6 0.836027 0.702446 0.592157
O O1 0.481720 0.074355 0.275751
O O2 0.578244 0.252317 0.057374
O O3 0.148852 0.978719 0.230990
O O4 0.500000 0.000000 0.000000
O O5 0.765332 0.937006 0.412176
O O6 0.500000 0.000000 0.500000
O O7 0.884100 0.197002 0.505811
O O8 0.221394 0.246664 0.780887
O O9 0.227238 0.259616 0.510970
O O10 0.656637 0.519629 0.073208
O O11 0.232846 0.246233 0.234392
O O12 0.466591 0.321844 0.905226
O O13 0.674143 0.513792 0.636305
#
# Coordination Sequence:
#
# PCOD8028991 Si02
#       6
#     2   2   2   2   2   2
#     4  11  23  39  58  85 117 151 187 237 280 334
#     4  11  22  37  59  86 113 150 192 237 276 333
#     4  11  19  37  63  84 109 152 194 230 282 334
#     4   9  18  37  56  81 120 143 184 230 290 323
#     4   9  19  32  63  86 107 153 187 229 285 340
#     4   9  17  38  58  77 116 147 182 231 285 322
#
# _framework density 18.943964999999999
#
# number of rings (size 3 to 8) (size 9 to 14) (size 15 to 20)
#    1.000    1.000    3.333    1.500    2.333    2.000 
#    0.000    1.667    3.667    0.000    0.000    0.000 
#    0.000    0.000    0.000    0.000    0.000    0.000 
#
# Total GULP energy -148680.097137 kJ/mol
# GULP energy per Si atom -12390.008095 kJ/mol
# Density = 1.890085 g / cm^3
# Si number density = 18.943965 Si / 1000 Ang^3
#
#
#
# Elastic Constant Matrix: (Units=GPa)
#
#
# Indices 1 2 3 4 5 6 
#
# 1 116.8520 35.2454 54.6063 9.8197 24.5664 -7.7739
# 2 35.2454 62.6440 31.5327 11.9735 19.8016 -4.8950
# 3 54.6063 31.5327 83.3267 6.1640 20.9499 -13.0418
# 4 9.8197 11.9735 6.1640 23.8054 -3.4713 5.2420
# 5 24.5664 19.8016 20.9499 -3.4713 34.4167 6.0841
# 6 -7.7739 -4.8950 -13.0418 5.2420 6.0841 29.0587
#
#
#
# Elastic Compliance Matrix: (Units=1/GPa)
#
#
# Indices 1 2 3 4 5 6 
#
# 1 0.013774 -0.001573 -0.006047 -0.004873 -0.006249 0.002893
# 2 -0.001573 0.027269 -0.002362 -0.016991 -0.016546 0.009642
# 3 -0.006047 -0.002362 0.021411 -0.005641 -0.009813 0.010666
# 4 -0.004873 -0.016991 -0.005641 0.063246 0.027277 -0.023818
# 5 -0.006249 -0.016546 -0.009813 0.027277 0.056280 -0.025567
# 6 0.002893 0.009642 0.010666 -0.023818 -0.025567 0.051248
#
#
# Mechanical properties :
#
#
# Convention : Reuss Voigt Hill
#
# Bulk Modulus (GPa) = 23.53507 56.17685 39.85596
# Shear Modulus (GPa) = 18.70176 26.88539 22.79357
#
# Velocity S-wave (km/s) = 3.14541 3.77132 3.47250
# Velocity P-wave (km/s) = 5.06379 6.97728 6.09608
#
# Compressibility (1/GPa) = 0.04248978
#
# Stress axis : x y z
#
# Youngs Moduli (GPa) = 72.60229 36.67230 46.70471
#
# Poissons Ratio (x) = 0.05769 0.28240
# Poissons Ratio (y) = 0.11421 0.11032
# Poissons Ratio (z) = 0.43899 0.08662
#
# Static dielectric constant tensor:
#      x y z
#    x 3.175790 -0.134350 0.231550 
#    y -0.134350 3.505930 -0.147640 
#    z 0.231550 -0.147640 3.551870 
# 
# 
# High freq. dielectric constant tensor:
#      x y z
#    x 1.706520 -0.011460 0.028110 
#    y -0.011460 1.733900 -0.006400 
#    z 0.028110 -0.006400 1.738000 
# 
# From -- ./inp_files/146363.got.cif
#   From: 2010.06.25/outbox.cif.g09.slc.cpg/sg2_74_cif.got.tgz:146363.got - 2010.06.27 13:26:56.
