data_PCOD8028359
_publ_section_title
;
Structure prediction by ZEFSAII (Michael W. Deem and Ramdas Pophale) SiO2 
 PCOD8028359
Probable space group: P -1
;
_chemical_formula_sum "Si O2"
_cell_formula_units_Z 12
_cell_length_a 7.594955
_cell_length_b 4.856791
_cell_length_c 20.916167
_cell_angle_alpha 73.190781
_cell_angle_beta 40.467383
_cell_angle_gamma 84.154929
_cell_volume 470.594006
_symmetry_space_group_name_H-M "P -1"
_symmetry_group_IT_number 2
_symmetry_cell_setting 'triclinic'
loop_
_space_group_symop_operation_xyz
x,y,z
-x,-y,-z
loop_
_atom_site_type_symbol
_atom_site_label
_atom_site_fract_x
_atom_site_fract_y
_atom_site_fract_z
Si Si1 0.677244 0.394148 0.053069
Si Si2 0.675434 0.897339 0.596200
Si Si3 0.808857 0.364693 0.800635
Si Si4 0.583412 0.573194 0.198015
Si Si5 0.436931 0.454965 0.593680
Si Si6 0.096402 0.974864 0.082977
O O1 0.742474 0.104118 0.020605
O O2 0.848216 0.676557 0.949425
O O3 0.344092 0.384398 0.143488
O O4 0.762644 0.436235 0.102740
O O5 0.571916 0.692843 0.698575
O O6 0.631171 0.725155 0.554274
O O7 0.503484 0.157551 0.624698
O O8 0.000000 0.000000 0.500000
O O9 0.643955 0.266149 0.785737
O O10 0.777191 0.115250 0.879911
O O11 0.124830 0.489750 0.690519
O O12 0.776731 0.812867 0.173025
O O13 0.500000 0.500000 0.500000
#
# Coordination Sequence:
#
# PCOD8028359 Si02
#       6
#     2   2   2   2   2   2
#     4  10  26  42  72 102 150 194 242 294 352 432
#     4  12  27  51  78 108 148 191 244 312 372 442
#     4  10  25  45  74 106 145 189 246 292 367 424
#     4  10  25  45  74 106 145 189 246 292 367 424
#     4  12  27  51  78 108 148 191 244 312 372 442
#     4  12  22  48  66 106 150 194 242 294 352 422
#
# _framework density 25.499687999999999
#
# number of rings (size 3 to 8) (size 9 to 14) (size 15 to 20)
#    1.000    0.000    1.667    4.000    2.333    2.667 
#    3.000    0.000    0.000    0.000    0.000    0.000 
#    0.000    0.000    0.000    0.000    0.000    0.000 
#
# Total GULP energy -148726.414918 kJ/mol
# GULP energy per Si atom -12393.867910 kJ/mol
# Density = 2.544165 g / cm^3
# Si number density = 25.499688 Si / 1000 Ang^3
#
#
#
# Elastic Constant Matrix: (Units=GPa)
#
#
# Indices 1 2 3 4 5 6 
#
# 1 169.5868 51.6298 52.4103 -6.5832 23.4085 -15.0619
# 2 51.6298 71.3038 30.5133 -4.5169 -8.2705 4.6874
# 3 52.4103 30.5133 151.4842 -15.6952 19.1862 -10.2250
# 4 -6.5832 -4.5169 -15.6952 27.0429 -28.3447 -4.9736
# 5 23.4085 -8.2705 19.1862 -28.3447 107.1767 25.4760
# 6 -15.0619 4.6874 -10.2250 -4.9736 25.4760 41.9787
#
#
#
# Elastic Compliance Matrix: (Units=1/GPa)
#
#
# Indices 1 2 3 4 5 6 
#
# 1 0.009825 -0.007946 -0.001065 -0.003726 -0.005184 0.006858
# 2 -0.007946 0.023148 -0.002943 0.007120 0.008407 -0.010411
# 3 -0.001065 -0.002943 0.008284 0.003183 -0.001393 0.003187
# 4 -0.003726 0.007120 0.003183 0.055697 0.016684 -0.004883
# 5 -0.005184 0.008407 -0.001393 0.016684 0.018755 -0.012543
# 6 0.006858 -0.010411 0.003187 -0.004883 -0.012543 0.035254
#
#
# Mechanical properties :
#
#
# Convention : Reuss Voigt Hill
#
# Bulk Modulus (GPa) = 57.64403 73.49795 65.57099
# Shear Modulus (GPa) = 27.67694 52.42777 40.05235
#
# Velocity S-wave (km/s) = 3.29809 4.53925 3.96751
# Velocity P-wave (km/s) = 6.09574 7.50724 6.83801
#
# Compressibility (1/GPa) = 0.01734785
#
# Stress axis : x y z
#
# Youngs Moduli (GPa) = 101.77998 43.19954 120.71354
#
# Poissons Ratio (x) = 0.34328 0.12859
# Poissons Ratio (y) = 0.80879 0.35528
# Poissons Ratio (z) = 0.10842 0.12714
#
# Static dielectric constant tensor:
#      x y z
#    x 4.976050 -0.186040 0.093630 
#    y -0.186040 4.335130 0.087280 
#    z 0.093630 0.087280 4.669770 
# 
# 
# High freq. dielectric constant tensor:
#      x y z
#    x 2.046190 -0.011870 -0.000230 
#    y -0.011870 2.003220 -0.002220 
#    z -0.000230 -0.002220 2.025320 
# 
# From -- ./inp_files/605442.got.cif
#   From: 2010.06.25/outbox.cif.g09.slc.cpg/sg2_303_cif.got.tgz:605442.got - 2010.06.27 13:26:56.
