data_PCOD8028493
_publ_section_title
;
Structure prediction by ZEFSAII (Michael W. Deem and Ramdas Pophale) SiO2 
 PCOD8028493
Probable space group: P -1
;
_chemical_formula_sum "Si O2"
_cell_formula_units_Z 16
_cell_length_a 8.601395
_cell_length_b 19.592812
_cell_length_c 14.376120
_cell_angle_alpha 39.232824
_cell_angle_beta 68.743027
_cell_angle_gamma 38.226937
_cell_volume 737.562475
_symmetry_space_group_name_H-M "P -1"
_symmetry_group_IT_number 2
_symmetry_cell_setting 'triclinic'
loop_
_space_group_symop_operation_xyz
x,y,z
-x,-y,-z
loop_
_atom_site_type_symbol
_atom_site_label
_atom_site_fract_x
_atom_site_fract_y
_atom_site_fract_z
Si Si1 0.634232 0.824718 0.216133
Si Si2 0.669355 0.561877 0.467246
Si Si3 0.249367 0.600921 0.568385
Si Si4 0.343405 0.994204 0.304069
Si Si5 0.379226 0.375387 0.928720
Si Si6 0.425419 0.947794 0.703916
Si Si7 0.377413 0.671636 0.894307
Si Si8 0.354843 0.265506 0.307095
O O1 0.530867 0.760814 0.270319
O O2 0.022732 0.608203 0.351503
O O3 0.525889 0.899811 0.266218
O O4 0.500000 0.000000 0.000000
O O5 0.396447 0.639254 0.492296
O O6 0.790139 0.433156 0.485725
O O7 0.465765 0.396495 0.796349
O O8 0.906302 0.800520 0.483909
O O9 0.302668 0.136677 0.207182
O O10 0.006616 0.121206 0.225817
O O11 0.563800 0.810088 0.525428
O O12 0.027925 0.514849 0.855708
O O13 0.624068 0.140185 0.141595
O O14 0.426120 0.431835 0.943254
O O15 0.512463 0.889499 0.637714
O O16 0.464847 0.722211 0.756714
O O17 0.500000 0.500000 0.000000
#
# Coordination Sequence:
#
# PCOD8028493 Si02
#       8
#     2   2   2   2   2   2   2   2
#     4  11  26  46  70  97 136 176 223 286 350 395
#     4  10  25  47  66  98 132 172 234 289 336 397
#     4  11  24  43  71  97 131 180 231 282 336 396
#     4  12  24  43  67 101 132 182 223 272 344 400
#     4  11  24  42  68  99 134 180 224 275 333 402
#     4  11  23  41  69  98 135 178 228 268 333 412
#     4  11  25  40  62 103 140 175 221 272 335 407
#     4  11  23  44  68  97 141 180 223 274 329 410
#
# _framework density 21.693078
#
# number of rings (size 3 to 8) (size 9 to 14) (size 15 to 20)
#    0.000    1.000    2.500    3.750    8.750    1.000 
#    2.250    2.500    0.000    0.000    0.000    0.000 
#    0.000    0.000    0.000    0.000    0.000    0.000 
#
# Total GULP energy -198312.490976 kJ/mol
# GULP energy per Si atom -12394.530686 kJ/mol
# Density = 2.164370 g / cm^3
# Si number density = 21.693078 Si / 1000 Ang^3
#
#
#
# Elastic Constant Matrix: (Units=GPa)
#
#
# Indices 1 2 3 4 5 6 
#
# 1 136.5077 23.0347 38.4379 7.4059 -14.2483 -3.3824
# 2 23.0347 65.2969 16.9842 12.0204 3.2501 0.9126
# 3 38.4379 16.9842 105.9606 12.0584 -7.0345 -5.9908
# 4 7.4059 12.0204 12.0584 30.0457 -0.2005 -3.6004
# 5 -14.2483 3.2501 -7.0345 -0.2005 39.8148 -6.0916
# 6 -3.3824 0.9126 -5.9908 -3.6004 -6.0916 27.5028
#
#
#
# Elastic Compliance Matrix: (Units=1/GPa)
#
#
# Indices 1 2 3 4 5 6 
#
# 1 0.008835 -0.002653 -0.002504 0.000069 0.003141 0.001334
# 2 -0.002653 0.018012 -0.001578 -0.006274 -0.003157 -0.002788
# 3 -0.002504 -0.001578 0.011156 -0.002965 0.001514 0.002122
# 4 0.000069 -0.006274 -0.002965 0.037533 0.000919 0.004688
# 5 0.003141 -0.003157 0.001514 0.000919 0.027858 0.007111
# 6 0.001334 -0.002788 0.002122 0.004688 0.007111 0.039267
#
#
# Mechanical properties :
#
#
# Convention : Reuss Voigt Hill
#
# Bulk Modulus (GPa) = 40.75954 51.63097 46.19525
# Shear Modulus (GPa) = 30.43015 34.75991 32.59503
#
# Velocity S-wave (km/s) = 3.74941 4.00728 3.88049
# Velocity P-wave (km/s) = 6.12977 6.72781 6.43574
#
# Compressibility (1/GPa) = 0.02453414
#
# Stress axis : x y z
#
# Youngs Moduli (GPa) = 113.18064 55.51806 89.63408
#
# Poissons Ratio (x) = 0.14731 0.22442
# Poissons Ratio (y) = 0.30031 0.14143
# Poissons Ratio (z) = 0.28338 0.08760
#
# Static dielectric constant tensor:
#      x y z
#    x 4.530290 -0.128190 0.219890 
#    y -0.128190 3.753920 -0.046710 
#    z 0.219890 -0.046710 4.073260 
# 
# 
# High freq. dielectric constant tensor:
#      x y z
#    x 1.878690 -0.000690 -0.007360 
#    y -0.000690 1.842110 0.005420 
#    z -0.007360 0.005420 1.849110 
# 
# From -- ./inp_files/402988.got.cif
#   From: 2010.06.25/outbox.cif.g09.slc.cpg/sg2_202_cif.got.tgz:402988.got - 2010.06.27 13:26:56.
