data_PCOD8028124
_publ_section_title
;
Structure prediction by ZEFSAII (Michael W. Deem and Ramdas Pophale) SiO2 
 PCOD8028124
Probable space group: P -1
;
_chemical_formula_sum "Si O2"
_cell_formula_units_Z 16
_cell_length_a 12.689846
_cell_length_b 11.121972
_cell_length_c 5.057909
_cell_angle_alpha 92.761262
_cell_angle_beta 92.468100
_cell_angle_gamma 73.417454
_cell_volume 683.049291
_symmetry_space_group_name_H-M "P -1"
_symmetry_group_IT_number 2
_symmetry_cell_setting 'triclinic'
loop_
_space_group_symop_operation_xyz
x,y,z
-x,-y,-z
loop_
_atom_site_type_symbol
_atom_site_label
_atom_site_fract_x
_atom_site_fract_y
_atom_site_fract_z
Si Si1 0.264487 0.272937 0.283088
Si Si2 0.068886 0.511592 0.264512
Si Si3 0.128514 0.969472 0.438943
Si Si4 0.455290 0.318407 0.997995
Si Si5 0.347227 0.594020 0.820057
Si Si6 0.226220 0.066256 0.948152
Si Si7 0.791496 0.317137 0.677139
Si Si8 0.586329 0.900679 0.320155
O O1 0.182402 0.408189 0.328383
O O2 0.301159 0.178599 0.525105
O O3 0.376848 0.297795 0.213912
O O4 0.202437 0.210887 0.050376
O O5 0.095112 0.644878 0.288293
O O6 0.000000 0.500000 0.500000
O O7 0.000000 0.500000 0.000000
O O8 0.181226 0.821614 0.451348
O O9 0.826952 0.951898 0.334977
O O10 0.170865 0.998801 0.157446
O O11 0.000000 0.000000 0.500000
O O12 0.401162 0.446412 0.848623
O O13 0.478249 0.196824 0.797557
O O14 0.565502 0.326185 0.153620
O O15 0.296788 0.599243 0.524685
O O16 0.256301 0.660417 0.031403
O O17 0.361716 0.028817 0.901653
O O18 0.500000 0.000000 0.500000
#
# Coordination Sequence:
#
# PCOD8028124 Si02
#       8
#     2   2   2   2   2   2   2   2
#     4  11  25  48  76 108 154 187 257 305 365 445
#     4  12  29  47  80 107 142 192 249 309 370 425
#     4  12  28  48  73 105 146 195 249 304 369 436
#     4  10  25  43  76 107 150 190 239 298 373 442
#     4  11  25  46  74 109 148 190 231 302 375 443
#     4  11  26  48  73 102 150 196 241 307 368 426
#     4  12  27  47  74 108 148 184 250 297 369 445
#     4  11  26  45  78 110 154 197 255 295 377 450
#
# _framework density 23.424372000000002
#
# number of rings (size 3 to 8) (size 9 to 14) (size 15 to 20)
#    0.000    0.750    2.500    2.625   10.500    5.000 
#    0.000    0.000    0.000    0.000    0.000    0.000 
#    0.000    0.000    0.000    0.000    0.000    0.000 
#
# Total GULP energy -198221.019317 kJ/mol
# GULP energy per Si atom -12388.813707 kJ/mol
# Density = 2.337106 g / cm^3
# Si number density = 23.424372 Si / 1000 Ang^3
#
#
#
# Elastic Constant Matrix: (Units=GPa)
#
#
# Indices 1 2 3 4 5 6 
#
# 1 135.3789 41.3262 38.8182 6.2251 -2.5456 40.4149
# 2 41.3262 70.6457 33.4868 5.5430 1.1138 13.5102
# 3 38.8182 33.4868 98.6577 5.3570 0.4830 11.0219
# 4 6.2251 5.5430 5.3570 36.8298 3.4644 4.0948
# 5 -2.5456 1.1138 0.4830 3.4644 51.6854 3.2319
# 6 40.4149 13.5102 11.0219 4.0948 3.2319 35.5784
#
#
#
# Elastic Compliance Matrix: (Units=1/GPa)
#
#
# Indices 1 2 3 4 5 6 
#
# 1 0.013189 -0.004178 -0.002349 0.000019 0.001561 -0.012811
# 2 -0.004178 0.019087 -0.004663 -0.001352 -0.000429 -0.000863
# 3 -0.002349 -0.004663 0.012616 -0.000795 -0.000119 0.000633
# 4 0.000019 -0.001352 -0.000795 0.027884 -0.001687 -0.002318
# 5 0.001561 -0.000429 -0.000119 -0.001687 0.019747 -0.003173
# 6 -0.012811 -0.000863 0.000633 -0.002318 -0.003173 0.043347
#
#
# Mechanical properties :
#
#
# Convention : Reuss Voigt Hill
#
# Bulk Modulus (GPa) = 44.41841 59.10496 51.76168
# Shear Modulus (GPa) = 30.16551 37.55546 33.86049
#
# Velocity S-wave (km/s) = 3.59246 4.00842 3.80613
# Velocity P-wave (km/s) = 6.01759 6.83449 6.43901
#
# Compressibility (1/GPa) = 0.02251319
#
# Stress axis : x y z
#
# Youngs Moduli (GPa) = 75.82352 52.39099 79.26480
#
# Poissons Ratio (x) = 0.21888 0.18616
# Poissons Ratio (y) = 0.31678 0.36961
# Poissons Ratio (z) = 0.17808 0.24429
#
# Static dielectric constant tensor:
#      x y z
#    x 4.590180 0.426410 -0.095300 
#    y 0.426410 4.238460 0.160760 
#    z -0.095300 0.160760 4.329510 
# 
# 
# High freq. dielectric constant tensor:
#      x y z
#    x 1.944670 0.023630 -0.003160 
#    y 0.023630 1.923940 0.014400 
#    z -0.003160 0.014400 1.940480 
# 
# From -- ./inp_files/71915.got.cif
#   From: 2010.06.25/outbox.cif.g09.slc.cpg/sg2_36_cif.got.tgz:71915.got - 2010.06.27 13:26:56.
