data_PCOD8028590
_publ_section_title
;
Structure prediction by ZEFSAII (Michael W. Deem and Ramdas Pophale) SiO2 
 PCOD8028590
Probable space group: P -1
;
_chemical_formula_sum "Si O2"
_cell_formula_units_Z 10
_cell_length_a 12.142582
_cell_length_b 9.966409
_cell_length_c 12.993034
_cell_angle_alpha 27.845717
_cell_angle_beta 145.292591
_cell_angle_gamma 143.245758
_cell_volume 401.522800
_symmetry_space_group_name_H-M "P -1"
_symmetry_group_IT_number 2
_symmetry_cell_setting 'triclinic'
loop_
_space_group_symop_operation_xyz
x,y,z
-x,-y,-z
loop_
_atom_site_type_symbol
_atom_site_label
_atom_site_fract_x
_atom_site_fract_y
_atom_site_fract_z
Si Si1 0.190456 0.433042 0.741947
Si Si2 0.753142 0.170455 0.814801
Si Si3 0.540176 0.821610 0.258631
Si Si4 0.172226 0.603453 0.835712
Si Si5 0.514039 0.458740 0.291299
O O1 0.241291 0.621865 0.757237
O O2 0.373582 0.511223 0.750967
O O3 0.000000 0.500000 0.500000
O O4 0.147014 0.082519 0.976123
O O5 0.648311 0.070774 0.912960
O O6 0.578860 0.208888 0.576150
O O7 0.930816 0.482677 0.744305
O O8 0.500000 0.500000 0.500000
O O9 0.542662 0.766791 0.173739
O O10 0.751478 0.056621 0.294080
O O11 0.278109 0.382968 0.129917
#
# Coordination Sequence:
#
# PCOD8028590 Si02
#       5
#     2   2   2   2   2
#     4  12  26  48  73 108 147 187 242 296 351 433
#     4  11  26  48  74 107 147 183 245 295 349 431
#     4  10  25  48  72 109 143 186 242 296 350 433
#     4  12  25  46  77 104 144 197 232 290 375 408
#     4  11  25  48  73 104 150 181 243 298 346 432
#
# _framework density 24.905184999999999
#
# number of rings (size 3 to 8) (size 9 to 14) (size 15 to 20)
#    0.000    0.800    4.000    1.800    0.000    8.000 
#    0.000    0.000    0.000    0.000    0.000    0.000 
#    0.000    0.000    0.000    0.000    0.000    0.000 
#
# Total GULP energy -123922.751070 kJ/mol
# GULP energy per Si atom -12392.275107 kJ/mol
# Density = 2.484850 g / cm^3
# Si number density = 24.905185 Si / 1000 Ang^3
#
#
#
# Elastic Constant Matrix: (Units=GPa)
#
#
# Indices 1 2 3 4 5 6 
#
# 1 83.4597 -6.5050 -4.1800 12.1014 -35.4340 -16.3385
# 2 -6.5050 67.6308 17.7836 8.3511 -21.1084 -11.5995
# 3 -4.1800 17.7836 149.9143 19.2160 1.9619 -9.9010
# 4 12.1014 8.3511 19.2160 36.4443 -7.4450 -2.8104
# 5 -35.4340 -21.1084 1.9619 -7.4450 39.1173 2.8947
# 6 -16.3385 -11.5995 -9.9010 -2.8104 2.8947 46.2349
#
#
#
# Elastic Compliance Matrix: (Units=1/GPa)
#
#
# Indices 1 2 3 4 5 6 
#
# 1 0.032447 0.017622 0.000013 -0.006298 0.036724 0.013208
# 2 0.017622 0.028770 -0.002029 -0.004419 0.029945 0.010867
# 3 0.000013 -0.002029 0.007506 -0.003884 -0.002273 0.001009
# 4 -0.006298 -0.004419 -0.003884 0.032095 -0.001630 -0.002113
# 5 0.036724 0.029945 -0.002273 -0.001630 0.073661 0.015292
# 6 0.013208 0.010867 0.001009 -0.002113 0.015292 0.028153
#
#
# Mechanical properties :
#
#
# Convention : Reuss Voigt Hill
#
# Bulk Modulus (GPa) = 10.00644 35.02244 22.51444
# Shear Modulus (GPa) = 24.42238 43.95304 34.18771
#
# Velocity S-wave (km/s) = 3.13487 4.20553 3.70904
# Velocity P-wave (km/s) = 4.13881 6.13798 5.23472
#
# Compressibility (1/GPa) = 0.09993561
#
# Stress axis : x y z
#
# Youngs Moduli (GPa) = 30.81987 34.75796 133.23101
#
# Poissons Ratio (x) = -0.61252 -0.00177
# Poissons Ratio (y) = -0.54312 0.27036
# Poissons Ratio (z) = -0.00041 0.07053
#
# Static dielectric constant tensor:
#      x y z
#    x 5.499800 -0.571050 0.162670 
#    y -0.571050 4.379810 -0.115400 
#    z 0.162670 -0.115400 4.902460 
# 
# 
# High freq. dielectric constant tensor:
#      x y z
#    x 2.010460 -0.019560 -0.005110 
#    y -0.019560 1.976990 -0.007780 
#    z -0.005110 -0.007780 2.013650 
# 
# From -- ./inp_files/289504.got.cif
#   From: 2010.06.25/outbox.cif.g09.slc.cpg/sg2_145_cif.got.tgz:289504.got - 2010.06.27 13:26:56.
