data_PCOD8028068
_publ_section_title
;
Structure prediction by ZEFSAII (Michael W. Deem and Ramdas Pophale) SiO2 
 PCOD8028068
Probable space group: P -1
;
_chemical_formula_sum "Si O2"
_cell_formula_units_Z 16
_cell_length_a 12.866949
_cell_length_b 12.349791
_cell_length_c 20.516429
_cell_angle_alpha 21.054867
_cell_angle_beta 44.270317
_cell_angle_gamma 54.352065
_cell_volume 768.662089
_symmetry_space_group_name_H-M "P -1"
_symmetry_group_IT_number 2
_symmetry_cell_setting 'triclinic'
loop_
_space_group_symop_operation_xyz
x,y,z
-x,-y,-z
loop_
_atom_site_type_symbol
_atom_site_label
_atom_site_fract_x
_atom_site_fract_y
_atom_site_fract_z
Si Si1 0.410134 0.305815 0.710958
Si Si2 0.142645 0.315129 0.749189
Si Si3 0.108299 0.325482 0.522731
Si Si4 0.422578 0.753613 0.731338
Si Si5 0.977262 0.833171 0.535216
Si Si6 0.336127 0.250079 0.572473
Si Si7 0.085622 0.279463 0.115918
Si Si8 0.320977 0.563547 0.170980
O O1 0.500000 0.500000 0.500000
O O2 0.238253 0.340700 0.760210
O O3 0.494749 0.465554 0.650732
O O4 0.407152 0.941914 0.911187
O O5 0.234383 0.235278 0.691199
O O6 0.095241 0.630855 0.583218
O O7 0.000000 0.000000 0.000000
O O8 0.245476 0.322930 0.511240
O O9 0.197764 0.498415 0.321771
O O10 0.000000 0.500000 0.500000
O O11 0.966164 0.996686 0.758969
O O12 0.548151 0.602007 0.786679
O O13 0.500000 0.000000 0.500000
O O14 0.370141 0.925493 0.719887
O O15 0.273187 0.467435 0.930700
O O16 0.793538 0.597934 0.747520
O O17 0.000000 0.000000 0.500000
O O18 0.015852 0.126165 0.302647
O O19 0.000000 0.500000 0.000000
#
# Coordination Sequence:
#
# PCOD8028068 Si02
#       8
#     2   2   2   2   2   2   2   2
#     4  10  25  43  66  96 137 179 227 281 342 409
#     4  11  24  47  69  97 137 179 236 286 339 416
#     4  11  24  43  70 100 134 178 234 287 345 411
#     4  12  25  45  68 102 144 178 227 286 348 426
#     4  11  26  45  73 104 135 183 238 285 349 416
#     4  11  24  45  67 100 136 181 230 284 355 408
#     4  11  24  47  69 100 142 178 229 291 345 412
#     4  11  24  46  65 103 140 175 228 288 344 413
#
# _framework density 20.815387999999999
#
# number of rings (size 3 to 8) (size 9 to 14) (size 15 to 20)
#    0.000    1.000    3.750    2.250    8.750    1.500 
#    0.000    3.125    0.000    0.000    0.000    0.000 
#    0.000    0.000    0.000    0.000    0.000    0.000 
#
# Total GULP energy -198228.165883 kJ/mol
# GULP energy per Si atom -12389.260368 kJ/mol
# Density = 2.076801 g / cm^3
# Si number density = 20.815388 Si / 1000 Ang^3
#
#
#
# Elastic Constant Matrix: (Units=GPa)
#
#
# Indices 1 2 3 4 5 6 
#
# 1 168.4481 58.7464 75.3519 -23.7887 -23.2662 -10.5304
# 2 58.7464 128.0121 54.5966 -24.5847 2.8936 -12.8243
# 3 75.3519 54.5966 156.8735 -18.0729 -12.3568 -0.6640
# 4 -23.7887 -24.5847 -18.0729 29.4246 -4.5607 -0.9737
# 5 -23.2662 2.8936 -12.3568 -4.5607 52.6920 -9.4483
# 6 -10.5304 -12.8243 -0.6640 -0.9737 -9.4483 41.1262
#
#
#
# Elastic Compliance Matrix: (Units=1/GPa)
#
#
# Indices 1 2 3 4 5 6 
#
# 1 0.009433 -0.001932 -0.002909 0.005028 0.004550 0.002930
# 2 -0.001932 0.011210 -0.002305 0.006339 -0.000941 0.002898
# 3 -0.002909 -0.002305 0.008770 0.001197 0.000804 -0.001109
# 4 0.005028 0.006339 0.001197 0.045389 0.007158 0.006002
# 5 0.004550 -0.000941 0.000804 0.007158 0.022983 0.006334
# 6 0.002930 0.002898 -0.001109 0.006002 0.006334 0.027549
#
#
# Mechanical properties :
#
#
# Convention : Reuss Voigt Hill
#
# Bulk Modulus (GPa) = 66.12761 92.30261 79.21511
# Shear Modulus (GPa) = 34.56210 42.29115 38.42663
#
# Velocity S-wave (km/s) = 4.07923 4.51236 4.30125
# Velocity P-wave (km/s) = 7.35013 8.46098 7.92504
#
# Compressibility (1/GPa) = 0.01512228
#
# Stress axis : x y z
#
# Youngs Moduli (GPa) = 106.00935 89.20222 114.01899
#
# Poissons Ratio (x) = 0.17236 0.33164
# Poissons Ratio (y) = 0.20483 0.26282
# Poissons Ratio (z) = 0.30834 0.20562
#
# Static dielectric constant tensor:
#      x y z
#    x 5.678820 0.676660 -0.656960 
#    y 0.676660 3.957720 -0.260450 
#    z -0.656960 -0.260450 4.056580 
# 
# 
# High freq. dielectric constant tensor:
#      x y z
#    x 1.844020 -0.007280 -0.011890 
#    y -0.007280 1.803260 -0.009580 
#    z -0.011890 -0.009580 1.828520 
# 
# From -- ./inp_files/178995.got.cif
#   From: 2010.06.25/outbox.cif.g09.slc.cpg/sg2_90_cif.got.tgz:178995.got - 2010.06.27 13:26:56.
