data_PCOD8028168
_publ_section_title
;
Structure prediction by ZEFSAII (Michael W. Deem and Ramdas Pophale) SiO2 
 PCOD8028168
Probable space group: P -1
;
_chemical_formula_sum "Si O2"
_cell_formula_units_Z 16
_cell_length_a 9.091622
_cell_length_b 15.354330
_cell_length_c 5.098315
_cell_angle_alpha 103.845595
_cell_angle_beta 92.107644
_cell_angle_gamma 89.786622
_cell_volume 690.547107
_symmetry_space_group_name_H-M "P -1"
_symmetry_group_IT_number 2
_symmetry_cell_setting 'triclinic'
loop_
_space_group_symop_operation_xyz
x,y,z
-x,-y,-z
loop_
_atom_site_type_symbol
_atom_site_label
_atom_site_fract_x
_atom_site_fract_y
_atom_site_fract_z
Si Si1 0.099697 0.412999 0.427740
Si Si2 0.361180 0.745525 0.719132
Si Si3 0.596566 0.367291 0.863960
Si Si4 0.966085 0.222104 0.379013
Si Si5 0.494743 0.080090 0.259560
Si Si6 0.247134 0.998716 0.472381
Si Si7 0.281860 0.442012 0.961845
Si Si8 0.017190 0.112112 0.808794
O O1 0.230779 0.421561 0.650128
O O2 0.000000 0.500000 0.500000
O O3 0.002674 0.326241 0.421999
O O4 0.167023 0.402485 0.135053
O O5 0.413871 0.673921 0.455763
O O6 0.208515 0.789978 0.657416
O O7 0.484842 0.823476 0.806950
O O8 0.338836 0.702223 0.972104
O O9 0.438059 0.395782 0.981182
O O10 0.706668 0.451478 0.916237
O O11 0.020549 0.187162 0.636991
O O12 0.042653 0.160361 0.121172
O O13 0.333843 0.078138 0.382388
O O14 0.627922 0.069012 0.466790
O O15 0.500000 0.000000 0.000000
O O16 0.151846 0.042977 0.731261
O O17 0.136707 0.943025 0.237131
#
# Coordination Sequence:
#
# PCOD8028168 Si02
#       8
#     2   2   2   2   2   2   2   2
#     4  12  25  43  68  99 136 176 217 274 331 396
#     4  12  25  44  69  99 132 174 227 269 336 390
#     4  11  25  44  71  97 133 177 216 277 327 401
#     4  12  25  43  68  99 134 172 226 274 327 399
#     4  11  25  44  68  97 137 175 227 278 332 405
#     4  10  25  44  68  98 132 180 222 275 343 393
#     4  11  24  46  67  99 136 172 223 266 337 394
#     4  11  25  45  70  97 136 178 223 278 334 397
#
# _framework density 23.170031999999999
#
# number of rings (size 3 to 8) (size 9 to 14) (size 15 to 20)
#    0.000    0.750    1.250    5.625    5.250    6.000 
#    0.000    0.000    0.000    0.000    0.000    0.000 
#    0.000    0.000    0.000    0.000    0.000    0.000 
#
# Total GULP energy -198512.917710 kJ/mol
# GULP energy per Si atom -12407.057357 kJ/mol
# Density = 2.311730 g / cm^3
# Si number density = 23.170032 Si / 1000 Ang^3
#
#
#
# Elastic Constant Matrix: (Units=GPa)
#
#
# Indices 1 2 3 4 5 6 
#
# 1 93.6059 19.0402 13.6463 1.5293 -5.0590 15.2375
# 2 19.0402 101.2100 18.4436 7.9974 -0.3840 27.8355
# 3 13.6463 18.4436 83.7094 10.1929 -5.4096 9.0649
# 4 1.5293 7.9974 10.1929 46.3013 2.0732 3.7479
# 5 -5.0590 -0.3840 -5.4096 2.0732 28.2186 1.7899
# 6 15.2375 27.8355 9.0649 3.7479 1.7899 36.3894
#
#
#
# Elastic Compliance Matrix: (Units=1/GPa)
#
#
# Indices 1 2 3 4 5 6 
#
# 1 0.011815 -0.000892 -0.001180 0.000261 0.002121 -0.004102
# 2 -0.000892 0.012901 -0.001558 -0.001143 0.000372 -0.009008
# 3 -0.001180 -0.001558 0.013117 -0.002578 0.002563 -0.001442
# 4 0.000261 -0.001143 -0.002578 0.022512 -0.002066 -0.000809
# 5 0.002121 0.000372 0.002563 -0.002066 0.036682 -0.003403
# 6 -0.004102 -0.009008 -0.001442 -0.000809 -0.003403 0.036698
#
#
# Mechanical properties :
#
#
# Convention : Reuss Voigt Hill
#
# Bulk Modulus (GPa) = 32.70889 42.30950 37.50919
# Shear Modulus (GPa) = 33.07379 37.34156 35.20767
#
# Velocity S-wave (km/s) = 3.78224 4.01887 3.90235
# Velocity P-wave (km/s) = 5.76380 6.31151 6.04386
#
# Compressibility (1/GPa) = 0.03057273
#
# Stress axis : x y z
#
# Youngs Moduli (GPa) = 84.64058 77.51147 76.23439
#
# Poissons Ratio (x) = 0.06914 0.08995
# Poissons Ratio (y) = 0.07550 0.11880
# Poissons Ratio (z) = 0.09987 0.12080
#
# Static dielectric constant tensor:
#      x y z
#    x 4.286230 0.129050 0.006160 
#    y 0.129050 4.286960 -0.079940 
#    z 0.006160 -0.079940 4.184160 
# 
# 
# High freq. dielectric constant tensor:
#      x y z
#    x 1.922840 0.008590 -0.004820 
#    y 0.008590 1.924880 -0.000180 
#    z -0.004820 -0.000180 1.917360 
# 
# From -- ./inp_files/39974.got.cif
#   From: 2010.06.25/outbox.cif.g09.slc.cpg/sg2_20_cif.got.tgz:39974.got - 2010.06.27 13:26:56.
