data_PCOD8028215
_publ_section_title
;
Structure prediction by ZEFSAII (Michael W. Deem and Ramdas Pophale) SiO2 
 PCOD8028215
Probable space group: P -1
;
_chemical_formula_sum "Si O2"
_cell_formula_units_Z 14
_cell_length_a 5.121536
_cell_length_b 21.582892
_cell_length_c 8.906302
_cell_angle_alpha 144.456609
_cell_angle_beta 110.867788
_cell_angle_gamma 61.299692
_cell_volume 500.834482
_symmetry_space_group_name_H-M "P -1"
_symmetry_group_IT_number 2
_symmetry_cell_setting 'triclinic'
loop_
_space_group_symop_operation_xyz
x,y,z
-x,-y,-z
loop_
_atom_site_type_symbol
_atom_site_label
_atom_site_fract_x
_atom_site_fract_y
_atom_site_fract_z
Si Si1 0.326452 0.410193 0.900846
Si Si2 0.914521 0.096324 0.334142
Si Si3 0.007461 0.190536 0.847652
Si Si4 0.265715 0.550219 0.682892
Si Si5 0.659223 0.139151 0.935578
Si Si6 0.250715 0.199420 0.399687
Si Si7 0.671300 0.658991 0.547857
O O1 0.289871 0.290756 0.708540
O O2 0.469311 0.388981 0.717613
O O3 0.532457 0.443194 0.122742
O O4 0.000000 0.500000 0.000000
O O5 0.577104 0.103001 0.252064
O O6 0.939067 0.176283 0.633059
O O7 0.019536 0.142794 0.296423
O O8 0.112728 0.965126 0.133731
O O9 0.350718 0.116119 0.804862
O O10 0.970631 0.321931 0.140275
O O11 0.792842 0.145102 0.811428
O O12 0.500000 0.500000 0.500000
O O13 0.126669 0.453178 0.529578
O O14 0.600028 0.258450 0.246285
O O15 0.147204 0.265569 0.345479
#
# Coordination Sequence:
#
# PCOD8028215 Si02
#       7
#     2   2   2   2   2   2   2
#     4  10  25  44  72 106 152 196 244 304 374 442
#     4  12  24  48  73 105 143 200 248 304 369 432
#     4  12  26  46  72 108 150 193 249 303 379 435
#     4  12  25  44  76 108 152 194 247 305 377 445
#     4  12  27  46  72 106 150 194 249 311 360 446
#     4  10  26  43  74 104 141 191 249 297 370 437
#     4  10  26  45  70 114 145 197 237 312 370 447
#
# _framework density 27.953347000000001
#
# number of rings (size 3 to 8) (size 9 to 14) (size 15 to 20)
#    0.857    0.000    2.857    3.000    6.000    2.857 
#    0.000    0.000    0.000    0.000    0.000    0.000 
#    0.000    0.000    0.000    0.000    0.000    0.000 
#
# Total GULP energy -173539.754221 kJ/mol
# GULP energy per Si atom -12395.696730 kJ/mol
# Density = 2.788972 g / cm^3
# Si number density = 27.953347 Si / 1000 Ang^3
#
#
#
# Elastic Constant Matrix: (Units=GPa)
#
#
# Indices 1 2 3 4 5 6 
#
# 1 129.6267 47.1751 35.8500 1.9882 -24.9053 14.5866
# 2 47.1751 175.8579 35.3400 28.9797 -9.9207 16.3200
# 3 35.8500 35.3400 113.6835 5.8434 -22.5075 8.9432
# 4 1.9882 28.9797 5.8434 47.1657 -4.6083 -8.1799
# 5 -24.9053 -9.9207 -22.5075 -4.6083 29.4554 3.6891
# 6 14.5866 16.3200 8.9432 -8.1799 3.6891 52.9187
#
#
#
# Elastic Compliance Matrix: (Units=1/GPa)
#
#
# Indices 1 2 3 4 5 6 
#
# 1 0.010560 -0.002196 -0.000948 0.001382 0.007984 -0.002417
# 2 -0.002196 0.007497 -0.001396 -0.004800 -0.000880 -0.002151
# 3 -0.000948 -0.001396 0.011142 -0.000053 0.007449 -0.001719
# 4 0.001382 -0.004800 -0.000053 0.025212 0.002854 0.004806
# 5 0.007984 -0.000880 0.007449 0.002854 0.047300 -0.006045
# 6 -0.002417 -0.002151 -0.001719 0.004806 -0.006045 0.021681
#
#
# Mechanical properties :
#
#
# Convention : Reuss Voigt Hill
#
# Bulk Modulus (GPa) = 49.70238 72.87759 61.28998
# Shear Modulus (GPa) = 35.92514 45.96150 40.94332
#
# Velocity S-wave (km/s) = 3.58883 4.05930 3.83129
# Velocity P-wave (km/s) = 5.91541 6.93529 6.44555
#
# Compressibility (1/GPa) = 0.02011976
#
# Stress axis : x y z
#
# Youngs Moduli (GPa) = 94.69367 133.38685 89.75004
#
# Poissons Ratio (x) = 0.29285 0.08507
# Poissons Ratio (y) = 0.20790 0.12533
# Poissons Ratio (z) = 0.08976 0.18626
#
# Static dielectric constant tensor:
#      x y z
#    x 4.849430 0.089740 -0.074080 
#    y 0.089740 5.558490 0.144900 
#    z -0.074080 0.144900 5.665430 
# 
# 
# High freq. dielectric constant tensor:
#      x y z
#    x 2.118470 -0.007610 0.001160 
#    y -0.007610 2.155780 -0.005330 
#    z 0.001160 -0.005330 2.158630 
# 
# From -- ./inp_files/141750.got.cif
#   From: 2010.06.25/outbox.cif.g09.slc.cpg/sg2_71_cif.got.tgz:141750.got - 2010.06.27 13:26:56.
