data_PCOD8028066
_publ_section_title
;
Structure prediction by ZEFSAII (Michael W. Deem and Ramdas Pophale) SiO2 
 PCOD8028066
Probable space group: P -1
;
_chemical_formula_sum "Si O2"
_cell_formula_units_Z 16
_cell_length_a 14.392125
_cell_length_b 16.665790
_cell_length_c 11.510473
_cell_angle_alpha 142.704763
_cell_angle_beta 29.794353
_cell_angle_gamma 138.032928
_cell_volume 818.166524
_symmetry_space_group_name_H-M "P -1"
_symmetry_group_IT_number 2
_symmetry_cell_setting 'triclinic'
loop_
_space_group_symop_operation_xyz
x,y,z
-x,-y,-z
loop_
_atom_site_type_symbol
_atom_site_label
_atom_site_fract_x
_atom_site_fract_y
_atom_site_fract_z
Si Si1 0.304358 0.549310 0.790200
Si Si2 0.772109 0.632614 0.717552
Si Si3 0.107101 0.130267 0.972936
Si Si4 0.540789 0.993185 0.581634
Si Si5 0.221324 0.565289 0.335879
Si Si6 0.412683 0.702874 0.072596
Si Si7 0.080361 0.580809 0.845375
Si Si8 0.185729 0.801575 0.799913
O O1 0.500000 0.500000 0.500000
O O2 0.231855 0.601495 0.808869
O O3 0.355091 0.669658 0.964918
O O4 0.135428 0.435240 0.892421
O O5 0.671727 0.533322 0.815135
O O6 0.899811 0.549684 0.404952
O O7 0.896695 0.754868 0.793434
O O8 0.629571 0.692562 0.856436
O O9 0.311781 0.108647 0.680699
O O10 0.004171 0.158327 0.998751
O O11 0.000000 0.000000 0.000000
O O12 0.350483 0.932137 0.790649
O O13 0.500000 0.000000 0.500000
O O14 0.623876 0.145282 0.703953
O O15 0.290165 0.588870 0.156390
O O16 0.268661 0.710956 0.510701
O O17 0.000000 0.500000 0.500000
O O18 0.128388 0.720670 0.886345
#
# Coordination Sequence:
#
# PCOD8028066 Si02
#       8
#     2   2   2   2   2   2   2   2
#     4  11  24  45  67  91 120 163 214 266 314 358
#     4  11  21  35  60  96 125 160 198 249 319 381
#     4  12  22  35  59  91 134 172 200 235 309 382
#     4  12  23  38  58  93 132 171 201 243 301 385
#     4  11  20  33  56  94 128 159 196 252 319 376
#     4  12  22  39  62  89 129 162 207 255 313 367
#     4  10  25  43  66  94 123 160 212 269 311 361
#     4  11  22  41  60  91 135 163 202 254 309 376
#
# _framework density 19.555921999999999
#
# number of rings (size 3 to 8) (size 9 to 14) (size 15 to 20)
#    0.000    0.750    6.250    1.875    1.750    2.000 
#    0.000    0.625    0.000    1.500    0.000    0.000 
#    0.000    0.000    0.000    0.000    0.000    0.000 
#
# Total GULP energy -198321.690080 kJ/mol
# GULP energy per Si atom -12395.105630 kJ/mol
# Density = 1.951141 g / cm^3
# Si number density = 19.555922 Si / 1000 Ang^3
#
#
#
# Elastic Constant Matrix: (Units=GPa)
#
#
# Indices 1 2 3 4 5 6 
#
# 1 139.5811 58.0305 53.4134 -0.9074 0.1202 -8.5946
# 2 58.0305 117.6658 46.5283 -3.6789 1.7630 -8.5431
# 3 53.4134 46.5283 84.5484 -5.6097 -3.8587 -4.9922
# 4 -0.9074 -3.6789 -5.6097 34.8408 5.2288 -0.3675
# 5 0.1202 1.7630 -3.8587 5.2288 33.8607 2.3006
# 6 -8.5946 -8.5431 -4.9922 -0.3675 2.3006 32.0786
#
#
#
# Elastic Compliance Matrix: (Units=1/GPa)
#
#
# Indices 1 2 3 4 5 6 
#
# 1 0.010390 -0.003144 -0.004831 -0.000768 -0.000387 0.001214
# 2 -0.003144 0.012013 -0.004538 0.000678 -0.001355 0.001756
# 3 -0.004831 -0.004538 0.017601 0.001937 0.001952 0.000119
# 4 -0.000768 0.000678 0.001937 0.029746 -0.004469 0.000937
# 5 -0.000387 -0.001355 0.001952 -0.004469 0.030681 -0.002413
# 6 0.001214 0.001756 0.000119 0.000937 -0.002413 0.032168
#
#
# Mechanical properties :
#
#
# Convention : Reuss Voigt Hill
#
# Bulk Modulus (GPa) = 66.76063 73.08217 69.92140
# Shear Modulus (GPa) = 30.74713 32.41091 31.57902
#
# Velocity S-wave (km/s) = 3.96948 4.07547 4.02282
# Velocity P-wave (km/s) = 7.43112 7.71997 7.57692
#
# Compressibility (1/GPa) = 0.01497889
#
# Stress axis : x y z
#
# Youngs Moduli (GPa) = 96.24591 83.24654 56.81477
#
# Poissons Ratio (x) = 0.26174 0.27445
# Poissons Ratio (y) = 0.30261 0.25780
# Poissons Ratio (z) = 0.46493 0.37774
#
# Static dielectric constant tensor:
#      x y z
#    x 3.504240 -0.309770 -0.120180 
#    y -0.309770 3.738760 0.497440 
#    z -0.120180 0.497440 4.112040 
# 
# 
# High freq. dielectric constant tensor:
#      x y z
#    x 1.765820 0.002950 -0.019810 
#    y 0.002950 1.763380 -0.001680 
#    z -0.019810 -0.001680 1.750000 
# 
# From -- ./inp_files/455019.got.cif
#   From: 2010.06.25/outbox.cif.g09.slc.cpg/sg2_228_cif.got.tgz:455019.got - 2010.06.27 13:26:56.
