data_PCOD8028264
_publ_section_title
;
Structure prediction by ZEFSAII (Michael W. Deem and Ramdas Pophale) SiO2 
 PCOD8028264
Probable space group: P -1
;
_chemical_formula_sum "Si O2"
_cell_formula_units_Z 14
_cell_length_a 14.566545
_cell_length_b 11.655094
_cell_length_c 8.343798
_cell_angle_alpha 68.306445
_cell_angle_beta 71.508959
_cell_angle_gamma 130.247837
_cell_volume 623.687676
_symmetry_space_group_name_H-M "P -1"
_symmetry_group_IT_number 2
_symmetry_cell_setting 'triclinic'
loop_
_space_group_symop_operation_xyz
x,y,z
-x,-y,-z
loop_
_atom_site_type_symbol
_atom_site_label
_atom_site_fract_x
_atom_site_fract_y
_atom_site_fract_z
Si Si1 0.006439 0.895591 0.670833
Si Si2 0.584835 0.024344 0.092339
Si Si3 0.678315 0.381761 0.966071
Si Si4 0.827876 0.079329 0.994820
Si Si5 0.264199 0.499296 0.495286
Si Si6 0.619571 0.803745 0.566064
Si Si7 0.726287 0.693783 0.171553
O O1 0.877700 0.639766 0.809192
O O2 0.230114 0.106978 0.455281
O O3 0.000000 0.000000 0.500000
O O4 0.921011 0.849874 0.909489
O O5 0.409369 0.743422 0.398322
O O6 0.759062 0.120777 0.904990
O O7 0.500000 0.000000 0.000000
O O8 0.661864 0.214666 0.071570
O O9 0.680765 0.436977 0.754961
O O10 0.489187 0.222309 0.243661
O O11 0.748144 0.016380 0.251229
O O12 0.738568 0.853836 0.094563
O O13 0.056846 0.329235 0.730664
O O14 0.285820 0.382545 0.606449
O O15 0.462456 0.539480 0.710119
#
# Coordination Sequence:
#
# PCOD8028264 Si02
#       7
#     2   2   2   2   2   2   2
#     4  11  25  44  67 103 142 176 219 281 342 407
#     4  10  25  45  68 100 137 179 230 279 332 399
#     4  10  26  45  67 100 143 174 227 276 340 398
#     4  12  24  41  74 101 131 181 229 279 337 399
#     4  11  23  44  73 101 134 176 229 287 329 403
#     4  11  25  44  67 100 136 181 219 275 352 392
#     4  11  24  43  72 104 135 171 234 281 337 404
#
# _framework density 22.447130000000001
#
# number of rings (size 3 to 8) (size 9 to 14) (size 15 to 20)
#    0.000    1.143    2.857    1.714    2.000   12.000 
#    0.000    1.429    0.000    0.000    0.000    0.000 
#    0.000    0.000    0.000    0.000    0.000    0.000 
#
# Total GULP energy -173572.178033 kJ/mol
# GULP energy per Si atom -12398.012717 kJ/mol
# Density = 2.239604 g / cm^3
# Si number density = 22.447130 Si / 1000 Ang^3
#
#
#
# Elastic Constant Matrix: (Units=GPa)
#
#
# Indices 1 2 3 4 5 6 
#
# 1 138.8481 67.9029 15.0465 -15.6548 -24.5983 -8.1674
# 2 67.9029 108.5045 49.8623 -2.0391 -12.0717 -19.3570
# 3 15.0465 49.8623 92.7001 2.7523 -27.7882 -6.1381
# 4 -15.6548 -2.0391 2.7523 33.0598 8.5018 -1.0972
# 5 -24.5983 -12.0717 -27.7882 8.5018 41.8179 -4.3690
# 6 -8.1674 -19.3570 -6.1381 -1.0972 -4.3690 36.9356
#
#
#
# Elastic Compliance Matrix: (Units=1/GPa)
#
#
# Indices 1 2 3 4 5 6 
#
# 1 0.013141 -0.009826 0.005370 0.003156 0.007785 -0.000337
# 2 -0.009826 0.020841 -0.011104 -0.000599 -0.006380 0.006132
# 3 0.005370 -0.011104 0.020251 -0.003455 0.014145 0.000304
# 4 0.003156 -0.000599 -0.003455 0.033924 -0.007517 -0.000071
# 5 0.007785 -0.006380 0.014145 -0.007517 0.038102 0.005012
# 6 -0.000337 0.006132 0.000304 -0.000071 0.005012 0.030854
#
#
# Mechanical properties :
#
#
# Convention : Reuss Voigt Hill
#
# Bulk Modulus (GPa) = 43.26554 67.29732 55.28143
# Shear Modulus (GPa) = 25.51836 36.17872 30.84854
#
# Velocity S-wave (km/s) = 3.37533 4.01899 3.71114
# Velocity P-wave (km/s) = 5.87425 7.18205 6.56082
#
# Compressibility (1/GPa) = 0.02311308
#
# Stress axis : x y z
#
# Youngs Moduli (GPa) = 76.09951 47.98267 49.37952
#
# Poissons Ratio (x) = 0.47147 -0.26516
# Poissons Ratio (y) = 0.74775 0.54830
# Poissons Ratio (z) = -0.40865 0.53279
#
# Static dielectric constant tensor:
#      x y z
#    x 4.320480 -0.133440 0.076150 
#    y -0.133440 4.397130 -0.253920 
#    z 0.076150 -0.253920 4.699510 
# 
# 
# High freq. dielectric constant tensor:
#      x y z
#    x 1.892250 0.004540 -0.008300 
#    y 0.004540 1.881610 -0.012780 
#    z -0.008300 -0.012780 1.891640 
# 
# From -- ./inp_files/304940.got.cif
#   From: 2010.06.25/outbox.cif.g09.slc.cpg/sg2_153_cif.got.tgz:304940.got - 2010.06.27 13:26:56.
