data_PCOD8028537
_publ_section_title
;
Structure prediction by ZEFSAII (Michael W. Deem and Ramdas Pophale) SiO2 
 PCOD8028537
Probable space group: P -1
;
_chemical_formula_sum "Si O2"
_cell_formula_units_Z 14
_cell_length_a 14.474532
_cell_length_b 19.405678
_cell_length_c 10.860372
_cell_angle_alpha 146.093893
_cell_angle_beta 32.356335
_cell_angle_gamma 160.141209
_cell_volume 543.954212
_symmetry_space_group_name_H-M "P -1"
_symmetry_group_IT_number 2
_symmetry_cell_setting 'triclinic'
loop_
_space_group_symop_operation_xyz
x,y,z
-x,-y,-z
loop_
_atom_site_type_symbol
_atom_site_label
_atom_site_fract_x
_atom_site_fract_y
_atom_site_fract_z
Si Si1 0.619230 0.996035 0.974499
Si Si2 0.943585 0.764311 0.971187
Si Si3 0.248683 0.321951 0.425951
Si Si4 0.312016 0.631577 0.371757
Si Si5 0.106198 0.659028 0.214766
Si Si6 0.718240 0.889270 0.500747
Si Si7 0.554532 0.814913 0.116301
O O1 0.660727 0.879391 0.697549
O O2 0.393642 0.881622 0.166419
O O3 0.500000 0.000000 0.000000
O O4 0.912150 0.208918 0.026437
O O5 0.719775 0.536048 0.831123
O O6 0.187574 0.946387 0.866320
O O7 0.765596 0.777136 0.241104
O O8 0.500000 0.500000 0.500000
O O9 0.141319 0.377225 0.543618
O O10 0.365099 0.279122 0.146968
O O11 0.982176 0.128457 0.523143
O O12 0.429171 0.759121 0.555596
O O13 0.536315 0.804722 0.269670
O O14 0.000000 0.500000 0.500000
O O15 0.231320 0.668032 0.212539
O O16 0.000000 0.500000 0.000000
#
# Coordination Sequence:
#
# PCOD8028537 Si02
#       7
#     2   2   2   2   2   2   2
#     4  11  22  41  72 101 143 178 233 304 349 418
#     4  10  25  47  73 104 142 191 242 295 363 423
#     4  11  23  42  71 105 143 185 236 300 363 418
#     4  12  28  48  74 103 146 195 236 294 367 433
#     4  11  23  40  70 108 139 185 237 294 369 417
#     4  11  25  46  70 108 143 188 243 294 361 432
#     4  10  26  48  70 105 147 186 245 295 354 440
#
# _framework density 25.737459000000001
#
# number of rings (size 3 to 8) (size 9 to 14) (size 15 to 20)
#    0.000    1.143    2.857    1.714    8.000    4.000 
#    2.571    0.000    0.000    0.000    0.000    0.000 
#    0.000    0.000    0.000    0.000    0.000    0.000 
#
# Total GULP energy -173454.218581 kJ/mol
# GULP energy per Si atom -12389.587041 kJ/mol
# Density = 2.567888 g / cm^3
# Si number density = 25.737459 Si / 1000 Ang^3
#
#
#
# Elastic Constant Matrix: (Units=GPa)
#
#
# Indices 1 2 3 4 5 6 
#
# 1 61.1031 27.4686 4.9781 1.0896 -3.5025 8.4990
# 2 27.4686 78.5454 13.3861 0.9283 -1.2382 15.9520
# 3 4.9781 13.3861 71.8782 -7.4494 -17.7024 -3.6444
# 4 1.0896 0.9283 -7.4494 38.6412 6.7385 -2.1337
# 5 -3.5025 -1.2382 -17.7024 6.7385 51.9631 -0.9104
# 6 8.4990 15.9520 -3.6444 -2.1337 -0.9104 35.9050
#
#
#
# Elastic Compliance Matrix: (Units=1/GPa)
#
#
# Indices 1 2 3 4 5 6 
#
# 1 0.019603 -0.006463 -0.000017 -0.000712 0.001223 -0.001782
# 2 -0.006463 0.016867 -0.003414 -0.001030 -0.001176 -0.006402
# 3 -0.000017 -0.003414 0.016263 0.002503 0.005194 0.003452
# 4 -0.000712 -0.001030 0.002503 0.027007 -0.002680 0.002417
# 5 0.001223 -0.001176 0.005194 -0.002680 0.021436 0.001144
# 6 -0.001782 -0.006402 0.003452 0.002417 0.001144 0.031640
#
#
# Mechanical properties :
#
#
# Convention : Reuss Voigt Hill
#
# Bulk Modulus (GPa) = 30.35413 33.68802 32.02108
# Shear Modulus (GPa) = 30.56464 36.34812 33.45638
#
# Velocity S-wave (km/s) = 3.44983 3.76209 3.60934
# Velocity P-wave (km/s) = 5.26192 5.65585 5.46243
#
# Compressibility (1/GPa) = 0.03294444
#
# Stress axis : x y z
#
# Youngs Moduli (GPa) = 51.01195 59.28598 61.48905
#
# Poissons Ratio (x) = 0.38317 0.00105
# Poissons Ratio (y) = 0.32969 0.20995
# Poissons Ratio (z) = 0.00087 0.20243
#
# Static dielectric constant tensor:
#      x y z
#    x 3.635060 -0.301530 -1.575380 
#    y -0.301530 5.303660 -0.146870 
#    z -1.575380 -0.146870 4.900110 
# 
# 
# High freq. dielectric constant tensor:
#      x y z
#    x 2.026080 0.022360 -0.011580 
#    y 0.022360 2.029430 -0.002150 
#    z -0.011580 -0.002150 2.044260 
# 
# From -- ./inp_files/174170.got.cif
#   From: 2010.06.25/outbox.cif.g09.slc.cpg/sg2_88_cif.got.tgz:174170.got - 2010.06.27 13:26:56.
