data_PCOD8028036
_publ_section_title
;
Structure prediction by ZEFSAII (Michael W. Deem and Ramdas Pophale) SiO2 
 PCOD8028036
Probable space group: P -1
;
_chemical_formula_sum "Si O2"
_cell_formula_units_Z 12
_cell_length_a 5.002171
_cell_length_b 17.701126
_cell_length_c 9.392482
_cell_angle_alpha 140.338008
_cell_angle_beta 81.267100
_cell_angle_gamma 107.182472
_cell_volume 503.203688
_symmetry_space_group_name_H-M "P -1"
_symmetry_group_IT_number 2
_symmetry_cell_setting 'triclinic'
loop_
_space_group_symop_operation_xyz
x,y,z
-x,-y,-z
loop_
_atom_site_type_symbol
_atom_site_label
_atom_site_fract_x
_atom_site_fract_y
_atom_site_fract_z
Si Si1 0.695299 0.751962 0.329185
Si Si2 0.799038 0.303362 0.926175
Si Si3 0.793101 0.523437 0.433824
Si Si4 0.376668 0.859177 0.022786
Si Si5 0.992597 0.018474 0.209567
Si Si6 0.283251 0.247998 0.357910
O O1 0.411117 0.743900 0.256290
O O2 0.882693 0.894680 0.538178
O O3 0.609894 0.696232 0.413966
O O4 0.881609 0.677477 0.124313
O O5 0.728194 0.201883 0.907460
O O6 0.775097 0.434508 0.171701
O O7 0.500000 0.500000 0.500000
O O8 0.884960 0.665020 0.576208
O O9 0.000000 0.500000 0.500000
O O10 0.126423 0.903695 0.036620
O O11 0.448905 0.756745 0.766134
O O12 0.655765 0.973933 0.187589
O O13 0.084075 0.104712 0.183681
#
# Coordination Sequence:
#
# PCOD8028036 Si02
#       6
#     2   2   2   2   2   2
#     4  10  26  44  67 105 144 176 228 277 355 403
#     4  12  25  45  70 106 135 185 226 282 348 404
#     4  12  27  47  75 102 134 177 237 291 338 404
#     4  12  23  42  75  98 143 180 236 275 333 414
#     4  10  25  42  70 103 138 186 226 279 342 399
#     4  10  26  47  70 104 138 182 234 284 338 410
#
# _framework density 23.847200000000001
#
# number of rings (size 3 to 8) (size 9 to 14) (size 15 to 20)
#    1.000    0.000    1.667    4.000    2.333    9.333 
#    0.000    0.000    0.000    0.000    0.000    0.000 
#    0.000    0.000    0.000    0.000    0.000    0.000 
#
# Total GULP energy -148826.087543 kJ/mol
# GULP energy per Si atom -12402.173962 kJ/mol
# Density = 2.379292 g / cm^3
# Si number density = 23.847200 Si / 1000 Ang^3
#
#
#
# Elastic Constant Matrix: (Units=GPa)
#
#
# Indices 1 2 3 4 5 6 
#
# 1 92.8382 36.7618 8.7389 -6.4690 -3.5954 -20.5942
# 2 36.7618 147.0529 43.0801 3.9327 2.6671 -44.8290
# 3 8.7389 43.0801 94.9984 -4.2819 -11.7516 -16.7404
# 4 -6.4690 3.9327 -4.2819 45.8283 -3.7010 -1.2415
# 5 -3.5954 2.6671 -11.7516 -3.7010 32.4956 1.8841
# 6 -20.5942 -44.8290 -16.7404 -1.2415 1.8841 32.6771
#
#
#
# Elastic Compliance Matrix: (Units=1/GPa)
#
#
# Indices 1 2 3 4 5 6 
#
# 1 0.013003 -0.001715 0.001041 0.002402 0.001861 0.006359
# 2 -0.001715 0.012966 -0.003593 -0.001575 -0.003603 0.015015
# 3 0.001041 -0.003593 0.013215 0.002180 0.005306 0.002274
# 4 0.002402 -0.001575 0.002180 0.022829 0.003718 0.001123
# 5 0.001861 -0.003603 0.005306 0.003718 0.033783 -0.002859
# 6 0.006359 0.015015 0.002274 0.001123 -0.002859 0.056581
#
#
# Mechanical properties :
#
#
# Convention : Reuss Voigt Hill
#
# Bulk Modulus (GPa) = 32.62666 56.89457 44.76062
# Shear Modulus (GPa) = 29.21781 38.62079 33.91930
#
# Velocity S-wave (km/s) = 3.50410 4.02868 3.77551
# Velocity P-wave (km/s) = 5.48478 6.74908 6.14951
#
# Compressibility (1/GPa) = 0.03064978
#
# Stress axis : x y z
#
# Youngs Moduli (GPa) = 76.90769 77.12342 75.66920
#
# Poissons Ratio (x) = 0.13224 -0.07874
# Poissons Ratio (y) = 0.13187 0.27189
# Poissons Ratio (z) = -0.08003 0.27711
#
# Static dielectric constant tensor:
#      x y z
#    x 4.066680 -0.133110 -0.028830 
#    y -0.133110 4.315020 -0.008840 
#    z -0.028830 -0.008840 4.437820 
# 
# 
# High freq. dielectric constant tensor:
#      x y z
#    x 1.945790 -0.012520 -0.001560 
#    y -0.012520 1.944390 -0.007230 
#    z -0.001560 -0.007230 1.962390 
# 
# From -- ./inp_files/136401.got.cif
#   From: 2010.06.25/outbox.cif.g09.slc.cpg/sg2_69_cif.got.tgz:136401.got - 2010.06.27 13:26:56.
