data_PCOD8028129
_publ_section_title
;
Structure prediction by ZEFSAII (Michael W. Deem and Ramdas Pophale) SiO2 
 PCOD8028129
Probable space group: P -1
;
_chemical_formula_sum "Si O2"
_cell_formula_units_Z 16
_cell_length_a 8.770774
_cell_length_b 14.163236
_cell_length_c 8.609605
_cell_angle_alpha 112.093257
_cell_angle_beta 69.137727
_cell_angle_gamma 137.183866
_cell_volume 668.026915
_symmetry_space_group_name_H-M "P -1"
_symmetry_group_IT_number 2
_symmetry_cell_setting 'triclinic'
loop_
_space_group_symop_operation_xyz
x,y,z
-x,-y,-z
loop_
_atom_site_type_symbol
_atom_site_label
_atom_site_fract_x
_atom_site_fract_y
_atom_site_fract_z
Si Si1 0.859877 0.094261 0.714739
Si Si2 0.033190 0.812619 0.586771
Si Si3 0.265437 0.603351 0.989699
Si Si4 0.454669 0.449635 0.310185
Si Si5 0.617704 0.181864 0.400309
Si Si6 0.470356 0.665389 0.267289
Si Si7 0.682208 0.169623 0.032641
Si Si8 0.088702 0.047998 0.824658
O O1 0.034393 0.196154 0.575406
O O2 0.903428 0.009616 0.743575
O O3 0.617447 0.978796 0.644242
O O4 0.887144 0.202168 0.889024
O O5 0.214645 0.800067 0.527690
O O6 0.806463 0.698888 0.698110
O O7 0.163510 0.968038 0.698554
O O8 0.278695 0.587469 0.158265
O O9 0.375964 0.564681 0.817611
O O10 0.393749 0.765034 0.999746
O O11 0.000000 0.500000 0.000000
O O12 0.500000 0.500000 0.500000
O O13 0.488645 0.560248 0.256857
O O14 0.573678 0.276313 0.538170
O O15 0.748799 0.239339 0.222439
O O16 0.699079 0.786116 0.163356
O O17 0.500000 0.000000 0.000000
O O18 0.000000 0.000000 0.000000
#
# Coordination Sequence:
#
# PCOD8028129 Si02
#       8
#     2   2   2   2   2   2   2   2
#     4  11  24  45  76 113 153 194 251 313 386 444
#     4  12  26  45  76 108 153 197 255 314 382 450
#     4  12  30  51  77 109 155 201 255 315 383 453
#     4  12  30  51  77 110 155 206 256 311 384 455
#     4  11  25  45  78 114 151 192 255 311 381 446
#     4  12  28  50  77 109 158 197 258 313 383 458
#     4  10  25  43  77 107 151 189 249 307 377 446
#     4  12  27  44  76 109 149 198 252 319 383 450
#
# _framework density 23.951131
#
# number of rings (size 3 to 8) (size 9 to 14) (size 15 to 20)
#    0.000    0.500    1.250    4.875   19.250    0.500 
#    0.000    0.000    0.000    0.000    0.000    0.000 
#    0.000    0.000    0.000    0.000    0.000    0.000 
#
# Total GULP energy -198361.740406 kJ/mol
# GULP energy per Si atom -12397.608775 kJ/mol
# Density = 2.389662 g / cm^3
# Si number density = 23.951131 Si / 1000 Ang^3
#
#
#
# Elastic Constant Matrix: (Units=GPa)
#
#
# Indices 1 2 3 4 5 6 
#
# 1 144.9871 65.2030 46.1392 -5.2116 -5.7900 -13.2163
# 2 65.2030 121.0830 39.7930 -18.6962 -2.8795 -14.7349
# 3 46.1392 39.7930 156.4384 -7.0615 -9.6882 -5.7278
# 4 -5.2116 -18.6962 -7.0615 34.5462 -5.6408 -0.0081
# 5 -5.7900 -2.8795 -9.6882 -5.6408 50.1133 1.7541
# 6 -13.2163 -14.7349 -5.7278 -0.0081 1.7541 48.0819
#
#
#
# Elastic Compliance Matrix: (Units=1/GPa)
#
#
# Indices 1 2 3 4 5 6 
#
# 1 0.009590 -0.004713 -0.001636 -0.001384 0.000331 0.000985
# 2 -0.004713 0.012451 -0.001400 0.005819 0.000474 0.002337
# 3 -0.001636 -0.001400 0.007336 0.000696 0.001229 -0.000049
# 4 -0.001384 0.005819 0.000696 0.032673 0.003940 0.001348
# 5 0.000331 0.000474 0.001229 0.003940 0.020714 -0.000373
# 6 0.000985 0.002337 -0.000049 0.001348 -0.000373 0.021793
#
#
# Mechanical properties :
#
#
# Convention : Reuss Voigt Hill
#
# Bulk Modulus (GPa) = 72.03824 80.53098 76.28461
# Shear Modulus (GPa) = 40.10236 44.63982 42.37109
#
# Velocity S-wave (km/s) = 4.09631 4.32184 4.21059
# Velocity P-wave (km/s) = 7.24676 7.65510 7.45372
#
# Compressibility (1/GPa) = 0.01388152
#
# Stress axis : x y z
#
# Youngs Moduli (GPa) = 104.27165 80.31618 136.30591
#
# Poissons Ratio (x) = 0.37852 0.22295
# Poissons Ratio (y) = 0.49141 0.19077
# Poissons Ratio (z) = 0.17055 0.11241
#
# Static dielectric constant tensor:
#      x y z
#    x 4.534230 -0.150510 -0.151900 
#    y -0.150510 4.372640 -0.354010 
#    z -0.151900 -0.354010 5.349950 
# 
# 
# High freq. dielectric constant tensor:
#      x y z
#    x 1.954380 -0.013530 -0.002610 
#    y -0.013530 1.942970 -0.011010 
#    z -0.002610 -0.011010 1.972740 
# 
# From -- ./inp_files/208226.got.cif
#   From: 2010.06.25/outbox.cif.g09.slc.cpg/sg2_105_cif.got.tgz:208226.got - 2010.06.27 13:26:56.
