data_PCOD8028544
_publ_section_title
;
Structure prediction by ZEFSAII (Michael W. Deem and Ramdas Pophale) SiO2 
 PCOD8028544
Probable space group: P -1
;
_chemical_formula_sum "Si O2"
_cell_formula_units_Z 16
_cell_length_a 5.144705
_cell_length_b 14.908338
_cell_length_c 9.667832
_cell_angle_alpha 105.857075
_cell_angle_beta 71.078778
_cell_angle_gamma 85.904544
_cell_volume 664.237931
_symmetry_space_group_name_H-M "P -1"
_symmetry_group_IT_number 2
_symmetry_cell_setting 'triclinic'
loop_
_space_group_symop_operation_xyz
x,y,z
-x,-y,-z
loop_
_atom_site_type_symbol
_atom_site_label
_atom_site_fract_x
_atom_site_fract_y
_atom_site_fract_z
Si Si1 0.856781 0.487691 0.334071
Si Si2 0.429345 0.532302 0.179931
Si Si3 0.484095 0.657423 0.590015
Si Si4 0.614765 0.260085 0.651931
Si Si5 0.000782 0.086097 0.435001
Si Si6 0.371305 0.953351 0.767246
Si Si7 0.276008 0.177541 0.893766
Si Si8 0.335576 0.799452 0.913415
O O1 0.695291 0.506067 0.222899
O O2 0.753922 0.573644 0.496095
O O3 0.792396 0.391121 0.371949
O O4 0.185697 0.478391 0.251513
O O5 0.325952 0.645263 0.243971
O O6 0.500000 0.500000 0.000000
O O7 0.467520 0.722454 0.485844
O O8 0.501835 0.723157 0.746925
O O9 0.900027 0.182935 0.578291
O O10 0.363659 0.218410 0.750829
O O11 0.780068 0.082770 0.351236
O O12 0.300666 0.083959 0.317806
O O13 0.000000 0.000000 0.500000
O O14 0.280313 0.905210 0.902303
O O15 0.295786 0.065424 0.836385
O O16 0.482170 0.205195 0.984005
O O17 0.961631 0.226910 0.004513
#
# Coordination Sequence:
#
# PCOD8028544 Si02
#       8
#     2   2   2   2   2   2   2   2
#     4  10  25  47  74 104 143 188 238 293 356 429
#     4  11  26  46  74 108 149 184 232 297 369 428
#     4  10  25  48  77 105 142 191 244 296 351 431
#     4  11  27  47  75 109 143 189 246 295 359 427
#     4  12  25  44  74 106 142 191 242 299 349 420
#     4  12  25  48  72 101 145 193 244 291 359 421
#     4  12  28  46  70 107 147 188 234 303 359 425
#     4  12  27  45  74 103 145 191 240 291 361 428
#
# _framework density 24.087754
#
# number of rings (size 3 to 8) (size 9 to 14) (size 15 to 20)
#    0.000    0.750    2.500    3.000    5.250    7.500 
#    0.000    0.000    0.000    0.000    0.000    0.000 
#    0.000    0.000    0.000    0.000    0.000    0.000 
#
# Total GULP energy -198498.304791 kJ/mol
# GULP energy per Si atom -12406.144049 kJ/mol
# Density = 2.403293 g / cm^3
# Si number density = 24.087754 Si / 1000 Ang^3
#
#
#
# Elastic Constant Matrix: (Units=GPa)
#
#
# Indices 1 2 3 4 5 6 
#
# 1 175.0006 -4.6481 48.0507 -12.6129 -11.5589 2.5278
# 2 -4.6481 110.6134 39.6693 -9.3244 7.1942 8.6547
# 3 48.0507 39.6693 141.1207 -2.5778 -6.2052 0.8340
# 4 -12.6129 -9.3244 -2.5778 41.5050 10.3607 -6.0753
# 5 -11.5589 7.1942 -6.2052 10.3607 38.3183 -6.5940
# 6 2.5278 8.6547 0.8340 -6.0753 -6.5940 21.8531
#
#
#
# Elastic Compliance Matrix: (Units=1/GPa)
#
#
# Indices 1 2 3 4 5 6 
#
# 1 0.006650 0.001351 -0.002574 0.001914 0.000741 -0.000451
# 2 0.001351 0.011329 -0.003736 0.003004 -0.003974 -0.004865
# 3 -0.002574 -0.003736 0.009068 -0.001322 0.002040 0.001679
# 4 0.001914 0.003004 -0.001322 0.027619 -0.006942 0.004223
# 5 0.000741 -0.003974 0.002040 -0.006942 0.030783 0.008769
# 6 -0.000451 -0.004865 0.001679 0.004223 0.008769 0.051495
#
#
# Mechanical properties :
#
#
# Convention : Reuss Voigt Hill
#
# Bulk Modulus (GPa) = 58.37615 65.87539 62.12577
# Shear Modulus (GPa) = 32.77142 43.24611 38.00877
#
# Velocity S-wave (km/s) = 3.69250 4.24176 3.97662
# Velocity P-wave (km/s) = 6.51665 7.16921 6.85070
#
# Compressibility (1/GPa) = 0.01713028
#
# Stress axis : x y z
#
# Youngs Moduli (GPa) = 150.37048 88.26669 110.27419
#
# Poissons Ratio (x) = -0.11924 0.28384
# Poissons Ratio (y) = -0.20314 0.41196
# Poissons Ratio (z) = 0.38704 0.32975
#
# Static dielectric constant tensor:
#      x y z
#    x 4.749700 -0.086670 -0.411510 
#    y -0.086670 4.693210 0.110210 
#    z -0.411510 0.110210 4.695670 
# 
# 
# High freq. dielectric constant tensor:
#      x y z
#    x 1.951270 0.006110 -0.002130 
#    y 0.006110 1.970850 -0.003670 
#    z -0.002130 -0.003670 1.971270 
# 
# From -- ./inp_files/135463.got.cif
#   From: 2010.06.25/outbox.cif.g09.slc.cpg/sg2_68_cif.got.tgz:135463.got - 2010.06.27 13:26:56.
