data_PCOD8028519
_publ_section_title
;
Structure prediction by ZEFSAII (Michael W. Deem and Ramdas Pophale) SiO2 
 PCOD8028519
Probable space group: P -1
;
_chemical_formula_sum "Si O2"
_cell_formula_units_Z 16
_cell_length_a 5.498617
_cell_length_b 15.151754
_cell_length_c 9.242770
_cell_angle_alpha 110.154587
_cell_angle_beta 75.275037
_cell_angle_gamma 98.139210
_cell_volume 697.916721
_symmetry_space_group_name_H-M "P -1"
_symmetry_group_IT_number 2
_symmetry_cell_setting 'triclinic'
loop_
_space_group_symop_operation_xyz
x,y,z
-x,-y,-z
loop_
_atom_site_type_symbol
_atom_site_label
_atom_site_fract_x
_atom_site_fract_y
_atom_site_fract_z
Si Si1 0.633116 0.461441 0.593993
Si Si2 0.022517 0.359345 0.323163
Si Si3 0.604391 0.101696 0.201540
Si Si4 0.489601 0.399601 0.869923
Si Si5 0.809111 0.229542 0.734309
Si Si6 0.532351 0.883666 0.086293
Si Si7 0.926985 0.815272 0.627813
Si Si8 0.091281 0.255931 0.988599
O O1 0.500000 0.500000 0.500000
O O2 0.815212 0.544517 0.682001
O O3 0.435757 0.420926 0.720802
O O4 0.784104 0.374806 0.467593
O O5 0.178472 0.285936 0.351126
O O6 0.925106 0.312031 0.160070
O O7 0.831979 0.148402 0.289356
O O8 0.317902 0.122823 0.306432
O O9 0.624521 0.990859 0.155580
O O10 0.643425 0.128889 0.040035
O O11 0.743231 0.339837 0.799275
O O12 0.276012 0.336731 0.939955
O O13 0.500000 0.500000 0.000000
O O14 0.569145 0.157478 0.765564
O O15 0.968095 0.195606 0.556740
O O16 0.947757 0.208909 0.850881
O O17 0.774313 0.823260 0.983699
#
# Coordination Sequence:
#
# PCOD8028519 Si02
#       8
#     2   2   2   2   2   2   2   2
#     4  11  26  41  67  94 139 181 237 295 345 424
#     4  11  24  43  64 101 133 183 238 285 354 414
#     4  11  27  47  78 104 144 187 240 293 354 428
#     4  11  24  44  62 100 135 182 235 287 357 411
#     4  11  27  43  70 100 145 184 234 297 354 428
#     4  10  25  47  71 105 139 184 239 289 355 425
#     4  12  27  46  74 107 144 189 233 296 358 420
#     4  11  24  43  70  96 139 184 234 290 352 424
#
# _framework density 22.925370999999998
#
# number of rings (size 3 to 8) (size 9 to 14) (size 15 to 20)
#    0.000    1.000    3.750    0.750   10.500    2.500 
#    0.000    0.000    0.000    0.000    0.000    0.000 
#    0.000    0.000    0.000    0.000    0.000    0.000 
#
# Total GULP energy -198223.166668 kJ/mol
# GULP energy per Si atom -12388.947917 kJ/mol
# Density = 2.287319 g / cm^3
# Si number density = 22.925371 Si / 1000 Ang^3
#
#
#
# Elastic Constant Matrix: (Units=GPa)
#
#
# Indices 1 2 3 4 5 6 
#
# 1 69.1761 24.1216 29.8186 2.7787 2.5370 -5.1575
# 2 24.1216 128.3365 56.2198 3.1940 -10.0848 -25.5829
# 3 29.8186 56.2198 154.9239 -4.2740 -9.9234 -6.6957
# 4 2.7787 3.1940 -4.2740 25.8940 -3.4464 8.0111
# 5 2.5370 -10.0848 -9.9234 -3.4464 34.6292 -3.3199
# 6 -5.1575 -25.5829 -6.6957 8.0111 -3.3199 15.1027
#
#
#
# Elastic Compliance Matrix: (Units=1/GPa)
#
#
# Indices 1 2 3 4 5 6 
#
# 1 0.016618 -0.001254 -0.002837 -0.003544 -0.002399 0.003645
# 2 -0.001254 0.018355 -0.004788 -0.013568 0.006273 0.037116
# 3 -0.002837 -0.004788 0.008609 0.004799 0.001031 -0.007581
# 4 -0.003544 -0.013568 0.004799 0.057644 -0.001662 -0.053008
# 5 -0.002399 0.006273 0.001031 -0.001662 0.032769 0.018349
# 6 0.003645 0.037116 -0.007581 -0.053008 0.018349 0.159121
#
#
# Mechanical properties :
#
#
# Convention : Reuss Voigt Hill
#
# Bulk Modulus (GPa) = 38.72426 63.63960 51.18193
# Shear Modulus (GPa) = 15.65033 31.27694 23.46364
#
# Velocity S-wave (km/s) = 2.61562 3.69764 3.20266
# Velocity P-wave (km/s) = 5.10393 6.78600 6.00416
#
# Compressibility (1/GPa) = 0.02582360
#
# Stress axis : x y z
#
# Youngs Moduli (GPa) = 60.17437 54.48255 116.15694
#
# Poissons Ratio (x) = 0.06834 0.32957
# Poissons Ratio (y) = 0.07548 0.55610
# Poissons Ratio (z) = 0.17073 0.26084
#
# Static dielectric constant tensor:
#      x y z
#    x 3.911720 0.133220 -0.117360 
#    y 0.133220 4.357480 -0.101390 
#    z -0.117360 -0.101390 4.306330 
# 
# 
# High freq. dielectric constant tensor:
#      x y z
#    x 1.882500 -0.005370 -0.012480 
#    y -0.005370 1.924680 -0.007090 
#    z -0.012480 -0.007090 1.923030 
# 
# From -- ./inp_files/37332.got.cif
#   From: 2010.06.25/outbox.cif.g09.slc.cpg/sg2_19_cif.got.tgz:37332.got - 2010.06.27 13:26:56.
