data_PCOD8028468
_publ_section_title
;
Structure prediction by ZEFSAII (Michael W. Deem and Ramdas Pophale) SiO2 
 PCOD8028468
Probable space group: P -1
;
_chemical_formula_sum "Si O2"
_cell_formula_units_Z 16
_cell_length_a 6.258470
_cell_length_b 19.727799
_cell_length_c 9.531347
_cell_angle_alpha 53.016049
_cell_angle_beta 51.129870
_cell_angle_gamma 57.102934
_cell_volume 705.457501
_symmetry_space_group_name_H-M "P -1"
_symmetry_group_IT_number 2
_symmetry_cell_setting 'triclinic'
loop_
_space_group_symop_operation_xyz
x,y,z
-x,-y,-z
loop_
_atom_site_type_symbol
_atom_site_label
_atom_site_fract_x
_atom_site_fract_y
_atom_site_fract_z
Si Si1 0.759846 0.039942 0.321472
Si Si2 0.862088 0.391480 0.793619
Si Si3 0.840561 0.460802 0.421055
Si Si4 0.586200 0.085542 0.045837
Si Si5 0.404458 0.795755 0.632303
Si Si6 0.265652 0.363138 0.144670
Si Si7 0.876094 0.737034 0.927514
Si Si8 0.329870 0.927417 0.272446
O O1 0.817645 0.049093 0.118912
O O2 0.721106 0.137121 0.274726
O O3 0.500000 0.000000 0.500000
O O4 0.002987 0.971393 0.392771
O O5 0.883047 0.387449 0.619734
O O6 0.985680 0.470260 0.695157
O O7 0.534574 0.405479 0.966113
O O8 0.060236 0.301545 0.891982
O O9 0.500000 0.500000 0.500000
O O10 0.980619 0.424940 0.257238
O O11 0.358223 0.170308 0.095125
O O12 0.471365 0.006420 0.133695
O O13 0.700027 0.113822 0.817890
O O14 0.667622 0.721457 0.675563
O O15 0.497841 0.848429 0.400742
O O16 0.163753 0.752712 0.726571
O O17 0.203341 0.335894 0.047241
#
# Coordination Sequence:
#
# PCOD8028468 Si02
#       8
#     2   2   2   2   2   2   2   2
#     4  12  21  39  62  86 125 176 228 269 325 387
#     4  10  25  46  73 103 139 175 220 279 334 414
#     4  11  25  48  76 105 135 175 222 274 341 416
#     4  11  23  40  62  91 132 175 222 279 330 382
#     4  11  23  40  61  94 129 176 226 275 329 398
#     4  11  25  45  70 103 138 181 222 276 344 405
#     4  11  23  43  65  98 135 173 220 280 335 393
#     4  11  24  39  61  93 129 176 229 276 326 384
#
# _framework density 22.680316999999999
#
# number of rings (size 3 to 8) (size 9 to 14) (size 15 to 20)
#    0.000    1.000    3.750    2.625    1.750    6.000 
#    2.250    0.000    0.000    0.000    0.000    0.000 
#    0.000    0.000    0.000    0.000    0.000    0.000 
#
# Total GULP energy -198216.128551 kJ/mol
# GULP energy per Si atom -12388.508034 kJ/mol
# Density = 2.262870 g / cm^3
# Si number density = 22.680317 Si / 1000 Ang^3
#
#
#
# Elastic Constant Matrix: (Units=GPa)
#
#
# Indices 1 2 3 4 5 6 
#
# 1 97.7837 19.7997 32.6714 0.7454 3.5466 8.9950
# 2 19.7997 43.1295 33.5586 0.7113 -1.1465 12.0169
# 3 32.6714 33.5586 103.4431 3.0575 16.2491 7.3062
# 4 0.7454 0.7113 3.0575 30.1136 2.7037 8.0436
# 5 3.5466 -1.1465 16.2491 2.7037 45.8163 1.3177
# 6 8.9950 12.0169 7.3062 8.0436 1.3177 33.4084
#
#
#
# Elastic Compliance Matrix: (Units=1/GPa)
#
#
# Indices 1 2 3 4 5 6 
#
# 1 0.011866 -0.002879 -0.002708 0.000501 -0.000011 -0.001687
# 2 -0.002879 0.036077 -0.010930 0.002716 0.005149 -0.010668
# 3 -0.002708 -0.010930 0.014800 -0.001216 -0.005296 0.001926
# 4 0.000501 0.002716 -0.001216 0.035899 -0.001387 -0.009434
# 5 -0.000011 0.005149 -0.005296 -0.001387 0.023954 -0.001302
# 6 -0.001687 -0.010668 0.001926 -0.009434 -0.001302 0.036126
#
#
# Mechanical properties :
#
#
# Convention : Reuss Voigt Hill
#
# Bulk Modulus (GPa) = 33.65935 46.26841 39.96388
# Shear Modulus (GPa) = 24.79438 32.42278 28.60858
#
# Velocity S-wave (km/s) = 3.30996 3.78505 3.55545
# Velocity P-wave (km/s) = 5.42962 6.28861 5.87484
#
# Compressibility (1/GPa) = 0.02970943
#
# Stress axis : x y z
#
# Youngs Moduli (GPa) = 84.27374 27.71859 67.56698
#
# Poissons Ratio (x) = 0.07981 0.18294
# Poissons Ratio (y) = 0.24264 0.73851
# Poissons Ratio (z) = 0.22818 0.30297
#
# Static dielectric constant tensor:
#      x y z
#    x 4.352370 0.077010 0.319850 
#    y 0.077010 3.926850 -0.056310 
#    z 0.319850 -0.056310 4.381340 
# 
# 
# High freq. dielectric constant tensor:
#      x y z
#    x 1.907580 0.005740 0.017150 
#    y 0.005740 1.877760 -0.007290 
#    z 0.017150 -0.007290 1.900690 
# 
# From -- ./inp_files/107481.got.cif
#   From: 2010.06.25/outbox.cif.g09.slc.cpg/sg2_54_cif.got.tgz:107481.got - 2010.06.27 13:26:56.
