data_PCOD8028074
_publ_section_title
;
Structure prediction by ZEFSAII (Michael W. Deem and Ramdas Pophale) SiO2 
 PCOD8028074
Probable space group: P -1
;
_chemical_formula_sum "Si O2"
_cell_formula_units_Z 14
_cell_length_a 18.300780
_cell_length_b 8.576173
_cell_length_c 11.754793
_cell_angle_alpha 126.098543
_cell_angle_beta 28.340135
_cell_angle_gamma 136.764247
_cell_volume 592.186000
_symmetry_space_group_name_H-M "P -1"
_symmetry_group_IT_number 2
_symmetry_cell_setting 'triclinic'
loop_
_space_group_symop_operation_xyz
x,y,z
-x,-y,-z
loop_
_atom_site_type_symbol
_atom_site_label
_atom_site_fract_x
_atom_site_fract_y
_atom_site_fract_z
Si Si1 0.195528 0.952241 0.131921
Si Si2 0.779020 0.657863 0.604610
Si Si3 0.416528 0.860400 0.938281
Si Si4 0.075912 0.026051 0.782584
Si Si5 0.435499 0.442667 0.369085
Si Si6 0.269490 0.809282 0.500222
Si Si7 0.281230 0.040532 0.810670
O O1 0.262507 0.212851 0.186293
O O2 0.308181 0.968301 0.868856
O O3 0.979450 0.816596 0.342791
O O4 0.221943 0.820365 0.146969
O O5 0.625230 0.589177 0.691347
O O6 0.769019 0.439078 0.576980
O O7 0.417835 0.630006 0.844915
O O8 0.526551 0.008498 0.740989
O O9 0.500000 0.000000 0.000000
O O10 0.253729 0.286815 0.629257
O O11 0.138310 0.845531 0.611179
O O12 0.000000 0.000000 0.000000
O O13 0.901224 0.953846 0.912786
O O14 0.544525 0.714042 0.366005
O O15 0.245741 0.849311 0.683757
#
# Coordination Sequence:
#
# PCOD8028074 Si02
#       7
#     2   2   2   2   2   2   2
#     4  11  25  44  70  99 137 177 231 273 349 391
#     4  11  24  44  67 102 134 180 224 286 328 410
#     4  11  24  43  66 101 133 178 224 278 335 407
#     4   9  21  44  63 101 142 174 217 280 337 400
#     4  11  23  42  72  98 139 173 229 278 332 404
#     4  10  25  43  67 100 139 170 233 276 335 404
#     4  11  24  45  71 103 132 185 222 280 340 400
#
# _framework density 23.641221000000002
#
# number of rings (size 3 to 8) (size 9 to 14) (size 15 to 20)
#    0.000    1.429    2.857    0.857    4.000    9.143 
#    2.571    1.429    0.000    0.000    0.000    0.000 
#    0.000    0.000    0.000    0.000    0.000    0.000 
#
# Total GULP energy -173477.389522 kJ/mol
# GULP energy per Si atom -12391.242109 kJ/mol
# Density = 2.358741 g / cm^3
# Si number density = 23.641221 Si / 1000 Ang^3
#
#
#
# Elastic Constant Matrix: (Units=GPa)
#
#
# Indices 1 2 3 4 5 6 
#
# 1 103.0740 14.3766 23.6776 3.5245 -12.0289 -2.6589
# 2 14.3766 58.1743 5.9370 -0.8726 -25.4370 -7.3018
# 3 23.6776 5.9370 63.5611 -3.0075 -8.9233 -2.0121
# 4 3.5245 -0.8726 -3.0075 26.0003 -2.0023 1.7667
# 5 -12.0289 -25.4370 -8.9233 -2.0023 37.0745 2.2896
# 6 -2.6589 -7.3018 -2.0121 1.7667 2.2896 29.3671
#
#
#
# Elastic Compliance Matrix: (Units=1/GPa)
#
#
# Indices 1 2 3 4 5 6 
#
# 1 0.011060 -0.001742 -0.003850 -0.001921 0.001343 0.000315
# 2 -0.001742 0.025621 0.000906 0.002187 0.017052 0.004814
# 3 -0.003850 0.000906 0.017766 0.002854 0.003764 0.000629
# 4 -0.001921 0.002187 0.002854 0.039564 0.003831 -0.002113
# 5 0.001343 0.017052 0.003764 0.003831 0.040143 0.001259
# 6 0.000315 0.004814 0.000629 -0.002113 0.001259 0.035349
#
#
# Mechanical properties :
#
#
# Convention : Reuss Voigt Hill
#
# Bulk Modulus (GPa) = 22.18563 34.75464 28.47013
# Shear Modulus (GPa) = 25.78658 30.54291 28.16475
#
# Velocity S-wave (km/s) = 3.30623 3.59825 3.45532
# Velocity P-wave (km/s) = 4.89689 5.65650 5.29035
#
# Compressibility (1/GPa) = 0.04507423
#
# Stress axis : x y z
#
# Youngs Moduli (GPa) = 90.41888 39.03045 56.28836
#
# Poissons Ratio (x) = 0.06800 0.21668
# Poissons Ratio (y) = 0.15753 -0.05098
# Poissons Ratio (z) = 0.34807 -0.03535
#
# Static dielectric constant tensor:
#      x y z
#    x 5.225470 -0.292870 -1.116880 
#    y -0.292870 4.043880 0.113940 
#    z -1.116880 0.113940 5.091660 
# 
# 
# High freq. dielectric constant tensor:
#      x y z
#    x 1.955880 -0.011110 -0.014080 
#    y -0.011110 1.909670 -0.001900 
#    z -0.014080 -0.001900 1.940180 
# 
# From -- ./inp_files/403602.got.cif
#   From: 2010.06.25/outbox.cif.g09.slc.cpg/sg2_202_cif.got.tgz:403602.got - 2010.06.27 13:26:56.
