data_PCOD8028518
_publ_section_title
;
Structure prediction by ZEFSAII (Michael W. Deem and Ramdas Pophale) SiO2 
 PCOD8028518
Probable space group: P -1
;
_chemical_formula_sum "Si O2"
_cell_formula_units_Z 14
_cell_length_a 11.138673
_cell_length_b 9.173126
_cell_length_c 13.800888
_cell_angle_alpha 52.823659
_cell_angle_beta 34.351329
_cell_angle_gamma 67.758024
_cell_volume 610.844979
_symmetry_space_group_name_H-M "P -1"
_symmetry_group_IT_number 2
_symmetry_cell_setting 'triclinic'
loop_
_space_group_symop_operation_xyz
x,y,z
-x,-y,-z
loop_
_atom_site_type_symbol
_atom_site_label
_atom_site_fract_x
_atom_site_fract_y
_atom_site_fract_z
Si Si1 0.474750 0.793266 0.642239
Si Si2 0.297296 0.820476 0.214650
Si Si3 0.248112 0.782039 0.484100
Si Si4 0.279538 0.537966 0.169545
Si Si5 0.605314 0.700883 0.393193
Si Si6 0.045927 0.624832 0.114034
Si Si7 0.142057 0.138704 0.487957
O O1 0.546413 0.675920 0.555750
O O2 0.643099 0.799118 0.614467
O O3 0.500000 0.000000 0.500000
O O4 0.222069 0.694297 0.882111
O O5 0.288375 0.741809 0.361945
O O6 0.318504 0.648186 0.201177
O O7 0.092363 0.904147 0.283730
O O8 0.500000 0.000000 0.000000
O O9 0.483967 0.841050 0.362263
O O10 0.083299 0.598768 0.719700
O O11 0.149309 0.963599 0.484480
O O12 0.179015 0.659836 0.112349
O O13 0.119479 0.325046 0.368693
O O14 0.500000 0.500000 0.000000
O O15 0.500000 0.500000 0.500000
O O16 0.870981 0.753685 0.178637
#
# Coordination Sequence:
#
# PCOD8028518 Si02
#       7
#     2   2   2   2   2   2   2
#     4  12  26  47  73 107 140 192 243 297 366 427
#     4  12  28  42  72 110 144 191 241 298 368 429
#     4  11  25  48  69 106 147 192 239 303 362 431
#     4  12  25  45  74 106 144 190 239 298 367 433
#     4  10  25  47  71 104 146 186 247 296 355 433
#     4  11  26  46  79 101 147 194 243 298 367 426
#     4  12  25  46  72 102 149 183 244 298 361 432
#
# _framework density 22.919070999999999
#
# number of rings (size 3 to 8) (size 9 to 14) (size 15 to 20)
#    0.000    0.571    4.286    2.571    6.000    4.000 
#    0.000    0.000    0.000    0.000    0.000    0.000 
#    0.000    0.000    0.000    0.000    0.000    0.000 
#
# Total GULP energy -173524.889410 kJ/mol
# GULP energy per Si atom -12394.634958 kJ/mol
# Density = 2.286691 g / cm^3
# Si number density = 22.919071 Si / 1000 Ang^3
#
#
#
# Elastic Constant Matrix: (Units=GPa)
#
#
# Indices 1 2 3 4 5 6 
#
# 1 93.9817 34.1595 47.3945 23.2555 -4.9138 -6.9730
# 2 34.1595 139.7537 64.9653 16.4199 3.7080 12.7210
# 3 47.3945 64.9653 160.3094 19.6796 -16.8852 -3.4000
# 4 23.2555 16.4199 19.6796 51.0161 -6.6322 0.0534
# 5 -4.9138 3.7080 -16.8852 -6.6322 33.4974 11.6461
# 6 -6.9730 12.7210 -3.4000 0.0534 11.6461 45.4653
#
#
#
# Elastic Compliance Matrix: (Units=1/GPa)
#
#
# Indices 1 2 3 4 5 6 
#
# 1 0.014098 -0.001728 -0.002929 -0.004891 -0.001132 0.002722
# 2 -0.001728 0.009693 -0.003577 -0.001271 -0.002474 -0.002609
# 3 -0.002929 -0.003577 0.009075 -0.000440 0.004419 0.000099
# 4 -0.004891 -0.001271 -0.000440 0.022969 0.004289 -0.001553
# 5 -0.001132 -0.002474 0.004419 0.004289 0.035946 -0.008364
# 6 0.002722 -0.002609 0.000099 -0.001553 -0.008364 0.025294
#
#
# Mechanical properties :
#
#
# Convention : Reuss Voigt Hill
#
# Bulk Modulus (GPa) = 60.97985 76.34259 68.66122
# Shear Modulus (GPa) = 35.96872 42.49747 39.23309
#
# Velocity S-wave (km/s) = 3.96584 4.31076 4.14189
# Velocity P-wave (km/s) = 6.90180 7.62619 7.27302
#
# Compressibility (1/GPa) = 0.01639886
#
# Stress axis : x y z
#
# Youngs Moduli (GPa) = 70.92993 103.16577 110.19059
#
# Poissons Ratio (x) = 0.17822 0.32276
# Poissons Ratio (y) = 0.12253 0.39418
# Poissons Ratio (z) = 0.20776 0.36905
#
# Static dielectric constant tensor:
#      x y z
#    x 3.986590 -0.617220 -0.892790 
#    y -0.617220 4.605000 0.446020 
#    z -0.892790 0.446020 4.169140 
# 
# 
# High freq. dielectric constant tensor:
#      x y z
#    x 1.918660 -0.004640 -0.017910 
#    y -0.004640 1.909810 0.012050 
#    z -0.017910 0.012050 1.906500 
# 
# From -- ./inp_files/514983.got.cif
#   From: 2010.06.25/outbox.cif.g09.slc.cpg/sg2_258_cif.got.tgz:514983.got - 2010.06.27 13:26:56.
