data_PCOD8028773
_publ_section_title
;
Structure prediction by ZEFSAII (Michael W. Deem and Ramdas Pophale) SiO2 
 PCOD8028773
Probable space group: P -1
;
_chemical_formula_sum "Si O2"
_cell_formula_units_Z 16
_cell_length_a 5.177701
_cell_length_b 12.016989
_cell_length_c 13.576702
_cell_angle_alpha 55.364055
_cell_angle_beta 91.032134
_cell_angle_gamma 89.924694
_cell_volume 694.860026
_symmetry_space_group_name_H-M "P -1"
_symmetry_group_IT_number 2
_symmetry_cell_setting 'triclinic'
loop_
_space_group_symop_operation_xyz
x,y,z
-x,-y,-z
loop_
_atom_site_type_symbol
_atom_site_label
_atom_site_fract_x
_atom_site_fract_y
_atom_site_fract_z
Si Si1 0.342723 0.807313 0.348850
Si Si2 0.722837 0.889450 0.817215
Si Si3 0.537774 0.553425 0.162525
Si Si4 0.341726 0.695985 0.827076
Si Si5 0.141586 0.277934 0.494005
Si Si6 0.637118 0.453994 0.623263
Si Si7 0.954677 0.324341 0.985908
Si Si8 0.039791 0.137852 0.376119
O O1 0.622128 0.779192 0.411048
O O2 0.278004 0.702859 0.311732
O O3 0.121781 0.790086 0.437806
O O4 0.347337 0.958057 0.226891
O O5 0.491267 0.781115 0.870360
O O6 0.787796 0.893746 0.700481
O O7 0.948721 0.832842 0.919680
O O8 0.479176 0.417080 0.168112
O O9 0.551918 0.528013 0.292808
O O10 0.301650 0.659766 0.090944
O O11 0.818010 0.596898 0.105939
O O12 0.231236 0.794606 0.692464
O O13 0.113688 0.626768 0.926366
O O14 0.124017 0.442311 0.415112
O O15 0.185739 0.238910 0.400053
O O16 0.500000 0.500000 0.500000
O O17 0.000000 0.000000 0.500000
#
# Coordination Sequence:
#
# PCOD8028773 Si02
#       8
#     2   2   2   2   2   2   2   2
#     4  11  25  44  68  95 138 184 224 280 337 399
#     4  11  24  42  68  99 143 182 225 281 342 409
#     4  12  26  44  73 100 136 179 228 285 345 394
#     4  11  25  41  71 102 141 181 226 282 342 413
#     4  11  24  42  67  99 140 179 225 277 340 408
#     4  10  26  47  72 103 135 178 232 283 336 406
#     4  11  26  45  69 103 136 177 230 286 340 406
#     4  11  23  37  64 105 144 178 222 271 347 417
#
# _framework density 23.026222000000001
#
# number of rings (size 3 to 8) (size 9 to 14) (size 15 to 20)
#    0.000    1.000    2.500    2.625   12.250    3.000 
#    0.000    1.250    0.000    0.000    0.000    0.000 
#    0.000    0.000    0.000    0.000    0.000    0.000 
#
# Total GULP energy -198272.924471 kJ/mol
# GULP energy per Si atom -12392.057779 kJ/mol
# Density = 2.297381 g / cm^3
# Si number density = 23.026222 Si / 1000 Ang^3
#
#
#
# Elastic Constant Matrix: (Units=GPa)
#
#
# Indices 1 2 3 4 5 6 
#
# 1 101.3743 26.9283 41.5300 -5.0605 -0.5262 -4.9866
# 2 26.9283 147.8961 38.6819 -11.5903 2.0827 -6.5598
# 3 41.5300 38.6819 121.3445 0.8032 -4.0720 -6.6309
# 4 -5.0605 -11.5903 0.8032 24.0623 -0.2339 2.3185
# 5 -0.5262 2.0827 -4.0720 -0.2339 36.2959 -5.6888
# 6 -4.9866 -6.5598 -6.6309 2.3185 -5.6888 26.4783
#
#
#
# Elastic Compliance Matrix: (Units=1/GPa)
#
#
# Indices 1 2 3 4 5 6 
#
# 1 0.011780 -0.000982 -0.003686 0.002044 -0.000038 0.000865
# 2 -0.000982 0.007826 -0.002158 0.003554 -0.000560 0.000782
# 3 -0.003686 -0.002158 0.010360 -0.002329 0.001515 0.001895
# 4 0.002044 0.003554 -0.002329 0.044092 -0.000672 -0.003323
# 5 -0.000038 -0.000560 0.001515 -0.000672 0.028763 0.006472
# 6 0.000865 0.000782 0.001895 -0.003323 0.006472 0.040279
#
#
# Mechanical properties :
#
#
# Convention : Reuss Voigt Hill
#
# Bulk Modulus (GPa) = 61.29827 64.98837 63.14332
# Shear Modulus (GPa) = 30.82795 34.93228 32.88012
#
# Velocity S-wave (km/s) = 3.66296 3.89918 3.78291
# Velocity P-wave (km/s) = 6.67597 6.96824 6.82367
#
# Compressibility (1/GPa) = 0.01631367
#
# Stress axis : x y z
#
# Youngs Moduli (GPa) = 84.89190 127.78156 96.52116
#
# Poissons Ratio (x) = 0.12543 0.35580
# Poissons Ratio (y) = 0.08333 0.20833
# Poissons Ratio (z) = 0.31293 0.27580
#
# Static dielectric constant tensor:
#      x y z
#    x 4.541960 0.093330 -0.334840 
#    y 0.093330 4.710290 -0.174120 
#    z -0.334840 -0.174120 4.419340 
# 
# 
# High freq. dielectric constant tensor:
#      x y z
#    x 1.906720 -0.003490 -0.005290 
#    y -0.003490 1.894880 -0.015350 
#    z -0.005290 -0.015350 1.915010 
# 
# From -- ./inp_files/363934.got.cif
#   From: 2010.06.25/outbox.cif.g09.slc.cpg/sg2_182_cif.got.tgz:363934.got - 2010.06.27 13:26:56.
