data_PCOD8028491
_publ_section_title
;
Structure prediction by ZEFSAII (Michael W. Deem and Ramdas Pophale) SiO2 
 PCOD8028491
Probable space group: P -1
;
_chemical_formula_sum "Si O2"
_cell_formula_units_Z 16
_cell_length_a 14.892181
_cell_length_b 16.100612
_cell_length_c 8.519329
_cell_angle_alpha 133.507164
_cell_angle_beta 129.024534
_cell_angle_gamma 28.130222
_cell_volume 697.000123
_symmetry_space_group_name_H-M "P -1"
_symmetry_group_IT_number 2
_symmetry_cell_setting 'triclinic'
loop_
_space_group_symop_operation_xyz
x,y,z
-x,-y,-z
loop_
_atom_site_type_symbol
_atom_site_label
_atom_site_fract_x
_atom_site_fract_y
_atom_site_fract_z
Si Si1 0.895928 0.133414 0.209512
Si Si2 0.824928 0.852200 0.111473
Si Si3 0.998380 0.271157 0.350503
Si Si4 0.086740 0.795140 0.146185
Si Si5 0.737784 0.677371 0.683659
Si Si6 0.474751 0.445839 0.246309
Si Si7 0.341667 0.067642 0.640503
Si Si8 0.570101 0.759481 0.934530
O O1 0.928251 0.244286 0.381642
O O2 0.670261 0.285608 0.155497
O O3 0.992657 0.996524 0.290279
O O4 0.000000 0.000000 0.000000
O O5 0.799948 0.845277 0.257247
O O6 0.009090 0.786944 0.201305
O O7 0.838967 0.721309 0.862100
O O8 0.647957 0.064482 0.129223
O O9 0.876345 0.483288 0.491788
O O10 0.224279 0.121510 0.427150
O O11 0.973212 0.230577 0.104426
O O12 0.314288 0.630822 0.200081
O O13 0.538739 0.843111 0.584346
O O14 0.702569 0.658153 0.794780
O O15 0.500000 0.500000 0.500000
O O16 0.396066 0.382212 0.116327
O O17 0.381196 0.171917 0.810306
#
# Coordination Sequence:
#
# PCOD8028491 Si02
#       8
#     2   2   2   2   2   2   2   2
#     4  10  25  47  65  89 134 179 214 262 333 388
#     4   9  19  40  65  92 133 167 209 263 324 379
#     4  11  24  40  65  94 126 171 218 253 330 390
#     4  11  26  43  64  94 133 172 214 272 323 384
#     4   9  20  38  63  98 128 166 212 262 315 390
#     4  12  26  42  69 100 127 169 227 278 318 380
#     4   9  21  39  67  95 129 171 204 266 327 389
#     4   9  19  41  65  96 132 163 211 268 327 378
#
# _framework density 22.95552
#
# number of rings (size 3 to 8) (size 9 to 14) (size 15 to 20)
#    0.000    2.000    1.250    2.250    5.250    9.000 
#    0.000    1.250    0.000    0.000    0.000    0.000 
#    0.000    0.000    0.000    0.000    0.000    0.000 
#
# Total GULP energy -198391.651360 kJ/mol
# GULP energy per Si atom -12399.478210 kJ/mol
# Density = 2.290327 g / cm^3
# Si number density = 22.955520 Si / 1000 Ang^3
#
#
#
# Elastic Constant Matrix: (Units=GPa)
#
#
# Indices 1 2 3 4 5 6 
#
# 1 88.2709 25.6274 -2.7221 3.5085 16.7423 -1.9308
# 2 25.6274 125.5729 26.0047 -7.9531 14.8549 -10.0896
# 3 -2.7221 26.0047 60.7699 -14.6791 6.5510 2.7679
# 4 3.5085 -7.9531 -14.6791 39.5527 -2.1765 9.2330
# 5 16.7423 14.8549 6.5510 -2.1765 23.6201 6.8609
# 6 -1.9308 -10.0896 2.7679 9.2330 6.8609 32.3693
#
#
#
# Elastic Compliance Matrix: (Units=1/GPa)
#
#
# Indices 1 2 3 4 5 6 
#
# 1 0.014058 -0.001956 0.001924 -0.002161 -0.010299 0.002864
# 2 -0.001956 0.010214 -0.004291 -0.000773 -0.005307 0.004779
# 3 0.001924 -0.004291 0.020679 0.007600 -0.002347 -0.004661
# 4 -0.002161 -0.000773 0.007600 0.031075 0.006015 -0.011158
# 5 -0.010299 -0.005307 -0.002347 0.006015 0.058905 -0.016269
# 6 0.002864 0.004779 -0.004661 -0.011158 -0.016269 0.039584
#
#
# Mechanical properties :
#
#
# Convention : Reuss Voigt Hill
#
# Bulk Modulus (GPa) = 27.54335 41.38154 34.46245
# Shear Modulus (GPa) = 25.60671 34.15534 29.88103
#
# Velocity S-wave (km/s) = 3.34352 3.86151 3.61181
# Velocity P-wave (km/s) = 5.18943 6.16016 5.69551
#
# Compressibility (1/GPa) = 0.03630641
#
# Stress axis : x y z
#
# Youngs Moduli (GPa) = 71.13423 97.90426 48.35850
#
# Poissons Ratio (x) = 0.19150 -0.09306
# Poissons Ratio (y) = 0.13914 0.20749
# Poissons Ratio (z) = -0.13689 0.42008
#
# Static dielectric constant tensor:
#      x y z
#    x 4.322740 0.182500 0.300940 
#    y 0.182500 4.284860 0.142810 
#    z 0.300940 0.142810 3.869750 
# 
# 
# High freq. dielectric constant tensor:
#      x y z
#    x 1.905240 0.002370 0.015940 
#    y 0.002370 1.914190 0.005350 
#    z 0.015940 0.005350 1.891140 
# 
# From -- ./inp_files/315887.got.cif
#   From: 2010.06.25/outbox.cif.g09.slc.cpg/sg2_158_cif.got.tgz:315887.got - 2010.06.27 13:26:56.
