data_PCOD8028817
_publ_section_title
;
Structure prediction by ZEFSAII (Michael W. Deem and Ramdas Pophale) SiO2 
 PCOD8028817
Probable space group: P -1
;
_chemical_formula_sum "Si O2"
_cell_formula_units_Z 16
_cell_length_a 21.946592
_cell_length_b 17.995882
_cell_length_c 12.510685
_cell_angle_alpha 35.598087
_cell_angle_beta 25.803406
_cell_angle_gamma 18.284178
_cell_volume 642.504992
_symmetry_space_group_name_H-M "P -1"
_symmetry_group_IT_number 2
_symmetry_cell_setting 'triclinic'
loop_
_space_group_symop_operation_xyz
x,y,z
-x,-y,-z
loop_
_atom_site_type_symbol
_atom_site_label
_atom_site_fract_x
_atom_site_fract_y
_atom_site_fract_z
Si Si1 0.391577 0.138097 0.277090
Si Si2 0.565540 0.616644 0.143225
Si Si3 0.321820 0.746163 0.934198
Si Si4 0.054458 0.316271 0.985794
Si Si5 0.321745 0.585498 0.426772
Si Si6 0.901899 0.947609 0.481890
Si Si7 0.175363 0.120341 0.807834
Si Si8 0.197373 0.238289 0.238616
O O1 0.253355 0.188124 0.542318
O O2 0.210214 0.231751 0.354592
O O3 0.393564 0.290243 0.103268
O O4 0.712314 0.842763 0.105847
O O5 0.389596 0.647911 0.325102
O O6 0.408055 0.779759 0.311571
O O7 0.858079 0.332575 0.044677
O O8 0.003978 0.963720 0.208078
O O9 0.500000 0.500000 0.000000
O O10 0.402571 0.676063 0.763891
O O11 0.371589 0.851538 0.773813
O O12 0.964114 0.516282 0.839491
O O13 0.216598 0.107705 0.883694
O O14 0.792953 0.446867 0.290958
O O15 0.090738 0.816627 0.440979
O O16 0.950467 0.770882 0.561257
O O17 0.500000 0.000000 0.000000
#
# Coordination Sequence:
#
# PCOD8028817 Si02
#       8
#     2   2   2   2   2   2   2   2
#     4  12  28  49  77 114 154 204 256 316 382 454
#     4  12  25  49  78 110 155 201 252 319 380 457
#     4  10  27  46  73 110 149 198 251 314 380 452
#     4  12  27  48  81 112 153 210 259 309 391 459
#     4  11  26  46  78 112 152 200 257 311 387 456
#     4  11  24  48  77 110 155 202 251 316 384 458
#     4  12  28  50  75 114 157 201 258 320 386 456
#     4  12  26  47  76 115 156 199 258 320 379 460
#
# _framework density 24.902529999999999
#
# number of rings (size 3 to 8) (size 9 to 14) (size 15 to 20)
#    0.000    0.500    3.750    1.875   10.500    4.500 
#    0.000    0.000    0.000    0.000    0.000    0.000 
#    0.000    0.000    0.000    0.000    0.000    0.000 
#
# Total GULP energy -198400.123593 kJ/mol
# GULP energy per Si atom -12400.007725 kJ/mol
# Density = 2.484585 g / cm^3
# Si number density = 24.902530 Si / 1000 Ang^3
#
#
#
# Elastic Constant Matrix: (Units=GPa)
#
#
# Indices 1 2 3 4 5 6 
#
# 1 109.6672 42.4595 43.8367 -8.2508 -10.8937 13.5309
# 2 42.4595 114.0876 25.1889 1.4391 -0.4281 8.6283
# 3 43.8367 25.1889 152.9667 -3.3368 13.0326 20.4164
# 4 -8.2508 1.4391 -3.3368 23.1534 -0.2602 -4.5166
# 5 -10.8937 -0.4281 13.0326 -0.2602 44.6021 8.8432
# 6 13.5309 8.6283 20.4164 -4.5166 8.8432 41.1751
#
#
#
# Elastic Compliance Matrix: (Units=1/GPa)
#
#
# Indices 1 2 3 4 5 6 
#
# 1 0.012918 -0.003991 -0.003016 0.003991 0.004506 -0.002444
# 2 -0.003991 0.010439 -0.000472 -0.002295 -0.000598 -0.000765
# 3 -0.003016 -0.000472 0.008009 -0.000381 -0.002615 -0.002361
# 4 0.003991 -0.002295 -0.000381 0.045534 0.000487 0.004248
# 5 0.004506 -0.000598 -0.002615 0.000487 0.025363 -0.005452
# 6 -0.002444 -0.000765 -0.002361 0.004248 -0.005452 0.028058
#
#
# Mechanical properties :
#
#
# Convention : Reuss Voigt Hill
#
# Bulk Modulus (GPa) = 60.94076 66.63240 63.78658
# Shear Modulus (GPa) = 33.16776 39.46855 36.31816
#
# Velocity S-wave (km/s) = 3.65348 3.98543 3.82306
# Velocity P-wave (km/s) = 6.50554 6.92774 6.71996
#
# Compressibility (1/GPa) = 0.01640938
#
# Stress axis : x y z
#
# Youngs Moduli (GPa) = 77.40978 95.79263 124.85874
#
# Poissons Ratio (x) = 0.38227 0.37653
# Poissons Ratio (y) = 0.30891 0.05898
# Poissons Ratio (z) = 0.23344 0.04525
#
# Static dielectric constant tensor:
#      x y z
#    x 3.239010 -1.708940 -0.000600 
#    y -1.708940 2.670970 0.266620 
#    z -0.000600 0.266620 5.047070 
# 
# 
# High freq. dielectric constant tensor:
#      x y z
#    x 1.986930 0.005030 0.000480 
#    y 0.005030 1.992000 0.002360 
#    z 0.000480 0.002360 2.009980 
# 
# From -- ./inp_files/472384.got.cif
#   From: 2010.06.25/outbox.cif.g09.slc.cpg/sg2_237_cif.got.tgz:472384.got - 2010.06.27 13:26:56.
