data_PCOD8028326
_publ_section_title
;
Structure prediction by ZEFSAII (Michael W. Deem and Ramdas Pophale) SiO2 
 PCOD8028326
Probable space group: P -1
;
_chemical_formula_sum "Si O2"
_cell_formula_units_Z 10
_cell_length_a 16.301314
_cell_length_b 15.455393
_cell_length_c 5.376100
_cell_angle_alpha 99.849015
_cell_angle_beta 104.677800
_cell_angle_gamma 17.886597
_cell_volume 391.072445
_symmetry_space_group_name_H-M "P -1"
_symmetry_group_IT_number 2
_symmetry_cell_setting 'triclinic'
loop_
_space_group_symop_operation_xyz
x,y,z
-x,-y,-z
loop_
_atom_site_type_symbol
_atom_site_label
_atom_site_fract_x
_atom_site_fract_y
_atom_site_fract_z
Si Si1 0.744673 0.442227 0.658149
Si Si2 0.079887 0.590092 0.912676
Si Si3 0.469044 0.974633 0.214388
Si Si4 0.135098 0.024498 0.317955
Si Si5 0.677182 0.339140 0.810961
O O1 0.471686 0.695523 0.409215
O O2 0.768275 0.352624 0.871150
O O3 0.020514 0.149113 0.567415
O O4 0.741333 0.549482 0.784491
O O5 0.286210 0.339994 0.751651
O O6 0.838821 0.762473 0.899477
O O7 0.954093 0.805374 0.829731
O O8 0.500000 0.000000 0.500000
O O9 0.500000 0.000000 0.000000
O O10 0.072816 0.983876 0.161210
O O11 0.500000 0.500000 0.500000
O O12 0.500000 0.500000 0.000000
#
# Coordination Sequence:
#
# PCOD8028326 Si02
#       5
#     2   2   2   2   2
#     4  11  26  46  74 110 154 199 254 304 361 440
#     4  12  28  47  84 108 148 196 248 313 374 450
#     4  12  30  54  80 111 150 191 244 314 394 460
#     4  11  26  46  74 110 154 199 254 304 361 440
#     4  10  25  45  71 107 158 206 248 301 363 425
#
# _framework density 25.570708
#
# number of rings (size 3 to 8) (size 9 to 14) (size 15 to 20)
#    0.000    0.800    0.000    4.200   22.400    0.800 
#    0.000    0.000    0.000    0.000    0.000    0.000 
#    0.000    0.000    0.000    0.000    0.000    0.000 
#
# Total GULP energy -123981.320933 kJ/mol
# GULP energy per Si atom -12398.132093 kJ/mol
# Density = 2.551251 g / cm^3
# Si number density = 25.570708 Si / 1000 Ang^3
#
#
#
# Elastic Constant Matrix: (Units=GPa)
#
#
# Indices 1 2 3 4 5 6 
#
# 1 139.5135 25.0593 70.0273 13.3976 31.8164 -2.3659
# 2 25.0593 105.8391 27.1498 23.7707 18.6032 15.3814
# 3 70.0273 27.1498 129.6387 38.2796 11.7378 2.8386
# 4 13.3976 23.7707 38.2796 51.1503 6.2768 -3.4935
# 5 31.8164 18.6032 11.7378 6.2768 52.8591 6.4751
# 6 -2.3659 15.3814 2.8386 -3.4935 6.4751 54.9095
#
#
#
# Elastic Compliance Matrix: (Units=1/GPa)
#
#
# Indices 1 2 3 4 5 6 
#
# 1 0.011716 -0.001078 -0.006563 0.003201 -0.005845 0.002039
# 2 -0.001078 0.011786 -0.000098 -0.005050 -0.002464 -0.003374
# 3 -0.006563 -0.000098 0.013753 -0.008922 0.002210 -0.001795
# 4 0.003201 -0.005050 -0.008922 0.028260 -0.002020 0.004050
# 5 -0.005845 -0.002464 0.002210 -0.002020 0.023366 -0.002560
# 6 0.002039 -0.003374 -0.001795 0.004050 -0.002560 0.019897
#
#
# Mechanical properties :
#
#
# Convention : Reuss Voigt Hill
#
# Bulk Modulus (GPa) = 45.92092 68.82934 57.37513
# Shear Modulus (GPa) = 38.01809 48.63412 43.32611
#
# Velocity S-wave (km/s) = 3.86007 4.36586 4.12073
# Velocity P-wave (km/s) = 6.15339 7.23810 6.71767
#
# Compressibility (1/GPa) = 0.02177657
#
# Stress axis : x y z
#
# Youngs Moduli (GPa) = 85.35326 84.84444 72.71037
#
# Poissons Ratio (x) = 0.09148 0.47723
# Poissons Ratio (y) = 0.09202 0.00712
# Poissons Ratio (z) = 0.56021 0.00830
#
# Static dielectric constant tensor:
#      x y z
#    x 5.281120 0.152570 0.297860 
#    y 0.152570 4.854370 -0.171000 
#    z 0.297860 -0.171000 4.787620 
# 
# 
# High freq. dielectric constant tensor:
#      x y z
#    x 2.052500 0.005840 0.017880 
#    y 0.005840 2.037820 -0.012290 
#    z 0.017880 -0.012290 2.040210 
# 
# From -- ./inp_files/2756.got.cif
#   From: 2010.06.25/outbox.cif.g09.slc.cpg/sg2_2_cif.got.tgz:2756.got - 2010.06.27 13:26:56.
