data_PCOD8028975
_publ_section_title
;
Structure prediction by ZEFSAII (Michael W. Deem and Ramdas Pophale) SiO2 
 PCOD8028975
Probable space group: P -1
;
_chemical_formula_sum "Si O2"
_cell_formula_units_Z 16
_cell_length_a 18.832690
_cell_length_b 8.071939
_cell_length_c 22.517175
_cell_angle_alpha 114.286361
_cell_angle_beta 16.796742
_cell_angle_gamma 106.061556
_cell_volume 807.660132
_symmetry_space_group_name_H-M "P -1"
_symmetry_group_IT_number 2
_symmetry_cell_setting 'triclinic'
loop_
_space_group_symop_operation_xyz
x,y,z
-x,-y,-z
loop_
_atom_site_type_symbol
_atom_site_label
_atom_site_fract_x
_atom_site_fract_y
_atom_site_fract_z
Si Si1 0.592683 0.782656 0.865282
Si Si2 0.950707 0.276671 0.709641
Si Si3 0.825879 0.261114 0.240939
Si Si4 0.143852 0.801907 0.929997
Si Si5 0.750096 0.973331 0.669131
Si Si6 0.747153 0.664347 0.414450
Si Si7 0.674560 0.794459 0.365251
Si Si8 0.690545 0.605385 0.877506
O O1 0.733811 0.784248 0.689590
O O2 0.798357 0.632136 0.729290
O O3 0.332869 0.736727 0.056357
O O4 0.500000 0.000000 0.000000
O O5 0.919297 0.465016 0.720168
O O6 0.183450 0.079809 0.461414
O O7 0.052996 0.299991 0.695567
O O8 0.898322 0.234715 0.109903
O O9 0.899765 0.431260 0.234967
O O10 0.494763 0.338981 0.527277
O O11 0.004272 0.041217 0.094993
O O12 0.460515 0.707233 0.682218
O O13 0.985456 0.693983 0.077055
O O14 0.000000 0.000000 0.500000
O O15 0.471678 0.177909 0.928266
O O16 0.686484 0.821247 0.431063
O O17 0.500000 0.000000 0.500000
O O18 0.500000 0.500000 0.000000
#
# Coordination Sequence:
#
# PCOD8028975 Si02
#       8
#     2   2   2   2   2   2   2   2
#     4   9  18  36  61  82 103 143 196 235 275 335
#     4  11  23  38  52  85 122 147 184 238 293 333
#     4   9  19  35  58  85 107 145 189 231 274 327
#     4   9  18  36  60  81 105 148 193 225 268 335
#     4  11  19  36  64  82 102 148 191 231 284 333
#     4  11  23  35  54  83 122 148 179 236 289 333
#     4   9  18  36  61  83 108 149 195 232 268 331
#     4   9  18  36  57  83 108 138 188 238 274 335
#
# _framework density 19.810312
#
# number of rings (size 3 to 8) (size 9 to 14) (size 15 to 20)
#    0.000    2.250    3.750    2.250    0.000    4.500 
#    0.000    3.750    0.000    0.000    0.000    0.000 
#    0.000    0.000    0.000    0.000    0.000    0.000 
#
# Total GULP energy -198213.280930 kJ/mol
# GULP energy per Si atom -12388.330058 kJ/mol
# Density = 1.976522 g / cm^3
# Si number density = 19.810312 Si / 1000 Ang^3
#
#
#
# Elastic Constant Matrix: (Units=GPa)
#
#
# Indices 1 2 3 4 5 6 
#
# 1 120.6926 52.4114 23.3356 -5.8755 -4.6077 6.6402
# 2 52.4114 83.7499 27.0886 -9.1348 5.4671 -4.0691
# 3 23.3356 27.0886 72.5073 -15.7169 6.9357 0.9460
# 4 -5.8755 -9.1348 -15.7169 37.4738 -5.0646 6.0763
# 5 -4.6077 5.4671 6.9357 -5.0646 24.3070 -0.8653
# 6 6.6402 -4.0691 0.9460 6.0763 -0.8653 29.1499
#
#
#
# Elastic Compliance Matrix: (Units=1/GPa)
#
#
# Indices 1 2 3 4 5 6 
#
# 1 0.012281 -0.007660 -0.001306 0.000734 0.004440 -0.003846
# 2 -0.007660 0.018565 -0.004041 0.000364 -0.004247 0.004266
# 3 -0.001306 -0.004041 0.017353 0.006020 -0.003113 -0.002177
# 4 0.000734 0.000364 0.006020 0.031114 0.004585 -0.006661
# 5 0.004440 -0.004247 -0.003113 0.004585 0.044741 -0.001131
# 6 -0.003846 0.004266 -0.002177 -0.006661 -0.001131 0.037203
#
#
# Mechanical properties :
#
#
# Convention : Reuss Voigt Hill
#
# Bulk Modulus (GPa) = 45.07556 53.62457 49.35006
# Shear Modulus (GPa) = 25.68499 29.79374 27.73937
#
# Velocity S-wave (km/s) = 3.60467 3.88229 3.74605
# Velocity P-wave (km/s) = 6.33465 6.87197 6.60877
#
# Compressibility (1/GPa) = 0.02218497
#
# Stress axis : x y z
#
# Youngs Moduli (GPa) = 81.42550 53.86436 57.62656
#
# Poissons Ratio (x) = 0.41259 0.07527
# Poissons Ratio (y) = 0.62370 0.23288
# Poissons Ratio (z) = 0.10636 0.21768
#
# Static dielectric constant tensor:
#      x y z
#    x 3.493890 -0.384420 0.343230 
#    y -0.384420 4.634650 0.327680 
#    z 0.343230 0.327680 4.200260 
# 
# 
# High freq. dielectric constant tensor:
#      x y z
#    x 1.740680 -0.015990 0.015660 
#    y -0.015990 1.778190 -0.002270 
#    z 0.015660 -0.002270 1.766740 
# 
# From -- ./inp_files/599497.got.cif
#   From: 2010.06.25/outbox.cif.g09.slc.cpg/sg2_300_cif.got.tgz:599497.got - 2010.06.27 13:26:56.
