data_PCOD8028197
_publ_section_title
;
Structure prediction by ZEFSAII (Michael W. Deem and Ramdas Pophale) SiO2 
 PCOD8028197
Probable space group: P -1
;
_chemical_formula_sum "Si O2"
_cell_formula_units_Z 16
_cell_length_a 9.062728
_cell_length_b 6.893981
_cell_length_c 13.592531
_cell_angle_alpha 106.962736
_cell_angle_beta 101.763259
_cell_angle_gamma 111.579776
_cell_volume 707.621436
_symmetry_space_group_name_H-M "P -1"
_symmetry_group_IT_number 2
_symmetry_cell_setting 'triclinic'
loop_
_space_group_symop_operation_xyz
x,y,z
-x,-y,-z
loop_
_atom_site_type_symbol
_atom_site_label
_atom_site_fract_x
_atom_site_fract_y
_atom_site_fract_z
Si Si1 0.106729 0.607699 0.433594
Si Si2 0.409918 0.651821 0.223862
Si Si3 0.728331 0.883885 0.424685
Si Si4 0.799203 0.875354 0.950774
Si Si5 0.762973 0.043711 0.776579
Si Si6 0.081644 0.250315 0.723021
Si Si7 0.357976 0.290071 0.898402
Si Si8 0.684955 0.655338 0.580631
O O1 0.208384 0.474189 0.388274
O O2 0.000000 0.500000 0.500000
O O3 0.977627 0.592981 0.326035
O O4 0.248971 0.862375 0.517153
O O5 0.532595 0.701513 0.343516
O O6 0.290332 0.386856 0.140589
O O7 0.544656 0.796922 0.177685
O O8 0.289248 0.768922 0.242111
O O9 0.866470 0.899677 0.365408
O O10 0.782530 0.814371 0.524565
O O11 0.756865 0.032136 0.892792
O O12 0.740775 0.893502 0.056646
O O13 0.000000 0.000000 0.000000
O O14 0.649437 0.789721 0.684639
O O15 0.942315 0.095244 0.759763
O O16 0.244576 0.384275 0.835805
O O17 0.500000 0.500000 0.000000
O O18 0.500000 0.500000 0.500000
#
# Coordination Sequence:
#
# PCOD8028197 Si02
#       8
#     2   2   2   2   2   2   2   2
#     4  12  24  42  69 100 136 188 231 275 342 407
#     4  10  25  44  70  98 137 183 220 283 353 406
#     4  11  23  45  65  97 147 180 230 281 338 414
#     4  11  23  45  72  99 132 171 232 291 345 411
#     4  12  25  41  66 103 134 175 231 278 342 405
#     4  11  22  42  68  98 137 178 224 286 341 405
#     4   9  21  47  71  94 133 177 220 286 349 403
#     4  12  26  41  66  98 140 186 228 278 337 410
#
# _framework density 22.610962000000001
#
# number of rings (size 3 to 8) (size 9 to 14) (size 15 to 20)
#    0.000    1.000    3.750    2.625    3.500    2.000 
#    2.250    0.000    0.000    0.000    0.000    0.000 
#    0.000    0.000    0.000    0.000    0.000    0.000 
#
# Total GULP energy -198226.452267 kJ/mol
# GULP energy per Si atom -12389.153267 kJ/mol
# Density = 2.255950 g / cm^3
# Si number density = 22.610962 Si / 1000 Ang^3
#
#
#
# Elastic Constant Matrix: (Units=GPa)
#
#
# Indices 1 2 3 4 5 6 
#
# 1 86.3616 27.3154 31.0259 -4.5206 8.8265 -4.1524
# 2 27.3154 92.0980 35.6522 -8.9833 8.8227 -8.3345
# 3 31.0259 35.6522 122.1011 -23.4725 16.4724 -1.2572
# 4 -4.5206 -8.9833 -23.4725 45.1962 6.4430 -2.5306
# 5 8.8265 8.8227 16.4724 6.4430 37.6082 -1.1485
# 6 -4.1524 -8.3345 -1.2572 -2.5306 -1.1485 43.2009
#
#
#
# Elastic Compliance Matrix: (Units=1/GPa)
#
#
# Indices 1 2 3 4 5 6 
#
# 1 0.013533 -0.002905 -0.002453 -0.000270 -0.001355 0.000617
# 2 -0.002905 0.013211 -0.002661 0.001278 -0.001403 0.002230
# 3 -0.002453 -0.002661 0.011343 0.005784 -0.004765 -0.000207
# 4 -0.000270 0.001278 0.005784 0.026489 -0.007255 0.001748
# 5 -0.001355 -0.001403 -0.004765 -0.007255 0.030562 -0.000152
# 6 0.000617 0.002230 -0.000207 0.001748 -0.000152 0.023729
#
#
# Mechanical properties :
#
#
# Convention : Reuss Voigt Hill
#
# Bulk Modulus (GPa) = 45.35598 54.28310 49.81954
# Shear Modulus (GPa) = 35.14773 38.97221 37.05997
#
# Velocity S-wave (km/s) = 3.94694 4.15613 4.05288
# Velocity P-wave (km/s) = 6.39327 6.86227 6.63192
#
# Compressibility (1/GPa) = 0.02204781
#
# Stress axis : x y z
#
# Youngs Moduli (GPa) = 73.89109 75.69699 88.15830
#
# Poissons Ratio (x) = 0.21989 0.21629
# Poissons Ratio (y) = 0.21464 0.23463
# Poissons Ratio (z) = 0.18129 0.20146
#
# Static dielectric constant tensor:
#      x y z
#    x 0.997830 -1.814080 5.085990 
#    y -1.814080 2.918270 2.645050 
#    z 5.085990 2.645050 -3.117820 
# 
# 
# High freq. dielectric constant tensor:
#      x y z
#    x 1.902140 0.020760 0.002790 
#    y 0.020760 1.869000 -0.018560 
#    z 0.002790 -0.018560 1.911710 
# 
# From -- ./inp_files/282975.got.cif
#   From: 2010.06.25/outbox.cif.g09.slc.cpg/sg2_142_cif.got.tgz:282975.got - 2010.06.27 13:26:56.
