data_PCOD8028347
_publ_section_title
;
Structure prediction by ZEFSAII (Michael W. Deem and Ramdas Pophale) SiO2 
 PCOD8028347
Probable space group: P -1
;
_chemical_formula_sum "Si O2"
_cell_formula_units_Z 16
_cell_length_a 21.422257
_cell_length_b 8.811163
_cell_length_c 11.415499
_cell_angle_alpha 132.045886
_cell_angle_beta 39.971899
_cell_angle_gamma 148.552035
_cell_volume 721.367221
_symmetry_space_group_name_H-M "P -1"
_symmetry_group_IT_number 2
_symmetry_cell_setting 'triclinic'
loop_
_space_group_symop_operation_xyz
x,y,z
-x,-y,-z
loop_
_atom_site_type_symbol
_atom_site_label
_atom_site_fract_x
_atom_site_fract_y
_atom_site_fract_z
Si Si1 0.133928 0.573175 0.363130
Si Si2 0.826565 0.795542 0.853143
Si Si3 0.084238 0.431210 0.878537
Si Si4 0.640571 0.245444 0.499985
Si Si5 0.233593 0.696777 0.036859
Si Si6 0.355006 0.476785 0.800839
Si Si7 0.654666 0.697205 0.838569
Si Si8 0.347033 0.068882 0.476146
O O1 0.131385 0.365786 0.340177
O O2 0.163475 0.525620 0.169033
O O3 0.000000 0.500000 0.500000
O O4 0.244341 0.884288 0.422096
O O5 0.766068 0.834521 0.853155
O O6 0.700470 0.598682 0.025933
O O7 0.973372 0.085763 0.844765
O O8 0.224839 0.611699 0.695686
O O9 0.121266 0.524597 0.007956
O O10 0.000000 0.500000 0.000000
O O11 0.655325 0.506697 0.649770
O O12 0.500000 0.000000 0.500000
O O13 0.635414 0.094877 0.544489
O O14 0.302549 0.020197 0.130884
O O15 0.338054 0.663159 0.847857
O O16 0.284658 0.173680 0.685548
O O17 0.517363 0.675408 0.662320
O O18 0.500000 0.500000 0.000000
#
# Coordination Sequence:
#
# PCOD8028347 Si02
#       8
#     2   2   2   2   2   2   2   2
#     4  11  28  44  69 102 145 191 242 296 361 433
#     4  11  26  46  70 105 144 194 237 301 368 434
#     4  12  26  46  74 106 150 189 243 303 369 435
#     4  12  28  48  78 109 147 191 247 307 370 441
#     4  11  27  45  69 105 142 192 235 292 361 433
#     4  10  25  45  73 102 142 187 239 296 365 430
#     4  12  26  45  74 108 148 186 247 302 369 436
#     4  11  24  46  74 102 143 187 245 299 361 431
#
# _framework density 22.180104
#
# number of rings (size 3 to 8) (size 9 to 14) (size 15 to 20)
#    0.000    0.750    2.500    3.000   10.500    3.500 
#    0.000    0.000    0.000    0.000    0.000    0.000 
#    0.000    0.000    0.000    0.000    0.000    0.000 
#
# Total GULP energy -198231.491267 kJ/mol
# GULP energy per Si atom -12389.468204 kJ/mol
# Density = 2.212962 g / cm^3
# Si number density = 22.180104 Si / 1000 Ang^3
#
#
#
# Elastic Constant Matrix: (Units=GPa)
#
#
# Indices 1 2 3 4 5 6 
#
# 1 93.5575 33.0568 43.8993 3.3989 -6.2855 16.4692
# 2 33.0568 117.3117 41.6661 15.4821 -7.2646 13.1548
# 3 43.8993 41.6661 103.0094 13.7898 -24.2179 7.0927
# 4 3.3989 15.4821 13.7898 46.4016 -4.5503 -4.4775
# 5 -6.2855 -7.2646 -24.2179 -4.5503 37.7775 9.2451
# 6 16.4692 13.1548 7.0927 -4.4775 9.2451 46.0703
#
#
#
# Elastic Compliance Matrix: (Units=1/GPa)
#
#
# Indices 1 2 3 4 5 6 
#
# 1 0.014449 -0.001893 -0.005337 0.000768 -0.000396 -0.003649
# 2 -0.001893 0.010739 -0.003010 -0.002760 0.000027 -0.002200
# 3 -0.005337 -0.003010 0.015701 -0.002577 0.008691 -0.001644
# 4 0.000768 -0.002760 -0.002577 0.023489 -0.000008 0.003195
# 5 -0.000396 0.000027 0.008691 -0.000008 0.033942 -0.008016
# 6 -0.003649 -0.002200 -0.001644 0.003195 -0.008016 0.025811
#
#
# Mechanical properties :
#
#
# Convention : Reuss Voigt Hill
#
# Bulk Modulus (GPa) = 48.99433 61.23588 55.11510
# Shear Modulus (GPa) = 33.02176 39.06697 36.04436
#
# Velocity S-wave (km/s) = 3.86268 4.20140 4.03560
# Velocity P-wave (km/s) = 6.48313 7.15570 6.82771
#
# Compressibility (1/GPa) = 0.02041053
#
# Stress axis : x y z
#
# Youngs Moduli (GPa) = 69.20668 93.11571 63.68906
#
# Poissons Ratio (x) = 0.17625 0.33990
# Poissons Ratio (y) = 0.13100 0.19171
# Poissons Ratio (z) = 0.36934 0.28029
#
# Static dielectric constant tensor:
#      x y z
#    x 1.649650 -0.610980 -0.347850 
#    y -0.610980 3.609070 -0.191870 
#    z -0.347850 -0.191870 3.464360 
# 
# 
# High freq. dielectric constant tensor:
#      x y z
#    x 1.883160 -0.000110 -0.013430 
#    y -0.000110 1.884980 0.014650 
#    z -0.013430 0.014650 1.883990 
# 
# From -- ./inp_files/329021.got.cif
#   From: 2010.06.25/outbox.cif.g09.slc.cpg/sg2_165_cif.got.tgz:329021.got - 2010.06.27 13:26:56.
