data_PCOD8028827
_publ_section_title
;
Structure prediction by ZEFSAII (Michael W. Deem and Ramdas Pophale) SiO2 
 PCOD8028827
Probable space group: P -1
;
_chemical_formula_sum "Si O2"
_cell_formula_units_Z 14
_cell_length_a 12.299703
_cell_length_b 11.378332
_cell_length_c 10.690024
_cell_angle_alpha 36.895508
_cell_angle_beta 83.208108
_cell_angle_gamma 56.951825
_cell_volume 583.657242
_symmetry_space_group_name_H-M "P -1"
_symmetry_group_IT_number 2
_symmetry_cell_setting 'triclinic'
loop_
_space_group_symop_operation_xyz
x,y,z
-x,-y,-z
loop_
_atom_site_type_symbol
_atom_site_label
_atom_site_fract_x
_atom_site_fract_y
_atom_site_fract_z
Si Si1 0.392246 0.866241 0.464355
Si Si2 0.709570 0.797431 0.558302
Si Si3 0.366412 0.180996 0.972624
Si Si4 0.450974 0.400298 0.944790
Si Si5 0.005196 0.310841 0.429891
Si Si6 0.781142 0.309997 0.039805
Si Si7 0.963727 0.777517 0.771330
O O1 0.525347 0.511298 0.787886
O O2 0.359941 0.068022 0.406487
O O3 0.231820 0.935456 0.412337
O O4 0.420986 0.937512 0.269834
O O5 0.900119 0.611189 0.668758
O O6 0.687468 0.588440 0.717078
O O7 0.604784 0.052264 0.252247
O O8 0.351022 0.412982 0.843059
O O9 0.183914 0.387212 0.758925
O O10 0.500000 0.000000 0.000000
O O11 0.341582 0.603535 0.908846
O O12 0.000534 0.193694 0.399157
O O13 0.113325 0.015381 0.755949
O O14 0.913093 0.290293 0.090686
O O15 0.000000 0.500000 0.000000
#
# Coordination Sequence:
#
# PCOD8028827 Si02
#       7
#     2   2   2   2   2   2   2
#     4  11  21  36  61  88 127 148 190 245 306 349
#     4  11  22  36  60  99 124 146 181 254 316 350
#     4  12  26  43  60  82 120 166 205 239 278 351
#     4  12  23  36  61  95 122 152 195 241 304 353
#     4  11  21  36  58  88 118 152 196 242 301 352
#     4  12  19  31  61  91 125 148 186 240 309 357
#     4  11  15  31  55  86 116 148 180 245 300 336
#
# _framework density 23.986681000000001
#
# number of rings (size 3 to 8) (size 9 to 14) (size 15 to 20)
#    0.000    0.571   10.000    2.143    0.000    0.571 
#    0.000    0.714    0.000    1.714    0.000    0.000 
#    0.000    0.000    0.000    0.000    0.000    0.000 
#
# Total GULP energy -173518.138523 kJ/mol
# GULP energy per Si atom -12394.152752 kJ/mol
# Density = 2.393209 g / cm^3
# Si number density = 23.986681 Si / 1000 Ang^3
#
#
#
# Elastic Constant Matrix: (Units=GPa)
#
#
# Indices 1 2 3 4 5 6 
#
# 1 57.0568 22.5542 26.3758 7.7502 -31.3619 -17.7981
# 2 22.5542 96.8086 53.3095 -1.6031 -3.3393 -33.3629
# 3 26.3758 53.3095 186.6491 1.0572 -43.3871 -17.5833
# 4 7.7502 -1.6031 1.0572 19.6009 -7.0963 0.4486
# 5 -31.3619 -3.3393 -43.3871 -7.0963 41.3273 4.3423
# 6 -17.7981 -33.3629 -17.5833 0.4486 4.3423 23.0592
#
#
#
# Elastic Compliance Matrix: (Units=1/GPa)
#
#
# Indices 1 2 3 4 5 6 
#
# 1 0.045805 -0.002392 0.005397 -0.006205 0.036085 0.029334
# 2 -0.002392 0.024403 -0.005926 -0.000861 -0.009443 0.030737
# 3 0.005397 -0.005926 0.009534 0.001907 0.013933 0.000201
# 4 -0.006205 -0.000861 0.001907 0.056221 0.007624 -0.007110
# 5 0.036085 -0.009443 0.013933 0.007624 0.065457 0.012339
# 6 0.029334 0.030737 0.000201 -0.007110 0.012339 0.108448
#
#
# Mechanical properties :
#
#
# Convention : Reuss Voigt Hill
#
# Bulk Modulus (GPa) = 13.53193 60.55482 37.04338
# Shear Modulus (GPa) = 14.69099 32.68248 23.68673
#
# Velocity S-wave (km/s) = 2.47749 3.69525 3.14585
# Velocity P-wave (km/s) = 3.71989 6.59594 5.35463
#
# Compressibility (1/GPa) = 0.07389929
#
# Stress axis : x y z
#
# Youngs Moduli (GPa) = 21.83189 40.97781 104.88295
#
# Poissons Ratio (x) = 0.09803 -0.56605
# Poissons Ratio (y) = 0.05223 0.62158
# Poissons Ratio (z) = -0.11783 0.24285
#
# Static dielectric constant tensor:
#      x y z
#    x 5.380070 -0.911340 0.627990 
#    y -0.911340 4.338390 -0.870580 
#    z 0.627990 -0.870580 6.186540 
# 
# 
# High freq. dielectric constant tensor:
#      x y z
#    x 1.984620 -0.044500 -0.000920 
#    y -0.044500 1.837720 -0.010750 
#    z -0.000920 -0.010750 1.999510 
# 
# From -- ./inp_files/255783.got.cif
#   From: 2010.06.25/outbox.cif.g09.slc.cpg/sg2_128_cif.got.tgz:255783.got - 2010.06.27 13:26:56.
