data_PCOD8028567
_publ_section_title
;
Structure prediction by ZEFSAII (Michael W. Deem and Ramdas Pophale) SiO2 
 PCOD8028567
Probable space group: P -1
;
_chemical_formula_sum "Si O2"
_cell_formula_units_Z 16
_cell_length_a 15.022198
_cell_length_b 9.146839
_cell_length_c 18.737504
_cell_angle_alpha 36.320984
_cell_angle_beta 42.248233
_cell_angle_gamma 60.438171
_cell_volume 990.384242
_symmetry_space_group_name_H-M "P -1"
_symmetry_group_IT_number 2
_symmetry_cell_setting 'triclinic'
loop_
_space_group_symop_operation_xyz
x,y,z
-x,-y,-z
loop_
_atom_site_type_symbol
_atom_site_label
_atom_site_fract_x
_atom_site_fract_y
_atom_site_fract_z
Si Si1 0.325749 0.737409 0.311768
Si Si2 0.402155 0.875597 0.958688
Si Si3 0.630695 0.869932 0.252037
Si Si4 0.148445 0.986463 0.502428
Si Si5 0.333576 0.470278 0.267210
Si Si6 0.683046 0.403809 0.469595
Si Si7 0.394038 0.614786 0.924759
Si Si8 0.837552 0.882863 0.720380
O O1 0.330443 0.542758 0.322811
O O2 0.302838 0.573780 0.462360
O O3 0.463556 0.965884 0.142688
O O4 0.201513 0.869329 0.321474
O O5 0.445502 0.689393 0.946815
O O6 0.331103 0.065805 0.880789
O O7 0.304203 0.698119 0.145138
O O8 0.720201 0.690902 0.301738
O O9 0.469396 0.739537 0.406310
O O10 0.654266 0.139952 0.174350
O O11 0.218648 0.207403 0.429110
O O12 0.172265 0.111336 0.361344
O O13 0.213652 0.746721 0.565289
O O14 0.988930 0.887089 0.655292
O O15 0.483400 0.438901 0.172509
O O16 0.264112 0.375300 0.090013
#
# Coordination Sequence:
#
# PCOD8028567 Si02
#       8
#     2   2   2   2   2   2   2   2
#     4  10  20  28  47  73 106 121 147 195 241 286
#     4   9  17  29  49  72  94 122 153 200 230 276
#     4   8  16  28  54  68  91 120 162 196 234 256
#     4  10  19  31  51  67  94 129 162 194 227 280
#     4  12  18  29  49  75  98 126 151 190 249 278
#     4   9  16  33  48  70  95 124 155 199 230 273
#     4  10  17  30  52  70  92 121 161 197 227 275
#     4  10  19  32  46  73  95 124 161 195 236 272
#
# _framework density 16.155346000000002
#
# number of rings (size 3 to 8) (size 9 to 14) (size 15 to 20)
#    0.750    1.500    3.750    1.500    0.000    0.500 
#    0.000    1.250    0.000    0.000    0.000    1.750 
#    0.000    0.000    0.000    0.000    0.000    0.000 
#
# Total GULP energy -198253.925057 kJ/mol
# GULP energy per Si atom -12390.870316 kJ/mol
# Density = 1.611858 g / cm^3
# Si number density = 16.155346 Si / 1000 Ang^3
#
#
#
# Elastic Constant Matrix: (Units=GPa)
#
#
# Indices 1 2 3 4 5 6 
#
# 1 72.6688 65.5220 47.5978 -7.6830 -1.2716 -6.8939
# 2 65.5220 104.3605 46.2282 -8.6680 -1.2487 4.8893
# 3 47.5978 46.2282 63.8928 -19.2922 -3.0054 -4.2920
# 4 -7.6830 -8.6680 -19.2922 20.8368 -5.9903 10.1980
# 5 -1.2716 -1.2487 -3.0054 -5.9903 28.5720 -5.6387
# 6 -6.8939 4.8893 -4.2920 10.1980 -5.6387 26.7218
#
#
#
# Elastic Compliance Matrix: (Units=1/GPa)
#
#
# Indices 1 2 3 4 5 6 
#
# 1 0.056644 -0.025203 -0.032535 -0.033563 -0.003912 0.025983
# 2 -0.025203 0.026057 0.002147 0.010812 -0.000481 -0.015153
# 3 -0.032535 0.002147 0.052487 0.048837 0.011120 -0.016648
# 4 -0.033563 0.010812 0.048837 0.110978 0.019276 -0.041079
# 5 -0.003912 -0.000481 0.011120 0.019276 0.040417 0.002037
# 6 0.025983 -0.015153 -0.016648 -0.041079 0.002037 0.060332
#
#
# Mechanical properties :
#
#
# Convention : Reuss Voigt Hill
#
# Bulk Modulus (GPa) = 41.66011 62.17980 51.91996
# Shear Modulus (GPa) = 10.72731 20.66441 15.69586
#
# Velocity S-wave (km/s) = 2.57963 3.58034 3.12036
# Velocity P-wave (km/s) = 5.89202 7.46083 6.72235
#
# Compressibility (1/GPa) = 0.02400378
#
# Stress axis : x y z
#
# Youngs Moduli (GPa) = 17.65404 38.37704 19.05246
#
# Poissons Ratio (x) = 0.96723 0.61988
# Poissons Ratio (y) = 0.44494 -0.04090
# Poissons Ratio (z) = 0.57438 -0.08238
#
# Static dielectric constant tensor:
#      x y z
#    x 2.876320 -0.124700 0.090790 
#    y -0.124700 3.043820 -0.201910 
#    z 0.090790 -0.201910 3.021990 
# 
# 
# High freq. dielectric constant tensor:
#      x y z
#    x 1.590700 -0.002730 -0.000110 
#    y -0.002730 1.613760 -0.018050 
#    z -0.000110 -0.018050 1.607600 
# 
# From -- ./inp_files/217499.got.cif
#   From: 2010.06.25/outbox.cif.g09.slc.cpg/sg2_109_cif.got.tgz:217499.got - 2010.06.27 13:26:56.
