data_PCOD8028075
_publ_section_title
;
Structure prediction by ZEFSAII (Michael W. Deem and Ramdas Pophale) SiO2 
 PCOD8028075
Probable space group: P -1
;
_chemical_formula_sum "Si O2"
_cell_formula_units_Z 16
_cell_length_a 8.786653
_cell_length_b 13.960316
_cell_length_c 9.185935
_cell_angle_alpha 82.274298
_cell_angle_beta 72.118050
_cell_angle_gamma 40.104658
_cell_volume 681.463624
_symmetry_space_group_name_H-M "P -1"
_symmetry_group_IT_number 2
_symmetry_cell_setting 'triclinic'
loop_
_space_group_symop_operation_xyz
x,y,z
-x,-y,-z
loop_
_atom_site_type_symbol
_atom_site_label
_atom_site_fract_x
_atom_site_fract_y
_atom_site_fract_z
Si Si1 0.058069 0.935068 0.836975
Si Si2 0.402133 0.608765 0.373812
Si Si3 0.865869 0.907615 0.398422
Si Si4 0.566388 0.582993 0.762111
Si Si5 0.828637 0.593959 0.888672
Si Si6 0.243422 0.422539 0.588032
Si Si7 0.472078 0.902363 0.069475
Si Si8 0.633421 0.840814 0.344468
O O1 0.290907 0.755036 0.801353
O O2 0.119037 0.995942 0.701728
O O3 0.816153 0.990002 0.840934
O O4 0.000000 0.000000 0.000000
O O5 0.500000 0.500000 0.500000
O O6 0.451985 0.526105 0.224764
O O7 0.552104 0.639751 0.336772
O O8 0.114741 0.770003 0.442765
O O9 0.819420 0.845196 0.305897
O O10 0.645216 0.002829 0.559409
O O11 0.707892 0.548305 0.876291
O O12 0.732981 0.535356 0.581897
O O13 0.980886 0.567280 0.713100
O O14 0.598059 0.774247 0.939308
O O15 0.000000 0.500000 0.000000
O O16 0.267742 0.297794 0.568928
O O17 0.635300 0.809133 0.183443
O O18 0.500000 0.000000 0.000000
#
# Coordination Sequence:
#
# PCOD8028075 Si02
#       8
#     2   2   2   2   2   2   2   2
#     4  12  25  48  73 102 143 185 241 297 362 429
#     4  10  25  43  67 109 137 184 238 295 360 418
#     4  11  25  45  75 105 143 188 246 297 359 431
#     4  11  25  47  72 106 141 190 241 301 359 425
#     4  12  26  46  68 101 145 188 235 288 364 434
#     4  11  23  45  73 103 141 190 239 299 358 423
#     4  12  28  44  71 104 145 191 235 296 365 427
#     4  11  24  44  75 107 139 188 244 300 356 428
#
# _framework density 23.478877000000001
#
# number of rings (size 3 to 8) (size 9 to 14) (size 15 to 20)
#    0.000    0.750    3.750    2.625    5.250    3.000 
#    0.000    1.250    0.000    0.000    0.000    0.000 
#    0.000    0.000    0.000    0.000    0.000    0.000 
#
# Total GULP energy -198370.379002 kJ/mol
# GULP energy per Si atom -12398.148688 kJ/mol
# Density = 2.342544 g / cm^3
# Si number density = 23.478877 Si / 1000 Ang^3
#
#
#
# Elastic Constant Matrix: (Units=GPa)
#
#
# Indices 1 2 3 4 5 6 
#
# 1 161.2718 31.4619 21.2440 3.3716 13.7056 -4.0458
# 2 31.4619 85.9555 15.3608 15.3194 -0.3218 -12.5348
# 3 21.2440 15.3608 63.7947 15.5690 10.1259 -7.9219
# 4 3.3716 15.3194 15.5690 36.2693 -1.8068 0.6239
# 5 13.7056 -0.3218 10.1259 -1.8068 43.4577 2.8553
# 6 -4.0458 -12.5348 -7.9219 0.6239 2.8553 44.9153
#
#
#
# Elastic Compliance Matrix: (Units=1/GPa)
#
#
# Indices 1 2 3 4 5 6 
#
# 1 0.007041 -0.002501 -0.001758 0.001073 -0.001767 -0.000277
# 2 -0.002501 0.014206 -0.000924 -0.005401 0.000648 0.003610
# 3 -0.001758 -0.000924 0.019633 -0.008162 -0.004593 0.003452
# 4 0.001073 -0.005401 -0.008162 0.033474 0.003146 -0.003515
# 5 -0.001767 0.000648 -0.004593 0.003146 0.024933 -0.002417
# 6 -0.000277 0.003610 0.003452 -0.003515 -0.002417 0.024058
#
#
# Mechanical properties :
#
#
# Convention : Reuss Voigt Hill
#
# Bulk Modulus (GPa) = 32.77323 49.68393 41.22858
# Shear Modulus (GPa) = 34.75052 41.12549 37.93801
#
# Velocity S-wave (km/s) = 3.85135 4.18975 4.02411
# Velocity P-wave (km/s) = 5.81086 6.67925 6.26013
#
# Compressibility (1/GPa) = 0.03051271
#
# Stress axis : x y z
#
# Youngs Moduli (GPa) = 142.02433 70.39249 50.93484
#
# Poissons Ratio (x) = 0.17607 0.08956
# Poissons Ratio (y) = 0.35524 0.04707
# Poissons Ratio (z) = 0.24973 0.06505
#
# Static dielectric constant tensor:
#      x y z
#    x 5.342490 0.092560 0.203950 
#    y 0.092560 4.164160 0.244480 
#    z 0.203950 0.244480 4.228230 
# 
# 
# High freq. dielectric constant tensor:
#      x y z
#    x 1.954510 -0.005940 0.015050 
#    y -0.005940 1.932220 0.017290 
#    z 0.015050 0.017290 1.916800 
# 
# From -- ./inp_files/207314.got.cif
#   From: 2010.06.25/outbox.cif.g09.slc.cpg/sg2_104_cif.got.tgz:207314.got - 2010.06.27 13:26:56.
