data_PCOD8028021
_publ_section_title
;
Structure prediction by ZEFSAII (Michael W. Deem and Ramdas Pophale) SiO2 
 PCOD8028021
Probable space group: P -1
;
_chemical_formula_sum "Si O2"
_cell_formula_units_Z 14
_cell_length_a 5.128465
_cell_length_b 8.920152
_cell_length_c 25.413145
_cell_angle_alpha 37.446711
_cell_angle_beta 115.141760
_cell_angle_gamma 100.959650
_cell_volume 616.595907
_symmetry_space_group_name_H-M "P -1"
_symmetry_group_IT_number 2
_symmetry_cell_setting 'triclinic'
loop_
_space_group_symop_operation_xyz
x,y,z
-x,-y,-z
loop_
_atom_site_type_symbol
_atom_site_label
_atom_site_fract_x
_atom_site_fract_y
_atom_site_fract_z
Si Si1 0.715773 0.890211 0.596399
Si Si2 0.280960 0.137508 0.741100
Si Si3 0.413890 0.865344 0.080983
Si Si4 0.957417 0.836112 0.864527
Si Si5 0.180660 0.676628 0.440503
Si Si6 0.969488 0.699045 0.018969
Si Si7 0.327503 0.560539 0.700498
O O1 0.593584 0.697938 0.676913
O O2 0.019871 0.765028 0.627066
O O3 0.500000 0.000000 0.500000
O O4 0.762960 0.118217 0.571731
O O5 0.325466 0.408129 0.688145
O O6 0.025527 0.171245 0.665974
O O7 0.597522 0.953614 0.799810
O O8 0.141068 0.029481 0.808882
O O9 0.642576 0.623616 0.194485
O O10 0.338671 0.080126 0.060801
O O11 0.153677 0.742103 0.073630
O O12 0.500000 0.000000 0.000000
O O13 0.089721 0.751348 0.957494
O O14 0.051655 0.591943 0.901289
O O15 0.500000 0.500000 0.500000
O O16 0.000000 0.500000 0.500000
#
# Coordination Sequence:
#
# PCOD8028021 Si02
#       7
#     2   2   2   2   2   2   2
#     4  12  27  48  75 104 138 181 234 293 356 423
#     4  12  25  44  70 101 141 179 237 285 349 412
#     4  11  25  42  69  99 148 189 238 289 350 412
#     4  11  25  43  68 100 138 189 234 288 341 406
#     4  12  26  47  73 103 139 177 225 290 362 419
#     4  10  25  42  65  97 141 185 238 283 346 403
#     4  12  26  45  73 103 142 185 236 284 356 419
#
# _framework density 22.705307999999999
#
# number of rings (size 3 to 8) (size 9 to 14) (size 15 to 20)
#    0.000    0.571    1.429    5.571   10.000    1.143 
#    0.000    0.000    0.000    0.000    0.000    0.000 
#    0.000    0.000    0.000    0.000    0.000    0.000 
#
# Total GULP energy -173541.852041 kJ/mol
# GULP energy per Si atom -12395.846574 kJ/mol
# Density = 2.265363 g / cm^3
# Si number density = 22.705308 Si / 1000 Ang^3
#
#
#
# Elastic Constant Matrix: (Units=GPa)
#
#
# Indices 1 2 3 4 5 6 
#
# 1 114.5695 35.0650 28.0371 -21.4042 0.2275 5.6554
# 2 35.0650 170.1041 56.0956 -22.5279 9.0327 -4.6209
# 3 28.0371 56.0956 91.5160 -8.1088 3.2099 0.7307
# 4 -21.4042 -22.5279 -8.1088 40.6320 0.5523 7.0707
# 5 0.2275 9.0327 3.2099 0.5523 52.4622 -5.3750
# 6 5.6554 -4.6209 0.7307 7.0707 -5.3750 31.9561
#
#
#
# Elastic Compliance Matrix: (Units=1/GPa)
#
#
# Indices 1 2 3 4 5 6 
#
# 1 0.010676 -0.000836 -0.002262 0.005258 -0.000142 -0.003146
# 2 -0.000836 0.007946 -0.004313 0.003024 -0.001077 0.000545
# 3 -0.002262 -0.004313 0.014213 -0.000670 -0.000154 -0.000426
# 4 0.005258 0.003024 -0.000670 0.030239 -0.001583 -0.007435
# 5 -0.000142 -0.001077 -0.000154 -0.001583 0.019635 0.003526
# 6 -0.003146 0.000545 -0.000426 -0.007435 0.003526 0.034176
#
#
# Mechanical properties :
#
#
# Convention : Reuss Voigt Hill
#
# Bulk Modulus (GPa) = 55.51814 68.28721 61.90268
# Shear Modulus (GPa) = 36.30779 42.14285 39.22532
#
# Velocity S-wave (km/s) = 4.00320 4.31290 4.16093
# Velocity P-wave (km/s) = 6.77290 7.41230 7.09980
#
# Compressibility (1/GPa) = 0.01801213
#
# Stress axis : x y z
#
# Youngs Moduli (GPa) = 93.67043 125.85103 70.35747
#
# Poissons Ratio (x) = 0.10525 0.15915
# Poissons Ratio (y) = 0.07834 0.30345
# Poissons Ratio (z) = 0.21189 0.54279
#
# Static dielectric constant tensor:
#      x y z
#    x 4.100270 0.131800 0.285970 
#    y 0.131800 5.291240 2.033900 
#    z 0.285970 2.033900 10.076380 
# 
# 
# High freq. dielectric constant tensor:
#      x y z
#    x 1.897260 0.001860 0.003950 
#    y 0.001860 1.915430 -0.003030 
#    z 0.003950 -0.003030 1.907820 
# 
# From -- ./inp_files/43583.got.cif
#   From: 2010.06.25/outbox.cif.g09.slc.cpg/sg2_22_cif.got.tgz:43583.got - 2010.06.27 13:26:56.
