data_PCOD8028245
_publ_section_title
;
Structure prediction by ZEFSAII (Michael W. Deem and Ramdas Pophale) SiO2 
 PCOD8028245
Probable space group: P -1
;
_chemical_formula_sum "Si O2"
_cell_formula_units_Z 14
_cell_length_a 6.668161
_cell_length_b 15.711248
_cell_length_c 20.799717
_cell_angle_alpha 152.845200
_cell_angle_beta 138.969583
_cell_angle_gamma 52.126875
_cell_volume 640.815786
_symmetry_space_group_name_H-M "P -1"
_symmetry_group_IT_number 2
_symmetry_cell_setting 'triclinic'
loop_
_space_group_symop_operation_xyz
x,y,z
-x,-y,-z
loop_
_atom_site_type_symbol
_atom_site_label
_atom_site_fract_x
_atom_site_fract_y
_atom_site_fract_z
Si Si1 0.112737 0.602626 0.688859
Si Si2 0.181394 0.343682 0.964537
Si Si3 0.159739 0.935605 0.400883
Si Si4 0.801289 0.230477 0.568756
Si Si5 0.901129 0.384010 0.158612
Si Si6 0.195945 0.183483 0.995440
Si Si7 0.868796 0.776252 0.629526
O O1 0.001099 0.627466 0.751224
O O2 0.108713 0.379046 0.525009
O O3 0.870536 0.674058 0.630437
O O4 0.446906 0.736056 0.845940
O O5 0.104709 0.303003 0.993294
O O6 0.071203 0.150730 0.769257
O O7 0.547483 0.410953 0.086574
O O8 0.000000 0.500000 0.000000
O O9 0.167453 0.780243 0.353961
O O10 0.500000 0.000000 0.500000
O O11 0.046565 0.120218 0.522739
O O12 0.450129 0.145421 0.404303
O O13 0.875949 0.446554 0.709994
O O14 0.969803 0.201018 0.013386
O O15 0.147856 0.959929 0.815255
#
# Coordination Sequence:
#
# PCOD8028245 Si02
#       7
#     2   2   2   2   2   2   2
#     4  10  25  45  65  99 131 173 221 275 328 383
#     4  11  24  39  64  93 129 174 214 266 335 385
#     4  11  24  41  63  97 129 173 217 270 324 393
#     4  11  24  40  65  97 132 168 222 267 325 395
#     4  11  24  42  65  92 135 169 213 279 324 388
#     4  11  23  44  66  96 131 172 220 271 327 393
#     4  11  23  45  70  94 133 175 221 271 329 393
#
# _framework density 21.847152999999999
#
# number of rings (size 3 to 8) (size 9 to 14) (size 15 to 20)
#    0.000    1.143    1.429    3.857    6.000    5.714 
#    0.000    0.000    0.000    0.000    0.000    0.000 
#    0.000    0.000    0.000    0.000    0.000    0.000 
#
# Total GULP energy -173659.287683 kJ/mol
# GULP energy per Si atom -12404.234834 kJ/mol
# Density = 2.179743 g / cm^3
# Si number density = 21.847153 Si / 1000 Ang^3
#
#
#
# Elastic Constant Matrix: (Units=GPa)
#
#
# Indices 1 2 3 4 5 6 
#
# 1 110.9786 25.0815 34.1197 -6.2542 -21.2979 11.4527
# 2 25.0815 78.5089 13.3087 -14.7137 -11.9375 2.1226
# 3 34.1197 13.3087 118.5555 0.2921 -4.2084 6.6738
# 4 -6.2542 -14.7137 0.2921 39.5162 11.9900 -2.7213
# 5 -21.2979 -11.9375 -4.2084 11.9900 23.3308 -4.2955
# 6 11.4527 2.1226 6.6738 -2.7213 -4.2955 24.4573
#
#
#
# Elastic Compliance Matrix: (Units=1/GPa)
#
#
# Indices 1 2 3 4 5 6 
#
# 1 0.012600 -0.002301 -0.002806 -0.002209 0.010334 -0.003365
# 2 -0.002301 0.014916 -0.000965 0.004248 0.003379 0.001113
# 3 -0.002806 -0.000965 0.009387 -0.000567 -0.001340 -0.001462
# 4 -0.002209 0.004248 -0.000567 0.031450 -0.015824 0.001541
# 5 0.010334 0.003379 -0.001340 -0.015824 0.062742 0.004492
# 6 -0.003365 0.001113 -0.001462 0.001541 0.004492 0.043726
#
#
# Mechanical properties :
#
#
# Convention : Reuss Voigt Hill
#
# Bulk Modulus (GPa) = 40.39214 50.34028 45.36621
# Shear Modulus (GPa) = 25.61237 33.16307 29.38772
#
# Velocity S-wave (km/s) = 3.42767 3.90033 3.67161
# Velocity P-wave (km/s) = 5.84755 6.58600 6.22773
#
# Compressibility (1/GPa) = 0.02475729
#
# Stress axis : x y z
#
# Youngs Moduli (GPa) = 79.36820 67.04162 106.53118
#
# Poissons Ratio (x) = 0.15428 0.29893
# Poissons Ratio (y) = 0.18265 0.10283
# Poissons Ratio (z) = 0.22271 0.06471
#
# Static dielectric constant tensor:
#      x y z
#    x 3.766680 0.173690 -0.229130 
#    y 0.173690 3.883340 -0.015230 
#    z -0.229130 -0.015230 3.520420 
# 
# 
# High freq. dielectric constant tensor:
#      x y z
#    x 1.852090 0.005430 -0.004290 
#    y 0.005430 1.863350 -0.008000 
#    z -0.004290 -0.008000 1.873250 
# 
# From -- ./inp_files/27302.got.cif
#   From: 2010.06.25/outbox.cif.g09.slc.cpg/sg2_14_cif.got.tgz:27302.got - 2010.06.27 13:26:56.
