data_PCOD8028953
_publ_section_title
;
Structure prediction by ZEFSAII (Michael W. Deem and Ramdas Pophale) SiO2 
 PCOD8028953
Probable space group: P -1
;
_chemical_formula_sum "Si O2"
_cell_formula_units_Z 16
_cell_length_a 11.297797
_cell_length_b 9.180015
_cell_length_c 22.956526
_cell_angle_alpha 49.417117
_cell_angle_beta 145.239634
_cell_angle_gamma 104.861056
_cell_volume 790.458196
_symmetry_space_group_name_H-M "P -1"
_symmetry_group_IT_number 2
_symmetry_cell_setting 'triclinic'
loop_
_space_group_symop_operation_xyz
x,y,z
-x,-y,-z
loop_
_atom_site_type_symbol
_atom_site_label
_atom_site_fract_x
_atom_site_fract_y
_atom_site_fract_z
Si Si1 0.530706 0.875520 0.935398
Si Si2 0.615905 0.647690 0.294205
Si Si3 0.953735 0.113875 0.290354
Si Si4 0.129102 0.272060 0.529529
Si Si5 0.486678 0.722625 0.775738
Si Si6 0.533960 0.663828 0.678151
Si Si7 0.220754 0.520774 0.769027
Si Si8 0.927156 0.479344 0.107793
O O1 0.268135 0.922817 0.791327
O O2 0.471393 0.138219 0.843717
O O3 0.605672 0.757174 0.061278
O O4 0.783409 0.694842 0.041994
O O5 0.651427 0.715785 0.355847
O O6 0.398078 0.605003 0.221586
O O7 0.892834 0.383331 0.452753
O O8 0.905882 0.278447 0.283183
O O9 0.916411 0.263304 0.178371
O O10 0.256246 0.853499 0.480890
O O11 0.014322 0.425338 0.382107
O O12 0.254812 0.988674 0.642823
O O13 0.511550 0.764072 0.707663
O O14 0.405429 0.547903 0.795863
O O15 0.776033 0.591135 0.956138
O O16 0.765857 0.633683 0.744319
#
# Coordination Sequence:
#
# PCOD8028953 Si02
#       8
#     2   2   2   2   2   2   2   2
#     4  11  22  39  63  88 127 157 200 254 300 352
#     4  11  23  38  59  92 123 164 198 243 303 362
#     4  11  20  40  65  91 118 156 205 259 298 345
#     4  11  21  37  62  90 121 155 208 249 296 352
#     4  12  20  40  61  93 120 157 200 258 298 349
#     4  12  25  38  63  92 126 160 200 242 305 367
#     4  11  19  35  64  91 118 151 203 257 304 337
#     4  11  23  40  62  92 124 159 199 250 304 357
#
# _framework density 20.241425
#
# number of rings (size 3 to 8) (size 9 to 14) (size 15 to 20)
#    0.000    0.750    6.250    4.125    0.000    1.000 
#    0.000    0.000    0.000    3.000    0.000    0.000 
#    0.000    0.000    0.000    0.000    0.000    0.000 
#
# Total GULP energy -198427.077205 kJ/mol
# GULP energy per Si atom -12401.692325 kJ/mol
# Density = 2.019535 g / cm^3
# Si number density = 20.241425 Si / 1000 Ang^3
#
#
#
# Elastic Constant Matrix: (Units=GPa)
#
#
# Indices 1 2 3 4 5 6 
#
# 1 69.1215 11.1920 24.6620 -3.8337 8.5863 2.5306
# 2 11.1920 60.9415 8.8556 -8.8889 0.2222 5.4592
# 3 24.6620 8.8556 100.4671 -5.9904 -11.6471 -3.4656
# 4 -3.8337 -8.8889 -5.9904 24.4610 -6.2172 -8.1223
# 5 8.5863 0.2222 -11.6471 -6.2172 35.9485 7.8189
# 6 2.5306 5.4592 -3.4656 -8.1223 7.8189 20.7675
#
#
#
# Elastic Compliance Matrix: (Units=1/GPa)
#
#
# Indices 1 2 3 4 5 6 
#
# 1 0.017246 -0.002561 -0.004745 -0.000994 -0.005713 -0.000458
# 2 -0.002561 0.018026 -0.000513 0.005491 0.001958 -0.003102
# 3 -0.004745 -0.000513 0.012104 0.004161 0.005260 0.002380
# 4 -0.000994 0.005491 0.004161 0.051026 0.006723 0.016797
# 5 -0.005713 0.001958 0.005260 0.006723 0.034021 -0.009120
# 6 -0.000458 -0.003102 0.002380 0.016797 -0.009120 0.059424
#
#
# Mechanical properties :
#
#
# Convention : Reuss Voigt Hill
#
# Bulk Modulus (GPa) = 31.50808 35.54992 33.52900
# Shear Modulus (GPa) = 22.92912 28.62344 25.77628
#
# Velocity S-wave (km/s) = 3.36933 3.76453 3.57240
# Velocity P-wave (km/s) = 5.54405 6.04125 5.79798
#
# Compressibility (1/GPa) = 0.03173789
#
# Stress axis : x y z
#
# Youngs Moduli (GPa) = 57.98345 55.47644 82.62052
#
# Poissons Ratio (x) = 0.14207 0.39205
# Poissons Ratio (y) = 0.14849 0.04236
# Poissons Ratio (z) = 0.27514 0.02845
#
# Static dielectric constant tensor:
#      x y z
#    x 3.494660 0.000830 -0.318780 
#    y 0.000830 3.663090 -0.019070 
#    z -0.318780 -0.019070 3.882740 
# 
# 
# High freq. dielectric constant tensor:
#      x y z
#    x 1.769600 -0.003920 -0.024850 
#    y -0.003920 1.780530 -0.003870 
#    z -0.024850 -0.003870 1.797720 
# 
# From -- ./inp_files/218333.got.cif
#   From: 2010.06.25/outbox.cif.g09.slc.cpg/sg2_110_cif.got.tgz:218333.got - 2010.06.27 13:26:56.
