data_PCOD8028534
_publ_section_title
;
Structure prediction by ZEFSAII (Michael W. Deem and Ramdas Pophale) SiO2 
 PCOD8028534
Probable space group: P -1
;
_chemical_formula_sum "Si O2"
_cell_formula_units_Z 16
_cell_length_a 9.074651
_cell_length_b 16.109963
_cell_length_c 12.239083
_cell_angle_alpha 155.261466
_cell_angle_beta 97.878338
_cell_angle_gamma 83.570733
_cell_volume 741.360370
_symmetry_space_group_name_H-M "P -1"
_symmetry_group_IT_number 2
_symmetry_cell_setting 'triclinic'
loop_
_space_group_symop_operation_xyz
x,y,z
-x,-y,-z
loop_
_atom_site_type_symbol
_atom_site_label
_atom_site_fract_x
_atom_site_fract_y
_atom_site_fract_z
Si Si1 0.238809 0.387503 0.531876
Si Si2 0.384199 0.378743 0.915409
Si Si3 0.069102 0.467054 0.269237
Si Si4 0.349972 0.384649 0.314134
Si Si5 0.967739 0.970331 0.333955
Si Si6 0.749751 0.898811 0.605512
Si Si7 0.531588 0.246182 0.980839
Si Si8 0.883483 0.381770 0.768619
O O1 0.279278 0.283263 0.295266
O O2 0.234609 0.213378 0.412177
O O3 0.365465 0.554368 0.769644
O O4 0.082132 0.500026 0.638898
O O5 0.278341 0.254713 0.677330
O O6 0.500000 0.500000 0.000000
O O7 0.460753 0.236525 0.841118
O O8 0.279993 0.531645 0.148700
O O9 0.217121 0.523460 0.422095
O O10 0.049771 0.612420 0.338954
O O11 0.098076 0.247223 0.960037
O O12 0.500000 0.500000 0.500000
O O13 0.399282 0.238309 0.047970
O O14 0.103262 0.984653 0.279325
O O15 0.857514 0.149808 0.515952
O O16 0.000000 0.000000 0.500000
O O17 0.618465 0.050772 0.782679
O O18 0.000000 0.500000 0.000000
#
# Coordination Sequence:
#
# PCOD8028534 Si02
#       8
#     2   2   2   2   2   2   2   2
#     4  11  23  45  70  95 130 175 230 276 328 392
#     4  12  24  40  66  99 138 178 216 268 341 405
#     4  12  22  45  70 100 134 173 229 275 333 395
#     4  10  25  47  72  96 130 182 227 281 334 387
#     4  12  25  38  68 103 138 176 217 269 333 405
#     4  12  24  41  66 100 136 176 218 276 333 399
#     4  11  24  44  65  98 138 173 221 274 336 401
#     4  12  23  42  66 100 141 174 216 271 330 405
#
# _framework density 21.581948000000001
#
# number of rings (size 3 to 8) (size 9 to 14) (size 15 to 20)
#    0.000    0.500    7.500    0.750    1.750    1.500 
#    0.000    3.125    0.000    0.000    0.000    0.000 
#    0.000    0.000    0.000    0.000    0.000    0.000 
#
# Total GULP energy -198281.748954 kJ/mol
# GULP energy per Si atom -12392.609310 kJ/mol
# Density = 2.153283 g / cm^3
# Si number density = 21.581948 Si / 1000 Ang^3
#
#
#
# Elastic Constant Matrix: (Units=GPa)
#
#
# Indices 1 2 3 4 5 6 
#
# 1 116.5238 53.1270 17.0350 -5.4544 -22.8733 -0.6478
# 2 53.1270 155.8396 36.1140 -3.1977 -13.3589 4.8523
# 3 17.0350 36.1140 45.6908 13.4472 -12.0968 3.7659
# 4 -5.4544 -3.1977 13.4472 37.4717 -4.8310 -7.0240
# 5 -22.8733 -13.3589 -12.0968 -4.8310 34.3847 -5.7982
# 6 -0.6478 4.8523 3.7659 -7.0240 -5.7982 41.0945
#
#
#
# Elastic Compliance Matrix: (Units=1/GPa)
#
#
# Indices 1 2 3 4 5 6 
#
# 1 0.011707 -0.003128 -0.001155 0.003161 0.006979 0.002185
# 2 -0.003128 0.009110 -0.006998 0.002731 -0.000638 -0.000107
# 3 -0.001155 -0.006998 0.033434 -0.012678 0.005889 -0.003592
# 4 0.003161 0.002731 -0.012678 0.033914 0.004708 0.007350
# 5 0.006979 -0.000638 0.005889 0.004708 0.037170 0.005695
# 6 0.002185 -0.000107 -0.003592 0.007350 0.005695 0.026770
#
#
# Mechanical properties :
#
#
# Convention : Reuss Voigt Hill
#
# Bulk Modulus (GPa) = 31.55685 58.95624 45.25654
# Shear Modulus (GPa) = 26.99341 36.70872 31.85106
#
# Velocity S-wave (km/s) = 3.54042 4.12867 3.84581
# Velocity P-wave (km/s) = 5.60057 7.07846 6.38243
#
# Compressibility (1/GPa) = 0.03168884
#
# Stress axis : x y z
#
# Youngs Moduli (GPa) = 85.41865 109.77350 29.90966
#
# Poissons Ratio (x) = 0.34341 0.03454
# Poissons Ratio (y) = 0.26722 0.20930
# Poissons Ratio (z) = 0.09864 0.76817
#
# Static dielectric constant tensor:
#      x y z
#    x 4.406240 0.281800 -0.502570 
#    y 0.281800 4.226680 -0.306900 
#    z -0.502570 -0.306900 3.953630 
# 
# 
# High freq. dielectric constant tensor:
#      x y z
#    x 1.869190 0.003310 -0.015560 
#    y 0.003310 1.861270 -0.006230 
#    z -0.015560 -0.006230 1.819170 
# 
# From -- ./inp_files/269692.got.cif
#   From: 2010.06.25/outbox.cif.g09.slc.cpg/sg2_135_cif.got.tgz:269692.got - 2010.06.27 13:26:56.
