data_PCOD8028009
_publ_section_title
;
Structure prediction by ZEFSAII (Michael W. Deem and Ramdas Pophale) SiO2 
 PCOD8028009
Probable space group: P -1
;
_chemical_formula_sum "Si O2"
_cell_formula_units_Z 16
_cell_length_a 13.866899
_cell_length_b 8.917453
_cell_length_c 14.812035
_cell_angle_alpha 138.621964
_cell_angle_beta 40.477147
_cell_angle_gamma 139.084803
_cell_volume 709.235380
_symmetry_space_group_name_H-M "P -1"
_symmetry_group_IT_number 2
_symmetry_cell_setting 'triclinic'
loop_
_space_group_symop_operation_xyz
x,y,z
-x,-y,-z
loop_
_atom_site_type_symbol
_atom_site_label
_atom_site_fract_x
_atom_site_fract_y
_atom_site_fract_z
Si Si1 0.626964 0.540359 0.533240
Si Si2 0.678501 0.917652 0.800000
Si Si3 0.747763 0.789607 0.973315
Si Si4 0.453628 0.745536 0.043052
Si Si5 0.282732 0.221654 0.602153
Si Si6 0.013663 0.643067 0.145818
Si Si7 0.849626 0.271022 0.236447
Si Si8 0.961856 0.268463 0.355613
O O1 0.731517 0.720047 0.622456
O O2 0.435888 0.389568 0.633749
O O3 0.633458 0.736111 0.537539
O O4 0.693280 0.334865 0.367123
O O5 0.629324 0.061698 0.820219
O O6 0.522370 0.743554 0.893007
O O7 0.822157 0.100783 0.846024
O O8 0.682860 0.525391 0.952054
O O9 0.883873 0.800978 0.805936
O O10 0.603314 0.835539 0.048449
O O11 0.817687 0.999568 0.096564
O O12 0.147873 0.319100 0.725929
O O13 0.193226 0.944088 0.579450
O O14 0.004643 0.470881 0.160389
O O15 0.000000 0.500000 0.000000
O O16 0.900034 0.307364 0.320506
O O17 0.000000 0.500000 0.500000
#
# Coordination Sequence:
#
# PCOD8028009 Si02
#       8
#     2   2   2   2   2   2   2   2
#     4  10  26  44  71 101 141 179 239 288 345 416
#     4  11  24  42  71 104 139 179 239 287 347 413
#     4  11  25  48  68 102 141 183 232 287 352 428
#     4  10  25  41  74  99 138 183 232 289 354 407
#     4  10  25  44  67  99 139 183 227 289 346 414
#     4  11  24  43  72 101 138 184 238 289 347 411
#     4  11  26  45  72 101 142 188 234 287 355 417
#     4  12  28  44  71 103 147 185 234 289 360 416
#
# _framework density 22.559507
#
# number of rings (size 3 to 8) (size 9 to 14) (size 15 to 20)
#    0.000    1.250    0.000    3.375   17.500    2.500 
#    0.000    0.000    0.000    0.000    0.000    0.000 
#    0.000    0.000    0.000    0.000    0.000    0.000 
#
# Total GULP energy -198218.958250 kJ/mol
# GULP energy per Si atom -12388.684891 kJ/mol
# Density = 2.250816 g / cm^3
# Si number density = 22.559507 Si / 1000 Ang^3
#
#
#
# Elastic Constant Matrix: (Units=GPa)
#
#
# Indices 1 2 3 4 5 6 
#
# 1 105.8167 42.1993 49.2256 7.7399 8.8657 5.8042
# 2 42.1993 153.3597 58.5406 -12.9340 20.3075 -0.1933
# 3 49.2256 58.5406 113.4774 13.8667 23.5144 11.7036
# 4 7.7399 -12.9340 13.8667 26.3958 11.5778 1.7125
# 5 8.8657 20.3075 23.5144 11.5778 38.4036 1.6034
# 6 5.8042 -0.1933 11.7036 1.7125 1.6034 36.3856
#
#
#
# Elastic Compliance Matrix: (Units=1/GPa)
#
#
# Indices 1 2 3 4 5 6 
#
# 1 0.012434 -0.002439 -0.004052 -0.003548 0.001995 -0.000614
# 2 -0.002439 0.010650 -0.004798 0.010727 -0.005437 0.001724
# 3 -0.004052 -0.004798 0.015021 -0.007341 -0.003357 -0.003717
# 4 -0.003548 0.010727 -0.007341 0.055479 -0.017131 0.001128
# 5 0.001995 -0.005437 -0.003357 -0.017131 0.035675 -0.000033
# 6 -0.000614 0.001724 -0.003717 0.001128 -0.000033 0.028735
#
#
# Mechanical properties :
#
#
# Convention : Reuss Voigt Hill
#
# Bulk Modulus (GPa) = 64.40479 74.73163 69.56821
# Shear Modulus (GPa) = 26.91823 35.08290 31.00057
#
# Velocity S-wave (km/s) = 3.45803 3.94779 3.71100
# Velocity P-wave (km/s) = 6.67494 7.34700 7.01902
#
# Compressibility (1/GPa) = 0.01552680
#
# Stress axis : x y z
#
# Youngs Moduli (GPa) = 80.42485 93.89624 66.57127
#
# Poissons Ratio (x) = 0.22899 0.26977
# Poissons Ratio (y) = 0.19613 0.31943
# Poissons Ratio (z) = 0.32591 0.45054
#
# Static dielectric constant tensor:
#      x y z
#    x 4.076620 -0.104170 -0.047290 
#    y -0.104170 4.598170 -0.241480 
#    z -0.047290 -0.241480 3.981970 
# 
# 
# High freq. dielectric constant tensor:
#      x y z
#    x 1.896900 -0.004310 0.000870 
#    y -0.004310 1.901690 -0.008760 
#    z 0.000870 -0.008760 1.884850 
# 
# From -- ./inp_files/530223.got.cif
#   From: 2010.06.25/outbox.cif.g09.slc.cpg/sg2_266_cif.got.tgz:530223.got - 2010.06.27 13:26:56.
