data_PCOD8028152
_publ_section_title
;
Structure prediction by ZEFSAII (Michael W. Deem and Ramdas Pophale) SiO2 
 PCOD8028152
Probable space group: P -1
;
_chemical_formula_sum "Si O2"
_cell_formula_units_Z 16
_cell_length_a 9.348389
_cell_length_b 19.408654
_cell_length_c 12.098062
_cell_angle_alpha 23.164694
_cell_angle_beta 129.055258
_cell_angle_gamma 122.191007
_cell_volume 662.706194
_symmetry_space_group_name_H-M "P -1"
_symmetry_group_IT_number 2
_symmetry_cell_setting 'triclinic'
loop_
_space_group_symop_operation_xyz
x,y,z
-x,-y,-z
loop_
_atom_site_type_symbol
_atom_site_label
_atom_site_fract_x
_atom_site_fract_y
_atom_site_fract_z
Si Si1 0.485808 0.115911 0.431737
Si Si2 0.856315 0.245332 0.447082
Si Si3 0.282612 0.552917 0.125999
Si Si4 0.981814 0.450470 0.410295
Si Si5 0.895669 0.202551 0.131918
Si Si6 0.307848 0.427919 0.744813
Si Si7 0.391793 0.985802 0.807462
Si Si8 0.237989 0.167734 0.672931
O O1 0.691610 0.130975 0.554838
O O2 0.377389 0.044163 0.586325
O O3 0.500000 0.000000 0.500000
O O4 0.366633 0.296719 0.068365
O O5 0.911445 0.332266 0.457267
O O6 0.036469 0.112775 0.682907
O O7 0.782336 0.403257 0.094420
O O8 0.507486 0.510836 0.305659
O O9 0.209185 0.374177 0.389138
O O10 0.193512 0.716779 0.915956
O O11 0.192378 0.363497 0.679564
O O12 0.842637 0.427691 0.478918
O O13 0.983791 0.657502 0.069408
O O14 0.722388 0.181382 0.995777
O O15 0.000000 0.000000 0.500000
O O16 0.288173 0.141877 0.605799
O O17 0.603793 0.941648 0.014044
#
# Coordination Sequence:
#
# PCOD8028152 Si02
#       8
#     2   2   2   2   2   2   2   2
#     4  11  26  47  71 101 142 191 236 289 356 428
#     4  11  25  42  72 101 136 186 241 291 351 423
#     4  11  24  43  73 100 141 186 238 285 356 437
#     4  11  25  44  68 106 138 182 238 299 346 428
#     4  12  25  43  73 103 140 186 236 298 358 423
#     4  10  25  44  67 100 141 186 236 284 357 423
#     4  11  26  44  69 105 146 188 231 300 356 419
#     4  11  25  44  69 107 143 182 239 295 360 419
#
# _framework density 24.143428
#
# number of rings (size 3 to 8) (size 9 to 14) (size 15 to 20)
#    0.000    1.000    1.250    4.125    8.750    3.500 
#    2.250    0.000    0.000    0.000    0.000    0.000 
#    0.000    0.000    0.000    0.000    0.000    0.000 
#
# Total GULP energy -198293.580128 kJ/mol
# GULP energy per Si atom -12393.348758 kJ/mol
# Density = 2.408848 g / cm^3
# Si number density = 24.143428 Si / 1000 Ang^3
#
#
#
# Elastic Constant Matrix: (Units=GPa)
#
#
# Indices 1 2 3 4 5 6 
#
# 1 103.3621 55.0271 26.3202 2.3537 17.5267 0.9688
# 2 55.0271 168.2802 33.9772 15.2286 14.7421 -2.5023
# 3 26.3202 33.9772 47.9918 0.7227 15.6193 -6.5750
# 4 2.3537 15.2286 0.7227 35.3456 4.3883 3.9787
# 5 17.5267 14.7421 15.6193 4.3883 37.7991 7.8600
# 6 0.9688 -2.5023 -6.5750 3.9787 7.8600 39.2246
#
#
#
# Elastic Compliance Matrix: (Units=1/GPa)
#
#
# Indices 1 2 3 4 5 6 
#
# 1 0.012910 -0.003280 -0.003856 0.001092 -0.003102 -0.000664
# 2 -0.003280 0.008081 -0.003958 -0.003247 0.000341 0.000194
# 3 -0.003856 -0.003958 0.030177 0.001911 -0.010789 0.006869
# 4 0.001092 -0.003247 0.001911 0.030224 -0.003046 -0.002369
# 5 -0.003102 0.000341 -0.010789 -0.003046 0.034293 -0.008273
# 6 -0.000664 0.000194 0.006869 -0.002369 -0.008273 0.028572
#
#
# Mechanical properties :
#
#
# Convention : Reuss Voigt Hill
#
# Bulk Modulus (GPa) = 34.50540 61.14257 47.82398
# Shear Modulus (GPa) = 28.39209 36.09450 32.24329
#
# Velocity S-wave (km/s) = 3.43297 3.87072 3.65840
# Velocity P-wave (km/s) = 5.48056 6.73471 6.13974
#
# Compressibility (1/GPa) = 0.02898097
#
# Stress axis : x y z
#
# Youngs Moduli (GPa) = 77.45835 123.74823 33.13762
#
# Poissons Ratio (x) = 0.40589 0.12777
# Poissons Ratio (y) = 0.25406 0.13115
# Poissons Ratio (z) = 0.29866 0.48978
#
# Static dielectric constant tensor:
#      x y z
#    x 4.477230 0.121730 0.085120 
#    y 0.121730 4.418680 0.028540 
#    z 0.085120 0.028540 3.370010 
# 
# 
# High freq. dielectric constant tensor:
#      x y z
#    x 1.975080 0.003550 0.015580 
#    y 0.003550 1.968940 0.023040 
#    z 0.015580 0.023040 1.943510 
# 
# From -- ./inp_files/402721.got.cif
#   From: 2010.06.25/outbox.cif.g09.slc.cpg/sg2_202_cif.got.tgz:402721.got - 2010.06.27 13:26:56.
