data_PCOD8028289
_publ_section_title
;
Structure prediction by ZEFSAII (Michael W. Deem and Ramdas Pophale) SiO2 
 PCOD8028289
Probable space group: P -1
;
_chemical_formula_sum "Si O2"
_cell_formula_units_Z 16
_cell_length_a 8.020409
_cell_length_b 15.063542
_cell_length_c 15.104461
_cell_angle_alpha 29.503508
_cell_angle_beta 82.832571
_cell_angle_gamma 67.028651
_cell_volume 728.604183
_symmetry_space_group_name_H-M "P -1"
_symmetry_group_IT_number 2
_symmetry_cell_setting 'triclinic'
loop_
_space_group_symop_operation_xyz
x,y,z
-x,-y,-z
loop_
_atom_site_type_symbol
_atom_site_label
_atom_site_fract_x
_atom_site_fract_y
_atom_site_fract_z
Si Si1 0.044549 0.717807 0.890526
Si Si2 0.132607 0.562031 0.828363
Si Si3 0.388400 0.603232 0.253597
Si Si4 0.659379 0.048309 0.917221
Si Si5 0.245870 0.862801 0.350223
Si Si6 0.966850 0.423161 0.660690
Si Si7 0.053470 0.226059 0.523921
Si Si8 0.627223 0.247039 0.063240
O O1 0.065258 0.715379 0.785777
O O2 0.257078 0.666713 0.962918
O O3 0.842314 0.953754 0.727059
O O4 0.996715 0.544110 0.075337
O O5 0.054393 0.721100 0.610736
O O6 0.380884 0.388780 0.967264
O O7 0.408298 0.728002 0.224853
O O8 0.599266 0.376675 0.409413
O O9 0.256283 0.520930 0.370407
O O10 0.308530 0.755520 0.040390
O O11 0.654058 0.083118 0.782203
O O12 0.500000 0.000000 0.000000
O O13 0.882516 0.838852 0.110651
O O14 0.058742 0.851954 0.337084
O O15 0.979208 0.554797 0.626672
O O16 0.000000 0.500000 0.500000
O O17 0.288419 0.005763 0.695784
#
# Coordination Sequence:
#
# PCOD8028289 Si02
#       8
#     2   2   2   2   2   2   2   2
#     4  10  25  45  69 102 137 180 231 288 342 414
#     4  11  23  47  71  98 141 182 230 287 349 402
#     4  12  24  41  64  99 131 178 224 277 341 408
#     4  12  25  41  65  93 132 179 223 273 342 408
#     4  11  23  42  65  96 134 173 227 280 333 409
#     4  12  24  41  65  98 138 176 228 285 338 411
#     4  11  23  43  69 100 136 183 226 281 343 408
#     4  11  24  43  69 102 137 181 231 283 344 409
#
# _framework density 21.959795
#
# number of rings (size 3 to 8) (size 9 to 14) (size 15 to 20)
#    0.000    0.750    1.250    7.125    3.500    2.000 
#    2.250    1.250    0.000    0.000    0.000    0.000 
#    0.000    0.000    0.000    0.000    0.000    0.000 
#
# Total GULP energy -198332.307594 kJ/mol
# GULP energy per Si atom -12395.769225 kJ/mol
# Density = 2.190981 g / cm^3
# Si number density = 21.959795 Si / 1000 Ang^3
#
#
#
# Elastic Constant Matrix: (Units=GPa)
#
#
# Indices 1 2 3 4 5 6 
#
# 1 90.9109 52.8568 19.7495 1.2231 -5.8800 -3.3799
# 2 52.8568 146.4508 55.8389 -4.3941 4.8992 -5.2891
# 3 19.7495 55.8389 124.1405 -4.9362 20.5104 -6.8788
# 4 1.2231 -4.3941 -4.9362 36.3091 -1.8097 -2.6900
# 5 -5.8800 4.8992 20.5104 -1.8097 36.0006 -0.1909
# 6 -3.3799 -5.2891 -6.8788 -2.6900 -0.1909 28.7443
#
#
#
# Elastic Compliance Matrix: (Units=1/GPa)
#
#
# Indices 1 2 3 4 5 6 
#
# 1 0.014318 -0.005079 -0.000546 -0.000966 0.003295 0.000550
# 2 -0.005079 0.010105 -0.003663 0.000928 -0.000069 0.000472
# 3 -0.000546 -0.003663 0.010879 0.000910 -0.005733 0.001912
# 4 -0.000966 0.000928 0.000910 0.028056 0.000623 0.002905
# 5 0.003295 -0.000069 -0.005733 0.000623 0.031618 -0.000729
# 6 0.000550 0.000472 0.001912 0.002905 -0.000729 0.035666
#
#
# Mechanical properties :
#
#
# Convention : Reuss Voigt Hill
#
# Bulk Modulus (GPa) = 59.78316 68.71029 64.24673
# Shear Modulus (GPa) = 32.30129 35.74794 34.02462
#
# Velocity S-wave (km/s) = 3.83943 4.03908 3.94052
# Velocity P-wave (km/s) = 6.85113 7.28761 7.07274
#
# Compressibility (1/GPa) = 0.01672712
#
# Stress axis : x y z
#
# Youngs Moduli (GPa) = 69.84319 98.96032 91.91920
#
# Poissons Ratio (x) = 0.50261 0.05016
# Poissons Ratio (y) = 0.35472 0.33669
# Poissons Ratio (z) = 0.03811 0.36248
#
# Static dielectric constant tensor:
#      x y z
#    x -4.764030 0.856110 11.426750 
#    y 0.856110 3.865400 -1.257220 
#    z 11.426750 -1.257220 -10.889170 
# 
# 
# High freq. dielectric constant tensor:
#      x y z
#    x 1.873570 -0.007940 -0.005460 
#    y -0.007940 1.867010 -0.005470 
#    z -0.005460 -0.005470 1.872530 
# 
# From -- ./inp_files/505013.got.cif
#   From: 2010.06.25/outbox.cif.g09.slc.cpg/sg2_253_cif.got.tgz:505013.got - 2010.06.27 13:26:56.
