data_PCOD8028105
_publ_section_title
;
Structure prediction by ZEFSAII (Michael W. Deem and Ramdas Pophale) SiO2 
 PCOD8028105
Probable space group: P -1
;
_chemical_formula_sum "Si O2"
_cell_formula_units_Z 16
_cell_length_a 4.991423
_cell_length_b 22.432310
_cell_length_c 9.405270
_cell_angle_alpha 55.969843
_cell_angle_beta 98.079300
_cell_angle_gamma 123.779138
_cell_volume 702.816840
_symmetry_space_group_name_H-M "P -1"
_symmetry_group_IT_number 2
_symmetry_cell_setting 'triclinic'
loop_
_space_group_symop_operation_xyz
x,y,z
-x,-y,-z
loop_
_atom_site_type_symbol
_atom_site_label
_atom_site_fract_x
_atom_site_fract_y
_atom_site_fract_z
Si Si1 0.752627 0.065133 0.546848
Si Si2 0.296757 0.631565 0.216341
Si Si3 0.768222 0.588236 0.824564
Si Si4 0.534191 0.338862 0.124011
Si Si5 0.580620 0.061799 0.053405
Si Si6 0.435949 0.155389 0.347761
Si Si7 0.413571 0.535034 0.578878
Si Si8 0.350814 0.165672 0.010898
O O1 0.734866 0.150534 0.433158
O O2 0.110625 0.087829 0.506372
O O3 0.500000 0.000000 0.500000
O O4 0.633627 0.015518 0.749610
O O5 0.388553 0.609156 0.403712
O O6 0.915991 0.550974 0.262136
O O7 0.481273 0.636185 0.075993
O O8 0.379790 0.728102 0.120047
O O9 0.748301 0.663024 0.803423
O O10 0.695557 0.583399 0.656708
O O11 0.109441 0.597153 0.857848
O O12 0.500000 0.500000 0.000000
O O13 0.493148 0.247810 0.249401
O O14 0.437159 0.121023 0.954105
O O15 0.972744 0.133594 0.013297
O O16 0.500000 0.000000 0.000000
O O17 0.388510 0.130671 0.210593
O O18 0.500000 0.500000 0.500000
#
# Coordination Sequence:
#
# PCOD8028105 Si02
#       8
#     2   2   2   2   2   2   2   2
#     4  12  21  41  69  95 125 166 218 267 326 384
#     4  10  25  43  70  97 131 178 229 273 326 403
#     4  12  24  43  68  97 137 172 220 277 336 388
#     4  11  25  44  67 100 133 174 222 279 335 381
#     4  12  26  44  65  97 135 175 213 265 335 398
#     4  11  22  41  69  99 125 166 224 275 318 385
#     4  11  25  44  68  98 135 182 227 267 331 404
#     4  11  23  44  69  96 129 173 222 269 324 391
#
# _framework density 22.765532
#
# number of rings (size 3 to 8) (size 9 to 14) (size 15 to 20)
#    0.000    0.750    3.750    3.375    5.250    2.000 
#    6.750    0.000    0.000    0.000    0.000    0.000 
#    0.000    0.000    0.000    0.000    0.000    0.000 
#
# Total GULP energy -198243.628339 kJ/mol
# GULP energy per Si atom -12390.226771 kJ/mol
# Density = 2.271372 g / cm^3
# Si number density = 22.765532 Si / 1000 Ang^3
#
#
#
# Elastic Constant Matrix: (Units=GPa)
#
#
# Indices 1 2 3 4 5 6 
#
# 1 69.5563 4.3366 9.9058 -3.6369 -1.4843 -17.6178
# 2 4.3366 94.2869 46.5094 9.6521 -0.2493 -19.1549
# 3 9.9058 46.5094 112.5766 3.5375 -0.1908 -3.6803
# 4 -3.6369 9.6521 3.5375 36.9725 -2.1925 -1.4926
# 5 -1.4843 -0.2493 -0.1908 -2.1925 25.6533 5.7148
# 6 -17.6178 -19.1549 -3.6803 -1.4926 5.7148 43.9433
#
#
#
# Elastic Compliance Matrix: (Units=1/GPa)
#
#
# Indices 1 2 3 4 5 6 
#
# 1 0.016452 0.001452 -0.001866 0.001678 -0.000507 0.007196
# 2 0.001452 0.015250 -0.006111 -0.003073 -0.001595 0.006821
# 3 -0.001866 -0.006111 0.011483 0.000241 0.000497 -0.002507
# 4 0.001678 -0.003073 0.000241 0.028138 0.002477 -0.000013
# 5 -0.000507 -0.001595 0.000497 0.002477 0.040497 -0.006040
# 6 0.007196 0.006821 -0.002507 -0.000013 -0.006040 0.029190
#
#
# Mechanical properties :
#
#
# Convention : Reuss Voigt Hill
#
# Bulk Modulus (GPa) = 33.18413 44.21372 38.69893
# Shear Modulus (GPa) = 30.46859 35.69166 33.08013
#
# Velocity S-wave (km/s) = 3.66234 3.96383 3.81606
# Velocity P-wave (km/s) = 5.70015 6.35711 6.03757
#
# Compressibility (1/GPa) = 0.03013488
#
# Stress axis : x y z
#
# Youngs Moduli (GPa) = 60.78471 65.57528 87.08466
#
# Poissons Ratio (x) = -0.09525 0.16250
# Poissons Ratio (y) = -0.08829 0.53219
# Poissons Ratio (z) = 0.11343 0.40074
#
# Static dielectric constant tensor:
#      x y z
#    x 1.040060 -0.139750 -4.676350 
#    y -0.139750 4.720780 1.109390 
#    z -4.676350 1.109390 -0.176460 
# 
# 
# High freq. dielectric constant tensor:
#      x y z
#    x 1.899910 -0.013870 -0.002180 
#    y -0.013870 1.903960 -0.009830 
#    z -0.002180 -0.009830 1.901040 
# 
# From -- ./inp_files/141347.got.cif
#   From: 2010.06.25/outbox.cif.g09.slc.cpg/sg2_71_cif.got.tgz:141347.got - 2010.06.27 13:26:56.
