data_PCOD8028925
_publ_section_title
;
Structure prediction by ZEFSAII (Michael W. Deem and Ramdas Pophale) SiO2 
 PCOD8028925
Probable space group: P -1
;
_chemical_formula_sum "Si O2"
_cell_formula_units_Z 16
_cell_length_a 25.896046
_cell_length_b 11.828116
_cell_length_c 6.360695
_cell_angle_alpha 49.303781
_cell_angle_beta 124.231767
_cell_angle_gamma 152.719247
_cell_volume 676.244229
_symmetry_space_group_name_H-M "P -1"
_symmetry_group_IT_number 2
_symmetry_cell_setting 'triclinic'
loop_
_space_group_symop_operation_xyz
x,y,z
-x,-y,-z
loop_
_atom_site_type_symbol
_atom_site_label
_atom_site_fract_x
_atom_site_fract_y
_atom_site_fract_z
Si Si1 0.756371 0.191318 0.679256
Si Si2 0.854790 0.949412 0.778058
Si Si3 0.309643 0.252963 0.025871
Si Si4 0.905256 0.586781 0.156500
Si Si5 0.662482 0.498757 0.601418
Si Si6 0.499792 0.324145 0.745987
Si Si7 0.909694 0.338137 0.169136
Si Si8 0.305213 0.752197 0.168033
O O1 0.846820 0.438166 0.426486
O O2 0.690939 0.199674 0.631219
O O3 0.804150 0.206290 0.977991
O O4 0.679634 0.908369 0.742129
O O5 0.758685 0.654774 0.808790
O O6 0.880351 0.119269 0.451787
O O7 0.804777 0.927171 0.898744
O O8 0.971280 0.088038 0.922737
O O9 0.297735 0.291349 0.717872
O O10 0.420032 0.545164 0.028205
O O11 0.946336 0.512526 0.238544
O O12 0.822088 0.509673 0.902566
O O13 0.547919 0.329786 0.650313
O O14 0.638152 0.297446 0.664924
O O15 0.500000 0.500000 0.500000
O O16 0.374894 0.013465 0.878013
O O17 0.000000 0.500000 0.000000
#
# Coordination Sequence:
#
# PCOD8028925 Si02
#       8
#     2   2   2   2   2   2   2   2
#     4  11  21  37  64  96 131 169 217 269 328 383
#     4  11  22  38  65 100 133 171 223 269 325 384
#     4  11  23  41  69  97 128 170 218 275 331 378
#     4  11  23  38  65  99 135 176 216 275 324 376
#     4  11  26  45  66  94 135 176 215 267 326 399
#     4  11  25  46  73 101 123 161 223 282 329 383
#     4  11  19  33  62  99 131 167 220 277 326 371
#     4  11  27  44  63  96 137 175 218 263 326 399
#
# _framework density 23.660091999999999
#
# number of rings (size 3 to 8) (size 9 to 14) (size 15 to 20)
#    0.000    1.000    3.750    3.000    3.500    6.000 
#    0.000    1.250    0.000    0.000    0.000    0.000 
#    0.000    0.000    0.000    0.000    0.000    0.000 
#
# Total GULP energy -198322.444817 kJ/mol
# GULP energy per Si atom -12395.152801 kJ/mol
# Density = 2.360624 g / cm^3
# Si number density = 23.660092 Si / 1000 Ang^3
#
#
#
# Elastic Constant Matrix: (Units=GPa)
#
#
# Indices 1 2 3 4 5 6 
#
# 1 182.2055 30.7615 34.1238 -11.9064 -26.0435 -15.8727
# 2 30.7615 59.8196 0.2800 0.8802 -8.7963 12.2985
# 3 34.1238 0.2800 52.0242 -1.4422 -24.5235 1.8676
# 4 -11.9064 0.8802 -1.4422 25.0050 2.0828 -1.7544
# 5 -26.0435 -8.7963 -24.5235 2.0828 44.3960 -3.1555
# 6 -15.8727 12.2985 1.8676 -1.7544 -3.1555 31.8270
#
#
#
# Elastic Compliance Matrix: (Units=1/GPa)
#
#
# Indices 1 2 3 4 5 6 
#
# 1 0.008480 -0.005653 -0.005013 0.004329 0.001386 0.007084
# 2 -0.005653 0.022612 0.005596 -0.004292 0.003620 -0.011763
# 3 -0.005013 0.005596 0.029224 -0.002429 0.014062 -0.005117
# 4 0.004329 -0.004292 -0.002429 0.042599 -0.001211 0.006188
# 5 0.001386 0.003620 0.014062 -0.001211 0.031991 0.001572
# 6 0.007084 -0.011763 -0.005117 0.006188 0.001572 0.040295
#
#
# Mechanical properties :
#
#
# Convention : Reuss Voigt Hill
#
# Bulk Modulus (GPa) = 19.92965 47.15332 33.54149
# Shear Modulus (GPa) = 24.74442 35.50453 30.12448
#
# Velocity S-wave (km/s) = 3.23744 3.87797 3.57209
# Velocity P-wave (km/s) = 4.73458 6.32648 5.58751
#
# Compressibility (1/GPa) = 0.05017649
#
# Stress axis : x y z
#
# Youngs Moduli (GPa) = 117.93063 44.22465 34.21807
#
# Poissons Ratio (x) = 0.25002 0.17152
# Poissons Ratio (y) = 0.66670 -0.19149
# Poissons Ratio (z) = 0.59114 -0.24749
#
# Static dielectric constant tensor:
#      x y z
#    x 4.879230 -0.992010 0.929020 
#    y -0.992010 9.499660 -5.436210 
#    z 0.929020 -5.436210 10.126440 
# 
# 
# High freq. dielectric constant tensor:
#      x y z
#    x 1.947430 -0.003710 -0.019630 
#    y -0.003710 1.937310 0.010030 
#    z -0.019630 0.010030 1.917870 
# 
# From -- ./inp_files/109365.got.cif
#   From: 2010.06.25/outbox.cif.g09.slc.cpg/sg2_55_cif.got.tgz:109365.got - 2010.06.27 13:26:56.
