data_PCOD8028166
_publ_section_title
;
Structure prediction by ZEFSAII (Michael W. Deem and Ramdas Pophale) SiO2 
 PCOD8028166
Probable space group: P -1
;
_chemical_formula_sum "Si O2"
_cell_formula_units_Z 14
_cell_length_a 8.599219
_cell_length_b 16.794737
_cell_length_c 5.236466
_cell_angle_alpha 67.772051
_cell_angle_beta 77.711108
_cell_angle_gamma 53.123122
_cell_volume 559.892988
_symmetry_space_group_name_H-M "P -1"
_symmetry_group_IT_number 2
_symmetry_cell_setting 'triclinic'
loop_
_space_group_symop_operation_xyz
x,y,z
-x,-y,-z
loop_
_atom_site_type_symbol
_atom_site_label
_atom_site_fract_x
_atom_site_fract_y
_atom_site_fract_z
Si Si1 0.929239 0.669375 0.862864
Si Si2 0.281025 0.721938 0.086932
Si Si3 0.603858 0.830608 0.160750
Si Si4 0.948915 0.186164 0.462628
Si Si5 0.379936 0.327251 0.311709
Si Si6 0.336236 0.022787 0.722753
Si Si7 0.685655 0.472224 0.818748
O O1 0.838765 0.627973 0.751935
O O2 0.964307 0.745982 0.601207
O O3 0.776431 0.733232 0.063762
O O4 0.131582 0.569051 0.011417
O O5 0.134186 0.793125 0.820265
O O6 0.492511 0.689323 0.965375
O O7 0.216636 0.783788 0.303138
O O8 0.273581 0.620158 0.273706
O O9 0.528605 0.784944 0.450338
O O10 0.691118 0.892287 0.166007
O O11 0.411141 0.911865 0.963625
O O12 0.133320 0.065710 0.593547
O O13 0.366845 0.414997 0.402583
O O14 0.500000 0.000000 0.500000
O O15 0.500000 0.500000 0.000000
#
# Coordination Sequence:
#
# PCOD8028166 Si02
#       7
#     2   2   2   2   2   2   2
#     4  11  22  40  69  97 132 173 229 279 330 397
#     4  10  25  44  68  96 143 182 222 270 344 401
#     4  11  23  38  66 100 133 166 229 283 336 385
#     4  11  22  44  69  99 132 182 225 277 336 406
#     4  11  23  43  64  99 134 177 223 284 327 399
#     4  11  21  39  68  98 127 175 226 279 336 405
#     4   9  21  43  64  98 133 180 222 269 338 403
#
# _framework density 25.004778000000002
#
# number of rings (size 3 to 8) (size 9 to 14) (size 15 to 20)
#    0.000    1.429    2.857    2.143    4.000    0.571 
#    5.143    7.857    0.000    0.000    0.000    0.000 
#    0.000    0.000    0.000    0.000    0.000    0.000 
#
# Total GULP energy -173483.135531 kJ/mol
# GULP energy per Si atom -12391.652538 kJ/mol
# Density = 2.494787 g / cm^3
# Si number density = 25.004778 Si / 1000 Ang^3
#
#
#
# Elastic Constant Matrix: (Units=GPa)
#
#
# Indices 1 2 3 4 5 6 
#
# 1 77.9689 11.1274 -1.5214 -14.7353 -15.6566 -4.3526
# 2 11.1274 77.8351 22.5562 -10.7912 -3.1032 -14.6631
# 3 -1.5214 22.5562 75.1356 -4.5172 -25.7023 10.3702
# 4 -14.7353 -10.7912 -4.5172 39.1337 5.9636 2.7870
# 5 -15.6566 -3.1032 -25.7023 5.9636 20.6181 1.3597
# 6 -4.3526 -14.6631 10.3702 2.7870 1.3597 27.1233
#
#
#
# Elastic Compliance Matrix: (Units=1/GPa)
#
#
# Indices 1 2 3 4 5 6 
#
# 1 0.021202 -0.007448 0.015807 0.003140 0.034350 -0.008712
# 2 -0.007448 0.022512 -0.019076 0.004176 -0.028526 0.019269
# 3 0.015807 -0.019076 0.047559 -0.002568 0.071091 -0.029259
# 4 0.003140 0.004176 -0.002568 0.028815 -0.008604 0.001214
# 5 0.034350 -0.028526 0.071091 -0.008604 0.164333 -0.044444
# 6 -0.008712 0.019269 -0.029259 0.001214 -0.044444 0.059178
#
#
# Mechanical properties :
#
#
# Convention : Reuss Voigt Hill
#
# Bulk Modulus (GPa) = 14.31876 32.80711 23.56293
# Shear Modulus (GPa) = 12.87623 30.62684 21.75154
#
# Velocity S-wave (km/s) = 2.27171 3.50357 2.95260
# Velocity P-wave (km/s) = 3.55243 5.43281 4.58995
#
# Compressibility (1/GPa) = 0.06983846
#
# Stress axis : x y z
#
# Youngs Moduli (GPa) = 47.16599 44.42007 21.02667
#
# Poissons Ratio (x) = 0.33085 -0.33237
# Poissons Ratio (y) = 0.35131 0.40110
# Poissons Ratio (z) = -0.74555 0.84735
#
# Static dielectric constant tensor:
#      x y z
#    x 4.772690 0.072220 -0.028610 
#    y 0.072220 4.782550 -0.149540 
#    z -0.028610 -0.149540 4.126860 
# 
# 
# High freq. dielectric constant tensor:
#      x y z
#    x 1.995390 -0.017280 -0.001630 
#    y -0.017280 1.990740 -0.013470 
#    z -0.001630 -0.013470 1.984760 
# 
# From -- ./inp_files/46575.got.cif
#   From: 2010.06.25/outbox.cif.g09.slc.cpg/sg2_24_cif.got.tgz:46575.got - 2010.06.27 13:26:56.
