data_PCOD8028777
_publ_section_title
;
Structure prediction by ZEFSAII (Michael W. Deem and Ramdas Pophale) SiO2 
 PCOD8028777
Probable space group: P -1
;
_chemical_formula_sum "Si O2"
_cell_formula_units_Z 16
_cell_length_a 19.330344
_cell_length_b 11.569261
_cell_length_c 22.640606
_cell_angle_alpha 28.812507
_cell_angle_beta 157.817778
_cell_angle_gamma 140.186935
_cell_volume 894.957459
_symmetry_space_group_name_H-M "P -1"
_symmetry_group_IT_number 2
_symmetry_cell_setting 'triclinic'
loop_
_space_group_symop_operation_xyz
x,y,z
-x,-y,-z
loop_
_atom_site_type_symbol
_atom_site_label
_atom_site_fract_x
_atom_site_fract_y
_atom_site_fract_z
Si Si1 0.327382 0.813299 0.132894
Si Si2 0.087457 0.912029 0.311770
Si Si3 0.814174 0.905849 0.403352
Si Si4 0.410497 0.186109 0.946612
Si Si5 0.190450 0.656570 0.627177
Si Si6 0.154764 0.412089 0.540329
Si Si7 0.692069 0.879504 0.445967
Si Si8 0.202430 0.352486 0.245951
O O1 0.476535 0.858211 0.279241
O O2 0.350369 0.517687 0.273026
O O3 0.360513 0.933899 0.042687
O O4 0.118532 0.930787 0.940250
O O5 0.165350 0.699510 0.420434
O O6 0.069147 0.774610 0.421188
O O7 0.236691 0.087108 0.358124
O O8 0.818534 0.678059 0.465033
O O9 0.803201 0.803107 0.506795
O O10 0.000000 0.000000 0.500000
O O11 0.637201 0.134553 0.146425
O O12 0.335102 0.402638 0.837399
O O13 0.325161 0.248810 0.786439
O O14 0.046695 0.609353 0.584155
O O15 0.311273 0.837874 0.667619
O O16 0.795860 0.694325 0.661351
O O17 0.000000 0.500000 0.000000
#
# Coordination Sequence:
#
# PCOD8028777 Si02
#       8
#     2   2   2   2   2   2   2   2
#     4  10  17  30  52  79 104 129 168 224 263 290
#     4   9  17  31  52  79  98 135 174 219 255 290
#     4  11  23  33  47  76 117 147 162 202 263 323
#     4  10  20  33  53  81 104 139 178 211 254 300
#     4  10  17  32  55  75 109 133 173 221 249 302
#     4  11  18  34  53  75 113 141 169 205 253 322
#     4  10  21  33  49  77 108 135 170 212 265 309
#     4   9  19  33  54  76  96 130 179 227 257 293
#
# _framework density 17.877945
#
# number of rings (size 3 to 8) (size 9 to 14) (size 15 to 20)
#    0.000    2.000    3.750    1.500    0.000    3.000 
#    0.000    0.000    0.000    6.000    0.000    7.000 
#    0.000    0.000    0.000    0.000    0.000    0.000 
#
# Total GULP energy -198340.753316 kJ/mol
# GULP energy per Si atom -12396.297082 kJ/mol
# Density = 1.783725 g / cm^3
# Si number density = 17.877945 Si / 1000 Ang^3
#
#
#
# Elastic Constant Matrix: (Units=GPa)
#
#
# Indices 1 2 3 4 5 6 
#
# 1 79.0794 57.7231 42.4311 -5.3952 -1.4124 -14.8197
# 2 57.7231 152.8620 57.2861 -4.8024 -3.1096 -1.6125
# 3 42.4311 57.2861 91.5358 6.9803 0.5820 -1.8231
# 4 -5.3952 -4.8024 6.9803 30.7702 1.4860 -0.5640
# 5 -1.4124 -3.1096 0.5820 1.4860 25.9886 0.3628
# 6 -14.8197 -1.6125 -1.8231 -0.5640 0.3628 27.7943
#
#
#
# Elastic Compliance Matrix: (Units=1/GPa)
#
#
# Indices 1 2 3 4 5 6 
#
# 1 0.023365 -0.005771 -0.007374 0.005070 0.000291 0.011739
# 2 -0.005771 0.010208 -0.003878 0.001365 0.000955 -0.002724
# 3 -0.007374 -0.003878 0.017156 -0.005805 -0.000873 -0.003138
# 4 0.005070 0.001365 -0.005805 0.035047 -0.001479 0.003132
# 5 0.000291 0.000955 -0.000873 -0.001479 0.038718 -0.000382
# 6 0.011739 -0.002724 -0.003138 0.003132 -0.000382 0.041942
#
#
# Mechanical properties :
#
#
# Convention : Reuss Voigt Hill
#
# Bulk Modulus (GPa) = 59.93939 70.92864 65.43401
# Shear Modulus (GPa) = 24.26686 27.97974 26.12330
#
# Velocity S-wave (km/s) = 3.68824 3.96035 3.82671
# Velocity P-wave (km/s) = 7.19286 7.78925 7.49699
#
# Compressibility (1/GPa) = 0.01668352
#
# Stress axis : x y z
#
# Youngs Moduli (GPa) = 42.79820 97.96514 58.29002
#
# Poissons Ratio (x) = 0.56532 0.42984
# Poissons Ratio (y) = 0.24697 0.22604
# Poissons Ratio (z) = 0.31560 0.37989
#
# Static dielectric constant tensor:
#      x y z
#    x 3.061740 -0.010940 -0.112670 
#    y -0.010940 3.880780 -0.081230 
#    z -0.112670 -0.081230 3.363140 
# 
# 
# High freq. dielectric constant tensor:
#      x y z
#    x 1.650490 -0.006020 -0.012460 
#    y -0.006020 1.710420 0.007070 
#    z -0.012460 0.007070 1.688540 
# 
# From -- ./inp_files/613682.got.cif
#   From: 2010.06.25/outbox.cif.g09.slc.cpg/sg2_307_cif.got.tgz:613682.got - 2010.06.27 13:26:56.
