data_PCOD8028554
_publ_section_title
;
Structure prediction by ZEFSAII (Michael W. Deem and Ramdas Pophale) SiO2 
 PCOD8028554
Probable space group: P -1
;
_chemical_formula_sum "Si O2"
_cell_formula_units_Z 16
_cell_length_a 16.643685
_cell_length_b 8.480752
_cell_length_c 9.342133
_cell_angle_alpha 105.101353
_cell_angle_beta 35.815747
_cell_angle_gamma 112.253922
_cell_volume 711.527120
_symmetry_space_group_name_H-M "P -1"
_symmetry_group_IT_number 2
_symmetry_cell_setting 'triclinic'
loop_
_space_group_symop_operation_xyz
x,y,z
-x,-y,-z
loop_
_atom_site_type_symbol
_atom_site_label
_atom_site_fract_x
_atom_site_fract_y
_atom_site_fract_z
Si Si1 0.340809 0.528239 0.580530
Si Si2 0.412124 0.928417 0.971792
Si Si3 0.906352 0.610613 0.594129
Si Si4 0.890574 0.089795 0.484437
Si Si5 0.103423 0.880557 0.833021
Si Si6 0.897975 0.713147 0.315837
Si Si7 0.400681 0.902266 0.496125
Si Si8 0.632774 0.452328 0.129997
O O1 0.245785 0.376455 0.584731
O O2 0.322828 0.705050 0.592970
O O3 0.505922 0.537803 0.324958
O O4 0.293051 0.505297 0.810813
O O5 0.432587 0.750678 0.845992
O O6 0.486423 0.077500 0.789539
O O7 0.244567 0.905826 0.223878
O O8 0.500000 0.000000 0.000000
O O9 0.912934 0.606524 0.410430
O O10 0.000000 0.500000 0.500000
O O11 0.968231 0.804844 0.607831
O O12 0.743265 0.533989 0.863492
O O13 0.885234 0.183690 0.361094
O O14 0.891983 0.897595 0.417860
O O15 0.266827 0.978283 0.672242
O O16 0.031376 0.731161 0.017328
O O17 0.000000 0.000000 0.000000
O O18 0.500000 0.000000 0.500000
#
# Coordination Sequence:
#
# PCOD8028554 Si02
#       8
#     2   2   2   2   2   2   2   2
#     4  11  27  47  74 104 140 188 243 296 352 427
#     4  12  24  44  73  99 145 182 235 285 358 424
#     4  12  27  44  69 106 146 184 235 297 362 420
#     4  11  24  48  72 104 140 192 233 296 358 430
#     4  10  25  47  75 103 141 188 242 292 355 431
#     4  11  27  46  74 104 142 186 243 290 359 429
#     4  12  27  44  74 108 140 188 241 295 354 426
#     4  11  26  49  71 103 148 188 231 299 362 422
#
# _framework density 22.486846
#
# number of rings (size 3 to 8) (size 9 to 14) (size 15 to 20)
#    0.000    0.750    3.750    1.875   10.500    3.000 
#    0.000    0.000    0.000    0.000    0.000    0.000 
#    0.000    0.000    0.000    0.000    0.000    0.000 
#
# Total GULP energy -198393.154456 kJ/mol
# GULP energy per Si atom -12399.572153 kJ/mol
# Density = 2.243566 g / cm^3
# Si number density = 22.486846 Si / 1000 Ang^3
#
#
#
# Elastic Constant Matrix: (Units=GPa)
#
#
# Indices 1 2 3 4 5 6 
#
# 1 149.9034 29.8738 55.6154 -11.6214 20.1274 12.8052
# 2 29.8738 87.0546 7.6887 -5.3704 -1.4578 9.4995
# 3 55.6154 7.6887 148.6090 -22.4777 16.1029 -13.9247
# 4 -11.6214 -5.3704 -22.4777 35.3030 -6.0133 -0.9115
# 5 20.1274 -1.4578 16.1029 -6.0133 43.2678 -5.6917
# 6 12.8052 9.4995 -13.9247 -0.9115 -5.6917 39.1050
#
#
#
# Elastic Compliance Matrix: (Units=1/GPa)
#
#
# Indices 1 2 3 4 5 6 
#
# 1 0.009251 -0.002500 -0.003352 -0.000209 -0.003717 -0.004161
# 2 -0.002500 0.012656 0.000149 0.001397 0.001470 -0.001956
# 3 -0.003352 0.000149 0.009171 0.004766 -0.000614 0.004348
# 4 -0.000209 0.001397 0.004766 0.032114 0.003181 0.002638
# 5 -0.003717 0.001470 -0.000614 0.003181 0.026156 0.004522
# 6 -0.004161 -0.001956 0.004348 0.002638 0.004522 0.029678
#
#
# Mechanical properties :
#
#
# Convention : Reuss Voigt Hill
#
# Bulk Modulus (GPa) = 50.82913 63.54699 57.18806
# Shear Modulus (GPa) = 36.49980 43.02778 39.76379
#
# Velocity S-wave (km/s) = 4.03322 4.37906 4.20969
# Velocity P-wave (km/s) = 6.65899 7.34093 7.00826
#
# Compressibility (1/GPa) = 0.01967376
#
# Stress axis : x y z
#
# Youngs Moduli (GPa) = 108.09832 79.01452 109.04490
#
# Poissons Ratio (x) = 0.19750 0.36547
# Poissons Ratio (y) = 0.27020 -0.01629
# Poissons Ratio (z) = 0.36230 -0.01181
#
# Static dielectric constant tensor:
#      x y z
#    x 4.208980 -0.126020 0.530840 
#    y -0.126020 3.152090 1.053020 
#    z 0.530840 1.053020 3.464610 
# 
# 
# High freq. dielectric constant tensor:
#      x y z
#    x 1.898170 0.006330 0.008870 
#    y 0.006330 1.878380 -0.009090 
#    z 0.008870 -0.009090 1.902720 
# 
# From -- ./inp_files/207922.got.cif
#   From: 2010.06.25/outbox.cif.g09.slc.cpg/sg2_104_cif.got.tgz:207922.got - 2010.06.27 13:26:56.
