data_PCOD8028939
_publ_section_title
;
Structure prediction by ZEFSAII (Michael W. Deem and Ramdas Pophale) SiO2 
 PCOD8028939
Probable space group: P -1
;
_chemical_formula_sum "Si O2"
_cell_formula_units_Z 14
_cell_length_a 5.240102
_cell_length_b 15.641790
_cell_length_c 27.601287
_cell_angle_alpha 19.210283
_cell_angle_beta 64.204568
_cell_angle_gamma 65.349104
_cell_volume 670.067038
_symmetry_space_group_name_H-M "P -1"
_symmetry_group_IT_number 2
_symmetry_cell_setting 'triclinic'
loop_
_space_group_symop_operation_xyz
x,y,z
-x,-y,-z
loop_
_atom_site_type_symbol
_atom_site_label
_atom_site_fract_x
_atom_site_fract_y
_atom_site_fract_z
Si Si1 0.649898 0.321108 0.926270
Si Si2 0.892157 0.504981 0.560366
Si Si3 0.799972 0.837172 0.670504
Si Si4 0.815376 0.379440 0.775431
Si Si5 0.751652 0.290024 0.495346
Si Si6 0.121259 0.007449 0.103597
Si Si7 0.665941 0.219062 0.395410
O O1 0.575359 0.610193 0.800034
O O2 0.847372 0.339659 0.851787
O O3 0.352818 0.201597 0.000609
O O4 0.817763 0.153467 0.042738
O O5 0.574222 0.619160 0.526937
O O6 0.000000 0.500000 0.500000
O O7 0.101677 0.683861 0.478420
O O8 0.913459 0.215062 0.734680
O O9 0.097126 0.689419 0.711702
O O10 0.775139 0.976557 0.650221
O O11 0.788069 0.094659 0.500556
O O12 0.527832 0.538927 0.702731
O O13 0.085975 0.532014 0.652124
O O14 0.784298 0.109903 0.893426
O O15 0.500000 0.000000 0.500000
#
# Coordination Sequence:
#
# PCOD8028939 Si02
#       7
#     2   2   2   2   2   2   2
#     4  12  24  37  57  88 139 171 190 232 290 380
#     4  11  25  47  71  90 112 147 207 280 324 347
#     4  11  22  34  56  89 127 170 207 244 296 345
#     4  11  21  38  58  89 131 169 207 242 286 349
#     4  11  23  39  68  95 118 155 211 259 298 363
#     4  11  25  39  59  88 120 166 209 242 302 372
#     4  11  19  35  54  84 128 173 218 243 271 336
#
# _framework density 20.893433000000002
#
# number of rings (size 3 to 8) (size 9 to 14) (size 15 to 20)
#    0.000    0.857    2.857    6.429    0.000    3.429 
#    0.000    0.000    0.000    5.143    0.000    0.000 
#    0.000    0.000    0.000    0.000    0.000    0.000 
#
# Total GULP energy -173536.345764 kJ/mol
# GULP energy per Si atom -12395.453269 kJ/mol
# Density = 2.084588 g / cm^3
# Si number density = 20.893433 Si / 1000 Ang^3
#
#
#
# Elastic Constant Matrix: (Units=GPa)
#
#
# Indices 1 2 3 4 5 6 
#
# 1 137.9224 50.1216 42.9208 -17.3966 -0.7876 11.1615
# 2 50.1216 99.5408 57.7482 -4.4464 -4.0944 19.1192
# 3 42.9208 57.7482 86.1152 -21.4978 -5.5285 13.6089
# 4 -17.3966 -4.4464 -21.4978 32.3898 10.4687 -2.5947
# 5 -0.7876 -4.0944 -5.5285 10.4687 35.9606 -16.1317
# 6 11.1615 19.1192 13.6089 -2.5947 -16.1317 41.3855
#
#
#
# Elastic Compliance Matrix: (Units=1/GPa)
#
#
# Indices 1 2 3 4 5 6 
#
# 1 0.009653 -0.003994 -0.000959 0.004627 -0.002189 -0.001006
# 2 -0.003994 0.019921 -0.012783 -0.008496 0.000837 -0.004129
# 3 -0.000959 -0.012783 0.024496 0.014776 -0.002963 -0.002119
# 4 0.004627 -0.008496 0.014776 0.046206 -0.014209 -0.004823
# 5 -0.002189 0.000837 -0.002963 -0.014209 0.038376 0.015246
# 6 -0.001006 -0.004129 -0.002119 -0.004823 0.015246 0.032679
#
#
# Mechanical properties :
#
#
# Convention : Reuss Voigt Hill
#
# Bulk Modulus (GPa) = 53.77097 69.46219 61.61658
# Shear Modulus (GPa) = 23.47376 33.46637 28.47006
#
# Velocity S-wave (km/s) = 3.35550 4.00655 3.69539
# Velocity P-wave (km/s) = 6.38782 7.39739 6.91106
#
# Compressibility (1/GPa) = 0.01859739
#
# Stress axis : x y z
#
# Youngs Moduli (GPa) = 103.59534 50.19737 40.82264
#
# Poissons Ratio (x) = 0.20050 0.03916
# Poissons Ratio (y) = 0.41378 0.52184
# Poissons Ratio (z) = 0.09938 0.64168
#
# Static dielectric constant tensor:
#      x y z
#    x 3.638680 0.054920 -0.108680 
#    y 0.054920 3.725850 -0.263520 
#    z -0.108680 -0.263520 4.108220 
# 
# 
# High freq. dielectric constant tensor:
#      x y z
#    x 1.839940 0.013080 -0.005070 
#    y 0.013080 1.787660 -0.036890 
#    z -0.005070 -0.036890 1.807140 
# 
# From -- ./inp_files/92881.got.cif
#   From: 2010.06.25/outbox.cif.g09.slc.cpg/sg2_47_cif.got.tgz:92881.got - 2010.06.27 13:26:56.
