data_PCOD8028461
_publ_section_title
;
Structure prediction by ZEFSAII (Michael W. Deem and Ramdas Pophale) SiO2 
 PCOD8028461
Probable space group: P -1
;
_chemical_formula_sum "Si O2"
_cell_formula_units_Z 16
_cell_length_a 11.377407
_cell_length_b 9.707137
_cell_length_c 9.082870
_cell_angle_alpha 57.363659
_cell_angle_beta 123.751987
_cell_angle_gamma 105.472312
_cell_volume 701.591004
_symmetry_space_group_name_H-M "P -1"
_symmetry_group_IT_number 2
_symmetry_cell_setting 'triclinic'
loop_
_space_group_symop_operation_xyz
x,y,z
-x,-y,-z
loop_
_atom_site_type_symbol
_atom_site_label
_atom_site_fract_x
_atom_site_fract_y
_atom_site_fract_z
Si Si1 0.906555 0.378349 0.419919
Si Si2 0.228005 0.845467 0.033788
Si Si3 0.482403 0.310896 0.618194
Si Si4 0.987887 0.666994 0.809538
Si Si5 0.360989 0.402478 0.960172
Si Si6 0.134966 0.919605 0.228536
Si Si7 0.287973 0.217079 0.299849
Si Si8 0.379003 0.134055 0.892281
O O1 0.974930 0.350299 0.324431
O O2 0.752681 0.468135 0.262867
O O3 0.907572 0.202311 0.602029
O O4 0.000000 0.500000 0.500000
O O5 0.375297 0.747443 0.162498
O O6 0.216504 0.818088 0.216886
O O7 0.094982 0.788688 0.886083
O O8 0.238143 0.034961 0.881524
O O9 0.500000 0.500000 0.500000
O O10 0.439617 0.214078 0.494423
O O11 0.358389 0.271760 0.671581
O O12 0.828386 0.734529 0.685430
O O13 0.000000 0.500000 0.000000
O O14 0.401949 0.233056 0.001776
O O15 0.500000 0.500000 0.000000
O O16 0.300085 0.355739 0.104197
O O17 0.243868 0.047078 0.296450
O O18 0.000000 0.000000 0.000000
O O19 0.500000 0.000000 0.000000
#
# Coordination Sequence:
#
# PCOD8028461 Si02
#       8
#     2   2   2   2   2   2   2   2
#     4  12  30  47  78 111 149 200 253 312 381 450
#     4  11  25  46  75  99 153 199 246 311 374 454
#     4  11  26  44  70 109 145 193 254 308 376 444
#     4  12  25  47  75 107 149 197 257 307 380 453
#     4  12  27  49  76 111 153 195 252 311 376 451
#     4  12  26  49  72 110 151 197 252 314 383 443
#     4  12  26  46  74 105 151 199 244 316 378 445
#     4  10  25  46  72 103 151 198 242 306 379 446
#
# _framework density 22.805309999999999
#
# number of rings (size 3 to 8) (size 9 to 14) (size 15 to 20)
#    0.000    0.500    3.750    3.000   10.500    2.000 
#    0.000    0.000    0.000    0.000    0.000    0.000 
#    0.000    0.000    0.000    0.000    0.000    0.000 
#
# Total GULP energy -198236.877255 kJ/mol
# GULP energy per Si atom -12389.804828 kJ/mol
# Density = 2.275340 g / cm^3
# Si number density = 22.805310 Si / 1000 Ang^3
#
#
#
# Elastic Constant Matrix: (Units=GPa)
#
#
# Indices 1 2 3 4 5 6 
#
# 1 123.5989 66.3792 58.5380 0.7500 -20.1212 4.9441
# 2 66.3792 156.9949 43.3205 4.9060 -23.2216 28.8224
# 3 58.5380 43.3205 108.0829 -10.5023 -28.0575 20.7473
# 4 0.7500 4.9060 -10.5023 41.0807 5.7877 -7.8528
# 5 -20.1212 -23.2216 -28.0575 5.7877 53.5740 -1.5946
# 6 4.9441 28.8224 20.7473 -7.8528 -1.5946 52.1589
#
#
#
# Elastic Compliance Matrix: (Units=1/GPa)
#
#
# Indices 1 2 3 4 5 6 
#
# 1 0.013312 -0.004590 -0.006129 -0.000564 -0.000031 0.003627
# 2 -0.004590 0.009726 0.000036 -0.002439 0.002618 -0.005241
# 3 -0.006129 0.000036 0.015081 0.002285 0.005218 -0.004934
# 4 -0.000564 -0.002439 0.002285 0.026462 -0.002801 0.004391
# 5 -0.000031 0.002618 0.005218 -0.002801 0.022728 -0.003246
# 6 0.003627 -0.005241 -0.004934 0.004391 -0.003246 0.024249
#
#
# Mechanical properties :
#
#
# Convention : Reuss Voigt Hill
#
# Bulk Modulus (GPa) = 59.68847 80.57246 70.13047
# Shear Modulus (GPa) = 36.09920 44.05866 40.07893
#
# Velocity S-wave (km/s) = 3.98292 4.40016 4.19673
# Velocity P-wave (km/s) = 6.88342 7.82448 7.36899
#
# Compressibility (1/GPa) = 0.01675365
#
# Stress axis : x y z
#
# Youngs Moduli (GPa) = 75.12109 102.81759 66.30919
#
# Poissons Ratio (x) = 0.47192 0.40641
# Poissons Ratio (y) = 0.34480 -0.00242
# Poissons Ratio (z) = 0.46042 -0.00375
#
# Static dielectric constant tensor:
#      x y z
#    x 5.276600 0.215130 -0.729620 
#    y 0.215130 4.286800 -0.087340 
#    z -0.729620 -0.087340 4.399360 
# 
# 
# High freq. dielectric constant tensor:
#      x y z
#    x 1.918120 0.014040 -0.017550 
#    y 0.014040 1.915360 0.000700 
#    z -0.017550 0.000700 1.898560 
# 
# From -- ./inp_files/242705.got.cif
#   From: 2010.06.25/outbox.cif.g09.slc.cpg/sg2_122_cif.got.tgz:242705.got - 2010.06.27 13:26:56.
