data_PCOD8028426
_publ_section_title
;
Structure prediction by ZEFSAII (Michael W. Deem and Ramdas Pophale) SiO2 
 PCOD8028426
Probable space group: P -1
;
_chemical_formula_sum "Si O2"
_cell_formula_units_Z 14
_cell_length_a 7.405165
_cell_length_b 7.300892
_cell_length_c 16.881897
_cell_angle_alpha 115.347622
_cell_angle_beta 73.088670
_cell_angle_gamma 139.331121
_cell_volume 536.649202
_symmetry_space_group_name_H-M "P -1"
_symmetry_group_IT_number 2
_symmetry_cell_setting 'triclinic'
loop_
_space_group_symop_operation_xyz
x,y,z
-x,-y,-z
loop_
_atom_site_type_symbol
_atom_site_label
_atom_site_fract_x
_atom_site_fract_y
_atom_site_fract_z
Si Si1 0.238221 0.165191 0.831363
Si Si2 0.727243 0.442169 0.983076
Si Si3 0.681825 0.488745 0.423599
Si Si4 0.827153 0.596603 0.252214
Si Si5 0.310626 0.869398 0.423115
Si Si6 0.186403 0.523252 0.238993
Si Si7 0.264725 0.819120 0.917666
O O1 0.215986 0.308492 0.932058
O O2 0.108944 0.160971 0.766846
O O3 0.561157 0.377267 0.820407
O O4 0.080993 0.831272 0.805666
O O5 0.738822 0.244180 0.999398
O O6 0.929892 0.590647 0.907959
O O7 0.410826 0.151809 0.939017
O O8 0.500000 0.500000 0.500000
O O9 0.678391 0.552325 0.343432
O O10 0.006310 0.730017 0.456080
O O11 0.510392 0.146564 0.387933
O O12 0.629828 0.284998 0.168853
O O13 0.105510 0.690269 0.254917
O O14 0.258855 0.609683 0.339620
O O15 0.500000 0.000000 0.500000
#
# Coordination Sequence:
#
# PCOD8028426 Si02
#       7
#     2   2   2   2   2   2   2
#     4  11  24  43  72  99 138 186 227 284 343 405
#     4   9  18  35  60  98 128 172 233 270 331 407
#     4  11  25  46  72 105 137 177 238 288 343 431
#     4  10  25  46  70 100 140 184 227 283 353 400
#     4  11  25  48  71  99 141 182 224 293 362 405
#     4  11  25  45  68 102 138 176 236 280 338 425
#     4   9  18  35  63  90 134 178 216 281 338 396
#
# _framework density 26.087804999999999
#
# number of rings (size 3 to 8) (size 9 to 14) (size 15 to 20)
#    0.000    1.714    0.000    3.429    2.000   10.286 
#    0.000    4.286    0.000    0.000    0.000    0.000 
#    0.000    0.000    0.000    0.000    0.000    0.000 
#
# Total GULP energy -173469.956869 kJ/mol
# GULP energy per Si atom -12390.711205 kJ/mol
# Density = 2.602843 g / cm^3
# Si number density = 26.087805 Si / 1000 Ang^3
#
#
#
# Elastic Constant Matrix: (Units=GPa)
#
#
# Indices 1 2 3 4 5 6 
#
# 1 94.1079 40.6828 6.2230 -2.8603 -5.6953 10.2835
# 2 40.6828 142.2244 45.2425 5.4663 -0.3200 24.5251
# 3 6.2230 45.2425 127.5396 -5.9245 1.4025 14.3768
# 4 -2.8603 5.4663 -5.9245 51.0593 14.7789 2.4899
# 5 -5.6953 -0.3200 1.4025 14.7789 35.2965 0.3387
# 6 10.2835 24.5251 14.3768 2.4899 0.3387 41.8902
#
#
#
# Elastic Compliance Matrix: (Units=1/GPa)
#
#
# Indices 1 2 3 4 5 6 
#
# 1 0.012396 -0.003620 0.000841 0.000772 0.001623 -0.001271
# 2 -0.003620 0.009689 -0.002915 -0.001477 0.000274 -0.003698
# 3 0.000841 -0.002915 0.009123 0.001787 -0.000985 -0.001729
# 4 0.000772 -0.001477 0.001787 0.022802 -0.009495 -0.001216
# 5 0.001623 0.000274 -0.000985 -0.009495 0.032610 0.000080
# 6 -0.001271 -0.003698 -0.001729 -0.001216 0.000080 0.027014
#
#
# Mechanical properties :
#
#
# Convention : Reuss Voigt Hill
#
# Bulk Modulus (GPa) = 50.45839 60.90762 55.68301
# Shear Modulus (GPa) = 37.98577 43.76412 40.87495
#
# Velocity S-wave (km/s) = 3.81999 4.10026 3.96260
# Velocity P-wave (km/s) = 6.23219 6.76860 6.50593
#
# Compressibility (1/GPa) = 0.01981831
#
# Stress axis : x y z
#
# Youngs Moduli (GPa) = 80.67092 103.20966 109.61891
#
# Poissons Ratio (x) = 0.37362 -0.09215
# Poissons Ratio (y) = 0.29203 0.31956
# Poissons Ratio (z) = -0.06781 0.30087
#
# Static dielectric constant tensor:
#      x y z
#    x 5.142000 0.153720 0.480660 
#    y 0.153720 5.114080 0.169130 
#    z 0.480660 0.169130 4.937440 
# 
# 
# High freq. dielectric constant tensor:
#      x y z
#    x 2.049520 0.003320 0.024420 
#    y 0.003320 2.051620 -0.003450 
#    z 0.024420 -0.003450 2.063700 
# 
# From -- ./inp_files/588125.got.cif
#   From: 2010.06.25/outbox.cif.g09.slc.cpg/sg2_295_cif.got.tgz:588125.got - 2010.06.27 13:26:56.
