data_PCOD8028950
_publ_section_title
;
Structure prediction by ZEFSAII (Michael W. Deem and Ramdas Pophale) SiO2 
 PCOD8028950
Probable space group: P -1
;
_chemical_formula_sum "Si O2"
_cell_formula_units_Z 16
_cell_length_a 9.224958
_cell_length_b 9.963072
_cell_length_c 16.863639
_cell_angle_alpha 88.381009
_cell_angle_beta 143.922785
_cell_angle_gamma 78.794997
_cell_volume 847.992289
_symmetry_space_group_name_H-M "P -1"
_symmetry_group_IT_number 2
_symmetry_cell_setting 'triclinic'
loop_
_space_group_symop_operation_xyz
x,y,z
-x,-y,-z
loop_
_atom_site_type_symbol
_atom_site_label
_atom_site_fract_x
_atom_site_fract_y
_atom_site_fract_z
Si Si1 0.979937 0.652736 0.905862
Si Si2 0.953847 0.657096 0.443880
Si Si3 0.688069 0.835563 0.085447
Si Si4 0.189892 0.672878 0.385720
Si Si5 0.694912 0.685370 0.935745
Si Si6 0.840193 0.339932 0.305038
Si Si7 0.516165 0.680465 0.144914
Si Si8 0.770966 0.631357 0.647012
O O1 0.763391 0.722612 0.877194
O O2 0.822216 0.688876 0.753521
O O3 0.128813 0.481672 0.973619
O O4 0.203325 0.722482 0.016245
O O5 0.653980 0.742470 0.275227
O O6 0.000000 0.500000 0.500000
O O7 0.167728 0.643523 0.469683
O O8 0.023580 0.732241 0.550188
O O9 0.552781 0.737974 0.073477
O O10 0.958532 0.818838 0.251487
O O11 0.768035 0.780572 0.032172
O O12 0.500000 0.000000 0.000000
O O13 0.460355 0.696376 0.487497
O O14 0.148997 0.541927 0.320459
O O15 0.380702 0.727422 0.808815
O O16 0.684456 0.511405 0.230212
O O17 0.073580 0.302023 0.344968
#
# Coordination Sequence:
#
# PCOD8028950 Si02
#       8
#     2   2   2   2   2   2   2   2
#     4  10  19  32  53  80 114 131 164 238 272 315
#     4   9  15  29  44  74 107 134 163 211 267 326
#     4  11  21  38  55  73 109 149 186 210 243 322
#     4  10  20  31  48  79 109 137 176 210 272 313
#     4  10  20  32  51  83 104 139 181 211 276 312
#     4  10  17  30  54  79 112 133 168 225 273 324
#     4   9  18  32  51  78 105 143 176 213 270 312
#     4  11  18  29  51  78 112 133 162 227 273 313
#
# _framework density 18.868096000000001
#
# number of rings (size 3 to 8) (size 9 to 14) (size 15 to 20)
#    0.000    2.000    5.000    1.500    0.000    4.000 
#    0.000    0.625    0.000    9.750    0.000    0.000 
#    0.000    0.000    0.000    0.000    0.000    0.000 
#
# Total GULP energy -198227.858812 kJ/mol
# GULP energy per Si atom -12389.241176 kJ/mol
# Density = 1.882515 g / cm^3
# Si number density = 18.868096 Si / 1000 Ang^3
#
#
#
# Elastic Constant Matrix: (Units=GPa)
#
#
# Indices 1 2 3 4 5 6 
#
# 1 148.8730 27.5186 69.9764 13.4570 9.6041 -14.4446
# 2 27.5186 27.6885 30.4275 0.8221 -4.6393 -10.4860
# 3 69.9764 30.4275 113.7905 9.3360 4.2821 -6.8786
# 4 13.4570 0.8221 9.3360 21.0011 -3.6069 0.0890
# 5 9.6041 -4.6393 4.2821 -3.6069 42.0931 11.3600
# 6 -14.4446 -10.4860 -6.8786 0.0890 11.3600 14.7569
#
#
#
# Elastic Compliance Matrix: (Units=1/GPa)
#
#
# Indices 1 2 3 4 5 6 
#
# 1 0.011693 -0.002186 -0.005109 -0.006264 -0.006265 0.012372
# 2 -0.002186 0.070683 -0.015433 0.005160 -0.000917 0.041569
# 3 -0.005109 -0.015433 0.015805 -0.003133 -0.000121 -0.008488
# 4 -0.006264 0.005160 -0.003133 0.054639 0.010284 -0.012171
# 5 -0.006265 -0.000917 -0.000121 0.010284 0.035143 -0.033956
# 6 0.012372 0.041569 -0.008488 -0.012171 -0.033956 0.131670
#
#
# Mechanical properties :
#
#
# Convention : Reuss Voigt Hill
#
# Bulk Modulus (GPa) = 18.96546 60.68857 39.82702
# Shear Modulus (GPa) = 13.06631 26.39884 19.73258
#
# Velocity S-wave (km/s) = 2.63441 3.74455 3.23742
# Velocity P-wave (km/s) = 4.39624 7.13653 5.92693
#
# Compressibility (1/GPa) = 0.05272743
#
# Stress axis : x y z
#
# Youngs Moduli (GPa) = 85.51863 14.14761 63.27096
#
# Poissons Ratio (x) = 0.03092 0.32324
# Poissons Ratio (y) = 0.18690 0.97644
# Poissons Ratio (z) = 0.43691 0.21834
#
# Static dielectric constant tensor:
#      x y z
#    x 3.686230 -0.081190 -0.112730 
#    y -0.081190 2.942270 0.546100 
#    z -0.112730 0.546100 4.419800 
# 
# 
# High freq. dielectric constant tensor:
#      x y z
#    x 1.742540 -0.004550 0.000060 
#    y -0.004550 1.657580 0.028480 
#    z 0.000060 0.028480 1.746940 
# 
# From -- ./inp_files/258898.got.cif
#   From: 2010.06.25/outbox.cif.g09.slc.cpg/sg2_130_cif.got.tgz:258898.got - 2010.06.27 13:26:56.
