data_PCOD8028455
_publ_section_title
;
Structure prediction by ZEFSAII (Michael W. Deem and Ramdas Pophale) SiO2 
 PCOD8028455
Probable space group: P -1
;
_chemical_formula_sum "Si O2"
_cell_formula_units_Z 14
_cell_length_a 23.015975
_cell_length_b 17.127750
_cell_length_c 12.861510
_cell_angle_alpha 155.195005
_cell_angle_beta 154.854818
_cell_angle_gamma 17.834352
_cell_volume 617.204797
_symmetry_space_group_name_H-M "P -1"
_symmetry_group_IT_number 2
_symmetry_cell_setting 'triclinic'
loop_
_space_group_symop_operation_xyz
x,y,z
-x,-y,-z
loop_
_atom_site_type_symbol
_atom_site_label
_atom_site_fract_x
_atom_site_fract_y
_atom_site_fract_z
Si Si1 0.299758 0.500622 0.102184
Si Si2 0.104711 0.452405 0.895989
Si Si3 0.260014 0.959590 0.659970
Si Si4 0.785382 0.305276 0.026267
Si Si5 0.085337 0.748231 0.397631
Si Si6 0.322118 0.272200 0.480195
Si Si7 0.544416 0.576663 0.265661
O O1 0.237500 0.770548 0.358773
O O2 0.525764 0.223242 0.161699
O O3 0.158170 0.492887 0.921264
O O4 0.268087 0.520050 0.950878
O O5 0.862615 0.680803 0.785563
O O6 0.221191 0.139303 0.717868
O O7 0.181035 0.504860 0.178484
O O8 0.087120 0.180374 0.729083
O O9 0.772534 0.459024 0.287310
O O10 0.632357 0.284101 0.769462
O O11 0.000000 0.000000 0.000000
O O12 0.249782 0.681471 0.656613
O O13 0.000000 0.000000 0.500000
O O14 0.425447 0.239397 0.500184
O O15 0.500000 0.000000 0.500000
O O16 0.500000 0.500000 0.000000
#
# Coordination Sequence:
#
# PCOD8028455 Si02
#       7
#     2   2   2   2   2   2   2
#     4  11  26  44  72 101 149 187 229 297 360 433
#     4  12  26  45  72 107 144 183 240 299 354 430
#     4  11  24  46  66 106 142 183 239 290 360 418
#     4  11  26  47  73 101 141 194 238 287 365 432
#     4  12  24  43  76 102 138 190 240 291 354 422
#     4  11  27  46  71 105 142 188 241 301 354 421
#     4  10  25  46  71  99 138 189 240 293 349 429
#
# _framework density 22.682908000000001
#
# number of rings (size 3 to 8) (size 9 to 14) (size 15 to 20)
#    0.000    0.857    2.857    2.571   12.000    0.571 
#    5.143    0.000    0.000    0.000    0.000    0.000 
#    0.000    0.000    0.000    0.000    0.000    0.000 
#
# Total GULP energy -173601.837310 kJ/mol
# GULP energy per Si atom -12400.131236 kJ/mol
# Density = 2.263128 g / cm^3
# Si number density = 22.682908 Si / 1000 Ang^3
#
#
#
# Elastic Constant Matrix: (Units=GPa)
#
#
# Indices 1 2 3 4 5 6 
#
# 1 167.6688 52.2426 44.3102 -9.6338 37.3567 11.2046
# 2 52.2426 164.6513 44.7815 -14.5426 19.3071 15.0037
# 3 44.3102 44.7815 75.0822 -15.8927 18.2368 5.1966
# 4 -9.6338 -14.5426 -15.8927 40.8553 0.2726 0.5112
# 5 37.3567 19.3071 18.2368 0.2726 43.5369 -0.7638
# 6 11.2046 15.0037 5.1966 0.5112 -0.7638 45.5424
#
#
#
# Elastic Compliance Matrix: (Units=1/GPa)
#
#
# Indices 1 2 3 4 5 6 
#
# 1 0.008408 -0.001078 -0.002722 0.000596 -0.005626 -0.001504
# 2 -0.001078 0.007736 -0.003295 0.001250 -0.001167 -0.001941
# 3 -0.002722 -0.003295 0.019171 0.005678 -0.004279 -0.000568
# 4 0.000596 0.001250 0.005678 0.027315 -0.003643 -0.001574
# 5 -0.005626 -0.001167 -0.004279 -0.003643 0.030178 0.002804
# 6 -0.001504 -0.001941 -0.000568 -0.001574 0.002804 0.023096
#
#
# Mechanical properties :
#
#
# Convention : Reuss Voigt Hill
#
# Bulk Modulus (GPa) = 47.34003 76.67454 62.00729
# Shear Modulus (GPa) = 36.46003 43.72478 40.09240
#
# Velocity S-wave (km/s) = 4.01356 4.39527 4.20874
# Velocity P-wave (km/s) = 6.51106 7.72231 7.14241
#
# Compressibility (1/GPa) = 0.02112377
#
# Stress axis : x y z
#
# Youngs Moduli (GPa) = 118.94006 129.26849 52.16148
#
# Poissons Ratio (x) = 0.13934 0.14199
# Poissons Ratio (y) = 0.12821 0.17190
# Poissons Ratio (z) = 0.32376 0.42600
#
# Static dielectric constant tensor:
#      x y z
#    x 4.869880 0.079880 -0.139710 
#    y 0.079880 4.024170 -0.143770 
#    z -0.139710 -0.143770 4.746010 
# 
# 
# High freq. dielectric constant tensor:
#      x y z
#    x 1.911610 0.010680 0.015080 
#    y 0.010680 1.900640 -0.011200 
#    z 0.015080 -0.011200 1.885970 
# 
# From -- ./inp_files/258360.got.cif
#   From: 2010.06.25/outbox.cif.g09.slc.cpg/sg2_130_cif.got.tgz:258360.got - 2010.06.27 13:26:56.
