data_PCOD8028060
_publ_section_title
;
Structure prediction by ZEFSAII (Michael W. Deem and Ramdas Pophale) SiO2 
 PCOD8028060
Probable space group: P -1
;
_chemical_formula_sum "Si O2"
_cell_formula_units_Z 16
_cell_length_a 9.392050
_cell_length_b 11.303365
_cell_length_c 12.374880
_cell_angle_alpha 48.874942
_cell_angle_beta 94.074436
_cell_angle_gamma 61.590417
_cell_volume 709.359102
_symmetry_space_group_name_H-M "P -1"
_symmetry_group_IT_number 2
_symmetry_cell_setting 'triclinic'
loop_
_space_group_symop_operation_xyz
x,y,z
-x,-y,-z
loop_
_atom_site_type_symbol
_atom_site_label
_atom_site_fract_x
_atom_site_fract_y
_atom_site_fract_z
Si Si1 0.505542 0.245545 0.255980
Si Si2 0.818840 0.751577 0.339797
Si Si3 0.540049 0.409368 0.675234
Si Si4 0.843551 0.066734 0.237488
Si Si5 0.735897 0.924390 0.994307
Si Si6 0.245742 0.865751 0.465796
Si Si7 0.169522 0.687411 0.093061
Si Si8 0.568849 0.999686 0.730411
O O1 0.618100 0.253431 0.160450
O O2 0.681056 0.102460 0.440951
O O3 0.303981 0.476836 0.148714
O O4 0.428131 0.134392 0.281526
O O5 0.659409 0.784308 0.386419
O O6 0.000000 0.500000 0.500000
O O7 0.892069 0.849023 0.348751
O O8 0.727154 0.853878 0.154111
O O9 0.500000 0.500000 0.500000
O O10 0.350006 0.614105 0.612463
O O11 0.728999 0.360169 0.758402
O O12 0.587455 0.189062 0.822422
O O13 0.856250 0.130836 0.081162
O O14 0.007645 0.021193 0.353435
O O15 0.658815 0.866668 0.929561
O O16 0.960431 0.779005 0.058373
O O17 0.311761 0.933696 0.333043
#
# Coordination Sequence:
#
# PCOD8028060 Si02
#       8
#     2   2   2   2   2   2   2   2
#     4  10  25  43  65  99 141 177 232 279 341 392
#     4  11  28  43  68 101 146 175 218 281 352 407
#     4  11  22  37  68 104 132 169 225 282 332 403
#     4  11  22  46  68 101 133 180 226 290 332 402
#     4  12  24  42  69 101 139 176 226 274 340 410
#     4  11  23  41  73  99 130 181 232 278 336 405
#     4  11  23  41  71  98 133 183 228 283 331 400
#     4  11  24  46  65  97 142 184 219 285 336 402
#
# _framework density 22.555572999999999
#
# number of rings (size 3 to 8) (size 9 to 14) (size 15 to 20)
#    0.000    1.000    3.750    1.875    7.000    0.500 
#    0.000    0.000    0.000    0.000    0.000    0.000 
#    0.000    0.000    0.000    0.000    0.000    0.000 
#
# Total GULP energy -198261.687934 kJ/mol
# GULP energy per Si atom -12391.355496 kJ/mol
# Density = 2.250424 g / cm^3
# Si number density = 22.555573 Si / 1000 Ang^3
#
#
#
# Elastic Constant Matrix: (Units=GPa)
#
#
# Indices 1 2 3 4 5 6 
#
# 1 83.5519 34.4226 12.1253 -6.8783 8.0762 -3.1658
# 2 34.4226 100.5681 25.3873 -3.7765 4.0835 11.9903
# 3 12.1253 25.3873 87.6669 0.5416 7.9340 17.8182
# 4 -6.8783 -3.7765 0.5416 37.5870 2.2640 9.9829
# 5 8.0762 4.0835 7.9340 2.2640 28.8343 11.1389
# 6 -3.1658 11.9903 17.8182 9.9829 11.1389 36.5722
#
#
#
# Elastic Compliance Matrix: (Units=1/GPa)
#
#
# Indices 1 2 3 4 5 6 
#
# 1 0.015041 -0.005182 -0.001087 0.001298 -0.005110 0.004733
# 2 -0.005182 0.012803 -0.002252 0.001458 0.001891 -0.004523
# 3 -0.001087 -0.002252 0.013489 0.001010 -0.000874 -0.005937
# 4 0.001298 0.001458 0.001010 0.029335 0.000310 -0.008960
# 5 -0.005110 0.001891 -0.000874 0.000310 0.041185 -0.013265
# 6 0.004733 -0.004523 -0.005937 -0.008960 -0.013265 0.038614
#
#
# Mechanical properties :
#
#
# Convention : Reuss Voigt Hill
#
# Bulk Modulus (GPa) = 41.16685 46.18416 43.67551
# Shear Modulus (GPa) = 28.47275 33.92213 31.19744
#
# Velocity S-wave (km/s) = 3.55679 3.88227 3.72309
# Velocity P-wave (km/s) = 5.92947 6.37308 6.15527
#
# Compressibility (1/GPa) = 0.02429139
#
# Stress axis : x y z
#
# Youngs Moduli (GPa) = 66.48278 78.10779 74.13530
#
# Poissons Ratio (x) = 0.40475 0.08060
# Poissons Ratio (y) = 0.34451 0.16693
# Poissons Ratio (z) = 0.07228 0.17587
#
# Static dielectric constant tensor:
#      x y z
#    x 4.136390 0.020500 0.239910 
#    y 0.020500 4.337300 0.253610 
#    z 0.239910 0.253610 4.268780 
# 
# 
# High freq. dielectric constant tensor:
#      x y z
#    x 1.892630 -0.002310 0.018250 
#    y -0.002310 1.897750 0.014910 
#    z 0.018250 0.014910 1.884990 
# 
# From -- ./inp_files/392091.got.cif
#   From: 2010.06.25/outbox.cif.g09.slc.cpg/sg2_197_cif.got.tgz:392091.got - 2010.06.27 13:26:56.
