data_PCOD8028709
_publ_section_title
;
Structure prediction by ZEFSAII (Michael W. Deem and Ramdas Pophale) SiO2 
 PCOD8028709
Probable space group: P -1
;
_chemical_formula_sum "Si O2"
_cell_formula_units_Z 14
_cell_length_a 16.101535
_cell_length_b 4.955430
_cell_length_c 8.213418
_cell_angle_alpha 118.430571
_cell_angle_beta 89.749914
_cell_angle_gamma 102.141639
_cell_volume 559.911814
_symmetry_space_group_name_H-M "P -1"
_symmetry_group_IT_number 2
_symmetry_cell_setting 'triclinic'
loop_
_space_group_symop_operation_xyz
x,y,z
-x,-y,-z
loop_
_atom_site_type_symbol
_atom_site_label
_atom_site_fract_x
_atom_site_fract_y
_atom_site_fract_z
Si Si1 0.308158 0.357665 0.482379
Si Si2 0.879261 0.854126 0.588739
Si Si3 0.403891 0.538631 0.007560
Si Si4 0.942759 0.573184 0.825260
Si Si5 0.596224 0.129087 0.585687
Si Si6 0.302129 0.844463 0.867992
Si Si7 0.119114 0.521557 0.855083
O O1 0.218190 0.133745 0.365103
O O2 0.370043 0.515015 0.381035
O O3 0.284886 0.671884 0.645854
O O4 0.353478 0.141688 0.535290
O O5 0.908369 0.662587 0.680433
O O6 0.884537 0.717171 0.366214
O O7 0.937856 0.201720 0.698893
O O8 0.375921 0.676025 0.881622
O O9 0.336355 0.215525 0.957942
O O10 0.500000 0.500000 0.000000
O O11 0.396165 0.821915 0.208151
O O12 0.045484 0.720257 0.888998
O O13 0.895710 0.647585 0.013699
O O14 0.500000 0.000000 0.500000
O O15 0.211840 0.765584 0.940881
#
# Coordination Sequence:
#
# PCOD8028709 Si02
#       7
#     2   2   2   2   2   2   2
#     4  11  24  43  66  99 132 178 227 284 342 415
#     4  11  25  44  71 101 145 187 240 291 356 416
#     4  12  26  44  69  99 133 178 223 282 347 417
#     4  11  25  44  73 102 145 189 243 289 357 423
#     4  12  25  43  68  96 133 174 224 281 345 417
#     4  11  25  44  69  98 140 174 228 287 346 413
#     4  10  26  45  70 108 142 190 238 298 351 421
#
# _framework density 25.003934000000001
#
# number of rings (size 3 to 8) (size 9 to 14) (size 15 to 20)
#    0.000    0.857    0.000    6.000    6.000    8.000 
#    0.000    0.000    0.000    0.000    0.000    0.000 
#    0.000    0.000    0.000    0.000    0.000    0.000 
#
# Total GULP energy -173464.524826 kJ/mol
# GULP energy per Si atom -12390.323202 kJ/mol
# Density = 2.494702 g / cm^3
# Si number density = 25.003934 Si / 1000 Ang^3
#
#
#
# Elastic Constant Matrix: (Units=GPa)
#
#
# Indices 1 2 3 4 5 6 
#
# 1 95.7352 0.6534 -16.8588 -11.3044 17.4353 2.6889
# 2 0.6534 86.2736 13.6949 -11.5483 -0.6264 -12.9460
# 3 -16.8588 13.6949 114.4698 -10.3926 -10.5510 0.0514
# 4 -11.3044 -11.5483 -10.3926 28.4267 1.7152 4.5049
# 5 17.4353 -0.6264 -10.5510 1.7152 28.4618 -4.4013
# 6 2.6889 -12.9460 0.0514 4.5049 -4.4013 38.7856
#
#
#
# Elastic Compliance Matrix: (Units=1/GPa)
#
#
# Indices 1 2 3 4 5 6 
#
# 1 0.013130 0.000078 0.001789 0.006815 -0.008192 -0.002608
# 2 0.000078 0.012915 -0.001136 0.004246 0.000152 0.003831
# 3 0.001789 -0.001136 0.009674 0.003771 0.002128 -0.000713
# 4 0.006815 0.004246 0.003771 0.042082 -0.005934 -0.004621
# 5 -0.008192 0.000152 0.002128 -0.005934 0.042246 0.006099
# 6 -0.002608 0.003831 -0.000713 -0.004621 0.006099 0.028472
#
#
# Mechanical properties :
#
#
# Convention : Reuss Voigt Hill
#
# Bulk Modulus (GPa) = 26.89496 32.38418 29.63957
# Shear Modulus (GPa) = 31.35760 39.06744 35.21252
#
# Velocity S-wave (km/s) = 3.54518 3.95707 3.75678
# Velocity P-wave (km/s) = 5.24761 5.81873 5.54053
#
# Compressibility (1/GPa) = 0.03718169
#
# Stress axis : x y z
#
# Youngs Moduli (GPa) = 76.16210 77.42872 103.36807
#
# Poissons Ratio (x) = -0.00604 -0.18494
# Poissons Ratio (y) = -0.00594 0.11741
# Poissons Ratio (z) = -0.13627 0.08795
#
# Static dielectric constant tensor:
#      x y z
#    x 4.905330 0.173150 0.008070 
#    y 0.173150 4.539050 0.045560 
#    z 0.008070 0.045560 4.713930 
# 
# 
# High freq. dielectric constant tensor:
#      x y z
#    x 2.005650 0.009740 0.008090 
#    y 0.009740 1.994640 0.003200 
#    z 0.008090 0.003200 2.013540 
# 
# From -- ./inp_files/289283.got.cif
#   From: 2010.06.25/outbox.cif.g09.slc.cpg/sg2_145_cif.got.tgz:289283.got - 2010.06.27 13:26:56.
