data_PCOD8028980
_publ_section_title
;
Structure prediction by ZEFSAII (Michael W. Deem and Ramdas Pophale) SiO2 
 PCOD8028980
Probable space group: P -1
;
_chemical_formula_sum "Si O2"
_cell_formula_units_Z 14
_cell_length_a 11.997477
_cell_length_b 9.834130
_cell_length_c 8.869431
_cell_angle_alpha 115.246288
_cell_angle_beta 70.006280
_cell_angle_gamma 61.390427
_cell_volume 603.177535
_symmetry_space_group_name_H-M "P -1"
_symmetry_group_IT_number 2
_symmetry_cell_setting 'triclinic'
loop_
_space_group_symop_operation_xyz
x,y,z
-x,-y,-z
loop_
_atom_site_type_symbol
_atom_site_label
_atom_site_fract_x
_atom_site_fract_y
_atom_site_fract_z
Si Si1 0.887672 0.156953 0.824090
Si Si2 0.907285 0.735244 0.213737
Si Si3 0.171831 0.380241 0.279521
Si Si4 0.354824 0.020682 0.798771
Si Si5 0.790133 0.315151 0.621072
Si Si6 0.659945 0.931158 0.691741
Si Si7 0.422040 0.729153 0.880992
O O1 0.804329 0.210831 0.721437
O O2 0.945965 0.273825 0.876947
O O3 0.733389 0.249287 0.051438
O O4 0.054670 0.893719 0.654263
O O5 0.730624 0.946288 0.304860
O O6 0.838867 0.782913 0.441101
O O7 0.000000 0.500000 0.000000
O O8 0.176531 0.542258 0.290723
O O9 0.000000 0.500000 0.500000
O O10 0.323936 0.211539 0.252871
O O11 0.192755 0.245880 0.069324
O O12 0.502141 0.012974 0.701564
O O13 0.428434 0.808649 0.755396
O O14 0.602639 0.469860 0.700614
O O15 0.612175 0.131277 0.892015
#
# Coordination Sequence:
#
# PCOD8028980 Si02
#       7
#     2   2   2   2   2   2   2
#     4  11  25  40  63 100 130 170 221 267 324 395
#     4  12  27  45  63  91 136 175 212 267 333 392
#     4  11  19  36  70  99 126 165 218 273 320 370
#     4  11  22  42  64 100 132 170 215 258 327 395
#     4  11  20  41  65  99 132 163 220 274 325 373
#     4  11  21  41  68  99 127 166 222 270 312 389
#     4  11  22  43  74  97 130 167 218 280 321 373
#
# _framework density 23.210412999999999
#
# number of rings (size 3 to 8) (size 9 to 14) (size 15 to 20)
#    0.000    0.857    2.857    7.714    0.000    0.571 
#    2.571    0.714    0.000    0.000    0.000    0.000 
#    0.000    0.000    0.000    0.000    0.000    0.000 
#
# Total GULP energy -173576.065165 kJ/mol
# GULP energy per Si atom -12398.290369 kJ/mol
# Density = 2.315759 g / cm^3
# Si number density = 23.210413 Si / 1000 Ang^3
#
#
#
# Elastic Constant Matrix: (Units=GPa)
#
#
# Indices 1 2 3 4 5 6 
#
# 1 106.3317 38.4798 4.4880 0.9484 -24.7208 4.1494
# 2 38.4798 112.7117 32.4821 16.1235 -3.6557 -1.6778
# 3 4.4880 32.4821 68.1877 17.2343 -19.8735 -2.3425
# 4 0.9484 16.1235 17.2343 38.4231 -2.9236 -4.2088
# 5 -24.7208 -3.6557 -19.8735 -2.9236 34.7451 -3.9449
# 6 4.1494 -1.6778 -2.3425 -4.2088 -3.9449 32.7002
#
#
#
# Elastic Compliance Matrix: (Units=1/GPa)
#
#
# Indices 1 2 3 4 5 6 
#
# 1 0.014392 -0.006204 0.005557 0.000719 0.012814 -0.000108
# 2 -0.006204 0.013270 -0.007442 -0.002686 -0.007536 -0.000320
# 3 0.005557 -0.007442 0.024454 -0.006500 0.016822 0.001858
# 4 0.000719 -0.002686 -0.006500 0.030351 -0.000578 0.003142
# 5 0.012814 -0.007536 0.016822 -0.000578 0.047225 0.004815
# 6 -0.000108 -0.000320 0.001858 0.003142 0.004815 0.031697
#
#
# Mechanical properties :
#
#
# Convention : Reuss Voigt Hill
#
# Bulk Modulus (GPa) = 27.82455 48.68121 38.25288
# Shear Modulus (GPa) = 26.37917 35.29243 30.83580
#
# Velocity S-wave (km/s) = 3.37489 3.90364 3.64886
# Velocity P-wave (km/s) = 5.21541 6.42941 5.85397
#
# Compressibility (1/GPa) = 0.03593949
#
# Stress axis : x y z
#
# Youngs Moduli (GPa) = 69.48382 75.35965 40.89330
#
# Poissons Ratio (x) = 0.46751 -0.22725
# Poissons Ratio (y) = 0.43106 0.30431
# Poissons Ratio (z) = -0.38614 0.56079
#
# Static dielectric constant tensor:
#      x y z
#    x 4.194810 -0.488520 -0.288440 
#    y -0.488520 4.586980 0.170150 
#    z -0.288440 0.170150 3.952870 
# 
# 
# High freq. dielectric constant tensor:
#      x y z
#    x 1.915190 -0.003150 -0.026560 
#    y -0.003150 1.927930 0.009530 
#    z -0.026560 0.009530 1.896920 
# 
# From -- ./inp_files/182321.got.cif
#   From: 2010.06.25/outbox.cif.g09.slc.cpg/sg2_92_cif.got.tgz:182321.got - 2010.06.27 13:26:56.
