data_PCOD8028331
_publ_section_title
;
Structure prediction by ZEFSAII (Michael W. Deem and Ramdas Pophale) SiO2 
 PCOD8028331
Probable space group: P -1
;
_chemical_formula_sum "Si O2"
_cell_formula_units_Z 14
_cell_length_a 7.059116
_cell_length_b 11.044613
_cell_length_c 12.554495
_cell_angle_alpha 89.240195
_cell_angle_beta 43.243620
_cell_angle_gamma 103.261256
_cell_volume 628.377481
_symmetry_space_group_name_H-M "P -1"
_symmetry_group_IT_number 2
_symmetry_cell_setting 'triclinic'
loop_
_space_group_symop_operation_xyz
x,y,z
-x,-y,-z
loop_
_atom_site_type_symbol
_atom_site_label
_atom_site_fract_x
_atom_site_fract_y
_atom_site_fract_z
Si Si1 0.246465 0.600419 0.768374
Si Si2 0.174171 0.008759 0.261254
Si Si3 0.822075 0.035825 0.977579
Si Si4 0.284882 0.678246 0.335011
Si Si5 0.207764 0.514574 0.572824
Si Si6 0.141459 0.194275 0.445780
Si Si7 0.096143 0.313817 0.922864
O O1 0.133945 0.603270 0.692811
O O2 0.599943 0.670605 0.634818
O O3 0.166488 0.449862 0.833228
O O4 0.082260 0.679792 0.898516
O O5 0.094755 0.014730 0.168927
O O6 0.900029 0.904485 0.437122
O O7 0.221684 0.143274 0.301372
O O8 0.471599 0.972018 0.145378
O O9 0.901006 0.191548 0.933624
O O10 0.000000 0.000000 0.000000
O O11 0.277418 0.574580 0.428442
O O12 0.621215 0.724474 0.156277
O O13 0.071657 0.618043 0.322609
O O14 0.173107 0.784513 0.435307
O O15 0.500000 0.500000 0.500000
#
# Coordination Sequence:
#
# PCOD8028331 Si02
#       7
#     2   2   2   2   2   2   2
#     4  11  23  41  70  97 141 177 214 280 352 398
#     4  10  25  45  71  95 138 187 228 282 344 392
#     4  11  24  47  70 101 135 181 235 282 336 415
#     4  11  23  38  66 101 130 173 233 264 337 414
#     4  11  21  40  64  96 136 176 213 277 338 402
#     4  11  22  46  68 104 136 179 233 284 336 413
#     4  11  24  42  65 104 136 176 222 277 339 410
#
# _framework density 22.279602000000001
#
# number of rings (size 3 to 8) (size 9 to 14) (size 15 to 20)
#    0.000    1.143    4.286    1.714    4.000    1.714 
#    0.000    2.143    0.000    0.000    0.000    0.000 
#    0.000    0.000    0.000    0.000    0.000    0.000 
#
# Total GULP energy -173491.773785 kJ/mol
# GULP energy per Si atom -12392.269556 kJ/mol
# Density = 2.222889 g / cm^3
# Si number density = 22.279602 Si / 1000 Ang^3
#
#
#
# Elastic Constant Matrix: (Units=GPa)
#
#
# Indices 1 2 3 4 5 6 
#
# 1 114.9639 21.7297 47.2687 14.6668 11.9860 13.5430
# 2 21.7297 80.7351 29.3278 6.5328 13.4828 18.2767
# 3 47.2687 29.3278 121.1377 22.9089 0.8286 16.2893
# 4 14.6668 6.5328 22.9089 45.2249 4.0111 -1.4694
# 5 11.9860 13.4828 0.8286 4.0111 35.8588 11.4946
# 6 13.5430 18.2767 16.2893 -1.4694 11.4946 32.7856
#
#
#
# Elastic Compliance Matrix: (Units=1/GPa)
#
#
# Indices 1 2 3 4 5 6 
#
# 1 0.010955 -0.000748 -0.003613 -0.001424 -0.002677 -0.001439
# 2 -0.000748 0.015472 -0.002536 -0.000580 -0.003576 -0.005828
# 3 -0.003613 -0.002536 0.011795 -0.004930 0.003896 -0.004541
# 4 -0.001424 -0.000580 -0.004930 0.025697 -0.003958 0.005900
# 5 -0.002677 -0.003576 0.003896 -0.003958 0.033982 -0.010928
# 6 -0.001439 -0.005828 -0.004541 0.005900 -0.010928 0.040697
#
#
# Mechanical properties :
#
#
# Convention : Reuss Voigt Hill
#
# Bulk Modulus (GPa) = 40.93522 57.05434 48.99478
# Shear Modulus (GPa) = 31.14577 37.34125 34.24351
#
# Velocity S-wave (km/s) = 3.74297 4.09837 3.92470
# Velocity P-wave (km/s) = 6.09041 6.93249 6.52505
#
# Compressibility (1/GPa) = 0.02442884
#
# Stress axis : x y z
#
# Youngs Moduli (GPa) = 91.27895 64.63157 84.78188
#
# Poissons Ratio (x) = 0.04837 0.30628
# Poissons Ratio (y) = 0.06831 0.21500
# Poissons Ratio (z) = 0.32975 0.16390
#
# Static dielectric constant tensor:
#      x y z
#    x 4.239730 0.495780 0.213960 
#    y 0.495780 4.151900 0.263100 
#    z 0.213960 0.263100 4.616050 
# 
# 
# High freq. dielectric constant tensor:
#      x y z
#    x 1.856580 0.017150 -0.004050 
#    y 0.017150 1.879990 0.009260 
#    z -0.004050 0.009260 1.894130 
# 
# From -- ./inp_files/364422.got.cif
#   From: 2010.06.25/outbox.cif.g09.slc.cpg/sg2_183_cif.got.tgz:364422.got - 2010.06.27 13:26:56.
