data_PCOD8028369
_publ_section_title
;
Structure prediction by ZEFSAII (Michael W. Deem and Ramdas Pophale) SiO2 
 PCOD8028369
Probable space group: P -1
;
_chemical_formula_sum "Si O2"
_cell_formula_units_Z 14
_cell_length_a 10.627624
_cell_length_b 16.087268
_cell_length_c 8.050180
_cell_angle_alpha 111.214096
_cell_angle_beta 89.441044
_cell_angle_gamma 147.362712
_cell_volume 560.384296
_symmetry_space_group_name_H-M "P -1"
_symmetry_group_IT_number 2
_symmetry_cell_setting 'triclinic'
loop_
_space_group_symop_operation_xyz
x,y,z
-x,-y,-z
loop_
_atom_site_type_symbol
_atom_site_label
_atom_site_fract_x
_atom_site_fract_y
_atom_site_fract_z
Si Si1 0.006524 0.410924 0.530380
Si Si2 0.551993 0.578075 0.821823
Si Si3 0.514453 0.378638 0.475471
Si Si4 0.966228 0.755802 0.186235
Si Si5 0.704550 0.336726 0.971137
Si Si6 0.730208 0.890575 0.450834
Si Si7 0.548441 0.043211 0.836292
O O1 0.000000 0.500000 0.500000
O O2 0.147610 0.424442 0.421617
O O3 0.215824 0.556592 0.789846
O O4 0.693189 0.171363 0.410811
O O5 0.461262 0.424291 0.637551
O O6 0.637863 0.697792 0.755298
O O7 0.281188 0.442929 0.835060
O O8 0.828234 0.740296 0.050910
O O9 0.395137 0.212893 0.440605
O O10 0.134633 0.785839 0.106950
O O11 0.189152 0.953864 0.437857
O O12 0.507774 0.274120 0.810112
O O13 0.522463 0.131520 0.865550
O O14 0.000000 0.500000 0.000000
O O15 0.000000 0.000000 0.500000
O O16 0.500000 0.000000 0.000000
#
# Coordination Sequence:
#
# PCOD8028369 Si02
#       7
#     2   2   2   2   2   2   2
#     4  12  26  49  77 111 150 202 249 320 394 450
#     4  10  25  45  76 105 142 203 240 316 385 451
#     4  11  25  48  71 103 153 191 250 309 381 456
#     4  11  25  47  74 107 146 191 255 308 387 448
#     4  12  30  48  76 113 155 205 254 314 391 455
#     4  12  28  48  73 110 152 194 260 317 370 460
#     4  12  27  48  80 114 153 197 259 320 375 469
#
# _framework density 24.982856000000002
#
# number of rings (size 3 to 8) (size 9 to 14) (size 15 to 20)
#    0.000    0.571    2.857    3.429    8.000    2.857 
#    0.000    0.000    0.000    0.000    0.000    0.000 
#    0.000    0.000    0.000    0.000    0.000    0.000 
#
# Total GULP energy -173598.158428 kJ/mol
# GULP energy per Si atom -12399.868459 kJ/mol
# Density = 2.492599 g / cm^3
# Si number density = 24.982856 Si / 1000 Ang^3
#
#
#
# Elastic Constant Matrix: (Units=GPa)
#
#
# Indices 1 2 3 4 5 6 
#
# 1 106.1845 52.5230 36.9996 -3.6415 11.7223 12.6089
# 2 52.5230 128.7699 54.0855 -9.2877 13.5191 0.8846
# 3 36.9996 54.0855 145.3119 -6.2299 14.8249 -10.0573
# 4 -3.6415 -9.2877 -6.2299 40.5507 -4.4082 -1.1356
# 5 11.7223 13.5191 14.8249 -4.4082 41.2485 -0.5673
# 6 12.6089 0.8846 -10.0573 -1.1356 -0.5673 62.5949
#
#
#
# Elastic Compliance Matrix: (Units=1/GPa)
#
#
# Indices 1 2 3 4 5 6 
#
# 1 0.012612 -0.004281 -0.001655 -0.000361 -0.001663 -0.002768
# 2 -0.004281 0.010909 -0.002761 0.001568 -0.001195 0.000282
# 3 -0.001655 -0.002761 0.008640 0.000415 -0.001661 0.001753
# 4 -0.000361 0.001568 0.000415 0.025302 0.002152 0.000596
# 5 -0.001663 -0.001195 -0.001661 0.002152 0.025939 0.000359
# 6 -0.002768 0.000282 0.001753 0.000596 0.000359 0.016825
#
#
# Mechanical properties :
#
#
# Convention : Reuss Voigt Hill
#
# Bulk Modulus (GPa) = 67.73187 74.16474 70.94830
# Shear Modulus (GPa) = 40.80202 44.65602 42.72902
#
# Velocity S-wave (km/s) = 4.04567 4.23243 4.14010
# Velocity P-wave (km/s) = 6.99953 7.32361 7.16341
#
# Compressibility (1/GPa) = 0.01476410
#
# Stress axis : x y z
#
# Youngs Moduli (GPa) = 79.29046 91.67157 115.74648
#
# Poissons Ratio (x) = 0.39249 0.19157
# Poissons Ratio (y) = 0.33948 0.31962
# Poissons Ratio (z) = 0.13123 0.25314
#
# Static dielectric constant tensor:
#      x y z
#    x 4.510800 -0.163650 0.240540 
#    y -0.163650 4.156480 0.601070 
#    z 0.240540 0.601070 3.713560 
# 
# 
# High freq. dielectric constant tensor:
#      x y z
#    x 2.008650 -0.000610 0.002890 
#    y -0.000610 2.000540 -0.010910 
#    z 0.002890 -0.010910 1.992360 
# 
# From -- ./inp_files/278133.got.cif
#   From: 2010.06.25/outbox.cif.g09.slc.cpg/sg2_140_cif.got.tgz:278133.got - 2010.06.27 13:26:56.
