data_PCOD8028144
_publ_section_title
;
Structure prediction by ZEFSAII (Michael W. Deem and Ramdas Pophale) SiO2 
 PCOD8028144
Probable space group: P -1
;
_chemical_formula_sum "Si O2"
_cell_formula_units_Z 16
_cell_length_a 9.157038
_cell_length_b 15.216478
_cell_length_c 21.014992
_cell_angle_alpha 21.322543
_cell_angle_beta 47.860341
_cell_angle_gamma 46.338472
_cell_volume 765.951471
_symmetry_space_group_name_H-M "P -1"
_symmetry_group_IT_number 2
_symmetry_cell_setting 'triclinic'
loop_
_space_group_symop_operation_xyz
x,y,z
-x,-y,-z
loop_
_atom_site_type_symbol
_atom_site_label
_atom_site_fract_x
_atom_site_fract_y
_atom_site_fract_z
Si Si1 0.414564 0.396717 0.656170
Si Si2 0.214116 0.129622 0.655342
Si Si3 0.516175 0.211106 0.094441
Si Si4 0.227007 0.896591 0.434449
Si Si5 0.427081 0.763073 0.735666
Si Si6 0.228562 0.949494 0.989734
Si Si7 0.239517 0.677602 0.301962
Si Si8 0.250707 0.964318 0.525529
O O1 0.500000 0.500000 0.500000
O O2 0.267315 0.618376 0.586616
O O3 0.596697 0.257532 0.742102
O O4 0.275775 0.217044 0.798289
O O5 0.290499 0.380170 0.476030
O O6 0.972307 0.209393 0.677280
O O7 0.303814 0.926113 0.819614
O O8 0.280943 0.999108 0.655751
O O9 0.612186 0.218161 0.992101
O O10 0.334777 0.069964 0.243240
O O11 0.425807 0.499439 0.946549
O O12 0.317480 0.886455 0.486295
O O13 0.988519 0.998899 0.427854
O O14 0.348526 0.759213 0.688455
O O15 0.659330 0.794897 0.647876
O O16 0.255343 0.810877 0.141763
O O17 0.000000 0.000000 0.000000
#
# Coordination Sequence:
#
# PCOD8028144 Si02
#       8
#     2   2   2   2   2   2   2   2
#     4  12  25  46  70 100 136 185 227 281 349 407
#     4  11  23  44  71 103 138 182 225 285 348 397
#     4  12  24  44  67 101 141 176 225 280 339 402
#     4  11  24  46  67  94 142 177 222 278 343 398
#     4  11  25  42  72  99 134 178 231 275 334 407
#     4  12  27  44  68 105 136 178 232 286 339 410
#     4  11  25  44  72 102 141 177 232 285 341 412
#     4  10  25  44  66 101 127 183 226 278 335 397
#
# _framework density 20.889053000000001
#
# number of rings (size 3 to 8) (size 9 to 14) (size 15 to 20)
#    0.000    0.750    5.000    0.750   10.500    0.500 
#    2.250    0.000    0.000    0.000    0.000    0.000 
#    0.000    0.000    0.000    0.000    0.000    0.000 
#
# Total GULP energy -198408.430933 kJ/mol
# GULP energy per Si atom -12400.526933 kJ/mol
# Density = 2.084151 g / cm^3
# Si number density = 20.889053 Si / 1000 Ang^3
#
#
#
# Elastic Constant Matrix: (Units=GPa)
#
#
# Indices 1 2 3 4 5 6 
#
# 1 129.6860 38.9940 56.0158 8.3564 -0.2360 5.0293
# 2 38.9940 96.1839 40.6076 5.4176 -3.9081 -1.6883
# 3 56.0158 40.6076 123.0907 -4.2352 2.1710 -1.6897
# 4 8.3564 5.4176 -4.2352 39.9224 3.9104 2.4518
# 5 -0.2360 -3.9081 2.1710 3.9104 35.8511 8.0202
# 6 5.0293 -1.6883 -1.6897 2.4518 8.0202 30.5860
#
#
#
# Elastic Compliance Matrix: (Units=1/GPa)
#
#
# Indices 1 2 3 4 5 6 
#
# 1 0.010412 -0.002382 -0.004072 -0.002235 0.000767 -0.002090
# 2 -0.002382 0.012918 -0.003260 -0.001800 0.001644 0.000638
# 3 -0.004072 -0.003260 0.011188 0.002560 -0.001637 0.001332
# 4 -0.002235 -0.001800 0.002560 0.026386 -0.003041 -0.000908
# 5 0.000767 0.001644 -0.001637 -0.003041 0.030257 -0.007816
# 6 -0.002090 0.000638 0.001332 -0.000908 -0.007816 0.035269
#
#
# Mechanical properties :
#
#
# Convention : Reuss Voigt Hill
#
# Bulk Modulus (GPa) = 66.26448 68.91061 67.58754
# Shear Modulus (GPa) = 33.13727 35.49479 34.31603
#
# Velocity S-wave (km/s) = 3.98722 4.12661 4.05751
# Velocity P-wave (km/s) = 7.27930 7.46765 7.37407
#
# Compressibility (1/GPa) = 0.01509104
#
# Stress axis : x y z
#
# Youngs Moduli (GPa) = 96.04018 77.41096 89.38371
#
# Poissons Ratio (x) = 0.18438 0.36395
# Poissons Ratio (y) = 0.22876 0.29138
# Poissons Ratio (z) = 0.39105 0.25235
#
# Static dielectric constant tensor:
#      x y z
#    x 3.926350 0.114580 -0.073730 
#    y 0.114580 3.923800 0.270530 
#    z -0.073730 0.270530 1.580450 
# 
# 
# High freq. dielectric constant tensor:
#      x y z
#    x 1.828160 0.001310 0.000450 
#    y 0.001310 1.828610 0.009020 
#    z 0.000450 0.009020 1.818000 
# 
# From -- ./inp_files/381808.got.cif
#   From: 2010.06.25/outbox.cif.g09.slc.cpg/sg2_191_cif.got.tgz:381808.got - 2010.06.27 13:26:56.
