data_PCOD8028287
_publ_section_title
;
Structure prediction by ZEFSAII (Michael W. Deem and Ramdas Pophale) SiO2 
 PCOD8028287
Probable space group: P -1
;
_chemical_formula_sum "Si O2"
_cell_formula_units_Z 16
_cell_length_a 21.369016
_cell_length_b 12.567946
_cell_length_c 8.904766
_cell_angle_alpha 40.211863
_cell_angle_beta 49.775322
_cell_angle_gamma 29.481503
_cell_volume 758.506228
_symmetry_space_group_name_H-M "P -1"
_symmetry_group_IT_number 2
_symmetry_cell_setting 'triclinic'
loop_
_space_group_symop_operation_xyz
x,y,z
-x,-y,-z
loop_
_atom_site_type_symbol
_atom_site_label
_atom_site_fract_x
_atom_site_fract_y
_atom_site_fract_z
Si Si1 0.202727 0.230618 0.653199
Si Si2 0.274279 0.131167 0.320706
Si Si3 0.736907 0.482031 0.075493
Si Si4 0.947931 0.654187 0.760809
Si Si5 0.237698 0.555831 0.270448
Si Si6 0.456583 0.432519 0.528445
Si Si7 0.977467 0.981491 0.385524
Si Si8 0.367053 0.663732 0.103734
O O1 0.196265 0.215426 0.501730
O O2 0.266531 0.312955 0.508945
O O3 0.055901 0.454545 0.685946
O O4 0.272980 0.963861 0.902461
O O5 0.188385 0.207626 0.229675
O O6 0.412584 0.841911 0.439560
O O7 0.310372 0.262834 0.105630
O O8 0.631763 0.547412 0.258779
O O9 0.749034 0.411003 0.959218
O O10 0.875326 0.260799 0.172864
O O11 0.919968 0.888318 0.575075
O O12 0.000000 0.500000 0.000000
O O13 0.099057 0.807488 0.278274
O O14 0.328731 0.541163 0.234185
O O15 0.500000 0.500000 0.500000
O O16 0.376301 0.631447 0.302397
O O17 0.000000 0.000000 0.500000
O O18 0.500000 0.500000 0.000000
#
# Coordination Sequence:
#
# PCOD8028287 Si02
#       8
#     2   2   2   2   2   2   2   2
#     4  10  25  46  69 103 133 179 227 279 343 398
#     4  11  24  46  67  97 138 176 225 278 341 405
#     4  11  24  43  68  98 135 179 221 283 339 403
#     4  11  25  41  69 101 133 175 222 284 337 400
#     4  10  25  45  69 101 136 178 227 282 338 403
#     4  12  26  45  66 100 136 180 226 275 340 410
#     4  11  23  42  66 100 136 174 227 278 340 401
#     4  12  25  45  73  99 136 181 228 277 338 410
#
# _framework density 21.094093000000001
#
# number of rings (size 3 to 8) (size 9 to 14) (size 15 to 20)
#    0.000    1.000    1.250    4.125    8.750    1.500 
#    2.250    0.000    0.000    0.000    0.000    0.000 
#    0.000    0.000    0.000    0.000    0.000    0.000 
#
# Total GULP energy -198325.067452 kJ/mol
# GULP energy per Si atom -12395.316716 kJ/mol
# Density = 2.104608 g / cm^3
# Si number density = 21.094093 Si / 1000 Ang^3
#
#
#
# Elastic Constant Matrix: (Units=GPa)
#
#
# Indices 1 2 3 4 5 6 
#
# 1 135.0212 26.8378 47.0102 5.3007 8.9300 4.7027
# 2 26.8378 84.8296 30.4231 6.4010 -7.4523 3.8357
# 3 47.0102 30.4231 114.2548 5.5322 11.0071 3.5594
# 4 5.3007 6.4010 5.5322 48.6596 1.2446 -0.6990
# 5 8.9300 -7.4523 11.0071 1.2446 33.0887 2.2984
# 6 4.7027 3.8357 3.5594 -0.6990 2.2984 33.2703
#
#
#
# Elastic Compliance Matrix: (Units=1/GPa)
#
#
# Indices 1 2 3 4 5 6 
#
# 1 0.008971 -0.001871 -0.002984 -0.000355 -0.001794 -0.000617
# 2 -0.001871 0.014199 -0.003378 -0.001427 0.004977 -0.001385
# 3 -0.002984 -0.003378 0.011258 -0.000419 -0.003675 -0.000148
# 4 -0.000355 -0.001427 -0.000419 0.020859 -0.000924 0.000762
# 5 -0.001794 0.004977 -0.003675 -0.000924 0.033240 -0.002243
# 6 -0.000617 -0.001385 -0.000148 0.000762 -0.002243 0.030490
#
#
# Mechanical properties :
#
#
# Convention : Reuss Voigt Hill
#
# Bulk Modulus (GPa) = 55.67064 60.29423 57.98243
# Shear Modulus (GPa) = 35.34262 38.32601 36.83432
#
# Velocity S-wave (km/s) = 4.09770 4.26714 4.18328
# Velocity P-wave (km/s) = 6.98835 7.27486 7.13304
#
# Compressibility (1/GPa) = 0.01796279
#
# Stress axis : x y z
#
# Youngs Moduli (GPa) = 111.46991 70.42568 88.82197
#
# Poissons Ratio (x) = 0.13177 0.26502
# Poissons Ratio (y) = 0.20856 0.30007
# Poissons Ratio (z) = 0.33260 0.23792
#
# Static dielectric constant tensor:
#      x y z
#    x 3.985530 0.116470 -0.028260 
#    y 0.116470 3.985670 -0.045690 
#    z -0.028260 -0.045690 4.112720 
# 
# 
# High freq. dielectric constant tensor:
#      x y z
#    x 1.833310 0.008620 -0.004740 
#    y 0.008620 1.843950 0.005030 
#    z -0.004740 0.005030 1.842190 
# 
# From -- ./inp_files/280056.got.cif
#   From: 2010.06.25/outbox.cif.g09.slc.cpg/sg2_141_cif.got.tgz:280056.got - 2010.06.27 13:26:56.
