data_PCOD8028159
_publ_section_title
;
Structure prediction by ZEFSAII (Michael W. Deem and Ramdas Pophale) SiO2 
 PCOD8028159
Probable space group: P -1
;
_chemical_formula_sum "Si O2"
_cell_formula_units_Z 14
_cell_length_a 6.782847
_cell_length_b 12.782115
_cell_length_c 14.580333
_cell_angle_alpha 131.562007
_cell_angle_beta 65.692108
_cell_angle_gamma 136.935566
_cell_volume 639.209135
_symmetry_space_group_name_H-M "P -1"
_symmetry_group_IT_number 2
_symmetry_cell_setting 'triclinic'
loop_
_space_group_symop_operation_xyz
x,y,z
-x,-y,-z
loop_
_atom_site_type_symbol
_atom_site_label
_atom_site_fract_x
_atom_site_fract_y
_atom_site_fract_z
Si Si1 0.871454 0.031402 0.127341
Si Si2 0.825254 0.584120 0.986000
Si Si3 0.655748 0.719973 0.485345
Si Si4 0.586928 0.687133 0.694562
Si Si5 0.687920 0.009152 0.546792
Si Si6 0.255525 0.758022 0.162397
Si Si7 0.257824 0.804749 0.882668
O O1 0.808086 0.163476 0.186601
O O2 0.091177 0.130920 0.228154
O O3 0.557760 0.836365 0.104028
O O4 0.000000 0.000000 0.000000
O O5 0.865958 0.435625 0.883090
O O6 0.962408 0.701445 0.935258
O O7 0.500000 0.500000 0.000000
O O8 0.019034 0.719915 0.114473
O O9 0.583774 0.713258 0.601890
O O10 0.498190 0.505329 0.366513
O O11 0.999677 0.867395 0.488603
O O12 0.546848 0.799198 0.485389
O O13 0.350274 0.684137 0.786028
O O14 0.694515 0.104894 0.691526
O O15 0.500000 0.000000 0.500000
O O16 0.500000 0.000000 0.000000
#
# Coordination Sequence:
#
# PCOD8028159 Si02
#       7
#     2   2   2   2   2   2   2
#     4  12  23  39  68  98 133 178 223 275 342 400
#     4  11  25  41  65  98 135 174 216 272 345 394
#     4  10  25  44  67  96 132 180 224 282 328 401
#     4  11  24  44  67  98 139 175 227 277 339 398
#     4  11  24  44  69  95 131 175 232 276 342 393
#     4  11  24  42  64  96 133 171 223 278 326 410
#     4  12  23  41  66  99 135 174 221 276 334 407
#
# _framework density 21.902066000000001
#
# number of rings (size 3 to 8) (size 9 to 14) (size 15 to 20)
#    0.000    0.857    2.857    3.429    0.000    8.000 
#    0.000    3.571    0.000    0.000    0.000    0.000 
#    0.000    0.000    0.000    0.000    0.000    0.000 
#
# Total GULP energy -173557.261973 kJ/mol
# GULP energy per Si atom -12396.947284 kJ/mol
# Density = 2.185222 g / cm^3
# Si number density = 21.902066 Si / 1000 Ang^3
#
#
#
# Elastic Constant Matrix: (Units=GPa)
#
#
# Indices 1 2 3 4 5 6 
#
# 1 129.0214 34.1580 44.2396 2.3795 6.7391 -4.1731
# 2 34.1580 119.5024 33.8620 -4.2268 -3.5866 -0.4380
# 3 44.2396 33.8620 113.3948 2.4632 -10.9705 -1.4221
# 4 2.3795 -4.2268 2.4632 27.6620 2.6867 -5.7578
# 5 6.7391 -3.5866 -10.9705 2.6867 30.5934 -0.2605
# 6 -4.1731 -0.4380 -1.4221 -5.7578 -0.2605 47.4816
#
#
#
# Elastic Compliance Matrix: (Units=1/GPa)
#
#
# Indices 1 2 3 4 5 6 
#
# 1 0.009679 -0.001878 -0.003548 -0.000316 -0.003591 0.000669
# 2 -0.001878 0.009583 -0.002106 0.001769 0.000627 0.000078
# 3 -0.003548 -0.002106 0.011320 -0.001515 0.004726 -0.000150
# 4 -0.000316 0.001769 -0.001515 0.037868 -0.003553 0.004516
# 5 -0.003591 0.000627 0.004726 -0.003553 0.035555 -0.000404
# 6 0.000669 0.000078 -0.000150 0.004516 -0.000404 0.021661
#
#
# Mechanical properties :
#
#
# Convention : Reuss Voigt Hill
#
# Bulk Modulus (GPa) = 64.43486 65.15976 64.79731
# Shear Modulus (GPa) = 34.26957 37.79134 36.03046
#
# Velocity S-wave (km/s) = 3.95989 4.15838 4.06035
# Velocity P-wave (km/s) = 7.09866 7.27126 7.18548
#
# Compressibility (1/GPa) = 0.01551955
#
# Stress axis : x y z
#
# Youngs Moduli (GPa) = 103.31333 104.34938 88.34038
#
# Poissons Ratio (x) = 0.19596 0.31340
# Poissons Ratio (y) = 0.19401 0.18603
# Poissons Ratio (z) = 0.36652 0.21974
#
# Static dielectric constant tensor:
#      x y z
#    x 4.359090 -0.166190 -0.111570 
#    y -0.166190 4.303330 -0.000290 
#    z -0.111570 -0.000290 3.877400 
# 
# 
# High freq. dielectric constant tensor:
#      x y z
#    x 1.869930 -0.006930 -0.007440 
#    y -0.006930 1.879570 -0.003340 
#    z -0.007440 -0.003340 1.855930 
# 
# From -- ./inp_files/61053.got.cif
#   From: 2010.06.25/outbox.cif.g09.slc.cpg/sg2_31_cif.got.tgz:61053.got - 2010.06.27 13:26:56.
