data_PCOD8028850
_publ_section_title
;
Structure prediction by ZEFSAII (Michael W. Deem and Ramdas Pophale) SiO2 
 PCOD8028850
Probable space group: P -1
;
_chemical_formula_sum "Si O2"
_cell_formula_units_Z 16
_cell_length_a 9.422953
_cell_length_b 10.534231
_cell_length_c 20.480100
_cell_angle_alpha 59.872201
_cell_angle_beta 29.083059
_cell_angle_gamma 70.358911
_cell_volume 828.866842
_symmetry_space_group_name_H-M "P -1"
_symmetry_group_IT_number 2
_symmetry_cell_setting 'triclinic'
loop_
_space_group_symop_operation_xyz
x,y,z
-x,-y,-z
loop_
_atom_site_type_symbol
_atom_site_label
_atom_site_fract_x
_atom_site_fract_y
_atom_site_fract_z
Si Si1 0.664697 0.760050 0.788876
Si Si2 0.692448 0.068880 0.509028
Si Si3 0.607183 0.161929 0.879993
Si Si4 0.745556 0.727150 0.908055
Si Si5 0.601161 0.993755 0.218009
Si Si6 0.235232 0.207389 0.893481
Si Si7 0.902281 0.454973 0.978303
Si Si8 0.145777 0.062121 0.645271
O O1 0.604156 0.690049 0.903174
O O2 0.022980 0.791970 0.622480
O O3 0.578345 0.921592 0.780707
O O4 0.445718 0.645972 0.856779
O O5 0.543835 0.005537 0.652853
O O6 0.455551 0.124558 0.543886
O O7 0.798180 0.941093 0.455196
O O8 0.444056 0.203054 0.871608
O O9 0.949608 0.179421 0.714442
O O10 0.547918 0.282624 0.925624
O O11 0.500000 0.000000 0.000000
O O12 0.928423 0.604506 0.886427
O O13 0.982338 0.889865 0.776016
O O14 0.598563 0.830531 0.229459
O O15 0.946051 0.078638 0.062924
O O16 0.137956 0.363655 0.879399
O O17 0.000000 0.500000 0.000000
#
# Coordination Sequence:
#
# PCOD8028850 Si02
#       8
#     2   2   2   2   2   2   2   2
#     4  10  22  35  56  86 112 147 192 223 280 339
#     4  10  19  35  53  84 115 150 178 231 281 338
#     4  10  17  30  53  80 111 139 177 232 280 316
#     4  10  19  36  57  82 114 146 184 236 278 323
#     4  10  19  33  56  83 114 140 179 239 285 321
#     4  10  20  33  53  88 110 138 190 229 279 334
#     4  11  22  37  57  82 113 151 184 231 279 330
#     4   9  20  32  57  85 113 144 190 224 283 335
#
# _framework density 19.303463000000001
#
# number of rings (size 3 to 8) (size 9 to 14) (size 15 to 20)
#    0.000    2.000    1.250    4.500    1.750    2.000 
#    0.000    0.000    0.000    9.000    0.000    0.000 
#    0.000    0.000    0.000    0.000    0.000    0.000 
#
# Total GULP energy -198209.026789 kJ/mol
# GULP energy per Si atom -12388.064174 kJ/mol
# Density = 1.925953 g / cm^3
# Si number density = 19.303463 Si / 1000 Ang^3
#
#
#
# Elastic Constant Matrix: (Units=GPa)
#
#
# Indices 1 2 3 4 5 6 
#
# 1 128.0200 46.9047 47.9000 9.4053 0.5531 -4.9522
# 2 46.9047 115.5510 34.1965 14.4193 14.0341 -7.4715
# 3 47.9000 34.1965 82.2165 25.2884 2.5391 4.3147
# 4 9.4053 14.4193 25.2884 24.5932 6.3305 0.5942
# 5 0.5531 14.0341 2.5391 6.3305 45.1328 4.7154
# 6 -4.9522 -7.4715 4.3147 0.5942 4.7154 27.1477
#
#
#
# Elastic Compliance Matrix: (Units=1/GPa)
#
#
# Indices 1 2 3 4 5 6 
#
# 1 0.011181 -0.002991 -0.006688 0.004211 0.000356 0.002125
# 2 -0.002991 0.011535 -0.002428 -0.002318 -0.003472 0.003669
# 3 -0.006688 -0.002428 0.023768 -0.021108 0.003060 -0.005735
# 4 0.004211 -0.002318 -0.021108 0.063955 -0.007467 0.003382
# 5 0.000356 -0.003472 0.003060 -0.007467 0.024682 -0.005500
# 6 0.002125 0.003669 -0.005735 0.003382 -0.005500 0.040026
#
#
# Mechanical properties :
#
#
# Convention : Reuss Voigt Hill
#
# Bulk Modulus (GPa) = 44.90146 64.86553 54.88349
# Shear Modulus (GPa) = 24.18007 32.49386 28.33697
#
# Velocity S-wave (km/s) = 3.54309 4.10728 3.83557
# Velocity P-wave (km/s) = 6.32845 7.49460 6.93607
#
# Compressibility (1/GPa) = 0.02227099
#
# Stress axis : x y z
#
# Youngs Moduli (GPa) = 89.44036 86.69496 42.07329
#
# Poissons Ratio (x) = 0.25927 0.28138
# Poissons Ratio (y) = 0.26748 0.10214
# Poissons Ratio (z) = 0.59817 0.21046
#
# Static dielectric constant tensor:
#      x y z
#    x 3.727410 -0.024650 -0.023590 
#    y -0.024650 3.746820 0.460650 
#    z -0.023590 0.460650 3.543290 
# 
# 
# High freq. dielectric constant tensor:
#      x y z
#    x 1.769510 -0.009360 -0.001630 
#    y -0.009360 1.732790 0.032830 
#    z -0.001630 0.032830 1.724100 
# 
# From -- ./inp_files/259999.got.cif
#   From: 2010.06.25/outbox.cif.g09.slc.cpg/sg2_130_cif.got.tgz:259999.got - 2010.06.27 13:26:56.
