data_PCOD8028897
_publ_section_title
;
Structure prediction by ZEFSAII (Michael W. Deem and Ramdas Pophale) SiO2 
 PCOD8028897
Probable space group: P -1
;
_chemical_formula_sum "Si O2"
_cell_formula_units_Z 14
_cell_length_a 11.550514
_cell_length_b 9.039996
_cell_length_c 11.982599
_cell_angle_alpha 140.003800
_cell_angle_beta 128.154610
_cell_angle_gamma 63.183616
_cell_volume 631.757571
_symmetry_space_group_name_H-M "P -1"
_symmetry_group_IT_number 2
_symmetry_cell_setting 'triclinic'
loop_
_space_group_symop_operation_xyz
x,y,z
-x,-y,-z
loop_
_atom_site_type_symbol
_atom_site_label
_atom_site_fract_x
_atom_site_fract_y
_atom_site_fract_z
Si Si1 0.088580 0.583553 0.206871
Si Si2 0.063971 0.994424 0.700637
Si Si3 0.447857 0.130137 0.287163
Si Si4 0.672322 0.783600 0.140962
Si Si5 0.412792 0.474689 0.277089
Si Si6 0.125022 0.951707 0.959614
Si Si7 0.090560 0.459064 0.718822
O O1 0.257484 0.537706 0.273108
O O2 0.019806 0.457953 0.201919
O O3 0.057849 0.857748 0.351171
O O4 0.000000 0.500000 0.000000
O O5 0.092850 0.072002 0.891122
O O6 0.001213 0.733800 0.517219
O O7 0.220314 0.029651 0.751170
O O8 0.476706 0.271565 0.271633
O O9 0.486460 0.290487 0.511169
O O10 0.549989 0.911459 0.212341
O O11 0.279779 0.046510 0.155151
O O12 0.760486 0.632050 0.192440
O O13 0.595671 0.605896 0.902686
O O14 0.132298 0.674736 0.789026
O O15 0.000000 0.000000 0.000000
#
# Coordination Sequence:
#
# PCOD8028897 Si02
#       7
#     2   2   2   2   2   2   2
#     4  11  18  38  68  95 126 160 212 266 309 365
#     4  11  22  40  67  96 123 167 215 264 316 373
#     4  11  24  42  63  97 128 167 214 263 322 377
#     4  11  22  42  69  96 127 160 215 271 312 375
#     4  11  21  38  68  96 124 166 210 267 315 366
#     4  12  26  44  62  90 132 169 210 262 321 389
#     4  11  23  39  64  96 128 168 209 261 322 380
#
# _framework density 22.160399999999999
#
# number of rings (size 3 to 8) (size 9 to 14) (size 15 to 20)
#    0.000    0.857    4.286    6.000    0.000    1.714 
#    2.571    0.714    0.000    0.000    0.000    0.000 
#    0.000    0.000    0.000    0.000    0.000    0.000 
#
# Total GULP energy -173627.239685 kJ/mol
# GULP energy per Si atom -12401.945692 kJ/mol
# Density = 2.210996 g / cm^3
# Si number density = 22.160400 Si / 1000 Ang^3
#
#
#
# Elastic Constant Matrix: (Units=GPa)
#
#
# Indices 1 2 3 4 5 6 
#
# 1 74.6789 21.6277 20.5300 2.3560 8.4034 -14.6083
# 2 21.6277 72.5727 9.2267 -0.9094 9.7201 -1.8258
# 3 20.5300 9.2267 129.4131 2.6291 12.8294 -6.1391
# 4 2.3560 -0.9094 2.6291 33.1088 0.4316 0.0420
# 5 8.4034 9.7201 12.8294 0.4316 27.9090 1.9173
# 6 -14.6083 -1.8258 -6.1391 0.0420 1.9173 30.2523
#
#
#
# Elastic Compliance Matrix: (Units=1/GPa)
#
#
# Indices 1 2 3 4 5 6 
#
# 1 0.017027 -0.004223 -0.001666 -0.001161 -0.003411 0.007847
# 2 -0.004223 0.015582 -0.000095 0.000790 -0.004065 -0.000861
# 3 -0.001666 -0.000095 0.008398 -0.000508 -0.003394 0.001110
# 4 -0.001161 0.000790 -0.000508 0.030350 -0.000117 -0.000651
# 5 -0.003411 -0.004065 -0.003394 -0.000117 0.040188 -0.005128
# 6 0.007847 -0.000861 0.001110 -0.000651 -0.005128 0.037344
#
#
# Mechanical properties :
#
#
# Convention : Reuss Voigt Hill
#
# Bulk Modulus (GPa) = 34.43571 42.15928 38.29749
# Shear Modulus (GPa) = 29.31919 33.27271 31.29595
#
# Velocity S-wave (km/s) = 3.64131 3.87906 3.76206
# Velocity P-wave (km/s) = 5.76645 6.25529 6.01584
#
# Compressibility (1/GPa) = 0.02903963
#
# Stress axis : x y z
#
# Youngs Moduli (GPa) = 58.72985 64.17462 119.08030
#
# Poissons Ratio (x) = 0.27099 0.19840
# Poissons Ratio (y) = 0.24800 0.01132
# Poissons Ratio (z) = 0.09785 0.00610
#
# Static dielectric constant tensor:
#      x y z
#    x 3.587740 -0.073890 0.035480 
#    y -0.073890 4.091120 0.183420 
#    z 0.035480 0.183420 4.257690 
# 
# 
# High freq. dielectric constant tensor:
#      x y z
#    x 1.843810 -0.017820 0.000300 
#    y -0.017820 1.876380 0.004870 
#    z 0.000300 0.004870 1.893150 
# 
# From -- ./inp_files/158991.got.cif
#   From: 2010.06.25/outbox.cif.g09.slc.cpg/sg2_80_cif.got.tgz:158991.got - 2010.06.27 13:26:56.
