data_PCOD8028781
_publ_section_title
;
Structure prediction by ZEFSAII (Michael W. Deem and Ramdas Pophale) SiO2 
 PCOD8028781
Probable space group: P -1
;
_chemical_formula_sum "Si O2"
_cell_formula_units_Z 16
_cell_length_a 8.744099
_cell_length_b 8.852935
_cell_length_c 14.624073
_cell_angle_alpha 79.880880
_cell_angle_beta 37.738895
_cell_angle_gamma 80.174137
_cell_volume 681.171486
_symmetry_space_group_name_H-M "P -1"
_symmetry_group_IT_number 2
_symmetry_cell_setting 'triclinic'
loop_
_space_group_symop_operation_xyz
x,y,z
-x,-y,-z
loop_
_atom_site_type_symbol
_atom_site_label
_atom_site_fract_x
_atom_site_fract_y
_atom_site_fract_z
Si Si1 0.048579 0.059143 0.684059
Si Si2 0.736004 0.054940 0.580501
Si Si3 0.355188 0.628673 0.996948
Si Si4 0.477779 0.037664 0.135378
Si Si5 0.144329 0.372675 0.665905
Si Si6 0.586580 0.387204 0.581981
Si Si7 0.002488 0.079746 0.090122
Si Si8 0.242121 0.589757 0.856880
O O1 0.066914 0.242071 0.645250
O O2 0.261274 0.979413 0.525613
O O3 0.771460 0.011594 0.791736
O O4 0.117820 0.019833 0.761326
O O5 0.683646 0.236085 0.606876
O O6 0.544614 0.960034 0.742341
O O7 0.000000 0.000000 0.500000
O O8 0.062181 0.613473 0.158147
O O9 0.500000 0.500000 0.000000
O O10 0.445607 0.798443 0.957854
O O11 0.405403 0.596767 0.870490
O O12 0.704489 0.911600 0.021132
O O13 0.414517 0.330333 0.587017
O O14 0.169106 0.531734 0.581364
O O15 0.422434 0.509338 0.705970
O O16 0.854752 0.242042 0.147294
O O17 0.000000 0.000000 0.000000
O O18 0.000000 0.500000 0.000000
#
# Coordination Sequence:
#
# PCOD8028781 Si02
#       8
#     2   2   2   2   2   2   2   2
#     4  11  26  46  76 108 147 200 254 299 389 436
#     4  10  26  47  74 105 147 201 248 305 366 446
#     4  12  28  46  74 109 153 195 247 307 378 450
#     4  11  25  48  73 108 150 194 253 318 358 448
#     4  11  26  47  71 112 147 196 246 306 376 445
#     4  11  27  49  72 108 159 185 250 311 366 454
#     4  12  25  45  75 108 149 186 254 311 361 447
#     4  12  26  46  75 107 144 199 243 304 380 428
#
# _framework density 23.488945000000001
#
# number of rings (size 3 to 8) (size 9 to 14) (size 15 to 20)
#    0.000    0.750    3.750    1.125   12.250    2.500 
#    0.000    3.125    0.000    0.000    0.000    0.000 
#    0.000    0.000    0.000    0.000    0.000    0.000 
#
# Total GULP energy -198329.448889 kJ/mol
# GULP energy per Si atom -12395.590556 kJ/mol
# Density = 2.343548 g / cm^3
# Si number density = 23.488945 Si / 1000 Ang^3
#
#
#
# Elastic Constant Matrix: (Units=GPa)
#
#
# Indices 1 2 3 4 5 6 
#
# 1 85.6768 50.3229 34.0955 -7.8857 13.1644 1.4449
# 2 50.3229 151.8862 58.2924 -1.6767 -3.0002 -20.2178
# 3 34.0955 58.2924 139.0315 -12.2023 14.1808 3.1784
# 4 -7.8857 -1.6767 -12.2023 48.1000 7.7682 0.4355
# 5 13.1644 -3.0002 14.1808 7.7682 43.8596 -4.0485
# 6 1.4449 -20.2178 3.1784 0.4355 -4.0485 39.2663
#
#
#
# Elastic Compliance Matrix: (Units=1/GPa)
#
#
# Indices 1 2 3 4 5 6 
#
# 1 0.016780 -0.006015 -0.000549 0.003456 -0.006285 -0.004356
# 2 -0.006015 0.011113 -0.004063 -0.002490 0.004949 0.006810
# 3 -0.000549 -0.004063 0.009784 0.002943 -0.004104 -0.003320
# 4 0.003456 -0.002490 0.002943 0.023087 -0.006486 -0.002573
# 5 -0.006285 0.004949 -0.004104 -0.006486 0.028062 0.006077
# 6 -0.004356 0.006810 -0.003320 -0.002573 0.006077 0.030058
#
#
# Mechanical properties :
#
#
# Convention : Reuss Voigt Hill
#
# Bulk Modulus (GPa) = 60.89296 73.55735 67.22515
# Shear Modulus (GPa) = 34.33766 41.83743 38.08754
#
# Velocity S-wave (km/s) = 3.82758 4.22495 4.03117
# Velocity P-wave (km/s) = 6.74642 7.42859 7.09571
#
# Compressibility (1/GPa) = 0.01642226
#
# Stress axis : x y z
#
# Youngs Moduli (GPa) = 59.59315 89.98541 102.20947
#
# Poissons Ratio (x) = 0.54124 0.05615
# Poissons Ratio (y) = 0.35844 0.41532
# Poissons Ratio (z) = 0.03274 0.36565
#
# Static dielectric constant tensor:
#      x y z
#    x 4.305980 0.153150 0.188800 
#    y 0.153150 4.525360 -0.412440 
#    z 0.188800 -0.412440 5.564480 
# 
# 
# High freq. dielectric constant tensor:
#      x y z
#    x 1.925390 -0.003230 0.006510 
#    y -0.003230 1.928180 -0.004470 
#    z 0.006510 -0.004470 1.950720 
# 
# From -- ./inp_files/494561.got.cif
#   From: 2010.06.25/outbox.cif.g09.slc.cpg/sg2_248_cif.got.tgz:494561.got - 2010.06.27 13:26:56.
