data_PCOD8028766
_publ_section_title
;
Structure prediction by ZEFSAII (Michael W. Deem and Ramdas Pophale) SiO2 
 PCOD8028766
Probable space group: P -1
;
_chemical_formula_sum "Si O2"
_cell_formula_units_Z 12
_cell_length_a 16.023745
_cell_length_b 5.148192
_cell_length_c 7.926820
_cell_angle_alpha 112.186994
_cell_angle_beta 61.426441
_cell_angle_gamma 79.540981
_cell_volume 476.101905
_symmetry_space_group_name_H-M "P -1"
_symmetry_group_IT_number 2
_symmetry_cell_setting 'triclinic'
loop_
_space_group_symop_operation_xyz
x,y,z
-x,-y,-z
loop_
_atom_site_type_symbol
_atom_site_label
_atom_site_fract_x
_atom_site_fract_y
_atom_site_fract_z
Si Si1 0.570997 0.435962 0.577317
Si Si2 0.920915 0.735867 0.002340
Si Si3 0.235607 0.338586 0.111609
Si Si4 0.126930 0.650659 0.642720
Si Si5 0.638535 0.286146 0.975816
Si Si6 0.688754 0.861137 0.510568
O O1 0.500000 0.500000 0.500000
O O2 0.634485 0.641524 0.561597
O O3 0.648176 0.056854 0.423410
O O4 0.488273 0.550385 0.839981
O O5 0.847078 0.611820 0.946520
O O6 0.000069 0.769355 0.792818
O O7 0.000000 0.500000 0.000000
O O8 0.849286 0.065124 0.245746
O O9 0.174379 0.540396 0.384169
O O10 0.317607 0.456784 0.988531
O O11 0.300829 0.973807 0.003838
O O12 0.184792 0.365618 0.654934
O O13 0.660758 0.142172 0.735670
#
# Coordination Sequence:
#
# PCOD8028766 Si02
#       6
#     2   2   2   2   2   2
#     4  12  26  43  71 109 142 183 231 296 348 418
#     4  11  27  44  75 104 146 182 240 298 354 425
#     4  11  26  47  74 103 147 185 238 289 350 430
#     4  10  26  47  70 108 135 196 233 292 362 410
#     4  11  25  47  71 104 137 192 234 284 352 417
#     4  11  24  46  73  96 146 186 235 285 348 428
#
# _framework density 25.204689999999999
#
# number of rings (size 3 to 8) (size 9 to 14) (size 15 to 20)
#    0.000    1.000    0.000    5.000   14.000    0.667 
#    0.000    0.000    0.000    0.000    0.000    0.000 
#    0.000    0.000    0.000    0.000    0.000    0.000 
#
# Total GULP energy -148813.022582 kJ/mol
# GULP energy per Si atom -12401.085215 kJ/mol
# Density = 2.514732 g / cm^3
# Si number density = 25.204690 Si / 1000 Ang^3
#
#
#
# Elastic Constant Matrix: (Units=GPa)
#
#
# Indices 1 2 3 4 5 6 
#
# 1 129.3277 46.8417 18.1904 10.4830 -3.6274 5.8002
# 2 46.8417 158.4026 16.3578 19.5247 -1.2215 -3.4139
# 3 18.1904 16.3578 58.6669 20.9134 -10.9944 -2.9092
# 4 10.4830 19.5247 20.9134 34.3191 3.7671 -6.4908
# 5 -3.6274 -1.2215 -10.9944 3.7671 37.2898 -5.3677
# 6 5.8002 -3.4139 -2.9092 -6.4908 -5.3677 53.9031
#
#
#
# Elastic Compliance Matrix: (Units=1/GPa)
#
#
# Indices 1 2 3 4 5 6 
#
# 1 0.008986 -0.002429 -0.002030 -0.000372 0.000051 -0.001270
# 2 -0.002429 0.007472 0.000011 -0.003494 0.000416 0.000356
# 3 -0.002030 0.000011 0.024817 -0.015360 0.008755 0.000581
# 4 -0.000372 -0.003494 -0.015360 0.042139 -0.008473 0.003220
# 5 0.000051 0.000416 0.008755 -0.008473 0.030636 0.002524
# 6 -0.001270 0.000356 0.000581 0.003220 0.002524 0.019381
#
#
# Mechanical properties :
#
#
# Convention : Reuss Voigt Hill
#
# Bulk Modulus (GPa) = 30.88442 56.57523 43.72983
# Shear Modulus (GPa) = 32.65418 42.76955 37.71187
#
# Velocity S-wave (km/s) = 3.60329 4.12380 3.87230
# Velocity P-wave (km/s) = 5.43982 6.72081 6.11396
#
# Compressibility (1/GPa) = 0.03237878
#
# Stress axis : x y z
#
# Youngs Moduli (GPa) = 111.28382 133.83909 40.29512
#
# Poissons Ratio (x) = 0.32507 0.08180
# Poissons Ratio (y) = 0.27029 -0.00044
# Poissons Ratio (z) = 0.22590 -0.00145
#
# Static dielectric constant tensor:
#      x y z
#    x 2.278330 -1.330430 2.755430 
#    y -1.330430 4.025260 1.655250 
#    z 2.755430 1.655250 1.108750 
# 
# 
# High freq. dielectric constant tensor:
#      x y z
#    x 2.013000 -0.000510 -0.011660 
#    y -0.000510 2.019060 0.000110 
#    z -0.011660 0.000110 2.023840 
# 
# From -- ./inp_files/88448.got.cif
#   From: 2010.06.25/outbox.cif.g09.slc.cpg/sg2_45_cif.got.tgz:88448.got - 2010.06.27 13:26:56.
