data_PCOD8028485
_publ_section_title
;
Structure prediction by ZEFSAII (Michael W. Deem and Ramdas Pophale) SiO2 
 PCOD8028485
Probable space group: P -1
;
_chemical_formula_sum "Si O2"
_cell_formula_units_Z 14
_cell_length_a 5.480815
_cell_length_b 11.892452
_cell_length_c 13.074295
_cell_angle_alpha 67.204813
_cell_angle_beta 85.487625
_cell_angle_gamma 49.625548
_cell_volume 580.221813
_symmetry_space_group_name_H-M "P -1"
_symmetry_group_IT_number 2
_symmetry_cell_setting 'triclinic'
loop_
_space_group_symop_operation_xyz
x,y,z
-x,-y,-z
loop_
_atom_site_type_symbol
_atom_site_label
_atom_site_fract_x
_atom_site_fract_y
_atom_site_fract_z
Si Si1 0.705641 0.027821 0.742069
Si Si2 0.196438 0.871637 0.949270
Si Si3 0.643804 0.505906 0.096735
Si Si4 0.945483 0.631007 0.374296
Si Si5 0.319748 0.719445 0.444087
Si Si6 0.646067 0.790988 0.787560
Si Si7 0.490138 0.357868 0.316915
O O1 0.721349 0.905097 0.708410
O O2 0.911356 0.909371 0.873925
O O3 0.329034 0.185940 0.729134
O O4 0.860900 0.098985 0.659718
O O5 0.406039 0.886123 0.860203
O O6 0.443931 0.695570 0.058025
O O7 0.000000 0.000000 0.000000
O O8 0.593338 0.436847 0.218778
O O9 0.038430 0.393233 0.118196
O O10 0.500000 0.500000 0.000000
O O11 0.727154 0.603866 0.459099
O O12 0.203444 0.633235 0.425647
O O13 0.117939 0.505776 0.317615
O O14 0.258232 0.734900 0.562404
O O15 0.482643 0.774000 0.704532
#
# Coordination Sequence:
#
# PCOD8028485 Si02
#       7
#     2   2   2   2   2   2   2
#     4  10  25  46  75 106 154 196 257 315 380 452
#     4  12  28  48  74 107 150 203 259 315 381 456
#     4  12  27  47  71 109 151 196 253 315 381 456
#     4  10  25  46  78 115 154 197 259 315 377 455
#     4  10  25  48  76 117 155 198 261 313 380 456
#     4  12  26  48  71 113 151 200 254 316 387 455
#     4  12  27  44  80 107 154 201 253 316 387 448
#
# _framework density 24.128703999999999
#
# number of rings (size 3 to 8) (size 9 to 14) (size 15 to 20)
#    0.857    0.000    2.857    2.143   10.000    1.143 
#    0.000    3.571    0.000    0.000    0.000    0.000 
#    0.000    0.000    0.000    0.000    0.000    0.000 
#
# Total GULP energy -173503.385716 kJ/mol
# GULP energy per Si atom -12393.098980 kJ/mol
# Density = 2.407379 g / cm^3
# Si number density = 24.128704 Si / 1000 Ang^3
#
#
#
# Elastic Constant Matrix: (Units=GPa)
#
#
# Indices 1 2 3 4 5 6 
#
# 1 114.3702 39.3661 37.2205 -1.2509 3.0823 12.7792
# 2 39.3661 136.8166 47.7320 2.6771 -17.0635 8.7830
# 3 37.2205 47.7320 116.4369 13.6121 -7.6721 3.8926
# 4 -1.2509 2.6771 13.6121 39.0351 -4.7002 -0.7700
# 5 3.0823 -17.0635 -7.6721 -4.7002 21.1060 -8.8474
# 6 12.7792 8.7830 3.8926 -0.7700 -8.8474 51.6287
#
#
#
# Elastic Compliance Matrix: (Units=1/GPa)
#
#
# Indices 1 2 3 4 5 6 
#
# 1 0.011131 -0.002797 -0.002792 0.000734 -0.006034 -0.003092
# 2 -0.002797 0.010048 -0.002856 0.001193 0.008006 0.000588
# 3 -0.002792 -0.002856 0.011157 -0.003582 0.001589 0.000555
# 4 0.000734 0.001193 -0.003582 0.027591 0.006275 0.001372
# 5 -0.006034 0.008006 0.001589 0.006275 0.061145 0.010584
# 6 -0.003092 0.000588 0.000555 0.001372 0.010584 0.021827
#
#
# Mechanical properties :
#
#
# Convention : Reuss Voigt Hill
#
# Bulk Modulus (GPa) = 64.74662 68.47345 66.61004
# Shear Modulus (GPa) = 30.31456 38.57428 34.44442
#
# Velocity S-wave (km/s) = 3.54838 4.00270 3.78236
# Velocity P-wave (km/s) = 6.60909 7.05706 6.83675
#
# Compressibility (1/GPa) = 0.01544482
#
# Stress axis : x y z
#
# Youngs Moduli (GPa) = 89.83935 99.52415 89.63378
#
# Poissons Ratio (x) = 0.27840 0.25022
# Poissons Ratio (y) = 0.25131 0.25603
# Poissons Ratio (z) = 0.25079 0.28428
#
# Static dielectric constant tensor:
#      x y z
#    x 4.290000 -0.119640 -0.235810 
#    y -0.119640 4.788210 -0.439300 
#    z -0.235810 -0.439300 3.797240 
# 
# 
# High freq. dielectric constant tensor:
#      x y z
#    x 1.960930 -0.005210 0.004250 
#    y -0.005210 1.976930 -0.023450 
#    z 0.004250 -0.023450 1.953420 
# 
# From -- ./inp_files/364281.got.cif
#   From: 2010.06.25/outbox.cif.g09.slc.cpg/sg2_183_cif.got.tgz:364281.got - 2010.06.27 13:26:56.
