data_PCOD8028557
_publ_section_title
;
Structure prediction by ZEFSAII (Michael W. Deem and Ramdas Pophale) SiO2 
 PCOD8028557
Probable space group: P -1
;
_chemical_formula_sum "Si O2"
_cell_formula_units_Z 16
_cell_length_a 22.905552
_cell_length_b 11.516350
_cell_length_c 5.492236
_cell_angle_alpha 119.209274
_cell_angle_beta 60.755600
_cell_angle_gamma 147.750660
_cell_volume 665.777341
_symmetry_space_group_name_H-M "P -1"
_symmetry_group_IT_number 2
_symmetry_cell_setting 'triclinic'
loop_
_space_group_symop_operation_xyz
x,y,z
-x,-y,-z
loop_
_atom_site_type_symbol
_atom_site_label
_atom_site_fract_x
_atom_site_fract_y
_atom_site_fract_z
Si Si1 0.561125 0.440406 0.564739
Si Si2 0.561777 0.754305 0.884706
Si Si3 0.231601 0.829408 0.870627
Si Si4 0.767247 0.673072 0.144598
Si Si5 0.958645 0.042556 0.438918
Si Si6 0.182396 0.523478 0.321918
Si Si7 0.952883 0.535058 0.808357
Si Si8 0.172872 0.009051 0.997127
O O1 0.583550 0.632325 0.719474
O O2 0.491286 0.287408 0.308344
O O3 0.678528 0.550041 0.415747
O O4 0.507759 0.312151 0.799711
O O5 0.678829 0.017719 0.938581
O O6 0.252904 0.731280 0.567725
O O7 0.101951 0.624253 0.008748
O O8 0.242270 0.982261 0.845553
O O9 0.897941 0.873428 0.162063
O O10 0.746179 0.496954 0.880035
O O11 0.751646 0.771209 0.090096
O O12 0.853523 0.964100 0.664138
O O13 0.059988 0.300555 0.447899
O O14 0.000000 0.000000 0.500000
O O15 0.156193 0.559886 0.163652
O O16 0.000000 0.500000 0.500000
O O17 0.050460 0.794665 0.915371
#
# Coordination Sequence:
#
# PCOD8028557 Si02
#       8
#     2   2   2   2   2   2   2   2
#     4  10  25  47  75 106 139 178 251 308 359 426
#     4  10  25  48  75 105 138 183 245 312 361 419
#     4  12  27  42  70 101 141 189 230 296 366 419
#     4  12  27  42  71 102 140 189 234 296 363 415
#     4  12  23  41  65 100 144 185 236 281 349 431
#     4  12  25  43  63 102 146 187 228 287 354 445
#     4  12  24  41  64 102 146 184 235 282 349 439
#     4  12  24  40  67 101 140 182 238 286 349 433
#
# _framework density 24.032060999999999
#
# number of rings (size 3 to 8) (size 9 to 14) (size 15 to 20)
#    0.000    0.500    5.000    3.000   10.500    0.000 
#    0.000    1.250    0.000    0.000    0.000    0.000 
#    0.000    0.000    0.000    0.000    0.000    0.000 
#
# Total GULP energy -198360.346841 kJ/mol
# GULP energy per Si atom -12397.521678 kJ/mol
# Density = 2.397736 g / cm^3
# Si number density = 24.032061 Si / 1000 Ang^3
#
#
#
# Elastic Constant Matrix: (Units=GPa)
#
#
# Indices 1 2 3 4 5 6 
#
# 1 77.9194 28.1716 37.4396 14.5405 -12.5050 -6.7537
# 2 28.1716 77.4436 40.1729 16.6357 -10.4812 12.0799
# 3 37.4396 40.1729 119.4676 6.5427 -13.8324 0.5036
# 4 14.5405 16.6357 6.5427 48.1546 8.3981 4.1031
# 5 -12.5050 -10.4812 -13.8324 8.3981 40.2344 7.3938
# 6 -6.7537 12.0799 0.5036 4.1031 7.3938 36.2550
#
#
#
# Elastic Compliance Matrix: (Units=1/GPa)
#
#
# Indices 1 2 3 4 5 6 
#
# 1 0.017743 -0.003827 -0.003654 -0.004509 0.003385 0.004451
# 2 -0.003827 0.019602 -0.004515 -0.005202 0.004844 -0.007581
# 3 -0.003654 -0.004515 0.011130 0.000903 0.001270 0.000308
# 4 -0.004509 -0.005202 0.000903 0.025167 -0.007623 -0.000413
# 5 0.003385 0.004844 0.001270 -0.007623 0.030359 -0.006330
# 6 0.004451 -0.007581 0.000308 -0.000413 -0.006330 0.032271
#
#
# Mechanical properties :
#
#
# Convention : Reuss Voigt Hill
#
# Bulk Modulus (GPa) = 40.84126 54.04432 47.44279
# Shear Modulus (GPa) = 29.68712 36.19857 32.94284
#
# Velocity S-wave (km/s) = 3.51852 3.88527 3.70643
# Velocity P-wave (km/s) = 5.79120 6.53179 6.17261
#
# Compressibility (1/GPa) = 0.02448504
#
# Stress axis : x y z
#
# Youngs Moduli (GPa) = 56.35936 51.01541 89.84874
#
# Poissons Ratio (x) = 0.19523 0.32827
# Poissons Ratio (y) = 0.21568 0.40563
# Poissons Ratio (z) = 0.20592 0.23031
#
# Static dielectric constant tensor:
#      x y z
#    x 6.123730 -0.220350 3.577810 
#    y -0.220350 4.495480 0.186290 
#    z 3.577810 0.186290 10.697280 
# 
# 
# High freq. dielectric constant tensor:
#      x y z
#    x 1.932200 -0.001480 0.003570 
#    y -0.001480 1.946820 0.008600 
#    z 0.003570 0.008600 1.965600 
# 
# From -- ./inp_files/123765.got.cif
#   From: 2010.06.25/outbox.cif.g09.slc.cpg/sg2_62_cif.got.tgz:123765.got - 2010.06.27 13:26:56.
