data_PCOD8028710
_publ_section_title
;
Structure prediction by ZEFSAII (Michael W. Deem and Ramdas Pophale) SiO2 
 PCOD8028710
Probable space group: P -1
;
_chemical_formula_sum "Si O2"
_cell_formula_units_Z 16
_cell_length_a 27.190211
_cell_length_b 9.374813
_cell_length_c 8.606287
_cell_angle_alpha 71.576223
_cell_angle_beta 41.772733
_cell_angle_gamma 39.961578
_cell_volume 752.771570
_symmetry_space_group_name_H-M "P -1"
_symmetry_group_IT_number 2
_symmetry_cell_setting 'triclinic'
loop_
_space_group_symop_operation_xyz
x,y,z
-x,-y,-z
loop_
_atom_site_type_symbol
_atom_site_label
_atom_site_fract_x
_atom_site_fract_y
_atom_site_fract_z
Si Si1 0.772700 0.295472 0.290549
Si Si2 0.916455 0.652636 0.799926
Si Si3 0.618355 0.231036 0.203408
Si Si4 0.835164 0.496695 0.202913
Si Si5 0.575175 0.489892 0.930345
Si Si6 0.006973 0.318450 0.105212
Si Si7 0.465558 0.927840 0.222832
Si Si8 0.445311 0.250586 0.596653
O O1 0.863802 0.282540 0.136708
O O2 0.671202 0.433616 0.623686
O O3 0.696144 0.467767 0.251507
O O4 0.859868 0.997596 0.158671
O O5 0.988286 0.663851 0.726549
O O6 0.000000 0.500000 0.500000
O O7 0.925053 0.469817 0.914307
O O8 0.758699 0.968301 0.053099
O O9 0.500000 0.500000 0.500000
O O10 0.559881 0.173325 0.300413
O O11 0.656586 0.266680 0.952150
O O12 0.878960 0.438062 0.302846
O O13 0.676668 0.800931 0.451197
O O14 0.500000 0.500000 0.000000
O O15 0.459583 0.787168 0.183950
O O16 0.000000 0.500000 0.000000
O O17 0.574688 0.720516 0.177983
O O18 0.500000 0.000000 0.000000
O O19 0.500000 0.000000 0.500000
#
# Coordination Sequence:
#
# PCOD8028710 Si02
#       8
#     2   2   2   2   2   2   2   2
#     4  12  24  46  70 104 141 186 236 289 359 424
#     4  11  25  46  69 100 134 188 241 291 355 424
#     4  12  23  42  68  99 144 179 228 300 355 413
#     4  11  23  47  70  96 144 187 232 292 351 421
#     4  12  26  37  68 107 137 180 236 283 352 433
#     4  10  26  45  70  93 135 190 237 291 347 408
#     4  12  24  45  68 106 145 179 231 293 365 423
#     4  12  22  42  69 103 138 184 221 295 365 419
#
# _framework density 21.254787
#
# number of rings (size 3 to 8) (size 9 to 14) (size 15 to 20)
#    0.000    0.500    6.250    1.125    7.000    0.000 
#    2.250    0.625    0.000    0.000    0.000    0.000 
#    0.000    0.000    0.000    0.000    0.000    0.000 
#
# Total GULP energy -198309.264382 kJ/mol
# GULP energy per Si atom -12394.329024 kJ/mol
# Density = 2.120641 g / cm^3
# Si number density = 21.254787 Si / 1000 Ang^3
#
#
#
# Elastic Constant Matrix: (Units=GPa)
#
#
# Indices 1 2 3 4 5 6 
#
# 1 185.1368 63.5444 42.6039 2.2616 1.0471 5.9030
# 2 63.5444 121.5643 32.6249 3.8626 3.9868 5.6816
# 3 42.6039 32.6249 74.8675 -3.4143 11.7839 0.8271
# 4 2.2616 3.8626 -3.4143 42.3593 1.7061 4.9903
# 5 1.0471 3.9868 11.7839 1.7061 35.8937 4.2893
# 6 5.9030 5.6816 0.8271 4.9903 4.2893 46.0752
#
#
#
# Elastic Compliance Matrix: (Units=1/GPa)
#
#
# Indices 1 2 3 4 5 6 
#
# 1 0.007100 -0.002918 -0.002963 -0.000332 0.001173 -0.000570
# 2 -0.002918 0.010625 -0.003010 -0.000965 0.000032 -0.000781
# 3 -0.002963 -0.003010 0.017292 0.001959 -0.005437 0.000734
# 4 -0.000332 -0.000965 0.001959 0.024206 -0.001394 -0.002366
# 5 0.001173 0.000032 -0.005437 -0.001394 0.029996 -0.002698
# 6 -0.000570 -0.000781 0.000734 -0.002366 -0.002698 0.022367
#
#
# Mechanical properties :
#
#
# Convention : Reuss Voigt Hill
#
# Bulk Modulus (GPa) = 58.01819 73.23499 65.62659
# Shear Modulus (GPa) = 37.00626 41.05199 39.02913
#
# Velocity S-wave (km/s) = 4.17715 4.39956 4.28980
# Velocity P-wave (km/s) = 7.11481 7.76780 7.44847
#
# Compressibility (1/GPa) = 0.01723597
#
# Stress axis : x y z
#
# Youngs Moduli (GPa) = 140.84178 94.11583 57.83172
#
# Poissons Ratio (x) = 0.27460 0.17133
# Poissons Ratio (y) = 0.41093 0.17409
# Poissons Ratio (z) = 0.41725 0.28332
#
# Static dielectric constant tensor:
#      x y z
#    x 11.262300 -3.524960 3.099260 
#    y -3.524960 6.113300 -1.832520 
#    z 3.099260 -1.832520 5.319450 
# 
# 
# High freq. dielectric constant tensor:
#      x y z
#    x 1.859950 0.003620 0.004000 
#    y 0.003620 1.854720 -0.000850 
#    z 0.004000 -0.000850 1.793560 
# 
# From -- ./inp_files/299382.got.cif
#   From: 2010.06.25/outbox.cif.g09.slc.cpg/sg2_150_cif.got.tgz:299382.got - 2010.06.27 13:26:56.
