data_PCOD8028762
_publ_section_title
;
Structure prediction by ZEFSAII (Michael W. Deem and Ramdas Pophale) SiO2 
 PCOD8028762
Probable space group: P -1
;
_chemical_formula_sum "Si O2"
_cell_formula_units_Z 12
_cell_length_a 5.221148
_cell_length_b 10.705833
_cell_length_c 13.962735
_cell_angle_alpha 44.442243
_cell_angle_beta 94.109870
_cell_angle_gamma 113.265345
_cell_volume 474.443572
_symmetry_space_group_name_H-M "P -1"
_symmetry_group_IT_number 2
_symmetry_cell_setting 'triclinic'
loop_
_space_group_symop_operation_xyz
x,y,z
-x,-y,-z
loop_
_atom_site_type_symbol
_atom_site_label
_atom_site_fract_x
_atom_site_fract_y
_atom_site_fract_z
Si Si1 0.014968 0.492024 0.844022
Si Si2 0.853968 0.676397 0.329607
Si Si3 0.591061 0.207481 0.835519
Si Si4 0.572840 0.274407 0.430733
Si Si5 0.977991 0.113963 0.590381
Si Si6 0.174785 0.314684 0.108625
O O1 0.761023 0.399225 0.807735
O O2 0.976219 0.652100 0.820578
O O3 0.332035 0.612031 0.732159
O O4 0.998737 0.309787 0.009917
O O5 0.695083 0.789300 0.212821
O O6 0.689874 0.436668 0.432028
O O7 0.854979 0.700420 0.430936
O O8 0.193833 0.780570 0.249914
O O9 0.500000 0.000000 0.000000
O O10 0.218621 0.139120 0.502810
O O11 0.711838 0.124431 0.525442
O O12 0.838254 0.901444 0.761517
O O13 0.500000 0.500000 0.000000
#
# Coordination Sequence:
#
# PCOD8028762 Si02
#       6
#     2   2   2   2   2   2
#     4  10  26  47  68 101 140 182 234 289 350 403
#     4  11  23  42  69 105 143 177 223 288 350 412
#     4  11  23  39  72 103 140 182 227 285 346 416
#     4  11  25  45  73 105 141 180 230 291 346 413
#     4  12  26  45  73 106 140 186 232 279 350 418
#     4  11  28  46  73  95 143 188 234 292 340 413
#
# _framework density 25.292787000000001
#
# number of rings (size 3 to 8) (size 9 to 14) (size 15 to 20)
#    0.000    1.000    0.000    5.500   14.000    1.333 
#    0.000    0.000    0.000    0.000    0.000    0.000 
#    0.000    0.000    0.000    0.000    0.000    0.000 
#
# Total GULP energy -148868.985518 kJ/mol
# GULP energy per Si atom -12405.748793 kJ/mol
# Density = 2.523522 g / cm^3
# Si number density = 25.292787 Si / 1000 Ang^3
#
#
#
# Elastic Constant Matrix: (Units=GPa)
#
#
# Indices 1 2 3 4 5 6 
#
# 1 142.0701 29.3915 46.6403 2.1593 3.2548 -24.4313
# 2 29.3915 57.1601 24.7397 21.7340 -9.7637 -11.6677
# 3 46.6403 24.7397 116.8283 1.2940 -7.0797 -22.4922
# 4 2.1593 21.7340 1.2940 40.9915 -4.3177 3.7246
# 5 3.2548 -9.7637 -7.0797 -4.3177 51.7642 -0.2496
# 6 -24.4313 -11.6677 -22.4922 3.7246 -0.2496 29.8212
#
#
#
# Elastic Compliance Matrix: (Units=1/GPa)
#
#
# Indices 1 2 3 4 5 6 
#
# 1 0.009267 -0.003482 -0.002203 0.000871 -0.001447 0.004447
# 2 -0.003482 0.028600 -0.002663 -0.015224 0.004019 0.008264
# 3 -0.002203 -0.002663 0.011119 0.000814 0.001251 0.005448
# 4 0.000871 -0.015224 0.000814 0.033183 -0.000089 -0.008774
# 5 -0.001447 0.004019 0.001251 -0.000089 0.020338 0.001512
# 6 0.004447 0.008264 0.005448 -0.008774 0.001512 0.045627
#
#
# Mechanical properties :
#
#
# Convention : Reuss Voigt Hill
#
# Bulk Modulus (GPa) = 30.97085 57.51127 44.24106
# Shear Modulus (GPa) = 28.47470 38.86785 33.67127
#
# Velocity S-wave (km/s) = 3.35894 3.92435 3.65260
# Velocity P-wave (km/s) = 5.22636 6.58192 5.94291
#
# Compressibility (1/GPa) = 0.03228842
#
# Stress axis : x y z
#
# Youngs Moduli (GPa) = 107.90797 34.96546 89.93765
#
# Poissons Ratio (x) = 0.12175 0.19817
# Poissons Ratio (y) = 0.37574 0.23951
# Poissons Ratio (z) = 0.23777 0.09312
#
# Static dielectric constant tensor:
#      x y z
#    x 4.816440 -0.157570 -0.048360 
#    y -0.157570 4.546080 0.152460 
#    z -0.048360 0.152460 4.588020 
# 
# 
# High freq. dielectric constant tensor:
#      x y z
#    x 2.017680 -0.010680 0.000860 
#    y -0.010680 2.004200 0.009520 
#    z 0.000860 0.009520 2.018130 
# 
# From -- ./inp_files/467995.got.cif
#   From: 2010.06.25/outbox.cif.g09.slc.cpg/sg2_234_cif.got.tgz:467995.got - 2010.06.27 13:26:56.
