data_PCOD8028884
_publ_section_title
;
Structure prediction by ZEFSAII (Michael W. Deem and Ramdas Pophale) SiO2 
 PCOD8028884
Probable space group: P -1
;
_chemical_formula_sum "Si O2"
_cell_formula_units_Z 16
_cell_length_a 9.412249
_cell_length_b 20.273445
_cell_length_c 23.069470
_cell_angle_alpha 162.653943
_cell_angle_beta 144.047546
_cell_angle_gamma 34.919986
_cell_volume 741.936600
_symmetry_space_group_name_H-M "P -1"
_symmetry_group_IT_number 2
_symmetry_cell_setting 'triclinic'
loop_
_space_group_symop_operation_xyz
x,y,z
-x,-y,-z
loop_
_atom_site_type_symbol
_atom_site_label
_atom_site_fract_x
_atom_site_fract_y
_atom_site_fract_z
Si Si1 0.219953 0.887299 0.761235
Si Si2 0.647038 0.670144 0.804127
Si Si3 0.490915 0.418395 0.193882
Si Si4 0.289734 0.205297 0.453231
Si Si5 0.055936 0.245537 0.715259
Si Si6 0.453149 0.112234 0.822017
Si Si7 0.187651 0.849665 0.588826
Si Si8 0.669603 0.997998 0.498868
O O1 0.449298 0.709958 0.719737
O O2 0.282048 0.898684 0.723795
O O3 0.978014 0.788366 0.603093
O O4 0.186804 0.146291 0.991750
O O5 0.485649 0.707308 0.841750
O O6 0.827650 0.412917 0.642267
O O7 0.696529 0.564255 0.382037
O O8 0.199164 0.556900 0.207538
O O9 0.564821 0.238411 0.014714
O O10 0.342814 0.991882 0.247291
O O11 0.501548 0.186081 0.557456
O O12 0.217493 0.289249 0.860402
O O13 0.221669 0.230719 0.697730
O O14 0.000000 0.000000 0.500000
O O15 0.382090 0.891224 0.640412
O O16 0.922305 0.037740 0.644188
O O17 0.500000 0.000000 0.500000
#
# Coordination Sequence:
#
# PCOD8028884 Si02
#       8
#     2   2   2   2   2   2   2   2
#     4  11  26  43  66  91 129 163 216 266 313 366
#     4  11  24  44  67  92 119 174 220 254 307 381
#     4  12  21  39  68  90 124 172 214 251 312 375
#     4  11  23  43  61  98 134 157 204 272 310 369
#     4  11  18  36  60  92 128 166 208 252 301 387
#     4  11  22  37  64  96 126 166 208 252 318 376
#     4  12  20  42  68  90 126 170 211 253 314 380
#     4  11  20  35  64  94 130 164 196 254 325 372
#
# _framework density 21.565185
#
# number of rings (size 3 to 8) (size 9 to 14) (size 15 to 20)
#    0.000    0.750    8.750    0.750    0.000    1.500 
#    0.000    1.250    0.000    0.000    0.000    0.000 
#    0.000    0.000    0.000    0.000    0.000    0.000 
#
# Total GULP energy -198222.404740 kJ/mol
# GULP energy per Si atom -12388.900296 kJ/mol
# Density = 2.151610 g / cm^3
# Si number density = 21.565185 Si / 1000 Ang^3
#
#
#
# Elastic Constant Matrix: (Units=GPa)
#
#
# Indices 1 2 3 4 5 6 
#
# 1 101.3190 20.8652 13.9610 -7.5662 -2.8923 15.1259
# 2 20.8652 93.7207 20.9326 -20.1991 0.6682 20.6380
# 3 13.9610 20.9326 71.4105 -8.0040 3.6284 -3.2298
# 4 -7.5662 -20.1991 -8.0040 25.6533 7.5538 -10.5762
# 5 -2.8923 0.6682 3.6284 7.5538 34.1941 -8.8984
# 6 15.1259 20.6380 -3.2298 -10.5762 -8.8984 28.8732
#
#
#
# Elastic Compliance Matrix: (Units=1/GPa)
#
#
# Indices 1 2 3 4 5 6 
#
# 1 0.011164 -0.000796 -0.002233 -0.000322 -0.000219 -0.005715
# 2 -0.000796 0.015545 -0.003688 0.008228 -0.004244 -0.009400
# 3 -0.002233 -0.003688 0.016433 0.004797 -0.001081 0.007068
# 4 -0.000322 0.008228 0.004797 0.054592 -0.009676 0.011839
# 5 -0.000219 -0.004244 -0.001081 -0.009676 0.034167 0.010013
# 6 -0.005715 -0.009400 0.007068 0.011839 0.010013 0.052560
#
#
# Mechanical properties :
#
#
# Convention : Reuss Voigt Hill
#
# Bulk Modulus (GPa) = 33.66100 41.99642 37.82871
# Shear Modulus (GPa) = 24.06171 31.79021 27.92596
#
# Velocity S-wave (km/s) = 3.34393 3.84363 3.60245
# Velocity P-wave (km/s) = 5.52739 6.26214 5.90620
#
# Compressibility (1/GPa) = 0.02970797
#
# Stress axis : x y z
#
# Youngs Moduli (GPa) = 89.57127 64.33049 60.85139
#
# Poissons Ratio (x) = 0.05123 0.13586
# Poissons Ratio (y) = 0.07133 0.22443
# Poissons Ratio (z) = 0.19999 0.23727
#
# Static dielectric constant tensor:
#      x y z
#    x 4.026390 0.360920 -0.121540 
#    y 0.360920 3.973580 -0.124690 
#    z -0.121540 -0.124690 3.704100 
# 
# 
# High freq. dielectric constant tensor:
#      x y z
#    x 1.848890 0.030130 -0.012020 
#    y 0.030130 1.842860 -0.011960 
#    z -0.012020 -0.011960 1.821440 
# 
# From -- ./inp_files/225806.got.cif
#   From: 2010.06.25/outbox.cif.g09.slc.cpg/sg2_113_cif.got.tgz:225806.got - 2010.06.27 13:26:56.
