data_PCOD8028216
_publ_section_title
;
Structure prediction by ZEFSAII (Michael W. Deem and Ramdas Pophale) SiO2 
 PCOD8028216
Probable space group: P -1
;
_chemical_formula_sum "Si O2"
_cell_formula_units_Z 12
_cell_length_a 7.577832
_cell_length_b 5.206417
_cell_length_c 11.926183
_cell_angle_alpha 94.020940
_cell_angle_beta 80.730297
_cell_angle_gamma 103.680094
_cell_volume 450.957684
_symmetry_space_group_name_H-M "P -1"
_symmetry_group_IT_number 2
_symmetry_cell_setting 'triclinic'
loop_
_space_group_symop_operation_xyz
x,y,z
-x,-y,-z
loop_
_atom_site_type_symbol
_atom_site_label
_atom_site_fract_x
_atom_site_fract_y
_atom_site_fract_z
Si Si1 0.010102 0.841499 0.714761
Si Si2 0.745853 0.189343 0.024240
Si Si3 0.927401 0.624741 0.151816
Si Si4 0.650125 0.240727 0.446507
Si Si5 0.484431 0.299464 0.892990
Si Si6 0.624192 0.589295 0.666012
O O1 0.803007 0.816249 0.688947
O O2 0.998965 0.612718 0.802792
O O3 0.151813 0.814161 0.601419
O O4 0.087475 0.144324 0.755140
O O5 0.729748 0.457272 0.110910
O O6 0.707980 0.927873 0.100576
O O7 0.625967 0.127555 0.921673
O O8 0.954652 0.250959 0.964183
O O9 0.687445 0.464264 0.543831
O O10 0.560733 0.314238 0.341878
O O11 0.500000 0.000000 0.500000
O O12 0.564476 0.386564 0.766681
O O13 0.500000 0.500000 0.000000
#
# Coordination Sequence:
#
# PCOD8028216 Si02
#       6
#     2   2   2   2   2   2
#     4  12  28  51  83 115 159 213 263 335 397 469
#     4  10  25  44  72 117 160 209 261 314 399 479
#     4  11  27  47  78 116 163 211 262 324 396 481
#     4  11  30  49  82 114 154 212 269 338 396 469
#     4  11  24  43  79 115 159 209 257 327 395 475
#     4  11  27  53  79 117 161 207 271 327 401 473
#
# _framework density 26.610033999999999
#
# number of rings (size 3 to 8) (size 9 to 14) (size 15 to 20)
#    0.000    1.000    1.667    1.500   14.000    3.333 
#    0.000    0.000    0.000    0.000    0.000    0.000 
#    0.000    0.000    0.000    0.000    0.000    0.000 
#
# Total GULP energy -148707.014140 kJ/mol
# GULP energy per Si atom -12392.251178 kJ/mol
# Density = 2.654947 g / cm^3
# Si number density = 26.610034 Si / 1000 Ang^3
#
#
#
# Elastic Constant Matrix: (Units=GPa)
#
#
# Indices 1 2 3 4 5 6 
#
# 1 89.9009 31.0721 49.1477 9.8192 9.1717 26.2546
# 2 31.0721 170.4637 54.6827 6.5726 -0.3380 17.8329
# 3 49.1477 54.6827 129.5129 -10.8906 5.3192 11.8497
# 4 9.8192 6.5726 -10.8906 46.0272 4.8805 -5.7845
# 5 9.1717 -0.3380 5.3192 4.8805 50.5249 -0.9915
# 6 26.2546 17.8329 11.8497 -5.7845 -0.9915 36.2282
#
#
#
# Elastic Compliance Matrix: (Units=1/GPa)
#
#
# Indices 1 2 3 4 5 6 
#
# 1 0.019779 0.000300 -0.006919 -0.007334 -0.002416 -0.013456
# 2 0.000300 0.007215 -0.003086 -0.002266 0.000477 -0.003108
# 3 -0.006919 -0.003086 0.011784 0.005191 -0.000438 0.003495
# 4 -0.007334 -0.002266 0.005191 0.026124 -0.001580 0.008861
# 5 -0.002416 0.000477 -0.000438 -0.001580 0.020471 0.001967
# 6 -0.013456 -0.003108 0.003495 0.008861 0.001967 0.039209
#
#
# Mechanical properties :
#
#
# Convention : Reuss Voigt Hill
#
# Bulk Modulus (GPa) = 51.62880 73.29806 62.46343
# Shear Modulus (GPa) = 33.23378 43.55442 38.39410
#
# Velocity S-wave (km/s) = 3.53784 4.05009 3.80260
# Velocity P-wave (km/s) = 6.01103 7.03392 6.54250
#
# Compressibility (1/GPa) = 0.01936903
#
# Stress axis : x y z
#
# Youngs Moduli (GPa) = 50.55773 138.59924 84.85818
#
# Poissons Ratio (x) = -0.04155 0.58712
# Poissons Ratio (y) = -0.01516 0.26185
# Poissons Ratio (z) = 0.34980 0.42769
#
# Static dielectric constant tensor:
#      x y z
#    x 6.188550 -0.196060 0.271980 
#    y -0.196060 5.513120 0.317030 
#    z 0.271980 0.317030 5.880200 
# 
# 
# High freq. dielectric constant tensor:
#      x y z
#    x 2.089490 0.008340 0.011720 
#    y 0.008340 2.082870 -0.001390 
#    z 0.011720 -0.001390 2.073640 
# 
# From -- ./inp_files/371893.got.cif
#   From: 2010.06.25/outbox.cif.g09.slc.cpg/sg2_186_cif.got.tgz:371893.got - 2010.06.27 13:26:56.
