data_PCOD8028243
_publ_section_title
;
Structure prediction by ZEFSAII (Michael W. Deem and Ramdas Pophale) SiO2 
 PCOD8028243
Probable space group: P -1
;
_chemical_formula_sum "Si O2"
_cell_formula_units_Z 16
_cell_length_a 13.906694
_cell_length_b 9.525983
_cell_length_c 9.107139
_cell_angle_alpha 90.480484
_cell_angle_beta 60.252531
_cell_angle_gamma 70.481875
_cell_volume 964.669029
_symmetry_space_group_name_H-M "P -1"
_symmetry_group_IT_number 2
_symmetry_cell_setting 'triclinic'
loop_
_space_group_symop_operation_xyz
x,y,z
-x,-y,-z
loop_
_atom_site_type_symbol
_atom_site_label
_atom_site_fract_x
_atom_site_fract_y
_atom_site_fract_z
Si Si1 0.824463 0.640284 0.183400
Si Si2 0.739325 0.104382 0.081782
Si Si3 0.127771 0.286766 0.316390
Si Si4 0.000772 0.389196 0.700829
Si Si5 0.625622 0.941273 0.987455
Si Si6 0.379885 0.068856 0.680780
Si Si7 0.953103 0.809517 0.895545
Si Si8 0.156727 0.666642 0.950462
O O1 0.706390 0.777408 0.336093
O O2 0.788006 0.511696 0.133673
O O3 0.918909 0.563440 0.241679
O O4 0.882234 0.712005 0.017756
O O5 0.736390 0.275143 0.095316
O O6 0.676145 0.061311 0.270565
O O7 0.672159 0.079006 0.984695
O O8 0.879190 0.989189 0.976152
O O9 0.096371 0.463753 0.303647
O O10 0.270825 0.191312 0.183499
O O11 0.044936 0.224685 0.279876
O O12 0.090538 0.274947 0.513033
O O13 0.930386 0.301965 0.841441
O O14 0.604183 0.880715 0.163400
O O15 0.500000 0.000000 0.000000
O O16 0.500000 0.000000 0.500000
O O17 0.084043 0.762201 0.865666
#
# Coordination Sequence:
#
# PCOD8028243 Si02
#       8
#     2   2   2   2   2   2   2   2
#     4  10  17  30  51  77  96 133 170 199 245 298
#     4   8  19  30  51  73  99 126 165 204 253 291
#     4  10  17  32  46  78 101 128 175 198 241 291
#     4  10  19  26  52  76 106 131 163 202 242 309
#     4   9  19  35  53  67  95 137 169 206 243 291
#     4   9  19  35  54  71  93 126 181 209 239 291
#     4   9  15  31  47  71 101 136 157 189 243 307
#     4  11  16  30  50  75 104 131 156 201 258 294
#
# _framework density 16.585998
#
# number of rings (size 3 to 8) (size 9 to 14) (size 15 to 20)
#    0.750    1.750    3.750    1.125    1.750    0.000 
#    0.000    3.125    2.750    3.000    0.000    0.000 
#    0.000    0.000    0.000    0.000    0.000    0.000 
#
# Total GULP energy -198221.283020 kJ/mol
# GULP energy per Si atom -12388.830189 kJ/mol
# Density = 1.654825 g / cm^3
# Si number density = 16.585998 Si / 1000 Ang^3
#
#
#
# Elastic Constant Matrix: (Units=GPa)
#
#
# Indices 1 2 3 4 5 6 
#
# 1 85.1992 43.5242 26.8498 5.6503 -6.5815 1.4129
# 2 43.5242 74.4939 29.9397 6.4305 -8.0755 13.1374
# 3 26.8498 29.9397 104.2955 12.7919 -6.8687 3.3828
# 4 5.6503 6.4305 12.7919 17.4907 -6.5156 0.1828
# 5 -6.5815 -8.0755 -6.8687 -6.5156 21.2239 3.0300
# 6 1.4129 13.1374 3.3828 0.1828 3.0300 28.8323
#
#
#
# Elastic Compliance Matrix: (Units=1/GPa)
#
#
# Indices 1 2 3 4 5 6 
#
# 1 0.017423 -0.010144 -0.001602 -0.000673 0.000257 0.003933
# 2 -0.010144 0.023159 -0.003246 -0.000553 0.005916 -0.010293
# 3 -0.001602 -0.003246 0.011769 -0.006930 -0.000083 0.000229
# 4 -0.000673 -0.000553 -0.006930 0.069730 0.018935 -0.001334
# 5 0.000257 0.005916 -0.000083 0.018935 0.056483 -0.008754
# 6 0.003933 -0.010293 0.000229 -0.001334 -0.008754 0.040082
#
#
# Mechanical properties :
#
#
# Convention : Reuss Voigt Hill
#
# Bulk Modulus (GPa) = 44.70331 51.62401 48.16366
# Shear Modulus (GPa) = 19.52478 24.42105 21.97291
#
# Velocity S-wave (km/s) = 3.43473 3.84134 3.64371
# Velocity P-wave (km/s) = 6.53765 7.13212 6.84134
#
# Compressibility (1/GPa) = 0.02236971
#
# Stress axis : x y z
#
# Youngs Moduli (GPa) = 57.39493 43.17940 84.96734
#
# Poissons Ratio (x) = 0.43800 0.13608
# Poissons Ratio (y) = 0.58220 0.27577
# Poissons Ratio (z) = 0.09192 0.14014
#
# Static dielectric constant tensor:
#      x y z
#    x 2.970400 -0.148910 0.111490 
#    y -0.148910 2.996710 0.087850 
#    z 0.111490 0.087850 3.043990 
# 
# 
# High freq. dielectric constant tensor:
#      x y z
#    x 1.616470 -0.009920 0.011120 
#    y -0.009920 1.621920 0.011780 
#    z 0.011120 0.011780 1.624860 
# 
# From -- ./inp_files/295461.got.cif
#   From: 2010.06.25/outbox.cif.g09.slc.cpg/sg2_148_cif.got.tgz:295461.got - 2010.06.27 13:26:56.
