data_PCOD8028957
_publ_section_title
;
Structure prediction by ZEFSAII (Michael W. Deem and Ramdas Pophale) SiO2 
 PCOD8028957
Probable space group: P -1
;
_chemical_formula_sum "Si O2"
_cell_formula_units_Z 16
_cell_length_a 8.392166
_cell_length_b 16.725222
_cell_length_c 9.087703
_cell_angle_alpha 95.013394
_cell_angle_beta 91.791774
_cell_angle_gamma 34.857322
_cell_volume 724.402101
_symmetry_space_group_name_H-M "P -1"
_symmetry_group_IT_number 2
_symmetry_cell_setting 'triclinic'
loop_
_space_group_symop_operation_xyz
x,y,z
-x,-y,-z
loop_
_atom_site_type_symbol
_atom_site_label
_atom_site_fract_x
_atom_site_fract_y
_atom_site_fract_z
Si Si1 0.561594 0.689411 0.096592
Si Si2 0.754810 0.432656 0.082915
Si Si3 0.812521 0.869500 0.433029
Si Si4 0.291888 0.629850 0.623749
Si Si5 0.276851 0.024466 0.033486
Si Si6 0.732065 0.209256 0.196085
Si Si7 0.224211 0.239374 0.844755
Si Si8 0.036183 0.049693 0.746965
O O1 0.726547 0.539199 0.092285
O O2 0.797901 0.655105 0.156476
O O3 0.292147 0.803750 0.212865
O O4 0.464670 0.743564 0.931844
O O5 0.764906 0.405389 0.248293
O O6 0.500000 0.500000 0.000000
O O7 0.035986 0.286961 0.984318
O O8 0.860714 0.780186 0.298356
O O9 0.887733 0.927932 0.388591
O O10 0.000036 0.769055 0.560027
O O11 0.500000 0.000000 0.500000
O O12 0.500000 0.500000 0.500000
O O13 0.427678 0.659014 0.686077
O O14 0.443848 0.900198 0.133271
O O15 0.977375 0.164837 0.123462
O O16 0.500000 0.000000 0.000000
O O17 0.222859 0.002859 0.877672
O O18 0.865749 0.084081 0.282730
#
# Coordination Sequence:
#
# PCOD8028957 Si02
#       8
#     2   2   2   2   2   2   2   2
#     4  11  22  42  72 110 133 173 241 305 346 400
#     4  12  25  45  75 101 132 191 246 291 345 414
#     4  12  29  46  68 106 150 192 229 286 363 433
#     4  12  27  48  69 100 145 189 236 284 359 430
#     4  11  19  35  69 107 132 170 225 296 342 398
#     4  11  22  41  72 104 137 175 236 296 352 412
#     4  12  23  43  71 102 140 173 240 291 343 418
#     4  11  22  41  70 102 140 177 232 292 353 417
#
# _framework density 22.087181000000001
#
# number of rings (size 3 to 8) (size 9 to 14) (size 15 to 20)
#    0.000    0.500    5.000    4.875    1.750    0.500 
#    2.250    0.625    0.000    0.000    0.000    0.000 
#    0.000    0.000    0.000    0.000    0.000    0.000 
#
# Total GULP energy -198302.517404 kJ/mol
# GULP energy per Si atom -12393.907338 kJ/mol
# Density = 2.203691 g / cm^3
# Si number density = 22.087181 Si / 1000 Ang^3
#
#
#
# Elastic Constant Matrix: (Units=GPa)
#
#
# Indices 1 2 3 4 5 6 
#
# 1 118.8035 14.7432 44.8114 9.8357 -4.5940 12.9798
# 2 14.7432 76.7574 43.1519 3.0046 -5.7699 9.6081
# 3 44.8114 43.1519 121.8264 0.0630 -15.2326 9.4698
# 4 9.8357 3.0046 0.0630 45.6599 4.4989 3.3241
# 5 -4.5940 -5.7699 -15.2326 4.4989 27.3611 3.0812
# 6 12.9798 9.6081 9.4698 3.3241 3.0812 34.4799
#
#
#
# Elastic Compliance Matrix: (Units=1/GPa)
#
#
# Indices 1 2 3 4 5 6 
#
# 1 0.010238 0.000581 -0.003694 -0.002076 0.000446 -0.002841
# 2 0.000581 0.016668 -0.005743 -0.001071 0.000959 -0.003269
# 3 -0.003694 -0.005743 0.012296 0.000730 0.004996 -0.000903
# 4 -0.002076 -0.001071 0.000730 0.022865 -0.003817 -0.000984
# 5 0.000446 0.000959 0.004996 -0.003817 0.040807 -0.005086
# 6 -0.002841 -0.003269 -0.000903 -0.000984 -0.005086 0.031780
#
#
# Mechanical properties :
#
#
# Convention : Reuss Voigt Hill
#
# Bulk Modulus (GPa) = 46.53418 58.08892 52.31155
# Shear Modulus (GPa) = 31.34205 35.81223 33.57714
#
# Velocity S-wave (km/s) = 3.77107 4.03103 3.90322
# Velocity P-wave (km/s) = 6.33052 6.92983 6.63694
#
# Compressibility (1/GPa) = 0.02148958
#
# Stress axis : x y z
#
# Youngs Moduli (GPa) = 97.67582 59.99389 81.32893
#
# Poissons Ratio (x) = -0.03483 0.30041
# Poissons Ratio (y) = -0.05670 0.46707
# Poissons Ratio (z) = 0.36079 0.34455
#
# Static dielectric constant tensor:
#      x y z
#    x 4.283930 0.351360 0.375780 
#    y 0.351360 4.187640 0.055350 
#    z 0.375780 0.055350 3.036160 
# 
# 
# High freq. dielectric constant tensor:
#      x y z
#    x 1.880850 0.013130 0.003280 
#    y 0.013130 1.879350 -0.000060 
#    z 0.003280 -0.000060 1.854380 
# 
# From -- ./inp_files/217675.got.cif
#   From: 2010.06.25/outbox.cif.g09.slc.cpg/sg2_109_cif.got.tgz:217675.got - 2010.06.27 13:26:56.
