data_PCOD8028040
_publ_section_title
;
Structure prediction by ZEFSAII (Michael W. Deem and Ramdas Pophale) SiO2 
 PCOD8028040
Probable space group: P -1
;
_chemical_formula_sum "Si O2"
_cell_formula_units_Z 12
_cell_length_a 8.044671
_cell_length_b 13.454134
_cell_length_c 13.360662
_cell_angle_alpha 159.002319
_cell_angle_beta 117.517883
_cell_angle_gamma 67.159369
_cell_volume 455.290006
_symmetry_space_group_name_H-M "P -1"
_symmetry_group_IT_number 2
_symmetry_cell_setting 'triclinic'
loop_
_space_group_symop_operation_xyz
x,y,z
-x,-y,-z
loop_
_atom_site_type_symbol
_atom_site_label
_atom_site_fract_x
_atom_site_fract_y
_atom_site_fract_z
Si Si1 0.672530 0.749664 0.782288
Si Si2 0.270653 0.155044 0.483963
Si Si3 0.914949 0.193552 0.737701
Si Si4 0.572508 0.023231 0.207241
Si Si5 0.648526 0.471159 0.800688
Si Si6 0.971242 0.348229 0.113253
O O1 0.500000 0.500000 0.500000
O O2 0.871645 0.631407 0.736001
O O3 0.642289 0.923115 0.834306
O O4 0.675191 0.962738 0.076429
O O5 0.479711 0.279820 0.630126
O O6 0.122765 0.374506 0.651119
O O7 0.266171 0.005193 0.451423
O O8 0.189304 0.915265 0.155552
O O9 0.834611 0.465985 0.919370
O O10 0.000000 0.000000 0.500000
O O11 0.051088 0.296139 0.969905
O O12 0.680689 0.313512 0.556427
O O13 0.582014 0.774098 0.054826
#
# Coordination Sequence:
#
# PCOD8028040 Si02
#       6
#     2   2   2   2   2   2
#     4  11  24  47  70 102 135 181 230 291 339 391
#     4  10  25  44  66 102 143 182 216 281 342 409
#     4  10  25  43  71 104 140 177 226 283 335 406
#     4  11  26  40  74  99 131 181 232 278 337 406
#     4  12  24  45  70 103 140 180 226 270 354 407
#     4  10  25  42  70  98 137 178 230 280 335 402
#
# _framework density 26.356828
#
# number of rings (size 3 to 8) (size 9 to 14) (size 15 to 20)
#    1.000    0.333    1.667    2.500    9.333    1.333 
#    0.000    5.000    0.000    0.000    0.000    0.000 
#    0.000    0.000    0.000    0.000    0.000    0.000 
#
# Total GULP energy -148691.761367 kJ/mol
# GULP energy per Si atom -12390.980114 kJ/mol
# Density = 2.629684 g / cm^3
# Si number density = 26.356828 Si / 1000 Ang^3
#
#
#
# Elastic Constant Matrix: (Units=GPa)
#
#
# Indices 1 2 3 4 5 6 
#
# 1 33.1353 45.7372 9.2942 -8.3846 7.9088 -12.7271
# 2 45.7372 229.8443 52.6165 18.2820 14.1201 -45.1376
# 3 9.2942 52.6165 101.9123 12.0554 0.7227 -7.7891
# 4 -8.3846 18.2820 12.0554 47.7512 -6.2348 -1.3552
# 5 7.9088 14.1201 0.7227 -6.2348 34.3156 -1.3167
# 6 -12.7271 -45.1376 -7.7891 -1.3552 -1.3167 33.5932
#
#
#
# Elastic Compliance Matrix: (Units=1/GPa)
#
#
# Indices 1 2 3 4 5 6 
#
# 1 0.049697 -0.008994 -0.000730 0.011853 -0.005321 0.006843
# 2 -0.008994 0.008625 -0.002552 -0.004279 -0.001918 0.007342
# 3 -0.000730 -0.002552 0.011339 -0.001971 0.000578 -0.001133
# 4 0.011853 -0.004279 -0.001971 0.025628 0.003706 -0.000537
# 5 -0.005321 -0.001918 0.000578 0.003706 0.031700 -0.003067
# 6 0.006843 0.007342 -0.001133 -0.000537 -0.003067 0.041821
#
#
# Mechanical properties :
#
#
# Convention : Reuss Voigt Hill
#
# Bulk Modulus (GPa) = 22.16880 64.46530 43.31705
# Shear Modulus (GPa) = 23.99271 40.28160 32.13716
#
# Velocity S-wave (km/s) = 3.02040 3.91361 3.49565
# Velocity P-wave (km/s) = 4.53795 6.70325 5.72392
#
# Compressibility (1/GPa) = 0.04510845
#
# Stress axis : x y z
#
# Youngs Moduli (GPa) = 20.12205 115.94702 88.19307
#
# Poissons Ratio (x) = 1.04284 0.06438
# Poissons Ratio (y) = 0.18098 0.22504
# Poissons Ratio (z) = 0.01469 0.29586
#
# Static dielectric constant tensor:
#      x y z
#    x 4.530330 -0.057000 0.178410 
#    y -0.057000 5.535720 0.146070 
#    z 0.178410 0.146070 4.998450 
# 
# 
# High freq. dielectric constant tensor:
#      x y z
#    x 2.032170 -0.009580 0.014920 
#    y -0.009580 2.077400 0.015920 
#    z 0.014920 0.015920 2.076480 
# 
# From -- ./inp_files/502444.got.cif
#   From: 2010.06.25/outbox.cif.g09.slc.cpg/sg2_252_cif.got.tgz:502444.got - 2010.06.27 13:26:56.
