data_PCOD8028750
_publ_section_title
;
Structure prediction by ZEFSAII (Michael W. Deem and Ramdas Pophale) SiO2 
 PCOD8028750
Probable space group: P -1
;
_chemical_formula_sum "Si O2"
_cell_formula_units_Z 16
_cell_length_a 5.559923
_cell_length_b 20.704811
_cell_length_c 17.260043
_cell_angle_alpha 19.856320
_cell_angle_beta 68.852137
_cell_angle_gamma 66.178398
_cell_volume 616.221964
_symmetry_space_group_name_H-M "P -1"
_symmetry_group_IT_number 2
_symmetry_cell_setting 'triclinic'
loop_
_space_group_symop_operation_xyz
x,y,z
-x,-y,-z
loop_
_atom_site_type_symbol
_atom_site_label
_atom_site_fract_x
_atom_site_fract_y
_atom_site_fract_z
Si Si1 0.426666 0.510032 0.310678
Si Si2 0.698400 0.854434 0.192578
Si Si3 0.119493 0.316541 0.106926
Si Si4 0.934298 0.000747 0.732068
Si Si5 0.012219 0.415678 0.848317
Si Si6 0.467382 0.032264 0.557914
Si Si7 0.282211 0.685120 0.713329
Si Si8 0.138295 0.901709 0.977563
O O1 0.382537 0.352050 0.556984
O O2 0.742768 0.471473 0.304462
O O3 0.247303 0.485971 0.281939
O O4 0.330092 0.723734 0.115353
O O5 0.698462 0.951889 0.167464
O O6 0.979793 0.818267 0.158003
O O7 0.500000 0.000000 0.000000
O O8 0.281928 0.123941 0.262739
O O9 0.985372 0.264510 0.260221
O O10 0.918533 0.412661 0.953397
O O11 0.324570 0.457898 0.944422
O O12 0.213221 0.975339 0.685876
O O13 0.954528 0.031642 0.787349
O O14 0.740112 0.185071 0.508840
O O15 0.851589 0.795000 0.963064
O O16 0.500000 0.000000 0.500000
O O17 0.486907 0.251798 0.333573
#
# Coordination Sequence:
#
# PCOD8028750 Si02
#       8
#     2   2   2   2   2   2   2   2
#     4  11  27  48  76 107 147 191 237 299 365 429
#     4  11  27  47  77 108 143 190 236 298 370 439
#     4  11  23  44  65 103 140 185 246 293 360 421
#     4  11  24  45  70  99 141 187 240 292 361 419
#     4  11  25  46  75 107 145 195 244 297 361 432
#     4  12  23  43  69  97 140 193 237 300 353 423
#     4  11  25  41  67 100 138 190 239 302 354 422
#     4  10  26  46  72 109 142 189 241 297 358 446
#
# _framework density 25.964670000000002
#
# number of rings (size 3 to 8) (size 9 to 14) (size 15 to 20)
#    0.000    1.000    2.500    3.000    8.750    2.000 
#    2.250    0.000    0.000    0.000    0.000    0.000 
#    0.000    0.000    0.000    0.000    0.000    0.000 
#
# Total GULP energy -198321.939276 kJ/mol
# GULP energy per Si atom -12395.121205 kJ/mol
# Density = 2.590557 g / cm^3
# Si number density = 25.964670 Si / 1000 Ang^3
#
#
#
# Elastic Constant Matrix: (Units=GPa)
#
#
# Indices 1 2 3 4 5 6 
#
# 1 109.9488 17.8089 27.8537 10.4814 -13.3298 25.2417
# 2 17.8089 79.1738 16.4973 14.3685 -1.6541 40.4910
# 3 27.8537 16.4973 101.9974 18.6067 -5.8730 13.2922
# 4 10.4814 14.3685 18.6067 38.9220 7.4347 4.9701
# 5 -13.3298 -1.6541 -5.8730 7.4347 33.6326 4.0329
# 6 25.2417 40.4910 13.2922 4.9701 4.0329 41.4471
#
#
#
# Elastic Compliance Matrix: (Units=1/GPa)
#
#
# Indices 1 2 3 4 5 6 
#
# 1 0.012765 0.004404 -0.001454 -0.004269 0.007383 -0.011816
# 2 0.004404 0.029710 0.000490 -0.010138 0.009317 -0.031555
# 3 -0.001454 0.000490 0.011709 -0.005596 0.003086 -0.002977
# 4 -0.004269 -0.010138 -0.005596 0.034113 -0.012074 0.011383
# 5 0.007383 0.009317 0.003086 -0.012074 0.038348 -0.016872
# 6 -0.011816 -0.031555 -0.002977 0.011383 -0.016872 0.063382
#
#
# Mechanical properties :
#
#
# Convention : Reuss Voigt Hill
#
# Bulk Modulus (GPa) = 16.37657 46.15999 31.26828
# Shear Modulus (GPa) = 24.56988 38.06435 31.31711
#
# Velocity S-wave (km/s) = 3.07951 3.83300 3.47673
# Velocity P-wave (km/s) = 4.35493 6.11603 5.30901
#
# Compressibility (1/GPa) = 0.06106283
#
# Stress axis : x y z
#
# Youngs Moduli (GPa) = 78.33887 33.65871 85.40732
#
# Poissons Ratio (x) = -0.14823 0.12422
# Poissons Ratio (y) = -0.34500 -0.04186
# Poissons Ratio (z) = 0.11394 -0.01650
#
# Static dielectric constant tensor:
#      x y z
#    x 4.745480 0.261320 0.056100 
#    y 0.261320 5.143460 0.215300 
#    z 0.056100 0.215300 5.052460 
# 
# 
# High freq. dielectric constant tensor:
#      x y z
#    x 2.031320 0.018200 -0.008560 
#    y 0.018200 2.042630 0.005770 
#    z -0.008560 0.005770 2.046340 
# 
# From -- ./inp_files/53393.got.cif
#   From: 2010.06.25/outbox.cif.g09.slc.cpg/sg2_27_cif.got.tgz:53393.got - 2010.06.27 13:26:56.
