data_PCOD8028917
_publ_section_title
;
Structure prediction by ZEFSAII (Michael W. Deem and Ramdas Pophale) SiO2 
 PCOD8028917
Probable space group: P -1
;
_chemical_formula_sum "Si O2"
_cell_formula_units_Z 16
_cell_length_a 30.802063
_cell_length_b 10.158774
_cell_length_c 8.635212
_cell_angle_alpha 29.758273
_cell_angle_beta 143.454392
_cell_angle_gamma 141.148380
_cell_volume 767.765201
_symmetry_space_group_name_H-M "P -1"
_symmetry_group_IT_number 2
_symmetry_cell_setting 'triclinic'
loop_
_space_group_symop_operation_xyz
x,y,z
-x,-y,-z
loop_
_atom_site_type_symbol
_atom_site_label
_atom_site_fract_x
_atom_site_fract_y
_atom_site_fract_z
Si Si1 0.645769 0.059457 0.201785
Si Si2 0.414405 0.504267 0.239158
Si Si3 0.410595 0.950214 0.287648
Si Si4 0.799858 0.789158 0.247250
Si Si5 0.038025 0.236069 0.194207
Si Si6 0.037192 0.339290 0.444722
Si Si7 0.646561 0.610354 0.147811
Si Si8 0.199310 0.682225 0.489765
O O1 0.735579 0.210533 0.305424
O O2 0.639468 0.785218 0.562349
O O3 0.596460 0.242737 0.949769
O O4 0.615504 0.972234 0.033324
O O5 0.500000 0.500000 0.500000
O O6 0.394975 0.543183 0.966221
O O7 0.365661 0.630944 0.513721
O O8 0.500000 0.000000 0.500000
O O9 0.390654 0.152203 0.149646
O O10 0.875437 0.768767 0.573053
O O11 0.735189 0.761797 0.218799
O O12 0.771621 0.528744 0.318551
O O13 0.816869 0.075387 0.909257
O O14 0.016367 0.266639 0.279889
O O15 0.982035 0.967372 0.224130
O O16 0.018811 0.504093 0.791965
O O17 0.123796 0.518144 0.531675
#
# Coordination Sequence:
#
# PCOD8028917 Si02
#       8
#     2   2   2   2   2   2   2   2
#     4  12  23  41  59  88 117 154 191 244 297 344
#     4  12  23  40  64  87 113 148 196 242 298 354
#     4  12  26  43  61  84 118 154 197 243 292 356
#     4  11  20  33  55  82 118 146 190 238 285 338
#     4   9  16  27  44  76 112 150 177 225 281 336
#     4   9  16  26  45  74 114 148 181 219 285 336
#     4  12  23  41  61  88 114 154 192 243 297 345
#     4  11  19  33  53  83 116 150 186 240 283 341
#
# _framework density 20.839704000000001
#
# number of rings (size 3 to 8) (size 9 to 14) (size 15 to 20)
#    0.000    1.000    2.500    8.250    0.000    0.000 
#    0.000    0.000    0.000    0.000    0.000    5.250 
#    0.000    0.000    0.000    0.000    0.000    0.000 
#
# Total GULP energy -198381.929955 kJ/mol
# GULP energy per Si atom -12398.870622 kJ/mol
# Density = 2.079227 g / cm^3
# Si number density = 20.839704 Si / 1000 Ang^3
#
#
#
# Elastic Constant Matrix: (Units=GPa)
#
#
# Indices 1 2 3 4 5 6 
#
# 1 73.4826 33.8452 30.4336 7.4049 23.0970 11.5779
# 2 33.8452 94.2298 21.9675 -0.2521 5.5308 16.0965
# 3 30.4336 21.9675 88.0427 -15.9470 21.8834 0.7219
# 4 7.4049 -0.2521 -15.9470 36.8391 3.3944 4.3331
# 5 23.0970 5.5308 21.8834 3.3944 32.4358 3.6864
# 6 11.5779 16.0965 0.7219 4.3331 3.6864 26.9386
#
#
#
# Elastic Compliance Matrix: (Units=1/GPa)
#
#
# Indices 1 2 3 4 5 6 
#
# 1 0.022825 -0.005839 -0.004536 -0.005105 -0.011227 -0.003842
# 2 -0.005839 0.014134 -0.002326 0.000664 0.003990 -0.006526
# 3 -0.004536 -0.002326 0.017449 0.008996 -0.009395 0.002710
# 4 -0.005105 0.000664 0.008996 0.032940 -0.005657 -0.002968
# 5 -0.011227 0.003990 -0.009395 -0.005657 0.045371 -0.002606
# 6 -0.003842 -0.006526 0.002710 -0.002968 -0.002606 0.043434
#
#
# Mechanical properties :
#
#
# Convention : Reuss Voigt Hill
#
# Bulk Modulus (GPa) = 34.47551 47.58307 41.02929
# Shear Modulus (GPa) = 23.67148 30.54329 27.10738
#
# Velocity S-wave (km/s) = 3.37394 3.83251 3.61051
# Velocity P-wave (km/s) = 5.63534 6.51664 6.09195
#
# Compressibility (1/GPa) = 0.02900610
#
# Stress axis : x y z
#
# Youngs Moduli (GPa) = 43.81101 70.74903 57.31062
#
# Poissons Ratio (x) = 0.41313 0.25994
# Poissons Ratio (y) = 0.25583 0.13331
# Poissons Ratio (z) = 0.19871 0.16457
#
# Static dielectric constant tensor:
#      x y z
#    x 3.506770 0.181520 0.231200 
#    y 0.181520 3.798950 -0.342130 
#    z 0.231200 -0.342130 4.064820 
# 
# 
# High freq. dielectric constant tensor:
#      x y z
#    x 1.781290 0.026400 0.029830 
#    y 0.026400 1.819870 -0.021750 
#    z 0.029830 -0.021750 1.829680 
# 
# From -- ./inp_files/358452.got.cif
#   From: 2010.06.25/outbox.cif.g09.slc.cpg/sg2_180_cif.got.tgz:358452.got - 2010.06.27 13:26:56.
