data_PCOD8028609
_publ_section_title
;
Structure prediction by ZEFSAII (Michael W. Deem and Ramdas Pophale) SiO2 
 PCOD8028609
Probable space group: P -1
;
_chemical_formula_sum "Si O2"
_cell_formula_units_Z 14
_cell_length_a 5.307181
_cell_length_b 8.742912
_cell_length_c 18.880952
_cell_angle_alpha 44.026701
_cell_angle_beta 74.082519
_cell_angle_gamma 64.114169
_cell_volume 546.676828
_symmetry_space_group_name_H-M "P -1"
_symmetry_group_IT_number 2
_symmetry_cell_setting 'triclinic'
loop_
_space_group_symop_operation_xyz
x,y,z
-x,-y,-z
loop_
_atom_site_type_symbol
_atom_site_label
_atom_site_fract_x
_atom_site_fract_y
_atom_site_fract_z
Si Si1 0.525867 0.919528 0.404220
Si Si2 0.993149 0.249018 0.387480
Si Si3 0.865817 0.495963 0.588522
Si Si4 0.329665 0.917592 0.270457
Si Si5 0.196689 0.745780 0.748188
Si Si6 0.702542 0.897006 0.121526
Si Si7 0.663198 0.291040 0.891116
O O1 0.573765 0.725469 0.528119
O O2 0.451247 0.815876 0.371980
O O3 0.307335 0.175057 0.357523
O O4 0.798514 0.987698 0.345826
O O5 0.937518 0.452625 0.383078
O O6 0.793325 0.352438 0.300731
O O7 0.000000 0.000000 0.500000
O O8 0.797205 0.268472 0.691481
O O9 0.000000 0.500000 0.500000
O O10 0.580973 0.937599 0.196715
O O11 0.097888 0.184917 0.209037
O O12 0.453661 0.558952 0.833324
O O13 0.490497 0.815902 0.118551
O O14 0.028823 0.714587 0.156564
O O15 0.705488 0.145973 0.009217
#
# Coordination Sequence:
#
# PCOD8028609 Si02
#       7
#     2   2   2   2   2   2   2
#     4  11  24  44  61  99 146 191 248 297 364 440
#     4  11  24  43  66  97 142 200 250 301 362 443
#     4  12  23  44  68 101 149 194 248 308 360 433
#     4  11  26  43  72 106 144 197 248 308 370 440
#     4  11  25  45  70 105 144 195 247 302 372 441
#     4  10  25  49  76 111 145 191 251 310 384 449
#     4  10  25  48  76 109 150 190 245 317 379 453
#
# _framework density 25.609279999999998
#
# number of rings (size 3 to 8) (size 9 to 14) (size 15 to 20)
#    0.000    1.143    2.857    1.714    8.000    1.714 
#    0.000    0.714    0.000    0.000    0.000    0.000 
#    0.000    0.000    0.000    0.000    0.000    0.000 
#
# Total GULP energy -173509.574478 kJ/mol
# GULP energy per Si atom -12393.541034 kJ/mol
# Density = 2.555099 g / cm^3
# Si number density = 25.609280 Si / 1000 Ang^3
#
#
#
# Elastic Constant Matrix: (Units=GPa)
#
#
# Indices 1 2 3 4 5 6 
#
# 1 113.9798 43.5344 34.1967 6.1261 1.5357 1.5570
# 2 43.5344 117.3341 53.2295 6.7167 -0.1824 -7.4098
# 3 34.1967 53.2295 94.8506 -3.0607 -4.4059 -23.7892
# 4 6.1261 6.7167 -3.0607 29.2392 -12.4211 2.4273
# 5 1.5357 -0.1824 -4.4059 -12.4211 37.2060 -4.2088
# 6 1.5570 -7.4098 -23.7892 2.4273 -4.2088 51.8835
#
#
#
# Elastic Compliance Matrix: (Units=1/GPa)
#
#
# Indices 1 2 3 4 5 6 
#
# 1 0.010929 -0.002579 -0.003228 -0.002700 -0.001998 -0.002212
# 2 -0.002579 0.012653 -0.006681 -0.003833 -0.002034 -0.001165
# 3 -0.003228 -0.006681 0.017718 0.005524 0.004881 0.007404
# 4 -0.002700 -0.003833 0.005524 0.042528 0.015092 0.001301
# 5 -0.001998 -0.002034 0.004881 0.015092 0.033016 0.003979
# 6 -0.002212 -0.001165 0.007404 0.001301 0.003979 0.022831
#
#
# Mechanical properties :
#
#
# Convention : Reuss Voigt Hill
#
# Bulk Modulus (GPa) = 61.25822 65.34286 63.30054
# Shear Modulus (GPa) = 29.39548 36.67935 33.03742
#
# Velocity S-wave (km/s) = 3.39166 3.78864 3.59563
# Velocity P-wave (km/s) = 6.26977 6.68648 6.48148
#
# Compressibility (1/GPa) = 0.01632434
#
# Stress axis : x y z
#
# Youngs Moduli (GPa) = 91.49812 79.03029 56.43921
#
# Poissons Ratio (x) = 0.20382 0.18217
# Poissons Ratio (y) = 0.23597 0.37710
# Poissons Ratio (z) = 0.29533 0.52804
#
# Static dielectric constant tensor:
#      x y z
#    x 5.048950 -0.609550 0.081100 
#    y -0.609550 4.881540 -0.106840 
#    z 0.081100 -0.106840 4.629690 
# 
# 
# High freq. dielectric constant tensor:
#      x y z
#    x 2.036700 -0.016490 -0.001050 
#    y -0.016490 2.023050 -0.004850 
#    z -0.001050 -0.004850 2.008350 
# 
# From -- ./inp_files/547725.got.cif
#   From: 2010.06.25/outbox.cif.g09.slc.cpg/sg2_274_cif.got.tgz:547725.got - 2010.06.27 13:26:56.
