data_PCOD8028662
_publ_section_title
;
Structure prediction by ZEFSAII (Michael W. Deem and Ramdas Pophale) SiO2 
 PCOD8028662
Probable space group: P -1
;
_chemical_formula_sum "Si O2"
_cell_formula_units_Z 16
_cell_length_a 17.490779
_cell_length_b 6.608762
_cell_length_c 9.189657
_cell_angle_alpha 56.077322
_cell_angle_beta 62.379302
_cell_angle_gamma 57.033180
_cell_volume 719.743686
_symmetry_space_group_name_H-M "P -1"
_symmetry_group_IT_number 2
_symmetry_cell_setting 'triclinic'
loop_
_space_group_symop_operation_xyz
x,y,z
-x,-y,-z
loop_
_atom_site_type_symbol
_atom_site_label
_atom_site_fract_x
_atom_site_fract_y
_atom_site_fract_z
Si Si1 0.111822 0.243124 0.152333
Si Si2 0.310314 0.348367 0.343482
Si Si3 0.217879 0.951600 0.643145
Si Si4 0.077409 0.341932 0.814878
Si Si5 0.429633 0.526278 0.349393
Si Si6 0.318808 0.131803 0.120446
Si Si7 0.848288 0.222137 0.518228
Si Si8 0.382338 0.459278 0.743668
O O1 0.213905 0.202488 0.131830
O O2 0.035894 0.536814 0.143166
O O3 0.081765 0.023077 0.348497
O O4 0.112415 0.206683 0.993265
O O5 0.409331 0.339252 0.322503
O O6 0.315833 0.336209 0.169622
O O7 0.232735 0.621083 0.359304
O O8 0.286886 0.106618 0.520449
O O9 0.193175 0.903670 0.520954
O O10 0.278156 0.678452 0.780432
O O11 0.121172 0.116563 0.745789
O O12 0.105976 0.591969 0.667910
O O13 0.401276 0.440842 0.562951
O O14 0.538984 0.470577 0.270327
O O15 0.368977 0.834215 0.250584
O O16 0.379872 0.184764 0.915096
#
# Coordination Sequence:
#
# PCOD8028662 Si02
#       8
#     2   2   2   2   2   2   2   2
#     4  11  22  45  64  96 131 165 216 269 315 383
#     4  11  21  41  67  92 133 169 213 266 316 385
#     4  11  22  44  65  98 130 171 217 260 322 385
#     4  10  26  41  66  97 128 169 218 261 322 385
#     4  11  24  47  63  96 133 166 221 269 314 387
#     4  12  24  43  67  95 130 171 217 264 324 382
#     4  11  21  44  63  91 134 171 211 264 318 376
#     4  11  24  43  69  93 131 173 210 274 322 370
#
# _framework density 22.230139000000001
#
# number of rings (size 3 to 8) (size 9 to 14) (size 15 to 20)
#    0.000    1.000    5.000    1.500    3.500    1.500 
#    2.250    1.875    0.000    0.000    0.000    0.000 
#    0.000    0.000    0.000    0.000    0.000    0.000 
#
# Total GULP energy -198368.045530 kJ/mol
# GULP energy per Si atom -12398.002846 kJ/mol
# Density = 2.217954 g / cm^3
# Si number density = 22.230139 Si / 1000 Ang^3
#
#
#
# Elastic Constant Matrix: (Units=GPa)
#
#
# Indices 1 2 3 4 5 6 
#
# 1 72.9882 19.6901 36.8418 1.5054 24.0773 2.6916
# 2 19.6901 77.4364 28.2298 10.6406 14.8571 8.7935
# 3 36.8418 28.2298 127.1701 -1.3296 11.5274 -0.3705
# 4 1.5054 10.6406 -1.3296 14.4302 -3.2473 -2.6731
# 5 24.0773 14.8571 11.5274 -3.2473 32.0734 -0.0553
# 6 2.6916 8.7935 -0.3705 -2.6731 -0.0553 31.4979
#
#
#
# Elastic Compliance Matrix: (Units=1/GPa)
#
#
# Indices 1 2 3 4 5 6 
#
# 1 0.021331 0.000591 -0.005014 -0.007039 -0.015202 -0.002671
# 2 0.000591 0.019345 -0.003779 -0.018210 -0.009903 -0.007058
# 3 -0.005014 -0.003779 0.009993 0.005160 0.002449 0.002043
# 4 -0.007039 -0.018210 0.005160 0.091195 0.021121 0.013523
# 5 -0.015202 -0.009903 0.002449 0.021121 0.048446 0.005970
# 6 -0.002671 -0.007058 0.002043 0.013523 0.005970 0.035129
#
#
# Mechanical properties :
#
#
# Convention : Reuss Voigt Hill
#
# Bulk Modulus (GPa) = 29.18448 49.67980 39.43214
# Shear Modulus (GPa) = 19.74227 28.45584 24.09906
#
# Velocity S-wave (km/s) = 2.98331 3.58167 3.29610
# Velocity P-wave (km/s) = 5.00237 6.28498 5.67999
#
# Compressibility (1/GPa) = 0.03426479
#
# Stress axis : x y z
#
# Youngs Moduli (GPa) = 46.88052 51.69335 100.07101
#
# Poissons Ratio (x) = -0.03057 0.50179
# Poissons Ratio (y) = -0.02772 0.37816
# Poissons Ratio (z) = 0.23507 0.19534
#
# Static dielectric constant tensor:
#      x y z
#    x 4.140500 -0.068230 0.067240 
#    y -0.068230 4.012070 -0.095070 
#    z 0.067240 -0.095070 4.199060 
# 
# 
# High freq. dielectric constant tensor:
#      x y z
#    x 1.877930 -0.007360 0.001580 
#    y -0.007360 1.863750 -0.006930 
#    z 0.001580 -0.006930 1.887880 
# 
# From -- ./inp_files/117405.got.cif
#   From: 2010.06.25/outbox.cif.g09.slc.cpg/sg2_59_cif.got.tgz:117405.got - 2010.06.27 13:26:56.
