data_PCOD8028413
_publ_section_title
;
Structure prediction by ZEFSAII (Michael W. Deem and Ramdas Pophale) SiO2 
 PCOD8028413
Probable space group: P -1
;
_chemical_formula_sum "Si O2"
_cell_formula_units_Z 14
_cell_length_a 7.026637
_cell_length_b 11.689818
_cell_length_c 14.578047
_cell_angle_alpha 131.333481
_cell_angle_beta 42.765230
_cell_angle_gamma 122.234055
_cell_volume 607.736889
_symmetry_space_group_name_H-M "P -1"
_symmetry_group_IT_number 2
_symmetry_cell_setting 'triclinic'
loop_
_space_group_symop_operation_xyz
x,y,z
-x,-y,-z
loop_
_atom_site_type_symbol
_atom_site_label
_atom_site_fract_x
_atom_site_fract_y
_atom_site_fract_z
Si Si1 0.254968 0.902512 0.337003
Si Si2 0.814977 0.671672 0.321120
Si Si3 0.520498 0.203115 0.336973
Si Si4 0.857672 0.650193 0.793708
Si Si5 0.554139 0.335234 0.720073
Si Si6 0.536535 0.175691 0.104477
Si Si7 0.073265 0.365056 0.037804
O O1 0.365874 0.820459 0.344375
O O2 0.116563 0.770668 0.246885
O O3 0.503954 0.020169 0.269867
O O4 0.000000 0.000000 0.500000
O O5 0.712502 0.709997 0.480192
O O6 0.569740 0.712151 0.360447
O O7 0.869743 0.496319 0.200977
O O8 0.457352 0.214316 0.257514
O O9 0.822020 0.284394 0.303122
O O10 0.815223 0.466653 0.691555
O O11 0.655828 0.734380 0.845177
O O12 0.780821 0.682008 0.944109
O O13 0.313033 0.411559 0.903734
O O14 0.866580 0.225693 0.997171
O O15 0.500000 0.000000 0.000000
#
# Coordination Sequence:
#
# PCOD8028413 Si02
#       7
#     2   2   2   2   2   2   2
#     4  10  25  46  69 102 143 188 233 290 353 413
#     4  11  24  46  72 104 143 182 239 291 350 422
#     4  10  27  46  69 103 146 184 233 292 356 418
#     4  11  25  45  70 106 136 186 239 290 361 406
#     4  12  25  42  77 105 140 186 240 293 349 425
#     4  11  27  44  70 104 146 190 235 290 360 421
#     4  11  25  44  70 109 139 184 240 290 350 417
#
# _framework density 23.036283999999998
#
# number of rings (size 3 to 8) (size 9 to 14) (size 15 to 20)
#    0.000    1.143    2.857    0.857    6.000    8.571 
#    0.000    0.000    0.000    0.000    0.000    0.000 
#    0.000    0.000    0.000    0.000    0.000    0.000 
#
# Total GULP energy -173576.931863 kJ/mol
# GULP energy per Si atom -12398.352276 kJ/mol
# Density = 2.298385 g / cm^3
# Si number density = 23.036284 Si / 1000 Ang^3
#
#
#
# Elastic Constant Matrix: (Units=GPa)
#
#
# Indices 1 2 3 4 5 6 
#
# 1 169.5525 58.3982 29.6103 3.4058 4.8256 -6.6721
# 2 58.3982 161.5534 22.8337 2.5744 -1.7964 15.0732
# 3 29.6103 22.8337 74.8896 2.0739 7.0680 -1.4970
# 4 3.4058 2.5744 2.0739 29.3183 -3.2442 -4.3196
# 5 4.8256 -1.7964 7.0680 -3.2442 25.2414 4.1825
# 6 -6.6721 15.0732 -1.4970 -4.3196 4.1825 47.2693
#
#
#
# Elastic Compliance Matrix: (Units=1/GPa)
#
#
# Indices 1 2 3 4 5 6 
#
# 1 0.007219 -0.002522 -0.001908 -0.000362 -0.001379 0.001852
# 2 -0.002522 0.007636 -0.001558 -0.000507 0.001903 -0.003055
# 3 -0.001908 -0.001558 0.015032 -0.001030 -0.004251 0.000985
# 4 -0.000362 -0.000507 -0.001030 0.035179 0.004361 0.002907
# 5 -0.001379 0.001903 -0.004251 0.004361 0.042479 -0.004296
# 6 0.001852 -0.003055 0.000985 0.002907 -0.004296 0.023068
#
#
# Mechanical properties :
#
#
# Convention : Reuss Voigt Hill
#
# Bulk Modulus (GPa) = 55.83155 69.74221 62.78688
# Shear Modulus (GPa) = 33.65665 40.04270 36.84968
#
# Velocity S-wave (km/s) = 3.82649 4.17375 4.00388
# Velocity P-wave (km/s) = 6.61904 7.31899 6.97779
#
# Compressibility (1/GPa) = 0.01791102
#
# Stress axis : x y z
#
# Youngs Moduli (GPa) = 138.51918 130.95766 66.52578
#
# Poissons Ratio (x) = 0.33031 0.12694
# Poissons Ratio (y) = 0.34938 0.10362
# Poissons Ratio (z) = 0.26432 0.20398
#
# Static dielectric constant tensor:
#      x y z
#    x 4.513880 0.346830 0.134210 
#    y 0.346830 5.127100 0.098530 
#    z 0.134210 0.098530 3.832310 
# 
# 
# High freq. dielectric constant tensor:
#      x y z
#    x 1.927240 0.010620 0.001670 
#    y 0.010620 1.933060 0.004300 
#    z 0.001670 0.004300 1.883250 
# 
# From -- ./inp_files/68337.got.cif
#   From: 2010.06.25/outbox.cif.g09.slc.cpg/sg2_35_cif.got.tgz:68337.got - 2010.06.27 13:26:56.
