data_PCOD8028072
_publ_section_title
;
Structure prediction by ZEFSAII (Michael W. Deem and Ramdas Pophale) SiO2 
 PCOD8028072
Probable space group: P -1
;
_chemical_formula_sum "Si O2"
_cell_formula_units_Z 16
_cell_length_a 9.420531
_cell_length_b 14.619199
_cell_length_c 7.665231
_cell_angle_alpha 101.928917
_cell_angle_beta 104.237096
_cell_angle_gamma 133.808092
_cell_volume 622.042044
_symmetry_space_group_name_H-M "P -1"
_symmetry_group_IT_number 2
_symmetry_cell_setting 'triclinic'
loop_
_space_group_symop_operation_xyz
x,y,z
-x,-y,-z
loop_
_atom_site_type_symbol
_atom_site_label
_atom_site_fract_x
_atom_site_fract_y
_atom_site_fract_z
Si Si1 0.162971 0.301591 0.115641
Si Si2 0.351921 0.897492 0.742289
Si Si3 0.327285 0.657904 0.912969
Si Si4 0.177781 0.118691 0.948875
Si Si5 0.949469 0.840518 0.616837
Si Si6 0.273004 0.808016 0.177290
Si Si7 0.451474 0.617952 0.272609
Si Si8 0.805915 0.352626 0.580362
O O1 0.175965 0.245446 0.271161
O O2 0.391546 0.480665 0.245266
O O3 0.142681 0.210856 0.923292
O O4 0.940541 0.257016 0.023495
O O5 0.300737 0.758674 0.663469
O O6 0.105188 0.827915 0.612156
O O7 0.520009 0.010756 0.674752
O O8 0.500000 0.000000 0.000000
O O9 0.073616 0.520193 0.686569
O O10 0.540323 0.750897 0.874819
O O11 0.368571 0.775803 0.067245
O O12 0.336976 0.584575 0.039322
O O13 0.114721 0.015625 0.733481
O O14 0.000000 0.000000 0.000000
O O15 0.734234 0.759325 0.392175
O O16 0.187340 0.725530 0.302421
O O17 0.355683 0.641926 0.402967
#
# Coordination Sequence:
#
# PCOD8028072 Si02
#       8
#     2   2   2   2   2   2   2   2
#     4  11  22  43  71  97 146 185 233 295 353 413
#     4  12  26  44  70 103 144 188 241 291 349 428
#     4  11  22  47  74 100 145 185 236 300 345 429
#     4  10  25  43  66  99 141 188 233 288 354 415
#     4  11  25  44  64  99 146 191 234 288 353 415
#     4  11  21  46  73 101 143 187 237 295 350 419
#     4  11  24  44  70 109 144 182 236 293 359 423
#     4  11  25  45  74 106 138 189 237 294 360 416
#
# _framework density 25.721733
#
# number of rings (size 3 to 8) (size 9 to 14) (size 15 to 20)
#    0.000    1.000    5.000    1.500    3.500    3.000 
#    0.000    1.250    0.000    0.000    0.000    0.000 
#    0.000    0.000    0.000    0.000    0.000    0.000 
#
# Total GULP energy -198279.614150 kJ/mol
# GULP energy per Si atom -12392.475884 kJ/mol
# Density = 2.566319 g / cm^3
# Si number density = 25.721733 Si / 1000 Ang^3
#
#
#
# Elastic Constant Matrix: (Units=GPa)
#
#
# Indices 1 2 3 4 5 6 
#
# 1 97.7125 34.9439 30.6004 19.3923 3.4617 7.1739
# 2 34.9439 101.1515 29.4295 44.4205 -10.1866 0.8288
# 3 30.6004 29.4295 86.3696 21.5463 1.0809 -0.3674
# 4 19.3923 44.4205 21.5463 43.4656 -3.4017 1.2084
# 5 3.4617 -10.1866 1.0809 -3.4017 44.9192 14.4481
# 6 7.1739 0.8288 -0.3674 1.2084 14.4481 54.9763
#
#
#
# Elastic Compliance Matrix: (Units=1/GPa)
#
#
# Indices 1 2 3 4 5 6 
#
# 1 0.012683 -0.003182 -0.003175 -0.000898 -0.001282 -0.001272
# 2 -0.003182 0.019366 -0.001146 -0.017521 0.003470 -0.000411
# 3 -0.003175 -0.001146 0.014252 -0.004580 -0.000990 0.000888
# 4 -0.000898 -0.017521 -0.004580 0.043572 -0.000327 -0.000521
# 5 -0.001282 0.003470 -0.000990 -0.000327 0.025244 -0.006519
# 6 -0.001272 -0.000411 0.000888 -0.000521 -0.006519 0.020092
#
#
# Mechanical properties :
#
#
# Convention : Reuss Voigt Hill
#
# Bulk Modulus (GPa) = 31.95327 52.79792 42.37560
# Shear Modulus (GPa) = 31.12427 41.35621 36.24024
#
# Velocity S-wave (km/s) = 3.48233 4.01413 3.75765
# Velocity P-wave (km/s) = 5.34963 6.48502 5.94449
#
# Compressibility (1/GPa) = 0.03129570
#
# Stress axis : x y z
#
# Youngs Moduli (GPa) = 78.84366 51.63747 70.16571
#
# Poissons Ratio (x) = 0.16433 0.22276
# Poissons Ratio (y) = 0.25091 0.08038
# Poissons Ratio (z) = 0.25031 0.05915
#
# Static dielectric constant tensor:
#      x y z
#    x 4.660160 -0.157760 -0.149240 
#    y -0.157760 4.999120 0.216210 
#    z -0.149240 0.216210 4.621780 
# 
# 
# High freq. dielectric constant tensor:
#      x y z
#    x 2.034220 -0.007730 0.000690 
#    y -0.007730 2.049250 0.016890 
#    z 0.000690 0.016890 2.010000 
# 
# From -- ./inp_files/208410.got.cif
#   From: 2010.06.25/outbox.cif.g09.slc.cpg/sg2_105_cif.got.tgz:208410.got - 2010.06.27 13:26:56.
