data_PCOD8028657
_publ_section_title
;
Structure prediction by ZEFSAII (Michael W. Deem and Ramdas Pophale) SiO2 
 PCOD8028657
Probable space group: P -1
;
_chemical_formula_sum "Si O2"
_cell_formula_units_Z 12
_cell_length_a 18.128000
_cell_length_b 5.617873
_cell_length_c 20.708577
_cell_angle_alpha 85.666527
_cell_angle_beta 12.724285
_cell_angle_gamma 83.981652
_cell_volume 458.515046
_symmetry_space_group_name_H-M "P -1"
_symmetry_group_IT_number 2
_symmetry_cell_setting 'triclinic'
loop_
_space_group_symop_operation_xyz
x,y,z
-x,-y,-z
loop_
_atom_site_type_symbol
_atom_site_label
_atom_site_fract_x
_atom_site_fract_y
_atom_site_fract_z
Si Si1 0.278324 0.126249 0.129072
Si Si2 0.765457 0.450843 0.642138
Si Si3 0.790164 0.518224 0.389601
Si Si4 0.721676 0.777433 0.118936
Si Si5 0.373214 0.758149 0.635982
Si Si6 0.240221 0.190685 0.466229
O O1 0.976699 0.307313 0.409816
O O2 0.483547 0.286973 0.905174
O O3 0.103051 0.928914 0.244693
O O4 0.500000 0.000000 0.000000
O O5 0.645758 0.700943 0.701700
O O6 0.000000 0.500000 0.500000
O O7 0.613391 0.284939 0.559378
O O8 0.504507 0.722020 0.597923
O O9 0.890136 0.617969 0.370606
O O10 0.112033 0.428885 0.070056
O O11 0.591913 0.023750 0.187286
O O12 0.971478 0.809452 0.965039
O O13 0.500000 0.500000 0.500000
O O14 0.500000 0.000000 0.500000
#
# Coordination Sequence:
#
# PCOD8028657 Si02
#       6
#     2   2   2   2   2   2
#     4  12  28  53  80 113 151 208 270 327 411 497
#     4  12  28  53  80 113 151 208 270 327 411 497
#     4  11  28  52  78 118 160 212 267 330 408 487
#     4  11  28  52  78 118 160 212 267 330 408 487
#     4  10  25  51  83 115 166 222 278 333 413 504
#     4  12  30  49  84 116 168 202 270 351 402 484
#
# _framework density 26.17144
#
# number of rings (size 3 to 8) (size 9 to 14) (size 15 to 20)
#    0.000    0.667    1.667    2.500    9.333    8.667 
#    0.000    0.000    0.000    0.000    0.000    0.000 
#    0.000    0.000    0.000    0.000    0.000    0.000 
#
# Total GULP energy -148719.586140 kJ/mol
# GULP energy per Si atom -12393.298845 kJ/mol
# Density = 2.611187 g / cm^3
# Si number density = 26.171440 Si / 1000 Ang^3
#
#
#
# Elastic Constant Matrix: (Units=GPa)
#
#
# Indices 1 2 3 4 5 6 
#
# 1 128.7598 37.0600 24.5510 -13.5765 -11.5240 -29.5398
# 2 37.0600 132.4888 37.8312 -27.3980 -1.5953 -32.3675
# 3 24.5510 37.8312 121.5760 -21.4768 6.7239 -12.1269
# 4 -13.5765 -27.3980 -21.4768 55.1598 -8.4106 -12.2798
# 5 -11.5240 -1.5953 6.7239 -8.4106 48.7112 -0.9514
# 6 -29.5398 -32.3675 -12.1269 -12.2798 -0.9514 58.5983
#
#
#
# Elastic Compliance Matrix: (Units=1/GPa)
#
#
# Indices 1 2 3 4 5 6 
#
# 1 0.009962 -0.000437 -0.000881 0.003580 0.003188 0.005400
# 2 -0.000437 0.011283 -0.001625 0.006721 0.001790 0.007113
# 3 -0.000881 -0.001625 0.009587 0.002815 -0.001075 0.001215
# 4 0.003580 0.006721 0.002815 0.026926 0.005559 0.011832
# 5 0.003188 0.001790 -0.001075 0.005559 0.022526 0.003904
# 6 0.005400 0.007113 0.001215 0.011832 0.003904 0.026511
#
#
# Mechanical properties :
#
#
# Convention : Reuss Voigt Hill
#
# Bulk Modulus (GPa) = 40.08670 64.63436 52.36053
# Shear Modulus (GPa) = 41.32342 51.38601 46.35471
#
# Velocity S-wave (km/s) = 3.97791 4.43588 4.21312
# Velocity P-wave (km/s) = 6.03727 7.14046 6.61191
#
# Compressibility (1/GPa) = 0.02494593
#
# Stress axis : x y z
#
# Youngs Moduli (GPa) = 100.38335 88.62749 104.30992
#
# Poissons Ratio (x) = 0.03873 0.09189
# Poissons Ratio (y) = 0.04387 0.16951
# Poissons Ratio (z) = 0.08843 0.14402
#
# Static dielectric constant tensor:
#      x y z
#    x 5.290400 -0.149070 -0.487870 
#    y -0.149070 4.997380 -0.017380 
#    z -0.487870 -0.017380 4.903360 
# 
# 
# High freq. dielectric constant tensor:
#      x y z
#    x 2.069920 -0.011200 -0.016850 
#    y -0.011200 2.067490 -0.000690 
#    z -0.016850 -0.000690 2.047890 
# 
# From -- ./inp_files/613376.got.cif
#   From: 2010.06.25/outbox.cif.g09.slc.cpg/sg2_307_cif.got.tgz:613376.got - 2010.06.27 13:26:56.
