data_PCOD8028535
_publ_section_title
;
Structure prediction by ZEFSAII (Michael W. Deem and Ramdas Pophale) SiO2 
 PCOD8028535
Probable space group: P -1
;
_chemical_formula_sum "Si O2"
_cell_formula_units_Z 16
_cell_length_a 5.473946
_cell_length_b 21.177183
_cell_length_c 15.475916
_cell_angle_alpha 156.723017
_cell_angle_beta 107.600346
_cell_angle_gamma 78.059083
_cell_volume 663.698970
_symmetry_space_group_name_H-M "P -1"
_symmetry_group_IT_number 2
_symmetry_cell_setting 'triclinic'
loop_
_space_group_symop_operation_xyz
x,y,z
-x,-y,-z
loop_
_atom_site_type_symbol
_atom_site_label
_atom_site_fract_x
_atom_site_fract_y
_atom_site_fract_z
Si Si1 0.568227 0.069658 0.975431
Si Si2 0.618011 0.533044 0.786678
Si Si3 0.363753 0.073807 0.450928
Si Si4 0.983739 0.849892 0.023834
Si Si5 0.113294 0.526791 0.639416
Si Si6 0.742662 0.866886 0.298689
Si Si7 0.385047 0.239388 0.491300
Si Si8 0.126485 0.744153 0.612044
O O1 0.309049 0.145318 0.031645
O O2 0.792477 0.128886 0.001692
O O3 0.485034 0.870755 0.704276
O O4 0.667555 0.114526 0.140689
O O5 0.426900 0.579599 0.750266
O O6 0.455231 0.431212 0.720396
O O7 0.790622 0.410612 0.617316
O O8 0.790733 0.697493 0.050734
O O9 0.364481 0.168833 0.660302
O O10 0.479256 0.204755 0.553966
O O11 0.538550 0.935597 0.303180
O O12 0.075373 0.982343 0.275390
O O13 0.977879 0.672678 0.845553
O O14 0.000000 0.500000 0.500000
O O15 0.051419 0.346733 0.444994
O O16 0.000000 0.000000 0.500000
O O17 0.067426 0.176898 0.371637
#
# Coordination Sequence:
#
# PCOD8028535 Si02
#       8
#     2   2   2   2   2   2   2   2
#     4  11  25  43  70 107 145 199 247 290 356 438
#     4  11  26  44  67 106 146 189 243 301 368 434
#     4  10  25  47  73 101 135 186 243 307 370 429
#     4  11  24  41  74 103 144 189 247 303 359 432
#     4  11  22  40  65 102 148 189 238 292 365 430
#     4  11  26  46  76 106 134 182 246 313 374 434
#     4  10  26  46  69  99 148 191 243 294 363 442
#     4  11  25  40  67 104 149 196 238 297 357 439
#
# _framework density 24.107313000000001
#
# number of rings (size 3 to 8) (size 9 to 14) (size 15 to 20)
#    0.000    1.250    2.500    1.125   12.250    3.000 
#    0.000    1.250    0.000    0.000    0.000    0.000 
#    0.000    0.000    0.000    0.000    0.000    0.000 
#
# Total GULP energy -198277.792988 kJ/mol
# GULP energy per Si atom -12392.362062 kJ/mol
# Density = 2.405244 g / cm^3
# Si number density = 24.107313 Si / 1000 Ang^3
#
#
#
# Elastic Constant Matrix: (Units=GPa)
#
#
# Indices 1 2 3 4 5 6 
#
# 1 76.0821 28.0455 29.4478 -5.8723 -11.0578 -21.6113
# 2 28.0455 137.5200 40.0950 -12.1047 -7.7627 -11.2059
# 3 29.4478 40.0950 145.8836 -4.0183 1.1670 -2.9899
# 4 -5.8723 -12.1047 -4.0183 30.7303 -3.6792 -2.1454
# 5 -11.0578 -7.7627 1.1670 -3.6792 39.3472 6.1678
# 6 -21.6113 -11.2059 -2.9899 -2.1454 6.1678 30.2479
#
#
#
# Elastic Compliance Matrix: (Units=1/GPa)
#
#
# Indices 1 2 3 4 5 6 
#
# 1 0.019278 -0.001435 -0.003160 0.004013 0.003649 0.012470
# 2 -0.001435 0.008653 -0.001972 0.003174 0.001356 0.001934
# 3 -0.003160 -0.001972 0.007987 -0.000626 -0.001261 -0.001986
# 4 0.004013 0.003174 -0.000626 0.035372 0.004197 0.005634
# 5 0.003649 0.001356 -0.001261 0.004197 0.027502 -0.002326
# 6 0.012470 0.001934 -0.001986 0.005634 -0.002326 0.043364
#
#
# Mechanical properties :
#
#
# Convention : Reuss Voigt Hill
#
# Bulk Modulus (GPa) = 43.89207 61.62914 52.76060
# Shear Modulus (GPa) = 30.69655 37.52489 34.11072
#
# Velocity S-wave (km/s) = 3.57225 3.94963 3.76567
# Velocity P-wave (km/s) = 5.93810 6.81318 6.39064
#
# Compressibility (1/GPa) = 0.02278316
#
# Stress axis : x y z
#
# Youngs Moduli (GPa) = 51.87256 115.56922 125.20498
#
# Poissons Ratio (x) = 0.16582 0.39567
# Poissons Ratio (y) = 0.07443 0.24695
# Poissons Ratio (z) = 0.16393 0.22794
#
# Static dielectric constant tensor:
#      x y z
#    x 4.531940 -0.007910 0.152820 
#    y -0.007910 5.614360 1.185180 
#    z 0.152820 1.185180 5.655600 
# 
# 
# High freq. dielectric constant tensor:
#      x y z
#    x 1.952790 0.001120 0.005240 
#    y 0.001120 1.969870 0.014530 
#    z 0.005240 0.014530 1.958490 
# 
# From -- ./inp_files/551308.got.cif
#   From: 2010.06.25/outbox.cif.g09.slc.cpg/sg2_276_cif.got.tgz:551308.got - 2010.06.27 13:26:56.
