data_PCOD8028592
_publ_section_title
;
Structure prediction by ZEFSAII (Michael W. Deem and Ramdas Pophale) SiO2 
 PCOD8028592
Probable space group: P -1
;
_chemical_formula_sum "Si O2"
_cell_formula_units_Z 16
_cell_length_a 16.914424
_cell_length_b 8.526126
_cell_length_c 8.703900
_cell_angle_alpha 142.454565
_cell_angle_beta 60.748195
_cell_angle_gamma 104.666774
_cell_volume 645.760085
_symmetry_space_group_name_H-M "P -1"
_symmetry_group_IT_number 2
_symmetry_cell_setting 'triclinic'
loop_
_space_group_symop_operation_xyz
x,y,z
-x,-y,-z
loop_
_atom_site_type_symbol
_atom_site_label
_atom_site_fract_x
_atom_site_fract_y
_atom_site_fract_z
Si Si1 0.244406 0.924425 0.897277
Si Si2 0.900233 0.616317 0.480038
Si Si3 0.548198 0.484550 0.280680
Si Si4 0.581336 0.145302 0.507504
Si Si5 0.069588 0.809129 0.400707
Si Si6 0.646959 0.963168 0.615940
Si Si7 0.102915 0.881319 0.747126
Si Si8 0.196443 0.487010 0.786153
O O1 0.343743 0.979634 0.796307
O O2 0.180554 0.974680 0.843268
O O3 0.262371 0.634687 0.737792
O O4 0.184951 0.119473 0.231929
O O5 0.876981 0.436076 0.498038
O O6 0.894330 0.499949 0.223834
O O7 0.005760 0.642228 0.418256
O O8 0.500000 0.500000 0.500000
O O9 0.471854 0.560038 0.272782
O O10 0.605723 0.710242 0.415277
O O11 0.603719 0.176927 0.956914
O O12 0.500000 0.000000 0.500000
O O13 0.639866 0.143709 0.608305
O O14 0.108849 0.955217 0.618170
O O15 0.159761 0.632352 0.092923
O O16 0.000000 0.000000 0.500000
O O17 0.750600 0.817836 0.462087
O O18 0.000000 0.000000 0.000000
#
# Coordination Sequence:
#
# PCOD8028592 Si02
#       8
#     2   2   2   2   2   2   2   2
#     4  11  24  47  70 101 140 190 242 299 364 443
#     4  11  24  44  68  97 146 189 236 295 360 435
#     4  11  24  47  75 105 142 188 237 308 379 446
#     4  10  25  48  73 103 144 186 243 305 376 441
#     4  12  23  44  69 101 149 189 239 299 362 435
#     4  11  26  45  71 108 144 185 246 303 375 440
#     4  11  24  43  69 103 140 191 242 294 366 434
#     4  11  26  42  68 108 139 194 245 300 365 441
#
# _framework density 24.777004999999999
#
# number of rings (size 3 to 8) (size 9 to 14) (size 15 to 20)
#    0.000    1.000    2.500    3.000    5.250    2.000 
#   13.500    0.000    0.000    0.000    0.000    0.000 
#    0.000    0.000    0.000    0.000    0.000    0.000 
#
# Total GULP energy -198213.440932 kJ/mol
# GULP energy per Si atom -12388.340058 kJ/mol
# Density = 2.472061 g / cm^3
# Si number density = 24.777005 Si / 1000 Ang^3
#
#
#
# Elastic Constant Matrix: (Units=GPa)
#
#
# Indices 1 2 3 4 5 6 
#
# 1 63.7237 38.6812 35.1934 -3.3447 -9.1154 -11.0997
# 2 38.6812 82.9756 48.2161 -8.0078 -11.6327 -20.8049
# 3 35.1934 48.2161 163.2622 -10.2346 -9.8490 -12.2939
# 4 -3.3447 -8.0078 -10.2346 45.5019 -0.9386 -6.5863
# 5 -9.1154 -11.6327 -9.8490 -0.9386 43.1857 -5.2012
# 6 -11.0997 -20.8049 -12.2939 -6.5863 -5.2012 57.3924
#
#
#
# Elastic Compliance Matrix: (Units=1/GPa)
#
#
# Indices 1 2 3 4 5 6 
#
# 1 0.022660 -0.008863 -0.002091 -0.000195 0.002021 0.000883
# 2 -0.008863 0.020279 -0.003246 0.003075 0.003595 0.005621
# 3 -0.002091 -0.003246 0.007645 0.001036 0.000477 0.000219
# 4 -0.000195 0.003075 0.001036 0.023382 0.002033 0.004167
# 5 0.002021 0.003595 0.000477 0.002033 0.025224 0.004316
# 6 0.000883 0.005621 0.000219 0.004167 0.004316 0.020548
#
#
# Mechanical properties :
#
#
# Convention : Reuss Voigt Hill
#
# Bulk Modulus (GPa) = 45.07527 61.57142 53.32335
# Shear Modulus (GPa) = 32.14779 41.74072 36.94425
#
# Velocity S-wave (km/s) = 3.60597 4.10891 3.86563
# Velocity P-wave (km/s) = 5.96399 6.88586 6.44144
#
# Compressibility (1/GPa) = 0.02218511
#
# Stress axis : x y z
#
# Youngs Moduli (GPa) = 44.13080 49.31094 130.81112
#
# Poissons Ratio (x) = 0.43702 0.27354
# Poissons Ratio (y) = 0.39111 0.42458
# Poissons Ratio (z) = 0.09228 0.16005
#
# Static dielectric constant tensor:
#      x y z
#    x 4.887730 -0.422430 -0.110360 
#    y -0.422430 5.146110 0.153820 
#    z -0.110360 0.153820 4.431960 
# 
# 
# High freq. dielectric constant tensor:
#      x y z
#    x 1.987590 -0.025920 -0.005670 
#    y -0.025920 1.994400 -0.004650 
#    z -0.005670 -0.004650 1.975770 
# 
# From -- ./inp_files/46602.got.cif
#   From: 2010.06.25/outbox.cif.g09.slc.cpg/sg2_24_cif.got.tgz:46602.got - 2010.06.27 13:26:56.
