data_PCOD8028448
_publ_section_title
;
Structure prediction by ZEFSAII (Michael W. Deem and Ramdas Pophale) SiO2 
 PCOD8028448
Probable space group: P -1
;
_chemical_formula_sum "Si O2"
_cell_formula_units_Z 12
_cell_length_a 8.947150
_cell_length_b 7.752000
_cell_length_c 15.273858
_cell_angle_alpha 119.637534
_cell_angle_beta 131.036934
_cell_angle_gamma 32.881279
_cell_volume 429.612592
_symmetry_space_group_name_H-M "P -1"
_symmetry_group_IT_number 2
_symmetry_cell_setting 'triclinic'
loop_
_space_group_symop_operation_xyz
x,y,z
-x,-y,-z
loop_
_atom_site_type_symbol
_atom_site_label
_atom_site_fract_x
_atom_site_fract_y
_atom_site_fract_z
Si Si1 0.192189 0.127728 0.385392
Si Si2 0.350766 0.871818 0.845618
Si Si3 0.296111 0.846193 0.525763
Si Si4 0.580036 0.666767 0.067105
Si Si5 0.528201 0.697780 0.245804
Si Si6 0.205495 0.400069 0.212132
O O1 0.129254 0.038159 0.420191
O O2 0.254582 0.959749 0.276374
O O3 0.500000 0.000000 0.500000
O O4 0.881090 0.516466 0.354888
O O5 0.379738 0.609981 0.792375
O O6 0.607760 0.766246 0.850623
O O7 0.415609 0.895857 0.976534
O O8 0.999034 0.232003 0.774870
O O9 0.500000 0.500000 0.500000
O O10 0.527634 0.818680 0.661109
O O11 0.000000 0.000000 0.500000
O O12 0.434239 0.857155 0.152895
O O13 0.959838 0.412132 0.140049
O O14 0.500000 0.500000 0.000000
#
# Coordination Sequence:
#
# PCOD8028448 Si02
#       6
#     2   2   2   2   2   2
#     4  12  25  43  66  97 135 179 227 281 341 407
#     4  11  24  44  71 100 137 181 230 285 345 411
#     4  12  25  43  69 101 135 178 230 283 340 405
#     4  10  25  46  71 104 141 184 232 285 348 416
#     4  11  24  44  66  96 136 179 225 280 341 407
#     4  12  24  44  70 102 139 183 231 288 345 410
#
# _framework density 27.932141999999999
#
# number of rings (size 3 to 8) (size 9 to 14) (size 15 to 20)
#    0.000    0.667    0.000    8.500    0.000    5.333 
#    0.000    9.167    0.000    0.000    0.000    0.000 
#    0.000    0.000    0.000    0.000    0.000    0.000 
#
# Total GULP energy -148669.121665 kJ/mol
# GULP energy per Si atom -12389.093472 kJ/mol
# Density = 2.786857 g / cm^3
# Si number density = 27.932142 Si / 1000 Ang^3
#
#
#
# Elastic Constant Matrix: (Units=GPa)
#
#
# Indices 1 2 3 4 5 6 
#
# 1 151.2849 20.1831 47.5872 -1.1822 -26.1179 -20.3314
# 2 20.1831 100.3101 16.5059 -12.5708 -28.0370 -30.6207
# 3 47.5872 16.5059 130.2861 -2.1439 -28.1600 -13.7714
# 4 -1.1822 -12.5708 -2.1439 41.2559 -10.9145 -8.4718
# 5 -26.1179 -28.0370 -28.1600 -10.9145 72.4228 -3.7833
# 6 -20.3314 -30.6207 -13.7714 -8.4718 -3.7833 46.5606
#
#
#
# Elastic Compliance Matrix: (Units=1/GPa)
#
#
# Indices 1 2 3 4 5 6 
#
# 1 0.008251 0.001261 -0.001942 0.002326 0.003297 0.004549
# 2 0.001261 0.019351 0.001524 0.012475 0.011302 0.016916
# 3 -0.001942 0.001524 0.009558 0.002812 0.004230 0.003837
# 4 0.002326 0.012475 0.002812 0.035291 0.012996 0.017529
# 5 0.003297 0.011302 0.004230 0.012996 0.023729 0.014417
# 6 0.004549 0.016916 0.003837 0.017529 0.014417 0.040084
#
#
# Mechanical properties :
#
#
# Convention : Reuss Voigt Hill
#
# Bulk Modulus (GPa) = 25.74238 61.15928 43.45083
# Shear Modulus (GPa) = 33.89230 51.88818 42.89024
#
# Velocity S-wave (km/s) = 3.48714 4.31472 3.92282
# Velocity P-wave (km/s) = 5.04476 6.83854 6.00896
#
# Compressibility (1/GPa) = 0.03884645
#
# Stress axis : x y z
#
# Youngs Moduli (GPa) = 121.19191 51.67764 104.62702
#
# Poissons Ratio (x) = -0.06517 0.20317
# Poissons Ratio (y) = -0.15283 -0.15946
# Poissons Ratio (z) = 0.23533 -0.07876
#
# Static dielectric constant tensor:
#      x y z
#    x 5.230880 -0.164600 0.189730 
#    y -0.164600 5.252740 -0.159530 
#    z 0.189730 -0.159530 5.728910 
# 
# 
# High freq. dielectric constant tensor:
#      x y z
#    x 2.157870 -0.000750 -0.011630 
#    y -0.000750 2.137770 -0.003490 
#    z -0.011630 -0.003490 2.145770 
# 
# From -- ./inp_files/197718.got.cif
#   From: 2010.06.25/outbox.cif.g09.slc.cpg/sg2_99_cif.got.tgz:197718.got - 2010.06.27 13:26:56.
