data_PCOD8028285
_publ_section_title
;
Structure prediction by ZEFSAII (Michael W. Deem and Ramdas Pophale) SiO2 
 PCOD8028285
Probable space group: P -1
;
_chemical_formula_sum "Si O2"
_cell_formula_units_Z 12
_cell_length_a 18.036068
_cell_length_b 12.011267
_cell_length_c 19.910269
_cell_angle_alpha 30.481734
_cell_angle_beta 158.856721
_cell_angle_gamma 159.143426
_cell_volume 552.306318
_symmetry_space_group_name_H-M "P -1"
_symmetry_group_IT_number 2
_symmetry_cell_setting 'triclinic'
loop_
_space_group_symop_operation_xyz
x,y,z
-x,-y,-z
loop_
_atom_site_type_symbol
_atom_site_label
_atom_site_fract_x
_atom_site_fract_y
_atom_site_fract_z
Si Si1 0.700070 0.631521 0.282254
Si Si2 0.239654 0.803242 0.435791
Si Si3 0.763967 0.675711 0.580737
Si Si4 0.600941 0.621850 0.698944
Si Si5 0.104770 0.670138 0.070774
Si Si6 0.425599 0.631130 0.922329
O O1 0.757199 0.431754 0.402928
O O2 0.493289 0.457771 0.262370
O O3 0.551685 0.667178 0.082722
O O4 0.002293 0.965404 0.388157
O O5 0.920112 0.596208 0.240625
O O6 0.500000 0.000000 0.500000
O O7 0.300130 0.053927 0.406589
O O8 0.500000 0.500000 0.500000
O O9 0.657865 0.646797 0.430447
O O10 0.891090 0.525854 0.770561
O O11 0.879212 0.678988 0.900359
O O12 0.425295 0.026065 0.152013
O O13 0.000000 0.500000 0.000000
O O14 0.500000 0.500000 0.000000
#
# Coordination Sequence:
#
# PCOD8028285 Si02
#       6
#     2   2   2   2   2   2
#     4  11  26  45  69 100 138 180 231 279 342 408
#     4  10  25  45  69 100 139 178 227 280 343 400
#     4  12  24  43  70  96 137 177 226 283 335 404
#     4  11  25  44  67 101 135 181 227 277 346 400
#     4  12  24  45  68 100 138 178 227 283 339 404
#     4  12  25  45  72 102 136 181 232 280 339 406
#
# _framework density 21.727073000000001
#
# number of rings (size 3 to 8) (size 9 to 14) (size 15 to 20)
#    0.000    0.667    5.000    1.500    2.333    6.667 
#    0.000    0.000    0.000    0.000    0.000    0.000 
#    0.000    0.000    0.000    0.000    0.000    0.000 
#
# Total GULP energy -148803.286866 kJ/mol
# GULP energy per Si atom -12400.273905 kJ/mol
# Density = 2.167762 g / cm^3
# Si number density = 21.727073 Si / 1000 Ang^3
#
#
#
# Elastic Constant Matrix: (Units=GPa)
#
#
# Indices 1 2 3 4 5 6 
#
# 1 72.0118 12.2388 17.9859 3.8415 7.2010 -4.6141
# 2 12.2388 135.7472 30.9443 5.9817 21.8658 -7.2918
# 3 17.9859 30.9443 105.8557 8.1084 21.7729 5.0795
# 4 3.8415 5.9817 8.1084 48.0421 -4.5969 -2.0589
# 5 7.2010 21.8658 21.7729 -4.5969 41.0933 -2.2775
# 6 -4.6141 -7.2918 5.0795 -2.0589 -2.2775 24.5013
#
#
#
# Elastic Compliance Matrix: (Units=1/GPa)
#
#
# Indices 1 2 3 4 5 6 
#
# 1 0.014865 -0.000460 -0.002255 -0.000727 -0.001082 0.002968
# 2 -0.000460 0.008543 -0.001737 -0.000967 -0.003520 0.002407
# 3 -0.002255 -0.001737 0.011827 -0.002294 -0.005430 -0.004091
# 4 -0.000727 -0.000967 -0.002294 0.021904 0.004436 0.002304
# 5 -0.001082 -0.003520 -0.005430 0.004436 0.029939 0.003030
# 6 0.002968 0.002407 -0.004091 0.002304 0.003030 0.043413
#
#
# Mechanical properties :
#
#
# Convention : Reuss Voigt Hill
#
# Bulk Modulus (GPa) = 37.97922 48.43918 43.20920
# Shear Modulus (GPa) = 33.74455 39.55705 36.65080
#
# Velocity S-wave (km/s) = 3.94523 4.27152 4.11161
# Velocity P-wave (km/s) = 6.18637 6.83159 6.51697
#
# Compressibility (1/GPa) = 0.02633019
#
# Stress axis : x y z
#
# Youngs Moduli (GPa) = 67.27061 117.05662 84.55458
#
# Poissons Ratio (x) = 0.05389 0.19071
# Poissons Ratio (y) = 0.03097 0.14683
# Poissons Ratio (z) = 0.15172 0.20327
#
# Static dielectric constant tensor:
#      x y z
#    x 3.856760 -0.183300 0.078220 
#    y -0.183300 4.503700 -0.364540 
#    z 0.078220 -0.364540 4.220410 
# 
# 
# High freq. dielectric constant tensor:
#      x y z
#    x 1.841150 -0.011320 0.009550 
#    y -0.011320 1.878600 -0.001860 
#    z 0.009550 -0.001860 1.866320 
# 
# From -- ./inp_files/29406.got.cif
#   From: 2010.06.25/outbox.cif.g09.slc.cpg/sg2_15_cif.got.tgz:29406.got - 2010.06.27 13:26:56.
