data_PCOD8028147
_publ_section_title
;
Structure prediction by ZEFSAII (Michael W. Deem and Ramdas Pophale) SiO2 
 PCOD8028147
Probable space group: P -1
;
_chemical_formula_sum "Si O2"
_cell_formula_units_Z 16
_cell_length_a 19.606480
_cell_length_b 8.204277
_cell_length_c 5.240626
_cell_angle_alpha 117.003287
_cell_angle_beta 107.836515
_cell_angle_gamma 57.841158
_cell_volume 633.515126
_symmetry_space_group_name_H-M "P -1"
_symmetry_group_IT_number 2
_symmetry_cell_setting 'triclinic'
loop_
_space_group_symop_operation_xyz
x,y,z
-x,-y,-z
loop_
_atom_site_type_symbol
_atom_site_label
_atom_site_fract_x
_atom_site_fract_y
_atom_site_fract_z
Si Si1 0.369812 0.222422 0.869565
Si Si2 0.113261 0.540921 0.159994
Si Si3 0.162050 0.869372 0.313170
Si Si4 0.958189 0.685001 0.392997
Si Si5 0.737790 0.168718 0.095755
Si Si6 0.719712 0.764617 0.741732
Si Si7 0.569045 0.501989 0.250655
Si Si8 0.510795 0.237186 0.233824
O O1 0.333558 0.222415 0.554526
O O2 0.428458 0.000704 0.896023
O O3 0.303422 0.323609 0.090470
O O4 0.435288 0.315294 0.985056
O O5 0.131075 0.698725 0.122175
O O6 0.188539 0.407096 0.340218
O O7 0.029079 0.686569 0.303964
O O8 0.106532 0.360174 0.866462
O O9 0.201132 0.852011 0.623679
O O10 0.086776 0.097192 0.360850
O O11 0.223885 0.839746 0.140132
O O12 0.000000 0.500000 0.500000
O O13 0.661302 0.398110 0.181092
O O14 0.710634 0.990146 0.950929
O O15 0.567906 0.347044 0.365461
O O16 0.538676 0.719206 0.521803
O O17 0.500000 0.500000 0.000000
#
# Coordination Sequence:
#
# PCOD8028147 Si02
#       8
#     2   2   2   2   2   2   2   2
#     4  11  26  44  74 103 144 194 254 311 373 445
#     4  11  28  48  78 118 150 198 251 307 375 454
#     4  12  29  50  79 113 155 194 254 306 374 449
#     4  11  26  52  82 112 155 201 243 309 378 454
#     4  12  27  49  72 109 150 201 248 312 376 447
#     4  12  25  47  74 105 151 196 246 313 378 444
#     4  11  25  43  70  97 148 198 247 312 380 439
#     4  10  25  44  66 106 139 196 254 314 373 445
#
# _framework density 25.255908999999999
#
# number of rings (size 3 to 8) (size 9 to 14) (size 15 to 20)
#    0.000    0.750    2.500    2.625   12.250    1.500 
#    0.000    0.000    0.000    0.000    0.000    0.000 
#    0.000    0.000    0.000    0.000    0.000    0.000 
#
# Total GULP energy -198351.243070 kJ/mol
# GULP energy per Si atom -12396.952692 kJ/mol
# Density = 2.519843 g / cm^3
# Si number density = 25.255909 Si / 1000 Ang^3
#
#
#
# Elastic Constant Matrix: (Units=GPa)
#
#
# Indices 1 2 3 4 5 6 
#
# 1 133.8836 25.9628 36.0379 5.6964 2.6243 -1.6928
# 2 25.9628 94.0805 11.0226 1.5978 -1.0617 -29.5981
# 3 36.0379 11.0226 99.7311 -6.3050 -8.6032 -20.1068
# 4 5.6964 1.5978 -6.3050 42.6277 -7.0456 -2.6964
# 5 2.6243 -1.0617 -8.6032 -7.0456 36.0314 1.1062
# 6 -1.6928 -29.5981 -20.1068 -2.6964 1.1062 42.2031
#
#
#
# Elastic Compliance Matrix: (Units=1/GPa)
#
#
# Indices 1 2 3 4 5 6 
#
# 1 0.009321 -0.003341 -0.004142 -0.002335 -0.002099 -0.004037
# 2 -0.003341 0.014859 0.001994 0.001066 0.001020 0.011279
# 3 -0.004142 0.001994 0.013446 0.003627 0.004042 0.007765
# 4 -0.002335 0.001066 0.003627 0.025492 0.005934 0.003855
# 5 -0.002099 0.001020 0.004042 0.005934 0.029996 0.002149
# 6 -0.004037 0.011279 0.007765 0.003855 0.002149 0.035332
#
#
# Mechanical properties :
#
#
# Convention : Reuss Voigt Hill
#
# Bulk Modulus (GPa) = 37.52284 52.63797 45.08040
# Shear Modulus (GPa) = 33.71375 41.15056 37.43216
#
# Velocity S-wave (km/s) = 3.65757 4.04089 3.85400
# Velocity P-wave (km/s) = 5.72070 6.53137 6.13943
#
# Compressibility (1/GPa) = 0.02665044
#
# Stress axis : x y z
#
# Youngs Moduli (GPa) = 107.28093 67.29807 74.36910
#
# Poissons Ratio (x) = 0.22485 0.30800
# Poissons Ratio (y) = 0.35843 -0.14831
# Poissons Ratio (z) = 0.44431 -0.13421
#
# Static dielectric constant tensor:
#      x y z
#    x 7.239550 0.594170 0.681120 
#    y 0.594170 5.124090 0.342000 
#    z 0.681120 0.342000 5.198690 
# 
# 
# High freq. dielectric constant tensor:
#      x y z
#    x 2.031650 0.001760 0.002100 
#    y 0.001760 2.023580 0.004290 
#    z 0.002100 0.004290 2.006930 
# 
# From -- ./inp_files/117442.got.cif
#   From: 2010.06.25/outbox.cif.g09.slc.cpg/sg2_59_cif.got.tgz:117442.got - 2010.06.27 13:26:56.
