data_PCOD8028482
_publ_section_title
;
Structure prediction by ZEFSAII (Michael W. Deem and Ramdas Pophale) SiO2 
 PCOD8028482
Probable space group: P -1
;
_chemical_formula_sum "Si O2"
_cell_formula_units_Z 10
_cell_length_a 10.473127
_cell_length_b 8.726296
_cell_length_c 12.787046
_cell_angle_alpha 52.063193
_cell_angle_beta 131.219676
_cell_angle_gamma 87.060402
_cell_volume 442.904719
_symmetry_space_group_name_H-M "P -1"
_symmetry_group_IT_number 2
_symmetry_cell_setting 'triclinic'
loop_
_space_group_symop_operation_xyz
x,y,z
-x,-y,-z
loop_
_atom_site_type_symbol
_atom_site_label
_atom_site_fract_x
_atom_site_fract_y
_atom_site_fract_z
Si Si1 0.746545 0.163304 0.729220
Si Si2 0.852306 0.200270 0.539904
Si Si3 0.572688 0.241756 0.210579
Si Si4 0.409327 0.888029 0.942665
Si Si5 0.272897 0.232743 0.195898
O O1 0.500000 0.500000 0.500000
O O2 0.769317 0.190876 0.609065
O O3 0.724106 0.948767 0.809358
O O4 0.000000 0.000000 0.000000
O O5 0.837545 0.042072 0.509607
O O6 0.631131 0.538713 0.235986
O O7 0.132122 0.055951 0.766996
O O8 0.629231 0.037274 0.234059
O O9 0.336102 0.370982 0.103888
O O10 0.500000 0.500000 0.000000
O O11 0.500000 0.000000 0.000000
O O12 0.500000 0.000000 0.500000
O O13 0.000000 0.500000 0.000000
#
# Coordination Sequence:
#
# PCOD8028482 Si02
#       5
#     2   2   2   2   2
#     4  12  27  46  73 105 150 189 239 303 367 424
#     4  11  24  45  70  98 144 186 240 295 358 427
#     4  10  25  46  75 103 144 190 243 296 359 431
#     4  11  25  44  70 104 138 185 240 299 359 426
#     4  12  27  48  76 108 145 193 248 298 361 439
#
# _framework density 22.578219000000001
#
# number of rings (size 3 to 8) (size 9 to 14) (size 15 to 20)
#    0.000    0.800    2.000    3.600   11.200    3.200 
#    0.000    0.000    0.000    0.000    0.000    0.000 
#    0.000    0.000    0.000    0.000    0.000    0.000 
#
# Total GULP energy -123923.721575 kJ/mol
# GULP energy per Si atom -12392.372158 kJ/mol
# Density = 2.252683 g / cm^3
# Si number density = 22.578219 Si / 1000 Ang^3
#
#
#
# Elastic Constant Matrix: (Units=GPa)
#
#
# Indices 1 2 3 4 5 6 
#
# 1 171.4842 45.2377 49.5272 11.5130 -2.0656 4.0759
# 2 45.2377 166.6717 55.8910 35.6868 5.7461 2.8179
# 3 49.5272 55.8910 151.1590 21.2163 11.9593 2.5566
# 4 11.5130 35.6868 21.2163 53.9382 -8.6157 3.4558
# 5 -2.0656 5.7461 11.9593 -8.6157 44.5053 9.8701
# 6 4.0759 2.8179 2.5566 3.4558 9.8701 36.7097
#
#
#
# Elastic Compliance Matrix: (Units=1/GPa)
#
#
# Indices 1 2 3 4 5 6 
#
# 1 0.006725 -0.001322 -0.001860 0.000430 0.001265 -0.000896
# 2 -0.001322 0.007978 -0.001751 -0.004602 -0.001629 0.000527
# 3 -0.001860 -0.001751 0.008385 -0.002218 -0.002696 0.000691
# 4 0.000430 -0.004602 -0.002218 0.023640 0.006570 -0.003532
# 5 0.001265 -0.001629 -0.002696 0.006570 0.026408 -0.007546
# 6 -0.000896 0.000527 0.000691 -0.003532 -0.007546 0.029613
#
#
# Mechanical properties :
#
#
# Convention : Reuss Voigt Hill
#
# Bulk Modulus (GPa) = 75.62826 87.84743 81.73784
# Shear Modulus (GPa) = 42.72629 49.60793 46.16711
#
# Velocity S-wave (km/s) = 4.35485 4.69247 4.52681
# Velocity P-wave (km/s) = 7.67171 8.26750 7.97517
#
# Compressibility (1/GPa) = 0.01322257
#
# Stress axis : x y z
#
# Youngs Moduli (GPa) = 148.69793 125.33884 119.25709
#
# Poissons Ratio (x) = 0.16572 0.22180
# Poissons Ratio (y) = 0.19661 0.20881
# Poissons Ratio (z) = 0.27656 0.21946
#
# Static dielectric constant tensor:
#      x y z
#    x 4.440580 -0.114450 -0.146270 
#    y -0.114450 7.287240 1.324870 
#    z -0.146270 1.324870 4.299360 
# 
# 
# High freq. dielectric constant tensor:
#      x y z
#    x 1.901750 -0.001960 -0.002410 
#    y -0.001960 1.905810 0.025350 
#    z -0.002410 0.025350 1.897050 
# 
# From -- ./inp_files/16563.got.cif
#   From: 2010.06.25/outbox.cif.g09.slc.cpg/sg2_9_cif.got.tgz:16563.got - 2010.06.27 13:26:56.
