data_PCOD8028028
_publ_section_title
;
Structure prediction by ZEFSAII (Michael W. Deem and Ramdas Pophale) SiO2 
 PCOD8028028
Probable space group: P -1
;
_chemical_formula_sum "Si O2"
_cell_formula_units_Z 16
_cell_length_a 19.828584
_cell_length_b 8.232563
_cell_length_c 11.943228
_cell_angle_alpha 84.275386
_cell_angle_beta 150.020332
_cell_angle_gamma 76.782839
_cell_volume 749.919336
_symmetry_space_group_name_H-M "P -1"
_symmetry_group_IT_number 2
_symmetry_cell_setting 'triclinic'
loop_
_space_group_symop_operation_xyz
x,y,z
-x,-y,-z
loop_
_atom_site_type_symbol
_atom_site_label
_atom_site_fract_x
_atom_site_fract_y
_atom_site_fract_z
Si Si1 0.374586 0.742726 0.442305
Si Si2 0.961585 0.853345 0.005613
Si Si3 0.857480 0.396192 0.918944
Si Si4 0.711515 0.422404 0.073691
Si Si5 0.932243 0.323798 0.592715
Si Si6 0.532013 0.823332 0.478540
Si Si7 0.008088 0.341050 0.365494
Si Si8 0.770168 0.008342 0.119173
O O1 0.269112 0.659062 0.277334
O O2 0.475778 0.705726 0.475800
O O3 0.510221 0.616183 0.747863
O O4 0.244846 0.992291 0.272096
O O5 0.018431 0.675796 0.006522
O O6 0.077172 0.733974 0.290437
O O7 0.000000 0.000000 0.000000
O O8 0.735532 0.649430 0.747595
O O9 0.981146 0.272855 0.212300
O O10 0.752265 0.412181 0.265137
O O11 0.759999 0.205743 0.117933
O O12 0.833873 0.457882 0.181617
O O13 0.955874 0.498402 0.613959
O O14 0.093043 0.113858 0.776325
O O15 0.500000 0.000000 0.500000
O O16 0.415517 0.922186 0.192115
O O17 0.172321 0.133510 0.677853
#
# Coordination Sequence:
#
# PCOD8028028 Si02
#       8
#     2   2   2   2   2   2   2   2
#     4  11  22  41  63  96 121 169 213 264 310 371
#     4  10  25  42  67  88 130 174 215 258 311 389
#     4  11  23  43  63  92 128 167 214 260 316 381
#     4  11  22  37  67  94 129 163 214 270 312 377
#     4  11  23  41  60  96 130 170 209 258 328 377
#     4  12  23  37  66  97 132 158 213 271 315 368
#     4  11  23  37  64  94 133 162 207 267 325 371
#     4  11  22  37  63  97 127 164 213 262 322 369
#
# _framework density 21.335628
#
# number of rings (size 3 to 8) (size 9 to 14) (size 15 to 20)
#    0.000    1.000    3.750    4.875    7.000    0.500 
#    0.000    3.750    0.000    1.500    0.000    0.000 
#    0.000    0.000    0.000    0.000    0.000    0.000 
#
# Total GULP energy -198421.988321 kJ/mol
# GULP energy per Si atom -12401.374270 kJ/mol
# Density = 2.128707 g / cm^3
# Si number density = 21.335628 Si / 1000 Ang^3
#
#
#
# Elastic Constant Matrix: (Units=GPa)
#
#
# Indices 1 2 3 4 5 6 
#
# 1 91.7894 37.3490 58.6924 -2.8252 -35.9446 -21.5757
# 2 37.3490 85.4172 48.4743 -11.1526 -10.8380 -6.8931
# 3 58.6924 48.4743 155.7416 -1.2224 -41.3835 -18.5269
# 4 -2.8252 -11.1526 -1.2224 29.3176 -9.3499 4.2150
# 5 -35.9446 -10.8380 -41.3835 -9.3499 37.7556 1.4318
# 6 -21.5757 -6.8931 -18.5269 4.2150 1.4318 40.0809
#
#
#
# Elastic Compliance Matrix: (Units=1/GPa)
#
#
# Indices 1 2 3 4 5 6 
#
# 1 0.025554 -0.006538 0.000029 0.005866 0.023512 0.011188
# 2 -0.006538 0.016762 -0.004414 0.004375 -0.005055 -0.002956
# 3 0.000029 -0.004414 0.011310 0.001900 0.011482 0.003875
# 4 0.005866 0.004375 0.001900 0.042698 0.019513 -0.000399
# 5 0.023512 -0.005055 0.011482 0.019513 0.064353 0.012743
# 6 0.011188 -0.002956 0.003875 -0.000399 0.012743 0.031841
#
#
# Mechanical properties :
#
#
# Convention : Reuss Voigt Hill
#
# Bulk Modulus (GPa) = 31.46532 69.10885 50.28708
# Shear Modulus (GPa) = 22.22644 33.99299 28.10972
#
# Velocity S-wave (km/s) = 3.23112 3.99588 3.63368
# Velocity P-wave (km/s) = 5.35724 7.33151 6.42071
#
# Compressibility (1/GPa) = 0.03178102
#
# Stress axis : x y z
#
# Youngs Moduli (GPa) = 39.13350 59.65819 88.41425
#
# Poissons Ratio (x) = 0.39004 -0.00259
# Poissons Ratio (y) = 0.25585 0.39025
# Poissons Ratio (z) = -0.00115 0.26332
#
# Static dielectric constant tensor:
#      x y z
#    x 4.160530 -0.582110 0.099230 
#    y -0.582110 4.483550 -0.483680 
#    z 0.099230 -0.483680 4.629480 
# 
# 
# High freq. dielectric constant tensor:
#      x y z
#    x 1.809360 0.002100 -0.022630 
#    y 0.002100 1.846380 0.002420 
#    z -0.022630 0.002420 1.845940 
# 
# From -- ./inp_files/469422.got.cif
#   From: 2010.06.25/outbox.cif.g09.slc.cpg/sg2_235_cif.got.tgz:469422.got - 2010.06.27 13:26:56.
