data_PCOD8028605
_publ_section_title
;
Structure prediction by ZEFSAII (Michael W. Deem and Ramdas Pophale) SiO2 
 PCOD8028605
Probable space group: P -1
;
_chemical_formula_sum "Si O2"
_cell_formula_units_Z 16
_cell_length_a 15.081969
_cell_length_b 9.812167
_cell_length_c 9.149127
_cell_angle_alpha 31.577849
_cell_angle_beta 88.093875
_cell_angle_gamma 101.134027
_cell_volume 642.058531
_symmetry_space_group_name_H-M "P -1"
_symmetry_group_IT_number 2
_symmetry_cell_setting 'triclinic'
loop_
_space_group_symop_operation_xyz
x,y,z
-x,-y,-z
loop_
_atom_site_type_symbol
_atom_site_label
_atom_site_fract_x
_atom_site_fract_y
_atom_site_fract_z
Si Si1 0.338049 0.972190 0.909147
Si Si2 0.706974 0.508011 0.106953
Si Si3 0.085191 0.931909 0.621118
Si Si4 0.774379 0.680902 0.516671
Si Si5 0.372373 0.060142 0.168985
Si Si6 0.064720 0.333174 0.679807
Si Si7 0.558657 0.151321 0.216289
Si Si8 0.900129 0.525207 0.139550
O O1 0.310663 0.636283 0.177635
O O2 0.373510 0.024254 0.025857
O O3 0.419720 0.081522 0.674553
O O4 0.258560 0.100382 0.769296
O O5 0.654984 0.418009 0.032944
O O6 0.826135 0.632295 0.959927
O O7 0.674033 0.244068 0.465722
O O8 0.688449 0.761361 0.950026
O O9 0.128583 0.796288 0.619950
O O10 0.180832 0.181308 0.456565
O O11 0.000000 0.000000 0.500000
O O12 0.018644 0.699770 0.958929
O O13 0.858405 0.617356 0.494899
O O14 0.485732 0.244869 0.040777
O O15 0.127624 0.472688 0.692622
O O16 0.000000 0.500000 0.500000
O O17 0.000000 0.000000 0.000000
O O18 0.500000 0.000000 0.500000
#
# Coordination Sequence:
#
# PCOD8028605 Si02
#       8
#     2   2   2   2   2   2   2   2
#     4  12  26  46  74 105 142 183 231 294 342 425
#     4  11  25  44  71 103 139 181 232 290 343 415
#     4  11  26  43  65  96 140 186 233 285 336 413
#     4  12  27  46  70 105 141 183 237 284 349 401
#     4  11  24  47  72 104 139 177 231 284 355 421
#     4  12  24  43  67  96 135 186 232 283 336 396
#     4  10  25  48  75 106 141 182 228 287 360 424
#     4  11  25  42  66  98 134 185 232 282 344 400
#
# _framework density 24.919847000000001
#
# number of rings (size 3 to 8) (size 9 to 14) (size 15 to 20)
#    0.000    0.750    1.250    5.250    7.000    4.000 
#    0.000    4.375    0.000    0.000    0.000    0.000 
#    0.000    0.000    0.000    0.000    0.000    0.000 
#
# Total GULP energy -198271.724705 kJ/mol
# GULP energy per Si atom -12391.982794 kJ/mol
# Density = 2.486313 g / cm^3
# Si number density = 24.919847 Si / 1000 Ang^3
#
#
#
# Elastic Constant Matrix: (Units=GPa)
#
#
# Indices 1 2 3 4 5 6 
#
# 1 147.9101 64.1610 29.7534 -11.1372 20.9959 5.6378
# 2 64.1610 210.2036 42.1481 -3.5585 23.3044 6.5061
# 3 29.7534 42.1481 76.5229 -12.7997 29.4881 3.7173
# 4 -11.1372 -3.5585 -12.7997 35.1903 -0.8089 7.3347
# 5 20.9959 23.3044 29.4881 -0.8089 40.8785 -1.7492
# 6 5.6378 6.5061 3.7173 7.3347 -1.7492 59.2645
#
#
#
# Elastic Compliance Matrix: (Units=1/GPa)
#
#
# Indices 1 2 3 4 5 6 
#
# 1 0.008373 -0.002062 -0.000674 0.002322 -0.002631 -0.000893
# 2 -0.002062 0.005921 -0.002344 -0.000876 -0.000652 -0.000218
# 3 -0.000674 -0.002344 0.021207 0.007437 -0.013567 -0.002329
# 4 0.002322 -0.000876 0.007437 0.032639 -0.005617 -0.004796
# 5 -0.002631 -0.000652 -0.013567 -0.005617 0.035987 0.002930
# 6 -0.000893 -0.000218 -0.002329 -0.004796 0.002930 0.017809
#
#
# Mechanical properties :
#
#
# Convention : Reuss Voigt Hill
#
# Bulk Modulus (GPa) = 39.46373 78.52906 58.99639
# Shear Modulus (GPa) = 35.57647 46.97162 41.27404
#
# Velocity S-wave (km/s) = 3.78251 4.34626 4.07415
# Velocity P-wave (km/s) = 5.91161 7.53444 6.77181
#
# Compressibility (1/GPa) = 0.02533972
#
# Stress axis : x y z
#
# Youngs Moduli (GPa) = 119.42736 168.89348 47.15525
#
# Poissons Ratio (x) = 0.34825 0.03180
# Poissons Ratio (y) = 0.24625 0.11054
# Poissons Ratio (z) = 0.08054 0.39591
#
# Static dielectric constant tensor:
#      x y z
#    x 6.418300 0.140800 -1.285640 
#    y 0.140800 4.918440 0.092320 
#    z -1.285640 0.092320 5.440610 
# 
# 
# High freq. dielectric constant tensor:
#      x y z
#    x 2.011560 -0.006230 -0.004110 
#    y -0.006230 2.014940 0.008960 
#    z -0.004110 0.008960 1.987860 
# 
# From -- ./inp_files/297290.got.cif
#   From: 2010.06.25/outbox.cif.g09.slc.cpg/sg2_149_cif.got.tgz:297290.got - 2010.06.27 13:26:56.
