data_PCOD8028902
_publ_section_title
;
Structure prediction by ZEFSAII (Michael W. Deem and Ramdas Pophale) SiO2 
 PCOD8028902
Probable space group: P -1
;
_chemical_formula_sum "Si O2"
_cell_formula_units_Z 16
_cell_length_a 11.319918
_cell_length_b 12.266574
_cell_length_c 11.980620
_cell_angle_alpha 134.803861
_cell_angle_beta 62.624088
_cell_angle_gamma 81.334769
_cell_volume 689.228369
_symmetry_space_group_name_H-M "P -1"
_symmetry_group_IT_number 2
_symmetry_cell_setting 'triclinic'
loop_
_space_group_symop_operation_xyz
x,y,z
-x,-y,-z
loop_
_atom_site_type_symbol
_atom_site_label
_atom_site_fract_x
_atom_site_fract_y
_atom_site_fract_z
Si Si1 0.201566 0.971931 0.699721
Si Si2 0.345376 0.039505 0.018902
Si Si3 0.891877 0.667044 0.862074
Si Si4 0.153710 0.605782 0.204539
Si Si5 0.844682 0.769590 0.297317
Si Si6 0.310305 0.328092 0.551618
Si Si7 0.627361 0.482331 0.156896
Si Si8 0.097511 0.003371 0.232512
O O1 0.388453 0.693241 0.433544
O O2 0.000274 0.042877 0.836442
O O3 0.239586 0.055931 0.640727
O O4 0.193374 0.091606 0.894629
O O5 0.483843 0.825069 0.716098
O O6 0.500000 0.000000 0.000000
O O7 0.184753 0.287308 0.199797
O O8 0.201631 0.052025 0.158819
O O9 0.799198 0.607790 0.930160
O O10 0.133074 0.459040 0.630473
O O11 0.962046 0.786917 0.336602
O O12 0.095228 0.769063 0.448854
O O13 0.345007 0.489351 0.963451
O O14 0.669498 0.842095 0.501187
O O15 0.000000 0.500000 0.000000
O O16 0.263483 0.507186 0.787819
O O17 0.720798 0.231033 0.944574
#
# Coordination Sequence:
#
# PCOD8028902 Si02
#       8
#     2   2   2   2   2   2   2   2
#     4  12  24  42  74 113 142 184 239 296 363 426
#     4  12  29  49  74 102 141 193 246 293 346 433
#     4  11  23  46  76 108 136 186 243 297 356 409
#     4  11  23  44  74 103 150 188 228 303 357 421
#     4  11  18  39  73 106 146 178 230 298 359 413
#     4  11  22  43  73 107 143 186 236 294 346 427
#     4  12  24  43  72 111 144 187 239 283 364 431
#     4  12  28  50  66 102 157 192 230 296 360 420
#
# _framework density 23.214365999999998
#
# number of rings (size 3 to 8) (size 9 to 14) (size 15 to 20)
#    0.000    0.500    7.500    1.875    1.750    6.500 
#    0.000    0.000    0.000    0.000    0.000    0.000 
#    0.000    0.000    0.000    0.000    0.000    0.000 
#
# Total GULP energy -198264.112548 kJ/mol
# GULP energy per Si atom -12391.507034 kJ/mol
# Density = 2.316153 g / cm^3
# Si number density = 23.214366 Si / 1000 Ang^3
#
#
#
# Elastic Constant Matrix: (Units=GPa)
#
#
# Indices 1 2 3 4 5 6 
#
# 1 86.2282 51.2557 13.3447 7.9413 -5.9862 -12.1431
# 2 51.2557 96.3165 13.2502 7.7427 -19.0418 -9.0143
# 3 13.3447 13.2502 82.7678 4.7994 -4.0227 5.1553
# 4 7.9413 7.7427 4.7994 31.8637 -2.9538 -1.6104
# 5 -5.9862 -19.0418 -4.0227 -2.9538 29.1521 2.9719
# 6 -12.1431 -9.0143 5.1553 -1.6104 2.9719 29.6264
#
#
#
# Elastic Compliance Matrix: (Units=1/GPa)
#
#
# Indices 1 2 3 4 5 6 
#
# 1 0.018161 -0.009455 -0.001782 -0.002019 -0.003418 0.005110
# 2 -0.009455 0.017474 -0.000812 -0.000883 0.009209 0.000611
# 3 -0.001782 -0.000812 0.012843 -0.001364 0.001084 -0.003395
# 4 -0.002019 -0.000883 -0.001364 0.032532 0.002045 0.000704
# 5 -0.003418 0.009209 0.001084 0.002045 0.040249 -0.002714
# 6 0.005110 0.000611 -0.003395 0.000704 -0.002714 0.036936
#
#
# Mechanical properties :
#
#
# Convention : Reuss Voigt Hill
#
# Bulk Modulus (GPa) = 41.01675 46.77926 43.89801
# Shear Modulus (GPa) = 26.25778 30.62591 28.44185
#
# Velocity S-wave (km/s) = 3.36683 3.63611 3.50406
# Velocity P-wave (km/s) = 5.72897 6.15005 5.94324
#
# Compressibility (1/GPa) = 0.02438028
#
# Stress axis : x y z
#
# Youngs Moduli (GPa) = 55.06223 57.22677 77.86600
#
# Poissons Ratio (x) = 0.54106 0.13875
# Poissons Ratio (y) = 0.52060 0.06326
# Poissons Ratio (z) = 0.09812 0.04649
#
# Static dielectric constant tensor:
#      x y z
#    x 4.235070 -0.253010 0.130200 
#    y -0.253010 4.289130 -0.114650 
#    z 0.130200 -0.114650 4.155630 
# 
# 
# High freq. dielectric constant tensor:
#      x y z
#    x 1.912900 -0.009480 0.000200 
#    y -0.009480 1.910800 0.003180 
#    z 0.000200 0.003180 1.913360 
# 
# From -- ./inp_files/428889.got.cif
#   From: 2010.06.25/outbox.cif.g09.slc.cpg/sg2_215_cif.got.tgz:428889.got - 2010.06.27 13:26:56.
