data_PCOD8028148
_publ_section_title
;
Structure prediction by ZEFSAII (Michael W. Deem and Ramdas Pophale) SiO2 
 PCOD8028148
Probable space group: P -1
;
_chemical_formula_sum "Si O2"
_cell_formula_units_Z 16
_cell_length_a 26.322598
_cell_length_b 8.907524
_cell_length_c 14.666580
_cell_angle_alpha 52.450546
_cell_angle_beta 158.251376
_cell_angle_gamma 139.181275
_cell_volume 768.400330
_symmetry_space_group_name_H-M "P -1"
_symmetry_group_IT_number 2
_symmetry_cell_setting 'triclinic'
loop_
_space_group_symop_operation_xyz
x,y,z
-x,-y,-z
loop_
_atom_site_type_symbol
_atom_site_label
_atom_site_fract_x
_atom_site_fract_y
_atom_site_fract_z
Si Si1 0.801524 0.277916 0.454912
Si Si2 0.904870 0.680924 0.777301
Si Si3 0.017266 0.036353 0.365610
Si Si4 0.261374 0.355401 0.814796
Si Si5 0.935371 0.606091 0.286161
Si Si6 0.231646 0.790914 0.366081
Si Si7 0.479101 0.649635 0.337269
Si Si8 0.628257 0.734543 0.358130
O O1 0.767114 0.447009 0.284895
O O2 0.790107 0.307346 0.531860
O O3 0.998656 0.384792 0.709789
O O4 0.660266 0.986766 0.298351
O O5 0.771727 0.382975 0.648555
O O6 0.804200 0.769186 0.619528
O O7 0.999696 0.805008 0.791371
O O8 0.061780 0.776139 0.074466
O O9 0.838870 0.857342 0.195901
O O10 0.048748 0.883668 0.411142
O O11 0.193317 0.225168 0.651638
O O12 0.474616 0.512971 0.117508
O O13 0.000000 0.500000 0.500000
O O14 0.724440 0.467627 0.980510
O O15 0.416394 0.071310 0.555364
O O16 0.500000 0.500000 0.500000
O O17 0.570771 0.655572 0.396080
#
# Coordination Sequence:
#
# PCOD8028148 Si02
#       8
#     2   2   2   2   2   2   2   2
#     4  11  22  41  65  95 127 166 211 262 323 380
#     4  11  23  45  64  94 126 171 214 261 324 381
#     4  11  22  41  63  90 131 173 208 262 320 382
#     4  11  23  41  62  97 129 172 207 265 321 380
#     4  12  23  41  66  98 130 170 216 268 323 380
#     4  10  25  44  66  91 130 166 211 270 319 381
#     4  11  25  44  67  94 130 170 219 266 319 385
#     4  11  24  39  67  96 127 164 217 263 317 384
#
# _framework density 20.822479999999999
#
# number of rings (size 3 to 8) (size 9 to 14) (size 15 to 20)
#    0.000    1.000    5.000    1.125    1.750    3.500 
#    0.000    0.625    0.000    0.000    0.000    0.000 
#    0.000    0.000    0.000    0.000    0.000    0.000 
#
# Total GULP energy -198337.113646 kJ/mol
# GULP energy per Si atom -12396.069603 kJ/mol
# Density = 2.077509 g / cm^3
# Si number density = 20.822480 Si / 1000 Ang^3
#
#
#
# Elastic Constant Matrix: (Units=GPa)
#
#
# Indices 1 2 3 4 5 6 
#
# 1 59.4100 25.6709 17.4857 5.2172 7.4351 6.1948
# 2 25.6709 111.7255 46.4015 8.3580 -3.7213 -0.8191
# 3 17.4857 46.4015 100.3243 4.7611 -3.1983 -1.1224
# 4 5.2172 8.3580 4.7611 29.8873 -6.1907 -5.2320
# 5 7.4351 -3.7213 -3.1983 -6.1907 25.0981 0.0430
# 6 6.1948 -0.8191 -1.1224 -5.2320 0.0430 38.4655
#
#
#
# Elastic Compliance Matrix: (Units=1/GPa)
#
#
# Indices 1 2 3 4 5 6 
#
# 1 0.020981 -0.003986 -0.001899 -0.004668 -0.008193 -0.004145
# 2 -0.003986 0.012002 -0.004720 -0.001392 0.002015 0.000568
# 3 -0.001899 -0.004720 0.012532 0.000061 0.001474 0.000578
# 4 -0.004668 -0.001392 0.000061 0.037857 0.010512 0.005861
# 5 -0.008193 0.002015 0.001474 0.010512 0.045345 0.002784
# 6 -0.004145 0.000568 0.000578 0.005861 0.002784 0.027488
#
#
# Mechanical properties :
#
#
# Convention : Reuss Voigt Hill
#
# Bulk Modulus (GPa) = 41.14364 50.06402 45.60383
# Shear Modulus (GPa) = 26.95175 30.81695 28.88435
#
# Velocity S-wave (km/s) = 3.60162 3.85123 3.72852
# Velocity P-wave (km/s) = 6.09079 6.62355 6.36275
#
# Compressibility (1/GPa) = 0.02430509
#
# Stress axis : x y z
#
# Youngs Moduli (GPa) = 47.66229 83.31992 79.79459
#
# Poissons Ratio (x) = 0.33212 0.15155
# Poissons Ratio (y) = 0.18998 0.37661
# Poissons Ratio (z) = 0.09052 0.39325
#
# Static dielectric constant tensor:
#      x y z
#    x 3.770010 0.098890 -0.109590 
#    y 0.098890 4.140100 0.142340 
#    z -0.109590 0.142340 3.619700 
# 
# 
# High freq. dielectric constant tensor:
#      x y z
#    x 1.814680 0.003190 -0.011430 
#    y 0.003190 1.835240 0.007480 
#    z -0.011430 0.007480 1.800460 
# 
# From -- ./inp_files/206425.got.cif
#   From: 2010.06.25/outbox.cif.g09.slc.cpg/sg2_104_cif.got.tgz:206425.got - 2010.06.27 13:26:56.
