data_PCOD8028229
_publ_section_title
;
Structure prediction by ZEFSAII (Michael W. Deem and Ramdas Pophale) SiO2 
 PCOD8028229
Probable space group: P -1
;
_chemical_formula_sum "Si O2"
_cell_formula_units_Z 14
_cell_length_a 11.412637
_cell_length_b 5.379657
_cell_length_c 12.075017
_cell_angle_alpha 74.788006
_cell_angle_beta 128.420954
_cell_angle_gamma 107.996017
_cell_volume 549.943176
_symmetry_space_group_name_H-M "P -1"
_symmetry_group_IT_number 2
_symmetry_cell_setting 'triclinic'
loop_
_space_group_symop_operation_xyz
x,y,z
-x,-y,-z
loop_
_atom_site_type_symbol
_atom_site_label
_atom_site_fract_x
_atom_site_fract_y
_atom_site_fract_z
Si Si1 0.569510 0.739916 0.093845
Si Si2 0.847425 0.618362 0.998935
Si Si3 0.622110 0.241797 0.581541
Si Si4 0.879746 0.610481 0.265553
Si Si5 0.873663 0.129672 0.470088
Si Si6 0.820948 0.162588 0.889892
Si Si7 0.593340 0.668861 0.366667
O O1 0.753684 0.797081 0.184395
O O2 0.531111 0.641913 0.208407
O O3 0.500000 0.500000 0.000000
O O4 0.500000 0.000000 0.000000
O O5 0.884522 0.516234 0.153189
O O6 0.997257 0.750357 0.002555
O O7 0.754501 0.367462 0.906945
O O8 0.757763 0.862568 0.929996
O O9 0.773894 0.170146 0.732280
O O10 0.672315 0.428686 0.482601
O O11 0.549691 0.363311 0.630935
O O12 0.500000 0.000000 0.500000
O O13 0.827815 0.358462 0.342269
O O14 0.047935 0.761646 0.380899
O O15 0.717320 0.933077 0.427629
O O16 0.000000 0.000000 0.500000
#
# Coordination Sequence:
#
# PCOD8028229 Si02
#       7
#     2   2   2   2   2   2   2
#     4  12  29  48  77 112 159 204 252 317 386 472
#     4  10  25  44  74 105 151 188 251 310 380 461
#     4  11  29  46  78 103 147 203 252 323 374 453
#     4  11  27  44  77 114 144 208 246 319 391 450
#     4  11  25  47  76 110 152 189 260 313 377 457
#     4  10  25  46  70 109 144 197 249 313 376 444
#     4  11  28  50  73 109 147 200 260 314 383 453
#
# _framework density 25.457173000000001
#
# number of rings (size 3 to 8) (size 9 to 14) (size 15 to 20)
#    0.000    1.143    1.429    0.857   18.000    1.143 
#    0.000    0.000    0.000    0.000    0.000    0.000 
#    0.000    0.000    0.000    0.000    0.000    0.000 
#
# Total GULP energy -173526.346216 kJ/mol
# GULP energy per Si atom -12394.739015 kJ/mol
# Density = 2.539923 g / cm^3
# Si number density = 25.457173 Si / 1000 Ang^3
#
#
#
# Elastic Constant Matrix: (Units=GPa)
#
#
# Indices 1 2 3 4 5 6 
#
# 1 55.6502 18.3163 25.1183 -4.7860 -11.7542 -0.9268
# 2 18.3163 185.0218 94.9569 -5.0676 -10.2474 -13.5358
# 3 25.1183 94.9569 204.2327 -11.5581 -32.9473 -6.2599
# 4 -4.7860 -5.0676 -11.5581 35.1252 -4.2266 -0.4224
# 5 -11.7542 -10.2474 -32.9473 -4.2266 49.8684 -0.7643
# 6 -0.9268 -13.5358 -6.2599 -0.4224 -0.7643 38.0604
#
#
#
# Elastic Compliance Matrix: (Units=1/GPa)
#
#
# Indices 1 2 3 4 5 6 
#
# 1 0.019907 -0.001084 -0.001161 0.002647 0.003927 0.000017
# 2 -0.001084 0.007337 -0.003392 -0.000300 -0.000984 0.002002
# 3 -0.001161 -0.003392 0.007414 0.002289 0.004123 0.000093
# 4 0.002647 -0.000300 0.002289 0.030108 0.004638 0.000762
# 5 0.003927 -0.000984 0.004123 0.004638 0.023908 0.000955
# 6 0.000017 0.002002 0.000093 0.000762 0.000955 0.027029
#
#
# Mechanical properties :
#
#
# Convention : Reuss Voigt Hill
#
# Bulk Modulus (GPa) = 42.76290 80.18751 61.47520
# Shear Modulus (GPa) = 37.09992 45.04502 41.07247
#
# Velocity S-wave (km/s) = 3.82166 4.21104 4.02107
# Velocity P-wave (km/s) = 6.02560 7.43042 6.76458
#
# Compressibility (1/GPa) = 0.02338476
#
# Stress axis : x y z
#
# Youngs Moduli (GPa) = 50.23254 136.29988 134.88303
#
# Poissons Ratio (x) = 0.14773 0.15654
# Poissons Ratio (y) = 0.05445 0.45755
# Poissons Ratio (z) = 0.05830 0.46235
#
# Static dielectric constant tensor:
#      x y z
#    x 4.513030 -0.323550 -0.083410 
#    y -0.323550 4.740590 -0.044570 
#    z -0.083410 -0.044570 5.105640 
# 
# 
# High freq. dielectric constant tensor:
#      x y z
#    x 2.011750 -0.007190 -0.002920 
#    y -0.007190 2.015210 0.001190 
#    z -0.002920 0.001190 2.035960 
# 
# From -- ./inp_files/410156.got.cif
#   From: 2010.06.25/outbox.cif.g09.slc.cpg/sg2_206_cif.got.tgz:410156.got - 2010.06.27 13:26:56.
