data_PCOD8028429
_publ_section_title
;
Structure prediction by ZEFSAII (Michael W. Deem and Ramdas Pophale) SiO2 
 PCOD8028429
Probable space group: P -1
;
_chemical_formula_sum "Si O2"
_cell_formula_units_Z 16
_cell_length_a 5.260316
_cell_length_b 30.275140
_cell_length_c 9.081715
_cell_angle_alpha 31.281514
_cell_angle_beta 89.934171
_cell_angle_gamma 79.931577
_cell_volume 707.653888
_symmetry_space_group_name_H-M "P -1"
_symmetry_group_IT_number 2
_symmetry_cell_setting 'triclinic'
loop_
_space_group_symop_operation_xyz
x,y,z
-x,-y,-z
loop_
_atom_site_type_symbol
_atom_site_label
_atom_site_fract_x
_atom_site_fract_y
_atom_site_fract_z
Si Si1 0.422160 0.768884 0.117292
Si Si2 0.019747 0.495750 0.758745
Si Si3 0.920265 0.380849 0.840697
Si Si4 0.490147 0.995232 0.760168
Si Si5 0.182127 0.119317 0.160020
Si Si6 0.624358 0.579255 0.774049
Si Si7 0.717142 0.079263 0.773329
Si Si8 0.460560 0.730588 0.883117
O O1 0.426546 0.680692 0.461413
O O2 0.662884 0.807205 0.048919
O O3 0.428947 0.748913 0.002801
O O4 0.137780 0.840279 0.958140
O O5 0.870102 0.443201 0.808025
O O6 0.135217 0.557319 0.480764
O O7 0.829750 0.563473 0.683327
O O8 0.248019 0.421337 0.063352
O O9 0.222239 0.307298 0.050647
O O10 0.681103 0.340491 0.960088
O O11 0.251159 0.056578 0.483015
O O12 0.545183 0.063340 0.682546
O O13 0.744500 0.942223 0.810560
O O14 0.411137 0.921094 0.065046
O O15 0.500000 0.500000 0.000000
O O16 0.712493 0.180612 0.460865
O O17 0.000000 0.000000 0.000000
#
# Coordination Sequence:
#
# PCOD8028429 Si02
#       8
#     2   2   2   2   2   2   2   2
#     4  12  25  45  72 103 137 182 235 284 344 407
#     4  10  25  46  70 104 138 186 229 283 351 412
#     4  11  26  46  74 102 139 182 235 285 337 415
#     4  10  25  46  70 104 138 186 229 283 351 412
#     4  11  26  46  74 102 139 182 235 285 337 415
#     4  11  25  45  71  99 143 183 227 284 354 411
#     4  11  25  45  71  99 143 183 227 284 354 411
#     4  12  25  45  72 103 137 182 235 284 344 407
#
# _framework density 22.609921
#
# number of rings (size 3 to 8) (size 9 to 14) (size 15 to 20)
#    0.000    1.000    2.500    2.250   10.500    3.000 
#    0.000    0.000    0.000    0.000    0.000    0.000 
#    0.000    0.000    0.000    0.000    0.000    0.000 
#
# Total GULP energy -198389.412083 kJ/mol
# GULP energy per Si atom -12399.338255 kJ/mol
# Density = 2.255846 g / cm^3
# Si number density = 22.609921 Si / 1000 Ang^3
#
#
#
# Elastic Constant Matrix: (Units=GPa)
#
#
# Indices 1 2 3 4 5 6 
#
# 1 60.9239 3.2537 4.4468 6.3694 -6.3298 22.0654
# 2 3.2537 91.5340 51.7035 27.0142 14.6183 -31.4004
# 3 4.4468 51.7035 149.0425 15.6379 11.3628 -27.6402
# 4 6.3694 27.0142 15.6379 35.1773 3.5832 -9.1776
# 5 -6.3298 14.6183 11.3628 3.5832 55.2915 -64.6670
# 6 22.0654 -31.4004 -27.6402 -9.1776 -64.6670 209.9530
#
#
#
# Elastic Compliance Matrix: (Units=1/GPa)
#
#
# Indices 1 2 3 4 5 6 
#
# 1 0.017567 0.000006 -0.000542 -0.003482 -0.000114 -0.002104
# 2 0.000006 0.017314 -0.004553 -0.010838 -0.001823 0.000954
# 3 -0.000542 -0.004553 0.008396 -0.000011 -0.000032 0.000471
# 4 -0.003482 -0.010838 -0.000011 0.037469 0.000761 0.000616
# 5 -0.000114 -0.001823 -0.000032 0.000761 0.028512 0.008550
# 6 -0.002104 0.000954 0.000471 0.000616 0.008550 0.007849
#
#
# Mechanical properties :
#
#
# Convention : Reuss Voigt Hill
#
# Bulk Modulus (GPa) = 30.21360 46.70093 38.45726
# Shear Modulus (GPa) = 36.14791 76.22413 56.18602
#
# Velocity S-wave (km/s) = 4.00279 5.81256 4.99040
# Velocity P-wave (km/s) = 5.89535 8.10850 7.08882
#
# Compressibility (1/GPa) = 0.03309768
#
# Stress axis : x y z
#
# Youngs Moduli (GPa) = 56.92360 57.75758 119.10108
#
# Poissons Ratio (x) = -0.00034 0.06460
# Poissons Ratio (y) = -0.00033 0.54230
# Poissons Ratio (z) = 0.03087 0.26299
#
# Static dielectric constant tensor:
#      x y z
#    x 3.981850 0.029740 0.034580 
#    y 0.029740 4.281000 0.182370 
#    z 0.034580 0.182370 4.405880 
# 
# 
# High freq. dielectric constant tensor:
#      x y z
#    x 1.882270 0.001790 0.001750 
#    y 0.001790 1.902460 0.007040 
#    z 0.001750 0.007040 1.908640 
# 
# From -- ./inp_files/128271.got.cif
#   From: 2010.06.25/outbox.cif.g09.slc.cpg/sg2_65_cif.got.tgz:128271.got - 2010.06.27 13:26:56.
