data_PCOD8028713
_publ_section_title
;
Structure prediction by ZEFSAII (Michael W. Deem and Ramdas Pophale) SiO2 
 PCOD8028713
Probable space group: P -1
;
_chemical_formula_sum "Si O2"
_cell_formula_units_Z 16
_cell_length_a 6.691790
_cell_length_b 7.883854
_cell_length_c 14.613104
_cell_angle_alpha 94.746460
_cell_angle_beta 70.154965
_cell_angle_gamma 99.571815
_cell_volume 714.778569
_symmetry_space_group_name_H-M "P -1"
_symmetry_group_IT_number 2
_symmetry_cell_setting 'triclinic'
loop_
_space_group_symop_operation_xyz
x,y,z
-x,-y,-z
loop_
_atom_site_type_symbol
_atom_site_label
_atom_site_fract_x
_atom_site_fract_y
_atom_site_fract_z
Si Si1 0.688517 0.568954 0.325990
Si Si2 0.608321 0.150445 0.594717
Si Si3 0.175992 0.748821 0.243506
Si Si4 0.032482 0.226377 0.191240
Si Si5 0.163429 0.649371 0.941479
Si Si6 0.745542 0.042760 0.933448
Si Si7 0.307374 0.805527 0.614282
Si Si8 0.564235 0.530541 0.821772
O O1 0.573771 0.725643 0.390080
O O2 0.661893 0.394709 0.383780
O O3 0.571800 0.515007 0.248530
O O4 0.938303 0.642852 0.275595
O O5 0.757984 0.203924 0.660729
O O6 0.755339 0.174192 0.481543
O O7 0.513477 0.948247 0.611371
O O8 0.211810 0.912371 0.178963
O O9 0.343852 0.637546 0.164574
O O10 0.227767 0.329952 0.222200
O O11 0.883848 0.336415 0.159111
O O12 0.878466 0.134960 0.290043
O O13 0.126660 0.118823 0.090824
O O14 0.403701 0.604770 0.920523
O O15 0.134430 0.817846 0.010582
O O16 0.000000 0.500000 0.000000
O O17 0.500000 0.000000 0.000000
#
# Coordination Sequence:
#
# PCOD8028713 Si02
#       8
#     2   2   2   2   2   2   2   2
#     4  11  22  46  71 103 141 184 228 287 348 413
#     4  10  26  45  71 105 141 180 232 291 345 421
#     4  11  25  46  69 102 141 180 231 287 345 414
#     4  12  25  45  69 100 137 179 232 283 342 413
#     4  12  26  44  69  98 134 182 234 279 344 410
#     4  12  27  43  67 100 136 182 225 286 345 402
#     4  11  23  47  72 102 140 184 232 284 356 413
#     4  11  22  43  70  98 135 182 225 288 337 408
#
# _framework density 22.384557000000001
#
# number of rings (size 3 to 8) (size 9 to 14) (size 15 to 20)
#    0.000    0.750    3.750    3.000    5.250    2.500 
#    2.250    1.875    0.000    0.000    0.000    0.000 
#    0.000    0.000    0.000    0.000    0.000    0.000 
#
# Total GULP energy -198259.060564 kJ/mol
# GULP energy per Si atom -12391.191285 kJ/mol
# Density = 2.233361 g / cm^3
# Si number density = 22.384557 Si / 1000 Ang^3
#
#
#
# Elastic Constant Matrix: (Units=GPa)
#
#
# Indices 1 2 3 4 5 6 
#
# 1 112.1026 33.6178 51.4579 -2.9800 0.5186 16.5012
# 2 33.6178 100.6705 30.3591 -8.6495 -1.3671 19.1101
# 3 51.4579 30.3591 117.6307 -4.7251 -10.8101 11.6097
# 4 -2.9800 -8.6495 -4.7251 41.1793 4.8885 -3.7043
# 5 0.5186 -1.3671 -10.8101 4.8885 26.0607 8.1470
# 6 16.5012 19.1101 11.6097 -3.7043 8.1470 31.9678
#
#
#
# Elastic Compliance Matrix: (Units=1/GPa)
#
#
# Indices 1 2 3 4 5 6 
#
# 1 0.012101 -0.002125 -0.004572 -0.000217 -0.001265 -0.003018
# 2 -0.002125 0.012381 -0.001454 0.001538 0.001684 -0.006027
# 3 -0.004572 -0.001454 0.011630 -0.000192 0.005642 -0.002454
# 4 -0.000217 0.001538 -0.000192 0.025616 -0.005973 0.003753
# 5 -0.001265 0.001684 0.005642 -0.005973 0.046629 -0.014978
# 6 -0.003018 -0.006027 -0.002454 0.003753 -0.014978 0.041586
#
#
# Mechanical properties :
#
#
# Convention : Reuss Voigt Hill
#
# Bulk Modulus (GPa) = 50.48408 62.36372 56.42390
# Shear Modulus (GPa) = 28.92730 34.17281 31.55005
#
# Velocity S-wave (km/s) = 3.59874 3.91144 3.75835
# Velocity P-wave (km/s) = 6.31427 6.95125 6.64040
#
# Compressibility (1/GPa) = 0.01980822
#
# Stress axis : x y z
#
# Youngs Moduli (GPa) = 82.63971 80.77092 85.98744
#
# Poissons Ratio (x) = 0.17163 0.39314
# Poissons Ratio (y) = 0.17560 0.12506
# Poissons Ratio (z) = 0.37784 0.11747
#
# Static dielectric constant tensor:
#      x y z
#    x 5.604050 0.527960 0.570010 
#    y 0.527960 4.679760 0.543460 
#    z 0.570010 0.543460 4.346980 
# 
# 
# High freq. dielectric constant tensor:
#      x y z
#    x 1.882750 -0.001710 -0.005150 
#    y -0.001710 1.898510 0.012630 
#    z -0.005150 0.012630 1.883710 
# 
# From -- ./inp_files/90028.got.cif
#   From: 2010.06.25/outbox.cif.g09.slc.cpg/sg2_46_cif.got.tgz:90028.got - 2010.06.27 13:26:56.
