data_PCOD8028895
_publ_section_title
;
Structure prediction by ZEFSAII (Michael W. Deem and Ramdas Pophale) SiO2 
 PCOD8028895
Probable space group: P -1
;
_chemical_formula_sum "Si O2"
_cell_formula_units_Z 14
_cell_length_a 9.318505
_cell_length_b 22.487954
_cell_length_c 8.736659
_cell_angle_alpha 39.903215
_cell_angle_beta 127.220241
_cell_angle_gamma 147.184065
_cell_volume 632.291495
_symmetry_space_group_name_H-M "P -1"
_symmetry_group_IT_number 2
_symmetry_cell_setting 'triclinic'
loop_
_space_group_symop_operation_xyz
x,y,z
-x,-y,-z
loop_
_atom_site_type_symbol
_atom_site_label
_atom_site_fract_x
_atom_site_fract_y
_atom_site_fract_z
Si Si1 0.632290 0.350776 0.385044
Si Si2 0.566040 0.151923 0.925797
Si Si3 0.325954 0.974231 0.581480
Si Si4 0.480456 0.233151 0.199958
Si Si5 0.971058 0.901901 0.064280
Si Si6 0.892974 0.355138 0.994281
Si Si7 0.161858 0.262561 0.423480
O O1 0.666873 0.257340 0.648022
O O2 0.488674 0.296069 0.235375
O O3 0.460813 0.350835 0.388271
O O4 0.927009 0.504874 0.260178
O O5 0.715933 0.111313 0.131763
O O6 0.627229 0.229992 0.970729
O O7 0.268149 0.005134 0.988490
O O8 0.031428 0.881646 0.508460
O O9 0.500000 0.000000 0.500000
O O10 0.459203 0.116104 0.454106
O O11 0.766343 0.356656 0.057689
O O12 0.225937 0.166366 0.070303
O O13 0.872938 0.774117 0.347307
O O14 0.000000 0.000000 0.000000
O O15 0.078187 0.336906 0.191858
#
# Coordination Sequence:
#
# PCOD8028895 Si02
#       7
#     2   2   2   2   2   2   2
#     4  12  26  38  57  96 128 154 197 253 297 344
#     4  11  21  38  66  91 115 159 206 244 296 358
#     4  11  18  38  67  89 114 155 203 247 296 361
#     4  12  23  39  64  90 124 156 196 255 306 346
#     4  12  18  37  66  89 114 154 207 244 300 365
#     4  11  22  44  63  81 122 173 204 229 288 378
#     4  11  21  39  65  89 115 159 210 244 290 355
#
# _framework density 22.141687999999998
#
# number of rings (size 3 to 8) (size 9 to 14) (size 15 to 20)
#    0.000    0.571    8.571    1.286    0.000    2.857 
#    0.000    5.000    0.000    0.000    0.000    0.000 
#    0.000    0.000    0.000    0.000    0.000    0.000 
#
# Total GULP energy -173477.610280 kJ/mol
# GULP energy per Si atom -12391.257877 kJ/mol
# Density = 2.209129 g / cm^3
# Si number density = 22.141688 Si / 1000 Ang^3
#
#
#
# Elastic Constant Matrix: (Units=GPa)
#
#
# Indices 1 2 3 4 5 6 
#
# 1 34.8300 17.0246 28.8328 -3.1918 -2.9603 5.0504
# 2 17.0246 86.5207 50.3182 1.6946 -4.7617 8.0024
# 3 28.8328 50.3182 158.7552 -4.0431 -11.5762 13.2335
# 4 -3.1918 1.6946 -4.0431 38.9886 6.8600 -5.9291
# 5 -2.9603 -4.7617 -11.5762 6.8600 16.2549 -0.2876
# 6 5.0504 8.0024 13.2335 -5.9291 -0.2876 23.5252
#
#
#
# Elastic Compliance Matrix: (Units=1/GPa)
#
#
# Indices 1 2 3 4 5 6 
#
# 1 0.035277 -0.003841 -0.004811 0.001912 0.001012 -0.003066
# 2 -0.003841 0.014857 -0.003710 -0.002070 0.001837 -0.002641
# 3 -0.004811 -0.003710 0.008900 -0.000535 0.004551 -0.002790
# 4 0.001912 -0.002070 -0.000535 0.029292 -0.012863 0.007820
# 5 0.001012 0.001837 0.004551 -0.012863 0.070810 -0.005779
# 6 -0.003066 -0.002641 -0.002790 0.007820 -0.005779 0.047534
#
#
# Mechanical properties :
#
#
# Convention : Reuss Voigt Hill
#
# Bulk Modulus (GPa) = 29.14720 52.49522 40.82121
# Shear Modulus (GPa) = 20.59032 28.01574 24.30303
#
# Velocity S-wave (km/s) = 3.05279 3.56096 3.31662
# Velocity P-wave (km/s) = 5.06148 6.37710 5.75700
#
# Compressibility (1/GPa) = 0.03430862
#
# Stress axis : x y z
#
# Youngs Moduli (GPa) = 28.34686 67.30641 112.36457
#
# Poissons Ratio (x) = 0.25856 0.54063
# Poissons Ratio (y) = 0.10889 0.41687
# Poissons Ratio (z) = 0.13639 0.24971
#
# Static dielectric constant tensor:
#      x y z
#    x 3.653640 0.270300 -0.038980 
#    y 0.270300 4.335470 -0.073020 
#    z -0.038980 -0.073020 4.372400 
# 
# 
# High freq. dielectric constant tensor:
#      x y z
#    x 1.825730 0.013940 -0.001760 
#    y 0.013940 1.870330 0.003490 
#    z -0.001760 0.003490 1.889970 
# 
# From -- ./inp_files/189990.got.cif
#   From: 2010.06.25/outbox.cif.g09.slc.cpg/sg2_95_cif.got.tgz:189990.got - 2010.06.27 13:26:56.
