data_PCOD8028062
_publ_section_title
;
Structure prediction by ZEFSAII (Michael W. Deem and Ramdas Pophale) SiO2 
 PCOD8028062
Probable space group: P -1
;
_chemical_formula_sum "Si O2"
_cell_formula_units_Z 14
_cell_length_a 13.453140
_cell_length_b 8.913217
_cell_length_c 11.632183
_cell_angle_alpha 111.091435
_cell_angle_beta 150.721742
_cell_angle_gamma 68.695642
_cell_volume 632.696039
_symmetry_space_group_name_H-M "P -1"
_symmetry_group_IT_number 2
_symmetry_cell_setting 'triclinic'
loop_
_space_group_symop_operation_xyz
x,y,z
-x,-y,-z
loop_
_atom_site_type_symbol
_atom_site_label
_atom_site_fract_x
_atom_site_fract_y
_atom_site_fract_z
Si Si1 0.656037 0.167990 0.073891
Si Si2 0.617082 0.153546 0.668811
Si Si3 0.046167 0.912552 0.834977
Si Si4 0.450016 0.658679 0.566069
Si Si5 0.193195 0.176382 0.915909
Si Si6 0.676283 0.720625 0.404238
Si Si7 0.186323 0.636197 0.513426
O O1 0.683892 0.256254 0.245797
O O2 0.833203 0.204099 0.171811
O O3 0.671391 0.972003 0.054760
O O4 0.438036 0.237051 0.819907
O O5 0.649118 0.209236 0.587133
O O6 0.483138 0.282044 0.651592
O O7 0.500000 0.000000 0.500000
O O8 0.841649 0.109994 0.935566
O O9 0.820190 0.862913 0.609043
O O10 0.052501 0.098023 0.848688
O O11 0.500000 0.500000 0.500000
O O12 0.282865 0.631402 0.484063
O O13 0.658707 0.708323 0.844081
O O14 0.048133 0.283456 0.709275
O O15 0.806683 0.545234 0.479400
#
# Coordination Sequence:
#
# PCOD8028062 Si02
#       7
#     2   2   2   2   2   2   2
#     4   9  23  46  67  99 132 174 224 264 332 403
#     4  11  22  44  64  92 129 178 226 264 316 400
#     4   9  23  41  68  92 129 168 228 266 320 397
#     4  12  26  44  64  96 143 171 216 280 331 381
#     4  10  25  43  66 101 130 173 221 269 333 392
#     4  11  23  42  69  98 127 176 222 269 335 385
#     4  12  26  41  70 101 136 172 215 280 338 382
#
# _framework density 22.127528000000002
#
# number of rings (size 3 to 8) (size 9 to 14) (size 15 to 20)
#    0.857    0.571    2.857    0.857    6.000    4.571 
#    0.000    0.000    0.000    0.000    0.000    0.000 
#    0.000    0.000    0.000    0.000    0.000    0.000 
#
# Total GULP energy -173568.468385 kJ/mol
# GULP energy per Si atom -12397.747742 kJ/mol
# Density = 2.207716 g / cm^3
# Si number density = 22.127528 Si / 1000 Ang^3
#
#
#
# Elastic Constant Matrix: (Units=GPa)
#
#
# Indices 1 2 3 4 5 6 
#
# 1 33.5171 0.6129 -0.7154 0.1905 -5.6702 -10.4026
# 2 0.6129 126.4748 39.2067 -13.5657 -4.2765 -7.4022
# 3 -0.7154 39.2067 125.4718 -12.3367 -15.5096 -7.9586
# 4 0.1905 -13.5657 -12.3367 49.5402 1.5765 -3.0742
# 5 -5.6702 -4.2765 -15.5096 1.5765 31.6669 6.7998
# 6 -10.4026 -7.4022 -7.9586 -3.0742 6.7998 19.5405
#
#
#
# Elastic Compliance Matrix: (Units=1/GPa)
#
#
# Indices 1 2 3 4 5 6 
#
# 1 0.036459 0.000694 0.001786 0.001604 0.003223 0.019530
# 2 0.000694 0.009076 -0.002500 0.002091 -0.000700 0.003362
# 3 0.001786 -0.002500 0.009605 0.001747 0.003998 0.002799
# 4 0.001604 0.002091 0.001747 0.021595 -0.000957 0.006088
# 5 0.003223 -0.000700 0.003998 -0.000957 0.036139 -0.009648
# 6 0.019530 0.003362 0.002799 0.006088 -0.009648 0.068302
#
#
# Mechanical properties :
#
#
# Convention : Reuss Voigt Hill
#
# Bulk Modulus (GPa) = 18.14915 40.40801 29.27858
# Shear Modulus (GPa) = 25.05249 36.57347 30.81298
#
# Velocity S-wave (km/s) = 3.36845 4.06994 3.73569
# Velocity P-wave (km/s) = 4.83203 6.35507 5.64515
#
# Compressibility (1/GPa) = 0.05509900
#
# Stress axis : x y z
#
# Youngs Moduli (GPa) = 27.42837 110.18552 104.11523
#
# Poissons Ratio (x) = -0.07644 -0.18595
# Poissons Ratio (y) = -0.01903 0.26026
# Poissons Ratio (z) = -0.04899 0.27543
#
# Static dielectric constant tensor:
#      x y z
#    x 3.712710 -0.096010 -0.059170 
#    y -0.096010 3.922180 -0.096990 
#    z -0.059170 -0.096990 3.872560 
# 
# 
# High freq. dielectric constant tensor:
#      x y z
#    x 1.856270 -0.003350 -0.009170 
#    y -0.003350 1.871740 -0.006730 
#    z -0.009170 -0.006730 1.877400 
# 
# From -- ./inp_files/447933.got.cif
#   From: 2010.06.25/outbox.cif.g09.slc.cpg/sg2_224_cif.got.tgz:447933.got - 2010.06.27 13:26:56.
