data_PCOD8028102
_publ_section_title
;
Structure prediction by ZEFSAII (Michael W. Deem and Ramdas Pophale) SiO2 
 PCOD8028102
Probable space group: P -1
;
_chemical_formula_sum "Si O2"
_cell_formula_units_Z 14
_cell_length_a 8.452095
_cell_length_b 18.157905
_cell_length_c 8.121597
_cell_angle_alpha 114.956919
_cell_angle_beta 50.061433
_cell_angle_gamma 137.180232
_cell_volume 646.704449
_symmetry_space_group_name_H-M "P -1"
_symmetry_group_IT_number 2
_symmetry_cell_setting 'triclinic'
loop_
_space_group_symop_operation_xyz
x,y,z
-x,-y,-z
loop_
_atom_site_type_symbol
_atom_site_label
_atom_site_fract_x
_atom_site_fract_y
_atom_site_fract_z
Si Si1 0.667421 0.211893 0.960869
Si Si2 0.161467 0.120030 0.444256
Si Si3 0.726833 0.111265 0.545275
Si Si4 0.800347 0.728047 0.187257
Si Si5 0.160389 0.304266 0.228421
Si Si6 0.751226 0.487507 0.712377
Si Si7 0.279897 0.597355 0.994942
O O1 0.581362 0.117621 0.803465
O O2 0.721891 0.305906 0.902581
O O3 0.948731 0.260839 0.907679
O O4 0.441433 0.165893 0.209807
O O5 0.224762 0.192443 0.628656
O O6 0.971339 0.115689 0.437028
O O7 0.000000 0.000000 0.500000
O O8 0.868113 0.215227 0.430487
O O9 0.500000 0.000000 0.500000
O O10 0.522042 0.604302 0.297057
O O11 0.830526 0.751638 0.992663
O O12 0.174369 0.399332 0.242896
O O13 0.415221 0.349221 0.228990
O O14 0.702370 0.448603 0.893986
O O15 0.000000 0.500000 0.500000
O O16 0.000000 0.500000 0.000000
#
# Coordination Sequence:
#
# PCOD8028102 Si02
#       7
#     2   2   2   2   2   2   2
#     4  11  24  46  68 100 137 173 228 279 336 403
#     4  11  27  46  69  98 131 183 232 275 338 399
#     4  11  27  45  69  99 135 178 225 284 336 397
#     4  10  25  43  70 100 135 180 223 279 339 402
#     4  11  23  45  66 103 137 174 231 272 337 410
#     4  11  24  40  68 102 138 177 222 276 339 407
#     4  11  22  40  69  98 136 176 217 277 336 397
#
# _framework density 21.648219000000001
#
# number of rings (size 3 to 8) (size 9 to 14) (size 15 to 20)
#    0.000    1.143    1.429    4.286    8.000    4.000 
#    0.000    3.571    0.000    0.000    0.000    0.000 
#    0.000    0.000    0.000    0.000    0.000    0.000 
#
# Total GULP energy -173531.512841 kJ/mol
# GULP energy per Si atom -12395.108060 kJ/mol
# Density = 2.159895 g / cm^3
# Si number density = 21.648219 Si / 1000 Ang^3
#
#
#
# Elastic Constant Matrix: (Units=GPa)
#
#
# Indices 1 2 3 4 5 6 
#
# 1 113.8749 69.4467 51.7070 6.1624 -12.2521 9.7873
# 2 69.4467 167.6379 70.3515 0.4271 -1.1209 4.5879
# 3 51.7070 70.3515 148.3163 4.8857 -20.2121 13.0495
# 4 6.1624 0.4271 4.8857 31.8841 1.7277 3.8803
# 5 -12.2521 -1.1209 -20.2121 1.7277 33.2982 -1.0809
# 6 9.7873 4.5879 13.0495 3.8803 -1.0809 42.0900
#
#
#
# Elastic Compliance Matrix: (Units=1/GPa)
#
#
# Indices 1 2 3 4 5 6 
#
# 1 0.013004 -0.004636 -0.001604 -0.002197 0.003713 -0.001723
# 2 -0.004636 0.009248 -0.003369 0.001368 -0.003481 0.000899
# 3 -0.001604 -0.003369 0.009838 -0.001186 0.005262 -0.002065
# 4 -0.002197 0.001368 -0.001186 0.032412 -0.003240 -0.002342
# 5 0.003713 -0.003481 0.005262 -0.003240 0.034613 -0.000928
# 6 -0.001723 0.000899 -0.002065 -0.002342 -0.000928 0.024894
#
#
# Mechanical properties :
#
#
# Convention : Reuss Voigt Hill
#
# Bulk Modulus (GPa) = 77.69704 90.31549 84.00626
# Shear Modulus (GPa) = 33.89408 37.34270 35.61839
#
# Velocity S-wave (km/s) = 3.96115 4.15779 4.06066
# Velocity P-wave (km/s) = 7.54252 8.05356 7.80223
#
# Compressibility (1/GPa) = 0.01287050
#
# Stress axis : x y z
#
# Youngs Moduli (GPa) = 76.89983 108.12716 101.64983
#
# Poissons Ratio (x) = 0.50130 0.16309
# Poissons Ratio (y) = 0.35652 0.34247
# Poissons Ratio (z) = 0.12338 0.36429
#
# Static dielectric constant tensor:
#      x y z
#    x 4.376380 0.487100 -0.504410 
#    y 0.487100 4.464080 -0.872190 
#    z -0.504410 -0.872190 5.577890 
# 
# 
# High freq. dielectric constant tensor:
#      x y z
#    x 1.862560 0.002990 -0.013650 
#    y 0.002990 1.858950 -0.004940 
#    z -0.013650 -0.004940 1.852480 
# 
# From -- ./inp_files/184723.got.cif
#   From: 2010.06.25/outbox.cif.g09.slc.cpg/sg2_93_cif.got.tgz:184723.got - 2010.06.27 13:26:56.
