data_PCOD8028934
_publ_section_title
;
Structure prediction by ZEFSAII (Michael W. Deem and Ramdas Pophale) SiO2 
 PCOD8028934
Probable space group: P -1
;
_chemical_formula_sum "Si O2"
_cell_formula_units_Z 16
_cell_length_a 16.175863
_cell_length_b 11.042280
_cell_length_c 11.749093
_cell_angle_alpha 34.357772
_cell_angle_beta 126.216675
_cell_angle_gamma 137.544710
_cell_volume 798.547393
_symmetry_space_group_name_H-M "P -1"
_symmetry_group_IT_number 2
_symmetry_cell_setting 'triclinic'
loop_
_space_group_symop_operation_xyz
x,y,z
-x,-y,-z
loop_
_atom_site_type_symbol
_atom_site_label
_atom_site_fract_x
_atom_site_fract_y
_atom_site_fract_z
Si Si1 0.324025 0.544070 0.470158
Si Si2 0.097479 0.629839 0.880490
Si Si3 0.829445 0.762952 0.777801
Si Si4 0.629202 0.530388 0.960058
Si Si5 0.486539 0.989384 0.862139
Si Si6 0.965767 0.810890 0.510690
Si Si7 0.309411 0.163038 0.595819
Si Si8 0.555888 0.298850 0.315127
O O1 0.177964 0.381490 0.469691
O O2 0.376110 0.396403 0.559049
O O3 0.357695 0.567116 0.611007
O O4 0.383238 0.822169 0.242140
O O5 0.022823 0.637576 0.705510
O O6 0.202756 0.923343 0.767681
O O7 0.166460 0.488878 0.023860
O O8 0.000000 0.500000 0.000000
O O9 0.765427 0.749184 0.856226
O O10 0.745491 0.756589 0.612595
O O11 0.968425 0.012968 0.684734
O O12 0.555640 0.665110 0.803091
O O13 0.566664 0.297738 0.999312
O O14 0.638841 0.429761 0.168992
O O15 0.400764 0.090051 0.675763
O O16 0.500000 0.000000 0.000000
O O17 0.000000 0.000000 0.500000
O O18 0.500000 0.000000 0.500000
#
# Coordination Sequence:
#
# PCOD8028934 Si02
#       8
#     2   2   2   2   2   2   2   2
#     4  12  22  42  62  91 138 170 211 261 322 388
#     4  11  19  34  61  89 131 172 205 248 319 392
#     4  11  21  40  65  94 130 167 214 260 321 386
#     4  11  24  44  68  96 126 171 219 266 323 382
#     4  12  24  36  64 103 131 161 205 270 337 393
#     4  11  22  38  59  94 130 173 205 258 326 385
#     4  11  22  37  60  98 134 162 202 265 332 392
#     4  11  25  47  67  92 128 175 220 267 316 374
#
# _framework density 20.036382
#
# number of rings (size 3 to 8) (size 9 to 14) (size 15 to 20)
#    0.000    0.750    6.250    2.625    1.750    0.000 
#    2.250    0.625    0.000    1.500    0.000    0.000 
#    0.000    0.000    0.000    0.000    0.000    0.000 
#
# Total GULP energy -198356.709774 kJ/mol
# GULP energy per Si atom -12397.294361 kJ/mol
# Density = 1.999078 g / cm^3
# Si number density = 20.036382 Si / 1000 Ang^3
#
#
#
# Elastic Constant Matrix: (Units=GPa)
#
#
# Indices 1 2 3 4 5 6 
#
# 1 110.6688 29.0490 55.4146 -3.5332 -21.1749 6.6291
# 2 29.0490 64.6535 30.6470 3.4123 -9.4642 5.2042
# 3 55.4146 30.6470 130.2527 -0.4607 -8.2022 2.4428
# 4 -3.5332 3.4123 -0.4607 31.2095 3.0728 -7.2829
# 5 -21.1749 -9.4642 -8.2022 3.0728 57.6667 -6.3190
# 6 6.6291 5.2042 2.4428 -7.2829 -6.3190 31.8281
#
#
#
# Elastic Compliance Matrix: (Units=1/GPa)
#
#
# Indices 1 2 3 4 5 6 
#
# 1 0.012852 -0.003139 -0.004494 0.001194 0.003406 -0.000869
# 2 -0.003139 0.018880 -0.002980 -0.003223 0.001402 -0.002664
# 3 -0.004494 -0.002980 0.010241 0.000158 -0.000631 0.000548
# 4 0.001194 -0.003223 0.000158 0.034489 -0.001035 0.007953
# 5 0.003406 0.001402 -0.000631 -0.001035 0.019079 0.002661
# 6 -0.000869 -0.002664 0.000548 0.007953 0.002661 0.034341
#
#
# Mechanical properties :
#
#
# Convention : Reuss Voigt Hill
#
# Bulk Modulus (GPa) = 48.19966 59.53291 53.86629
# Shear Modulus (GPa) = 31.64089 36.83848 34.23969
#
# Velocity S-wave (km/s) = 3.97819 4.29252 4.13834
# Velocity P-wave (km/s) = 6.72381 7.37187 7.05529
#
# Compressibility (1/GPa) = 0.02074703
#
# Stress axis : x y z
#
# Youngs Moduli (GPa) = 77.80850 52.96732 97.64529
#
# Poissons Ratio (x) = 0.16624 0.43885
# Poissons Ratio (y) = 0.24420 0.29099
# Poissons Ratio (z) = 0.34970 0.15785
#
# Static dielectric constant tensor:
#      x y z
#    x 3.987600 0.163990 0.021610 
#    y 0.163990 3.511820 -0.070320 
#    z 0.021610 -0.070320 4.366260 
# 
# 
# High freq. dielectric constant tensor:
#      x y z
#    x 1.788100 0.022200 -0.002980 
#    y 0.022200 1.744330 -0.014850 
#    z -0.002980 -0.014850 1.808270 
# 
# From -- ./inp_files/450921.got.cif
#   From: 2010.06.25/outbox.cif.g09.slc.cpg/sg2_226_cif.got.tgz:450921.got - 2010.06.27 13:26:56.
