data_PCOD8028919
_publ_section_title
;
Structure prediction by ZEFSAII (Michael W. Deem and Ramdas Pophale) SiO2 
 PCOD8028919
Probable space group: P -1
;
_chemical_formula_sum "Si O2"
_cell_formula_units_Z 16
_cell_length_a 10.070244
_cell_length_b 28.414070
_cell_length_c 8.898727
_cell_angle_alpha 139.010763
_cell_angle_beta 30.596358
_cell_angle_gamma 137.771019
_cell_volume 818.084488
_symmetry_space_group_name_H-M "P -1"
_symmetry_group_IT_number 2
_symmetry_cell_setting 'triclinic'
loop_
_space_group_symop_operation_xyz
x,y,z
-x,-y,-z
loop_
_atom_site_type_symbol
_atom_site_label
_atom_site_fract_x
_atom_site_fract_y
_atom_site_fract_z
Si Si1 0.711248 0.464454 0.626200
Si Si2 0.220472 0.477575 0.632323
Si Si3 0.541696 0.314615 0.582679
Si Si4 0.814703 0.845542 0.503271
Si Si5 0.128025 0.165598 0.926287
Si Si6 0.441445 0.909566 0.672788
Si Si7 0.918353 0.679028 0.743403
Si Si8 0.392405 0.921057 0.103358
O O1 0.726679 0.478394 0.468592
O O2 0.645109 0.375447 0.499471
O O3 0.000000 0.500000 0.500000
O O4 0.500000 0.500000 0.000000
O O5 0.500000 0.500000 0.500000
O O6 0.098528 0.389066 0.515628
O O7 0.000000 0.500000 0.000000
O O8 0.795125 0.299514 0.392834
O O9 0.357658 0.239396 0.504225
O O10 0.342795 0.347258 0.958331
O O11 0.864117 0.861599 0.317506
O O12 0.651106 0.898997 0.867685
O O13 0.122494 0.869138 0.323416
O O14 0.394583 0.146970 0.690762
O O15 0.865334 0.117069 0.155276
O O16 0.121066 0.251356 0.146619
O O17 0.405172 0.903479 0.872576
O O18 0.589797 0.992913 0.675827
#
# Coordination Sequence:
#
# PCOD8028919 Si02
#       8
#     2   2   2   2   2   2   2   2
#     4  12  22  40  61  84 107 144 188 232 271 328
#     4  12  25  40  58  84 114 144 178 230 291 334
#     4  11  19  33  54  75  99 134 183 227 257 313
#     4   9  16  24  38  62  89 124 167 210 256 299
#     4   9  16  25  39  61  86 125 173 211 245 301
#     4   9  15  23  35  55  86 128 171 202 242 306
#     4  11  20  34  53  73 103 136 177 225 268 317
#     4   9  15  23  34  54  90 129 163 203 250 308
#
# _framework density 19.557881999999999
#
# number of rings (size 3 to 8) (size 9 to 14) (size 15 to 20)
#    0.000    1.750    2.500    6.000    0.000    3.000 
#    0.000    0.000    0.000    0.000    0.000    0.000 
#    0.000    0.000    0.000   22.500    0.000   26.750 
#
# Total GULP energy -198249.960920 kJ/mol
# GULP energy per Si atom -12390.622558 kJ/mol
# Density = 1.951337 g / cm^3
# Si number density = 19.557882 Si / 1000 Ang^3
#
#
#
# Elastic Constant Matrix: (Units=GPa)
#
#
# Indices 1 2 3 4 5 6 
#
# 1 57.4932 39.4420 40.3831 -5.2697 -5.3290 -2.3847
# 2 39.4420 171.8265 76.2656 -3.3799 -19.3172 -6.9890
# 3 40.3831 76.2656 153.5514 -1.5332 -27.8795 -5.8201
# 4 -5.2697 -3.3799 -1.5332 39.1786 2.6919 -8.8526
# 5 -5.3290 -19.3172 -27.8795 2.6919 24.2912 -2.7029
# 6 -2.3847 -6.9890 -5.8201 -8.8526 -2.7029 12.9232
#
#
#
# Elastic Compliance Matrix: (Units=1/GPa)
#
#
# Indices 1 2 3 4 5 6 
#
# 1 0.023255 -0.003389 -0.004961 0.003273 -0.003457 0.001743
# 2 -0.003389 0.008233 -0.002425 0.000834 0.003375 0.004012
# 3 -0.004961 -0.002425 0.011062 -0.000048 0.010226 0.004861
# 4 0.003273 0.000834 -0.000048 0.031069 0.000375 0.022395
# 5 -0.003457 0.003375 0.010226 0.000375 0.056782 0.017926
# 6 0.001743 0.004012 0.004861 0.022395 0.017926 0.101151
#
#
# Mechanical properties :
#
#
# Convention : Reuss Voigt Hill
#
# Bulk Modulus (GPa) = 47.62031 77.22806 62.42418
# Shear Modulus (GPa) = 19.22317 30.39729 24.81023
#
# Velocity S-wave (km/s) = 3.13850 3.94664 3.56554
# Velocity P-wave (km/s) = 6.12657 7.76792 6.99555
#
# Compressibility (1/GPa) = 0.02099945
#
# Stress axis : x y z
#
# Youngs Moduli (GPa) = 43.00091 121.46197 90.39995
#
# Poissons Ratio (x) = 0.41168 0.44852
# Poissons Ratio (y) = 0.14574 0.21919
# Poissons Ratio (z) = 0.21335 0.29450
#
# Static dielectric constant tensor:
#      x y z
#    x 3.030940 -0.025470 -0.436120 
#    y -0.025470 3.727700 -0.214770 
#    z -0.436120 -0.214770 3.962110 
# 
# 
# High freq. dielectric constant tensor:
#      x y z
#    x 1.681750 -0.003220 -0.043110 
#    y -0.003220 1.779770 -0.010100 
#    z -0.043110 -0.010100 1.781410 
# 
# From -- ./inp_files/227996.got.cif
#   From: 2010.06.25/outbox.cif.g09.slc.cpg/sg2_114_cif.got.tgz:227996.got - 2010.06.27 13:26:56.
