data_PCOD8028217
_publ_section_title
;
Structure prediction by ZEFSAII (Michael W. Deem and Ramdas Pophale) SiO2 
 PCOD8028217
Probable space group: P -1
;
_chemical_formula_sum "Si O2"
_cell_formula_units_Z 16
_cell_length_a 9.351222
_cell_length_b 19.790315
_cell_length_c 11.667009
_cell_angle_alpha 154.885277
_cell_angle_beta 131.841839
_cell_angle_gamma 47.277136
_cell_volume 663.523976
_symmetry_space_group_name_H-M "P -1"
_symmetry_group_IT_number 2
_symmetry_cell_setting 'triclinic'
loop_
_space_group_symop_operation_xyz
x,y,z
-x,-y,-z
loop_
_atom_site_type_symbol
_atom_site_label
_atom_site_fract_x
_atom_site_fract_y
_atom_site_fract_z
Si Si1 0.385535 0.192015 0.131495
Si Si2 0.297973 0.920532 0.054990
Si Si3 0.486308 0.189389 0.794489
Si Si4 0.368004 0.658290 0.112632
Si Si5 0.283433 0.866596 0.607779
Si Si6 0.989415 0.561091 0.782250
Si Si7 0.022581 0.252803 0.448808
Si Si8 0.953578 0.702989 0.223255
O O1 0.535219 0.237715 0.376365
O O2 0.221315 0.353074 0.253173
O O3 0.504555 0.104008 0.951111
O O4 0.274124 0.058459 0.915497
O O5 0.341739 0.804897 0.013220
O O6 0.231009 0.115981 0.350187
O O7 0.138354 0.855074 0.796929
O O8 0.514093 0.289282 0.849902
O O9 0.280075 0.257087 0.851625
O O10 0.500000 0.000000 0.500000
O O11 0.319934 0.808508 0.406741
O O12 0.500000 0.500000 0.000000
O O13 0.167820 0.610762 0.884882
O O14 0.065651 0.852278 0.508819
O O15 0.006134 0.365193 0.498372
O O16 0.034804 0.596667 0.993323
O O17 0.998115 0.366546 0.727071
#
# Coordination Sequence:
#
# PCOD8028217 Si02
#       8
#     2   2   2   2   2   2   2   2
#     4  11  23  46  70 102 136 185 229 289 346 417
#     4  11  24  44  72 101 139 183 233 287 345 416
#     4  12  24  42  74 103 136 183 239 284 339 415
#     4  11  27  47  68 105 145 186 227 291 355 409
#     4  10  25  44  72  96 139 183 232 280 353 417
#     4  11  26  43  70 102 141 180 233 288 348 412
#     4  11  24  43  67 102 141 182 228 287 354 410
#     4  11  22  43  69 100 132 182 230 283 335 415
#
# _framework density 24.113672999999999
#
# number of rings (size 3 to 8) (size 9 to 14) (size 15 to 20)
#    0.000    1.000    3.750    1.875    3.500    3.500 
#    2.250    1.250    0.000    0.000    0.000    0.000 
#    0.000    0.000    0.000    0.000    0.000    0.000 
#
# Total GULP energy -198242.177923 kJ/mol
# GULP energy per Si atom -12390.136120 kJ/mol
# Density = 2.405879 g / cm^3
# Si number density = 24.113673 Si / 1000 Ang^3
#
#
#
# Elastic Constant Matrix: (Units=GPa)
#
#
# Indices 1 2 3 4 5 6 
#
# 1 110.6491 43.1601 15.6724 4.1425 27.2452 -5.0391
# 2 43.1601 152.0746 26.1266 13.2017 16.9838 -0.1114
# 3 15.6724 26.1266 35.3532 4.3573 20.3776 5.1513
# 4 4.1425 13.2017 4.3573 34.8874 9.8857 0.2621
# 5 27.2452 16.9838 20.3776 9.8857 28.6851 -2.3817
# 6 -5.0391 -0.1114 5.1513 0.2621 -2.3817 34.8758
#
#
#
# Elastic Compliance Matrix: (Units=1/GPa)
#
#
# Indices 1 2 3 4 5 6 
#
# 1 0.013231 -0.003174 0.004862 0.003354 -0.015288 0.000114
# 2 -0.003174 0.008490 -0.006973 -0.003132 0.004096 0.000902
# 3 0.004862 -0.006973 0.058063 0.007735 -0.045320 -0.011049
# 4 0.003354 -0.003132 0.007735 0.033786 -0.018652 -0.002195
# 5 -0.015288 0.004096 -0.045320 -0.018652 0.086455 0.010542
# 6 0.000114 0.000902 -0.011049 -0.002195 0.010542 0.031061
#
#
# Mechanical properties :
#
#
# Convention : Reuss Voigt Hill
#
# Bulk Modulus (GPa) = 14.44808 51.99945 33.22376
# Shear Modulus (GPa) = 18.88739 33.89751 26.39245
#
# Velocity S-wave (km/s) = 2.80172 3.75339 3.31191
# Velocity P-wave (km/s) = 4.05843 6.35570 5.33225
#
# Compressibility (1/GPa) = 0.06921334
#
# Stress axis : x y z
#
# Youngs Moduli (GPa) = 75.57988 117.79004 17.22270
#
# Poissons Ratio (x) = 0.37388 -0.08374
# Poissons Ratio (y) = 0.23990 0.12010
# Poissons Ratio (z) = -0.36750 0.82140
#
# Static dielectric constant tensor:
#      x y z
#    x 4.226870 0.267610 0.084060 
#    y 0.267610 5.062270 -0.262350 
#    z 0.084060 -0.262350 4.171530 
# 
# 
# High freq. dielectric constant tensor:
#      x y z
#    x 1.959030 0.004180 0.015940 
#    y 0.004180 1.961060 -0.012670 
#    z 0.015940 -0.012670 1.951010 
# 
# From -- ./inp_files/403634.got.cif
#   From: 2010.06.25/outbox.cif.g09.slc.cpg/sg2_202_cif.got.tgz:403634.got - 2010.06.27 13:26:56.
