data_PCOD8028263
_publ_section_title
;
Structure prediction by ZEFSAII (Michael W. Deem and Ramdas Pophale) SiO2 
 PCOD8028263
Probable space group: P -1
;
_chemical_formula_sum "Si O2"
_cell_formula_units_Z 16
_cell_length_a 22.084840
_cell_length_b 24.577963
_cell_length_c 13.707641
_cell_angle_alpha 149.128005
_cell_angle_beta 149.798378
_cell_angle_gamma 10.761605
_cell_volume 695.486123
_symmetry_space_group_name_H-M "P -1"
_symmetry_group_IT_number 2
_symmetry_cell_setting 'triclinic'
loop_
_space_group_symop_operation_xyz
x,y,z
-x,-y,-z
loop_
_atom_site_type_symbol
_atom_site_label
_atom_site_fract_x
_atom_site_fract_y
_atom_site_fract_z
Si Si1 0.328515 0.742275 0.179182
Si Si2 0.554014 0.729421 0.601433
Si Si3 0.315882 0.103919 0.706854
Si Si4 0.826904 0.009859 0.975919
Si Si5 0.368758 0.358955 0.041871
Si Si6 0.261646 0.213866 0.588929
Si Si7 0.682597 0.010053 0.124822
Si Si8 0.646824 0.605739 0.256454
O O1 0.523739 0.631570 0.373783
O O2 0.342515 0.819214 0.231767
O O3 0.500000 0.500000 0.000000
O O4 0.960350 0.010553 0.115334
O O5 0.326218 0.934913 0.694744
O O6 0.930899 0.447112 0.718459
O O7 0.418694 0.910175 0.601337
O O8 0.372964 0.050655 0.586330
O O9 0.527633 0.020384 0.925833
O O10 0.668165 0.165103 0.098815
O O11 0.532676 0.202201 0.794569
O O12 0.119686 0.684830 0.895553
O O13 0.266323 0.331242 0.809182
O O14 0.484105 0.249962 0.145644
O O15 0.061117 0.691730 0.125304
O O16 0.880702 0.501552 0.472357
O O17 0.500000 0.000000 0.500000
#
# Coordination Sequence:
#
# PCOD8028263 Si02
#       8
#     2   2   2   2   2   2   2   2
#     4  10  25  45  67  99 131 171 225 274 318 384
#     4  12  24  44  71  93 132 174 222 272 329 379
#     4  11  24  41  66 100 134 171 216 267 330 397
#     4  11  24  42  63  91 130 179 212 270 316 385
#     4  11  24  42  63  96 138 170 216 268 330 389
#     4  11  23  40  64 103 137 172 209 266 332 408
#     4  11  24  43  66  99 130 172 219 274 326 393
#     4  11  23  40  64  93 132 168 220 259 330 384
#
# _framework density 23.005493999999999
#
# number of rings (size 3 to 8) (size 9 to 14) (size 15 to 20)
#    0.000    1.000    2.500    4.125    3.500    3.500 
#    0.000    1.250    0.000    0.000    0.000    0.000 
#    0.000    0.000    0.000    0.000    0.000    0.000 
#
# Total GULP energy -198403.009041 kJ/mol
# GULP energy per Si atom -12400.188065 kJ/mol
# Density = 2.295313 g / cm^3
# Si number density = 23.005494 Si / 1000 Ang^3
#
#
#
# Elastic Constant Matrix: (Units=GPa)
#
#
# Indices 1 2 3 4 5 6 
#
# 1 112.9766 41.3164 50.2350 -9.0468 -7.2311 -24.9119
# 2 41.3164 102.4447 23.2849 2.0912 -0.3989 -13.1985
# 3 50.2350 23.2849 89.4081 2.0900 -26.8857 -11.2977
# 4 -9.0468 2.0912 2.0900 25.5599 -8.3903 -5.2892
# 5 -7.2311 -0.3989 -26.8857 -8.3903 25.8660 1.3407
# 6 -24.9119 -13.1985 -11.2977 -5.2892 1.3407 41.9549
#
#
#
# Elastic Compliance Matrix: (Units=1/GPa)
#
#
# Indices 1 2 3 4 5 6 
#
# 1 0.015662 -0.003860 -0.007508 0.007463 -0.001430 0.007050
# 2 -0.003860 0.011909 -0.002017 -0.003403 -0.004128 0.000614
# 3 -0.007508 -0.002017 0.022694 0.003166 0.022449 0.000700
# 4 0.007463 -0.003403 0.003166 0.050833 0.021298 0.009941
# 5 -0.001430 -0.004128 0.022449 0.021298 0.068212 0.004403
# 6 0.007050 0.000614 0.000700 0.009941 0.004403 0.029516
#
#
# Mechanical properties :
#
#
# Convention : Reuss Voigt Hill
#
# Bulk Modulus (GPa) = 42.56266 59.38912 50.97589
# Shear Modulus (GPa) = 21.41995 31.34234 26.38115
#
# Velocity S-wave (km/s) = 3.05467 3.69505 3.39002
# Velocity P-wave (km/s) = 5.56620 6.63896 6.12611
#
# Compressibility (1/GPa) = 0.02349477
#
# Stress axis : x y z
#
# Youngs Moduli (GPa) = 63.84795 83.97040 44.06523
#
# Poissons Ratio (x) = 0.32409 0.33086
# Poissons Ratio (y) = 0.24643 0.08888
# Poissons Ratio (z) = 0.47940 0.16936
#
# Static dielectric constant tensor:
#      x y z
#    x 4.452160 -0.252920 0.053240 
#    y -0.252920 4.150990 -0.199570 
#    z 0.053240 -0.199570 4.114540 
# 
# 
# High freq. dielectric constant tensor:
#      x y z
#    x 1.915520 -0.008310 -0.009890 
#    y -0.008310 1.909890 -0.000140 
#    z -0.009890 -0.000140 1.890540 
# 
# From -- ./inp_files/543443.got.cif
#   From: 2010.06.25/outbox.cif.g09.slc.cpg/sg2_272_cif.got.tgz:543443.got - 2010.06.27 13:26:56.
