data_PCOD8028613
_publ_section_title
;
Structure prediction by ZEFSAII (Michael W. Deem and Ramdas Pophale) SiO2 
 PCOD8028613
Probable space group: P -1
;
_chemical_formula_sum "Si O2"
_cell_formula_units_Z 16
_cell_length_a 5.351038
_cell_length_b 8.850857
_cell_length_c 21.497168
_cell_angle_alpha 129.625178
_cell_angle_beta 118.605744
_cell_angle_gamma 75.578339
_cell_volume 686.086843
_symmetry_space_group_name_H-M "P -1"
_symmetry_group_IT_number 2
_symmetry_cell_setting 'triclinic'
loop_
_space_group_symop_operation_xyz
x,y,z
-x,-y,-z
loop_
_atom_site_type_symbol
_atom_site_label
_atom_site_fract_x
_atom_site_fract_y
_atom_site_fract_z
Si Si1 0.016178 0.557172 0.659314
Si Si2 0.888541 0.121146 0.330733
Si Si3 0.481182 0.082660 0.867495
Si Si4 0.095716 0.286104 0.964430
Si Si5 0.240610 0.179116 0.082219
Si Si6 0.381688 0.951709 0.404476
Si Si7 0.337179 0.496354 0.271056
Si Si8 0.679041 0.312346 0.466827
O O1 0.915688 0.755937 0.665706
O O2 0.356746 0.591869 0.714477
O O3 0.847905 0.534346 0.697314
O O4 0.946286 0.360989 0.558078
O O5 0.762048 0.297067 0.400784
O O6 0.051145 0.994502 0.367164
O O7 0.648324 0.982848 0.231407
O O8 0.276470 0.238523 0.912371
O O9 0.804399 0.152413 0.906607
O O10 0.488212 0.910435 0.875581
O O11 0.305763 0.265297 0.043443
O O12 0.000000 0.500000 0.000000
O O13 0.158373 0.368866 0.163054
O O14 0.000000 0.000000 0.000000
O O15 0.542476 0.098545 0.413712
O O16 0.500000 0.000000 0.500000
O O17 0.400469 0.728196 0.325910
O O18 0.500000 0.500000 0.500000
#
# Coordination Sequence:
#
# PCOD8028613 Si02
#       8
#     2   2   2   2   2   2   2   2
#     4  12  26  48  75 105 151 195 256 300 372 447
#     4  12  28  44  77 106 150 201 258 312 368 456
#     4  11  26  46  77 107 146 194 255 302 377 451
#     4  11  26  48  74 111 151 191 240 318 386 447
#     4  10  25  48  79 106 150 193 255 303 383 447
#     4  12  28  47  72 108 158 198 250 311 383 439
#     4  12  28  47  75 114 147 198 249 319 376 452
#     4  12  26  46  75 107 150 202 256 302 379 446
#
# _framework density 23.320661999999999
#
# number of rings (size 3 to 8) (size 9 to 14) (size 15 to 20)
#    0.000    0.500    3.750    2.625    8.750    3.000 
#    0.000    0.000    0.000    0.000    0.000    0.000 
#    0.000    0.000    0.000    0.000    0.000    0.000 
#
# Total GULP energy -198264.035598 kJ/mol
# GULP energy per Si atom -12391.502225 kJ/mol
# Density = 2.326758 g / cm^3
# Si number density = 23.320662 Si / 1000 Ang^3
#
#
#
# Elastic Constant Matrix: (Units=GPa)
#
#
# Indices 1 2 3 4 5 6 
#
# 1 95.6134 8.7215 40.3625 -8.6461 -6.5854 -3.9860
# 2 8.7215 112.1067 48.7415 1.0430 8.8286 -6.4465
# 3 40.3625 48.7415 188.7392 3.7081 -4.3199 -7.2598
# 4 -8.6461 1.0430 3.7081 45.1033 -5.1659 3.2404
# 5 -6.5854 8.8286 -4.3199 -5.1659 26.5199 3.1984
# 6 -3.9860 -6.4465 -7.2598 3.2404 3.1984 35.6179
#
#
#
# Elastic Compliance Matrix: (Units=1/GPa)
#
#
# Indices 1 2 3 4 5 6 
#
# 1 0.012015 -0.000097 -0.002518 0.002851 0.003128 0.000273
# 2 -0.000097 0.010562 -0.002724 -0.000664 -0.004330 0.001795
# 3 -0.002518 -0.002724 0.006604 -0.000874 0.001121 0.000550
# 4 0.002851 -0.000664 -0.000874 0.023649 0.005712 -0.002644
# 5 0.003128 -0.004330 0.001121 0.005712 0.041761 -0.004475
# 6 0.000273 0.001795 0.000550 -0.002644 -0.004475 0.029186
#
#
# Mechanical properties :
#
#
# Convention : Reuss Voigt Hill
#
# Bulk Modulus (GPa) = 54.04416 65.79004 59.91710
# Shear Modulus (GPa) = 35.55581 41.35715 38.45648
#
# Velocity S-wave (km/s) = 3.90891 4.21576 4.06523
# Velocity P-wave (km/s) = 6.60284 7.20896 6.91255
#
# Compressibility (1/GPa) = 0.01850339
#
# Stress axis : x y z
#
# Youngs Moduli (GPa) = 83.22627 94.67636 151.41590
#
# Poissons Ratio (x) = 0.00918 0.38133
# Poissons Ratio (y) = 0.00807 0.41245
# Poissons Ratio (z) = 0.20960 0.25790
#
# Static dielectric constant tensor:
#      x y z
#    x 4.217470 0.102600 0.153780 
#    y 0.102600 4.660800 -0.252480 
#    z 0.153780 -0.252480 4.799660 
# 
# 
# High freq. dielectric constant tensor:
#      x y z
#    x 1.907180 0.002050 0.005070 
#    y 0.002050 1.927840 -0.002020 
#    z 0.005070 -0.002020 1.945940 
# 
# From -- ./inp_files/582625.got.cif
#   From: 2010.06.25/outbox.cif.g09.slc.cpg/sg2_292_cif.got.tgz:582625.got - 2010.06.27 13:26:56.
