data_PCOD8028876
_publ_section_title
;
Structure prediction by ZEFSAII (Michael W. Deem and Ramdas Pophale) SiO2 
 PCOD8028876
Probable space group: P -1
;
_chemical_formula_sum "Si O2"
_cell_formula_units_Z 12
_cell_length_a 15.865078
_cell_length_b 9.508168
_cell_length_c 16.133236
_cell_angle_alpha 112.952619
_cell_angle_beta 37.824449
_cell_angle_gamma 142.913052
_cell_volume 684.392522
_symmetry_space_group_name_H-M "P -1"
_symmetry_group_IT_number 2
_symmetry_cell_setting 'triclinic'
loop_
_space_group_symop_operation_xyz
x,y,z
-x,-y,-z
loop_
_atom_site_type_symbol
_atom_site_label
_atom_site_fract_x
_atom_site_fract_y
_atom_site_fract_z
Si Si1 0.696871 0.754885 0.974953
Si Si2 0.895211 0.756618 0.971052
Si Si3 0.705158 0.562051 0.371105
Si Si4 0.543420 0.874743 0.400453
Si Si5 0.731086 0.400443 0.152551
Si Si6 0.377115 0.023103 0.819434
O O1 0.735833 0.664330 0.993771
O O2 0.500000 0.500000 0.000000
O O3 0.986011 0.078153 0.784171
O O4 0.556160 0.770698 0.126019
O O5 0.668640 0.446184 0.131419
O O6 0.144237 0.887406 0.777432
O O7 0.000000 0.000000 0.000000
O O8 0.500000 0.500000 0.500000
O O9 0.656914 0.434606 0.467164
O O10 0.642986 0.385231 0.304807
O O11 0.500000 0.000000 0.500000
O O12 0.450592 0.791396 0.356854
O O13 0.566409 0.081109 0.199200
O O14 0.061126 0.706018 0.963385
#
# Coordination Sequence:
#
# PCOD8028876 Si02
#       6
#     2   2   2   2   2   2
#     4  11  23  38  56  81 117 155 188 227 284 348
#     4  11  18  35  58  83 109 148 195 231 270 335
#     4  11  19  32  57  87 109 140 193 236 276 327
#     4  11  19  30  58  91 112 132 187 250 283 310
#     4   9  17  30  55  81 105 141 191 235 268 323
#     4   9  18  33  52  79 112 145 185 230 278 332
#
# _framework density 17.533798999999998
#
# number of rings (size 3 to 8) (size 9 to 14) (size 15 to 20)
#    0.000    1.667    8.333    0.000    2.333    0.000 
#    0.000    1.667    0.000    2.000    0.000    0.000 
#    0.000    0.000    0.000    0.000    0.000    0.000 
#
# Total GULP energy -148732.277312 kJ/mol
# GULP energy per Si atom -12394.356443 kJ/mol
# Density = 1.749389 g / cm^3
# Si number density = 17.533799 Si / 1000 Ang^3
#
#
#
# Elastic Constant Matrix: (Units=GPa)
#
#
# Indices 1 2 3 4 5 6 
#
# 1 132.6078 77.5910 46.3852 -0.1112 32.7629 -19.6816
# 2 77.5910 123.0780 52.8084 19.9092 9.5071 -9.7512
# 3 46.3852 52.8084 90.5807 17.0936 21.5868 -9.0560
# 4 -0.1112 19.9092 17.0936 23.2291 -10.3687 2.6007
# 5 32.7629 9.5071 21.5868 -10.3687 38.5743 -5.7343
# 6 -19.6816 -9.7512 -9.0560 2.6007 -5.7343 35.4763
#
#
#
# Elastic Compliance Matrix: (Units=1/GPa)
#
#
# Indices 1 2 3 4 5 6 
#
# 1 0.016430 -0.009574 -0.001061 0.004493 -0.009138 0.004406
# 2 -0.009574 0.017296 -0.004028 -0.010408 0.003282 -0.000292
# 3 -0.001061 -0.004028 0.021357 -0.019187 -0.014803 0.002770
# 4 0.004493 -0.010408 -0.019187 0.080261 0.030126 -0.006280
# 5 -0.009138 0.003282 -0.014803 0.030126 0.048924 -0.002247
# 6 0.004406 -0.000292 0.002770 -0.006280 -0.002247 0.031356
#
#
# Mechanical properties :
#
#
# Convention : Reuss Voigt Hill
#
# Bulk Modulus (GPa) = 38.82625 77.75952 58.29289
# Shear Modulus (GPa) = 19.72107 30.75476 25.23791
#
# Velocity S-wave (km/s) = 3.35736 4.19265 3.79804
# Velocity P-wave (km/s) = 6.10089 8.23908 7.24925
#
# Compressibility (1/GPa) = 0.02575577
#
# Stress axis : x y z
#
# Youngs Moduli (GPa) = 60.86545 57.81741 46.82272
#
# Poissons Ratio (x) = 0.55355 0.04970
# Poissons Ratio (y) = 0.58273 0.18860
# Poissons Ratio (z) = 0.06461 0.23288
#
# Static dielectric constant tensor:
#      x y z
#    x 3.538150 -0.542730 0.277680 
#    y -0.542730 3.069040 0.199630 
#    z 0.277680 0.199630 3.260790 
# 
# 
# High freq. dielectric constant tensor:
#      x y z
#    x 1.674380 -0.045000 0.031950 
#    y -0.045000 1.654150 0.028720 
#    z 0.031950 0.028720 1.676490 
# 
# From -- ./inp_files/145314.got.cif
#   From: 2010.06.25/outbox.cif.g09.slc.cpg/sg2_73_cif.got.tgz:145314.got - 2010.06.27 13:26:56.
