data_PCOD8028111
_publ_section_title
;
Structure prediction by ZEFSAII (Michael W. Deem and Ramdas Pophale) SiO2 
 PCOD8028111
Probable space group: P -1
;
_chemical_formula_sum "Si O2"
_cell_formula_units_Z 14
_cell_length_a 11.834060
_cell_length_b 16.922312
_cell_length_c 9.176522
_cell_angle_alpha 117.058993
_cell_angle_beta 65.428637
_cell_angle_gamma 158.413595
_cell_volume 601.941882
_symmetry_space_group_name_H-M "P -1"
_symmetry_group_IT_number 2
_symmetry_cell_setting 'triclinic'
loop_
_space_group_symop_operation_xyz
x,y,z
-x,-y,-z
loop_
_atom_site_type_symbol
_atom_site_label
_atom_site_fract_x
_atom_site_fract_y
_atom_site_fract_z
Si Si1 0.901086 0.437278 0.746407
Si Si2 0.154895 0.180410 0.656863
Si Si3 0.210244 0.760736 0.618047
Si Si4 0.893706 0.188434 0.715828
Si Si5 0.708386 0.398972 0.091295
Si Si6 0.926106 0.932009 0.820846
Si Si7 0.152758 0.325025 0.386810
O O1 0.768447 0.268333 0.581079
O O2 0.988451 0.565324 0.684346
O O3 0.189052 0.598511 0.829495
O O4 0.650786 0.311127 0.892489
O O5 0.490941 0.427923 0.632983
O O6 0.930054 0.118711 0.720838
O O7 0.000000 0.000000 0.500000
O O8 0.174854 0.153164 0.785028
O O9 0.065488 0.764099 0.682587
O O10 0.543738 0.981270 0.693883
O O11 0.024027 0.354234 0.882062
O O12 0.105174 0.328623 0.577206
O O13 0.411282 0.253358 0.189852
O O14 0.947781 0.842673 0.699350
O O15 0.000000 0.000000 0.000000
#
# Coordination Sequence:
#
# PCOD8028111 Si02
#       7
#     2   2   2   2   2   2   2
#     4  10  25  43  71 102 144 186 241 290 361 429
#     4  12  26  45  77 103 141 193 241 294 361 426
#     4  11  26  43  75 104 141 189 243 292 358 426
#     4  12  24  45  74 106 145 190 243 296 356 429
#     4  11  24  46  69 104 149 184 238 303 356 424
#     4  12  29  46  74 106 147 191 239 301 370 419
#     4  12  26  46  72 109 145 183 248 296 347 436
#
# _framework density 23.258058999999999
#
# number of rings (size 3 to 8) (size 9 to 14) (size 15 to 20)
#    0.000    0.571    4.286    2.571    8.000    3.429 
#    0.000    0.000    0.000    0.000    0.000    0.000 
#    0.000    0.000    0.000    0.000    0.000    0.000 
#
# Total GULP energy -173575.984560 kJ/mol
# GULP energy per Si atom -12398.284611 kJ/mol
# Density = 2.320512 g / cm^3
# Si number density = 23.258059 Si / 1000 Ang^3
#
#
#
# Elastic Constant Matrix: (Units=GPa)
#
#
# Indices 1 2 3 4 5 6 
#
# 1 168.0124 24.8952 8.9377 -7.4950 -0.8215 -3.0454
# 2 24.8952 72.3392 -17.7791 -1.4888 1.5042 3.8757
# 3 8.9377 -17.7791 47.9150 -2.6334 10.9038 -1.7437
# 4 -7.4950 -1.4888 -2.6334 24.2497 -1.8737 2.0713
# 5 -0.8215 1.5042 10.9038 -1.8737 34.4605 -8.9310
# 6 -3.0454 3.8757 -1.7437 2.0713 -8.9310 34.2250
#
#
#
# Elastic Compliance Matrix: (Units=1/GPa)
#
#
# Indices 1 2 3 4 5 6 
#
# 1 0.006624 -0.002958 -0.002537 0.001611 0.001457 0.001078
# 2 -0.002958 0.016989 0.007698 0.000906 -0.003945 -0.002879
# 3 -0.002537 0.007698 0.026324 0.002031 -0.009207 -0.002282
# 4 0.001611 0.000906 0.002031 0.042278 0.001104 -0.002126
# 5 0.001457 -0.003945 -0.009207 0.001104 0.034546 0.009055
# 6 0.001078 -0.002879 -0.002282 -0.002126 0.009055 0.032016
#
#
# Mechanical properties :
#
#
# Convention : Reuss Voigt Hill
#
# Bulk Modulus (GPa) = 18.40163 35.59714 26.99939
# Shear Modulus (GPa) = 28.98836 36.73456 32.86146
#
# Velocity S-wave (km/s) = 3.53424 3.97852 3.76294
# Velocity P-wave (km/s) = 4.95818 6.03683 5.52390
#
# Compressibility (1/GPa) = 0.05434302
#
# Stress axis : x y z
#
# Youngs Moduli (GPa) = 150.97353 58.86288 37.98865
#
# Poissons Ratio (x) = 0.17411 0.09637
# Poissons Ratio (y) = 0.44656 -0.29244
# Poissons Ratio (z) = 0.38299 -0.45314
#
# Static dielectric constant tensor:
#      x y z
#    x 4.400630 -0.139350 0.381420 
#    y -0.139350 3.488930 0.324720 
#    z 0.381420 0.324720 3.706100 
# 
# 
# High freq. dielectric constant tensor:
#      x y z
#    x 1.947090 -0.001410 0.002300 
#    y -0.001410 1.911860 -0.001800 
#    z 0.002300 -0.001800 1.916770 
# 
# From -- ./inp_files/279609.got.cif
#   From: 2010.06.25/outbox.cif.g09.slc.cpg/sg2_140_cif.got.tgz:279609.got - 2010.06.27 13:26:56.
