data_PCOD8028361
_publ_section_title
;
Structure prediction by ZEFSAII (Michael W. Deem and Ramdas Pophale) SiO2 
 PCOD8028361
Probable space group: P -1
;
_chemical_formula_sum "Si O2"
_cell_formula_units_Z 16
_cell_length_a 9.004825
_cell_length_b 12.528244
_cell_length_c 9.143344
_cell_angle_alpha 121.436478
_cell_angle_beta 51.385709
_cell_angle_gamma 116.594191
_cell_volume 676.030343
_symmetry_space_group_name_H-M "P -1"
_symmetry_group_IT_number 2
_symmetry_cell_setting 'triclinic'
loop_
_space_group_symop_operation_xyz
x,y,z
-x,-y,-z
loop_
_atom_site_type_symbol
_atom_site_label
_atom_site_fract_x
_atom_site_fract_y
_atom_site_fract_z
Si Si1 0.091261 0.145494 0.015962
Si Si2 0.422816 0.568322 0.385515
Si Si3 0.639989 0.792329 0.593053
Si Si4 0.625202 0.334729 0.108837
Si Si5 0.239125 0.601514 0.231219
Si Si6 0.928098 0.375656 0.181505
Si Si7 0.023677 0.208521 0.405421
Si Si8 0.689213 0.965261 0.425870
O O1 0.160465 0.209566 0.177239
O O2 0.939494 0.228899 0.105722
O O3 0.256876 0.145650 0.792467
O O4 0.000000 0.000000 0.000000
O O5 0.584575 0.677570 0.430957
O O6 0.484495 0.435886 0.292511
O O7 0.403769 0.583223 0.232932
O O8 0.213080 0.571094 0.581709
O O9 0.483056 0.787186 0.817916
O O10 0.852368 0.790444 0.523699
O O11 0.646762 0.919681 0.585936
O O12 0.839210 0.380469 0.077454
O O13 0.653621 0.309429 0.901981
O O14 0.139743 0.465055 0.126176
O O15 0.075658 0.668108 0.452237
O O16 0.859143 0.085013 0.413007
O O17 0.500000 0.000000 0.500000
#
# Coordination Sequence:
#
# PCOD8028361 Si02
#       8
#     2   2   2   2   2   2   2   2
#     4  10  25  45  74  99 141 183 236 284 353 419
#     4  11  23  44  67 101 146 188 230 290 346 414
#     4  11  25  44  70  96 144 185 231 290 344 413
#     4  11  26  41  67 106 147 184 232 287 350 410
#     4  12  24  41  73 104 145 182 236 287 353 414
#     4  11  23  44  71 103 144 189 231 287 352 418
#     4  11  24  47  70 106 138 182 236 287 351 421
#     4  11  26  48  75 101 135 183 236 293 353 417
#
# _framework density 23.667577999999999
#
# number of rings (size 3 to 8) (size 9 to 14) (size 15 to 20)
#    0.000    1.000    1.250    5.250   10.500    2.000 
#    0.000    1.250    0.000    0.000    0.000    0.000 
#    0.000    0.000    0.000    0.000    0.000    0.000 
#
# Total GULP energy -198380.509924 kJ/mol
# GULP energy per Si atom -12398.781870 kJ/mol
# Density = 2.361371 g / cm^3
# Si number density = 23.667578 Si / 1000 Ang^3
#
#
#
# Elastic Constant Matrix: (Units=GPa)
#
#
# Indices 1 2 3 4 5 6 
#
# 1 169.9844 45.1642 33.4716 -6.8173 13.6196 -14.8374
# 2 45.1642 91.2093 27.9706 -9.7029 6.1133 -14.0541
# 3 33.4716 27.9706 87.8459 -5.1917 3.2915 -8.2923
# 4 -6.8173 -9.7029 -5.1917 36.0944 -13.0081 -0.0570
# 5 13.6196 6.1133 3.2915 -13.0081 35.1589 -0.7460
# 6 -14.8374 -14.0541 -8.2923 -0.0570 -0.7460 43.6249
#
#
#
# Elastic Compliance Matrix: (Units=1/GPa)
#
#
# Indices 1 2 3 4 5 6 
#
# 1 0.007223 -0.002764 -0.001699 -0.000450 -0.002299 0.001203
# 2 -0.002764 0.014002 -0.002954 0.002830 0.000024 0.003013
# 3 -0.001699 -0.002954 0.013104 0.000876 0.000290 0.000967
# 4 -0.000450 0.002830 0.000876 0.032739 0.011738 0.001169
# 5 -0.002299 0.000024 0.000290 0.011738 0.033642 -0.000129
# 6 0.001203 0.003013 0.000967 0.001169 -0.000129 0.024486
#
#
# Mechanical properties :
#
#
# Convention : Reuss Voigt Hill
#
# Bulk Modulus (GPa) = 51.29654 62.47249 56.88452
# Shear Modulus (GPa) = 34.12303 39.13784 36.63043
#
# Velocity S-wave (km/s) = 3.80117 4.07092 3.93836
# Velocity P-wave (km/s) = 6.40203 6.96776 6.69088
#
# Compressibility (1/GPa) = 0.01949449
#
# Stress axis : x y z
#
# Youngs Moduli (GPa) = 138.44619 71.41692 76.31363
#
# Poissons Ratio (x) = 0.19739 0.12965
# Poissons Ratio (y) = 0.38266 0.22546
# Poissons Ratio (z) = 0.23521 0.21100
#
# Static dielectric constant tensor:
#      x y z
#    x 4.304770 -0.173960 0.233190 
#    y -0.173960 4.208000 -0.147480 
#    z 0.233190 -0.147480 4.493120 
# 
# 
# High freq. dielectric constant tensor:
#      x y z
#    x 1.947580 -0.012900 0.010670 
#    y -0.012900 1.933480 -0.012140 
#    z 0.010670 -0.012140 1.933610 
# 
# From -- ./inp_files/189792.got.cif
#   From: 2010.06.25/outbox.cif.g09.slc.cpg/sg2_95_cif.got.tgz:189792.got - 2010.06.27 13:26:56.
