data_PCOD8028081
_publ_section_title
;
Structure prediction by ZEFSAII (Michael W. Deem and Ramdas Pophale) SiO2 
 PCOD8028081
Probable space group: P -1
;
_chemical_formula_sum "Si O2"
_cell_formula_units_Z 12
_cell_length_a 8.047485
_cell_length_b 14.839804
_cell_length_c 14.752574
_cell_angle_alpha 160.347088
_cell_angle_beta 101.525644
_cell_angle_gamma 88.218973
_cell_volume 510.374060
_symmetry_space_group_name_H-M "P -1"
_symmetry_group_IT_number 2
_symmetry_cell_setting 'triclinic'
loop_
_space_group_symop_operation_xyz
x,y,z
-x,-y,-z
loop_
_atom_site_type_symbol
_atom_site_label
_atom_site_fract_x
_atom_site_fract_y
_atom_site_fract_z
Si Si1 0.279297 0.415988 0.292858
Si Si2 0.381420 0.642410 0.162498
Si Si3 0.083549 0.513876 0.671687
Si Si4 0.815098 0.750604 0.071809
Si Si5 0.732959 0.809260 0.732279
Si Si6 0.049756 0.418222 0.774214
O O1 0.504062 0.651469 0.545064
O O2 0.220047 0.174159 0.139689
O O3 0.147440 0.588548 0.447726
O O4 0.249199 0.232271 0.021577
O O5 0.500000 0.000000 0.500000
O O6 0.500000 0.500000 0.000000
O O7 0.347784 0.540216 0.167097
O O8 0.179680 0.484542 0.939003
O O9 0.151931 0.351369 0.451707
O O10 0.149669 0.447546 0.714553
O O11 0.192401 0.867499 0.997626
O O12 0.873437 0.070208 0.432401
O O13 0.994889 0.687580 0.024915
#
# Coordination Sequence:
#
# PCOD8028081 Si02
#       6
#     2   2   2   2   2   2
#     4  10  25  43  68 101 137 183 233 275 351 392
#     4  12  26  42  69 101 131 168 219 279 337 404
#     4  11  24  42  69  97 140 180 230 276 344 403
#     4  11  24  44  68  93 135 176 221 275 333 410
#     4  11  25  42  68 100 139 182 229 288 328 412
#     4  11  24  44  68  97 131 178 220 269 343 402
#
# _framework density 23.512165
#
# number of rings (size 3 to 8) (size 9 to 14) (size 15 to 20)
#    0.000    1.000    0.000    6.000    4.667    9.333 
#    0.000    0.000    0.000    0.000    0.000    0.000 
#    0.000    0.000    0.000    0.000    0.000    0.000 
#
# Total GULP energy -148732.770788 kJ/mol
# GULP energy per Si atom -12394.397566 kJ/mol
# Density = 2.345865 g / cm^3
# Si number density = 23.512165 Si / 1000 Ang^3
#
#
#
# Elastic Constant Matrix: (Units=GPa)
#
#
# Indices 1 2 3 4 5 6 
#
# 1 102.9140 26.7295 29.6214 -3.8570 0.7369 10.0620
# 2 26.7295 116.0226 30.3829 3.1396 9.2538 19.0771
# 3 29.6214 30.3829 127.0469 18.6775 -6.9937 4.0815
# 4 -3.8570 3.1396 18.6775 42.8643 -1.5073 4.1943
# 5 0.7369 9.2538 -6.9937 -1.5073 25.5306 3.1249
# 6 10.0620 19.0771 4.0815 4.1943 3.1249 34.5437
#
#
#
# Elastic Compliance Matrix: (Units=1/GPa)
#
#
# Indices 1 2 3 4 5 6 
#
# 1 0.011177 -0.001594 -0.002508 0.002448 0.000003 -0.002377
# 2 -0.001594 0.010683 -0.002299 0.000417 -0.003836 -0.004868
# 3 -0.002508 -0.002299 0.009781 -0.004312 0.003199 0.001079
# 4 0.002448 0.000417 -0.004312 0.025772 0.000561 -0.003614
# 5 0.000003 -0.003836 0.003199 0.000561 0.041726 -0.002103
# 6 -0.002377 -0.004868 0.001079 -0.003614 -0.002103 0.032831
#
#
# Mechanical properties :
#
#
# Convention : Reuss Voigt Hill
#
# Bulk Modulus (GPa) = 53.08257 57.71679 55.39968
# Shear Modulus (GPa) = 33.10125 37.87104 35.48614
#
# Velocity S-wave (km/s) = 3.75618 4.01771 3.88914
# Velocity P-wave (km/s) = 6.43720 6.79143 6.61669
#
# Compressibility (1/GPa) = 0.01883858
#
# Stress axis : x y z
#
# Youngs Moduli (GPa) = 89.47109 93.60333 102.23736
#
# Poissons Ratio (x) = 0.14919 0.25642
# Poissons Ratio (y) = 0.14261 0.23509
# Poissons Ratio (z) = 0.22440 0.21523
#
# Static dielectric constant tensor:
#      x y z
#    x 4.260160 0.205180 0.135920 
#    y 0.205180 4.469370 -0.084140 
#    z 0.135920 -0.084140 3.900360 
# 
# 
# High freq. dielectric constant tensor:
#      x y z
#    x 1.931230 0.006740 -0.006720 
#    y 0.006740 1.958500 0.006840 
#    z -0.006720 0.006840 1.925810 
# 
# From -- ./inp_files/48099.got.cif
#   From: 2010.06.25/outbox.cif.g09.slc.cpg/sg2_25_cif.got.tgz:48099.got - 2010.06.27 13:26:56.
