data_PCOD8028673
_publ_section_title
;
Structure prediction by ZEFSAII (Michael W. Deem and Ramdas Pophale) SiO2 
 PCOD8028673
Probable space group: P -1
;
_chemical_formula_sum "Si O2"
_cell_formula_units_Z 12
_cell_length_a 20.688191
_cell_length_b 7.625617
_cell_length_c 8.679067
_cell_angle_alpha 145.788892
_cell_angle_beta 40.322887
_cell_angle_gamma 142.091848
_cell_volume 448.392216
_symmetry_space_group_name_H-M "P -1"
_symmetry_group_IT_number 2
_symmetry_cell_setting 'triclinic'
loop_
_space_group_symop_operation_xyz
x,y,z
-x,-y,-z
loop_
_atom_site_type_symbol
_atom_site_label
_atom_site_fract_x
_atom_site_fract_y
_atom_site_fract_z
Si Si1 0.423488 0.680675 0.803928
Si Si2 0.184991 0.143236 0.848081
Si Si3 0.736585 0.623798 0.647681
Si Si4 0.608516 0.023470 0.236221
Si Si5 0.876408 0.259704 0.639784
Si Si6 0.927053 0.814668 0.643732
O O1 0.500000 0.500000 0.500000
O O2 0.387210 0.840011 0.842849
O O3 0.310258 0.372961 0.851865
O O4 0.500000 0.000000 0.000000
O O5 0.140753 0.405083 0.044136
O O6 0.105225 0.955477 0.005954
O O7 0.175180 0.875989 0.536104
O O8 0.709131 0.304284 0.353640
O O9 0.806390 0.547726 0.601964
O O10 0.811979 0.976029 0.678936
O O11 0.627392 0.670715 0.941705
O O12 0.500000 0.000000 0.500000
O O13 0.008866 0.359615 0.495496
O O14 0.000000 0.000000 0.500000
#
# Coordination Sequence:
#
# PCOD8028673 Si02
#       6
#     2   2   2   2   2   2
#     4  12  26  44  70 100 133 175 230 273 327 398
#     4  12  24  45  72  97 137 177 223 280 332 390
#     4  11  23  46  64 101 136 176 217 275 335 399
#     4  12  26  44  69  96 139 177 221 278 338 391
#     4  11  22  46  69  98 133 177 222 274 331 397
#     4  10  26  43  72 102 137 174 226 273 335 405
#
# _framework density 26.762281999999999
#
# number of rings (size 3 to 8) (size 9 to 14) (size 15 to 20)
#    0.000    0.667    3.333    3.500    4.667    2.667 
#    0.000    7.500    0.000    0.000    0.000    0.000 
#    0.000    0.000    0.000    0.000    0.000    0.000 
#
# Total GULP energy -148684.880490 kJ/mol
# GULP energy per Si atom -12390.406708 kJ/mol
# Density = 2.670137 g / cm^3
# Si number density = 26.762282 Si / 1000 Ang^3
#
#
#
# Elastic Constant Matrix: (Units=GPa)
#
#
# Indices 1 2 3 4 5 6 
#
# 1 167.0985 15.6378 42.0696 -7.8922 4.5822 23.4057
# 2 15.6378 82.6702 13.3092 -19.4786 6.2238 10.1658
# 3 42.0696 13.3092 113.4778 -7.7871 3.8089 9.7802
# 4 -7.8922 -19.4786 -7.7871 52.3768 7.0781 3.6116
# 5 4.5822 6.2238 3.8089 7.0781 49.0319 -7.0843
# 6 23.4057 10.1658 9.7802 3.6116 -7.0843 41.0003
#
#
#
# Elastic Compliance Matrix: (Units=1/GPa)
#
#
# Indices 1 2 3 4 5 6 
#
# 1 0.007175 -0.000181 -0.002192 0.001113 -0.001192 -0.003832
# 2 -0.000181 0.014442 -0.000728 0.005978 -0.003257 -0.004393
# 3 -0.002192 -0.000728 0.009910 0.001059 -0.000793 -0.001162
# 4 0.001113 0.005978 0.001059 0.022674 -0.004974 -0.005227
# 5 -0.001192 -0.003257 -0.000793 -0.004974 0.022568 0.006015
# 6 -0.003832 -0.004393 -0.001162 -0.005227 0.006015 0.029444
#
#
# Mechanical properties :
#
#
# Convention : Reuss Voigt Hill
#
# Bulk Modulus (GPa) = 39.48875 56.14219 47.81547
# Shear Modulus (GPa) = 41.37089 47.96380 44.66734
#
# Velocity S-wave (km/s) = 3.93602 4.23805 4.08982
# Velocity P-wave (km/s) = 5.95346 6.70610 6.34096
#
# Compressibility (1/GPa) = 0.02532367
#
# Stress axis : x y z
#
# Youngs Moduli (GPa) = 139.36459 69.24322 100.90859
#
# Poissons Ratio (x) = 0.01254 0.22121
# Poissons Ratio (y) = 0.02524 0.07351
# Poissons Ratio (z) = 0.30552 0.05044
#
# Static dielectric constant tensor:
#      x y z
#    x 3.961850 -0.051850 2.233000 
#    y -0.051850 4.946250 0.055370 
#    z 2.233000 0.055370 1.415580 
# 
# 
# High freq. dielectric constant tensor:
#      x y z
#    x 2.101820 0.010010 -0.002850 
#    y 0.010010 2.076720 -0.018990 
#    z -0.002850 -0.018990 2.083750 
# 
# From -- ./inp_files/20289.got.cif
#   From: 2010.06.25/outbox.cif.g09.slc.cpg/sg2_11_cif.got.tgz:20289.got - 2010.06.27 13:26:56.
