data_PCOD8028938
_publ_section_title
;
Structure prediction by ZEFSAII (Michael W. Deem and Ramdas Pophale) SiO2 
 PCOD8028938
Probable space group: P -1
;
_chemical_formula_sum "Si O2"
_cell_formula_units_Z 12
_cell_length_a 6.168074
_cell_length_b 8.914580
_cell_length_c 12.108543
_cell_angle_alpha 56.915368
_cell_angle_beta 63.107408
_cell_angle_gamma 89.068055
_cell_volume 473.228423
_symmetry_space_group_name_H-M "P -1"
_symmetry_group_IT_number 2
_symmetry_cell_setting 'triclinic'
loop_
_space_group_symop_operation_xyz
x,y,z
-x,-y,-z
loop_
_atom_site_type_symbol
_atom_site_label
_atom_site_fract_x
_atom_site_fract_y
_atom_site_fract_z
Si Si1 0.342200 0.659283 0.899114
Si Si2 0.652344 0.688750 0.599863
Si Si3 0.335112 0.032582 0.692344
Si Si4 0.821315 0.116969 0.667211
Si Si5 0.230938 0.251371 0.063915
Si Si6 0.575482 0.721869 0.229950
O O1 0.556388 0.662359 0.757077
O O2 0.487990 0.723180 0.956340
O O3 0.176362 0.803253 0.841646
O O4 0.158872 0.441823 0.037249
O O5 0.612744 0.873118 0.477938
O O6 0.506623 0.501553 0.640024
O O7 0.957432 0.723699 0.510347
O O8 0.614063 0.007945 0.668003
O O9 0.265377 0.172179 0.742048
O O10 0.680934 0.213232 0.750137
O O11 0.941938 0.960799 0.761911
O O12 0.250828 0.224569 0.939664
#
# Coordination Sequence:
#
# PCOD8028938 Si02
#       6
#     2   2   2   2   2   2
#     4   9  19  32  56  75 102 138 170 207 256 302
#     4  11  19  35  53  80 104 131 171 213 252 302
#     4   9  20  33  53  79 103 133 169 211 256 298
#     4   9  20  32  57  77 100 135 171 211 254 294
#     4   9  17  35  54  75 101 140 171 204 255 306
#     4   9  19  34  56  74 104 137 169 208 255 300
#
# _framework density 25.357731000000001
#
# number of rings (size 3 to 8) (size 9 to 14) (size 15 to 20)
#    1.000    1.667    0.000    2.000    0.000    2.667 
#    0.000    1.667    0.000    6.000    0.000    0.000 
#    0.000    0.000    0.000    0.000    0.000    0.000 
#
# Total GULP energy -148688.143283 kJ/mol
# GULP energy per Si atom -12390.678607 kJ/mol
# Density = 2.530002 g / cm^3
# Si number density = 25.357731 Si / 1000 Ang^3
#
#
#
# Elastic Constant Matrix: (Units=GPa)
#
#
# Indices 1 2 3 4 5 6 
#
# 1 60.5384 19.8135 29.9206 -16.9195 7.6080 -6.6524
# 2 19.8135 101.5664 30.7748 -30.6687 -12.3634 8.6235
# 3 29.9206 30.7748 117.6680 -30.5652 -13.7286 13.5676
# 4 -16.9195 -30.6687 -30.5652 47.5693 0.2946 3.1067
# 5 7.6080 -12.3634 -13.7286 0.2946 42.2725 -11.4790
# 6 -6.6524 8.6235 13.5676 3.1067 -11.4790 45.2233
#
#
#
# Elastic Compliance Matrix: (Units=1/GPa)
#
#
# Indices 1 2 3 4 5 6 
#
# 1 0.021834 -0.002977 -0.005271 0.002245 -0.005492 0.003812
# 2 -0.002977 0.013440 -0.000017 0.007741 0.003705 -0.002587
# 3 -0.005271 -0.000017 0.012385 0.006306 0.003851 -0.003944
# 4 0.002245 0.007741 0.006306 0.031146 0.002454 -0.004554
# 5 -0.005492 0.003705 0.003851 0.002454 0.028130 0.004302
# 6 0.003812 -0.002587 -0.003944 -0.004554 0.004302 0.025755
#
#
# Mechanical properties :
#
#
# Convention : Reuss Voigt Hill
#
# Bulk Modulus (GPa) = 32.12211 48.97674 40.54942
# Shear Modulus (GPa) = 31.32943 40.29730 35.81337
#
# Velocity S-wave (km/s) = 3.51878 3.99074 3.76217
# Velocity P-wave (km/s) = 5.40409 6.37110 5.90742
#
# Compressibility (1/GPa) = 0.03113120
#
# Stress axis : x y z
#
# Youngs Moduli (GPa) = 45.79941 74.40659 80.74157
#
# Poissons Ratio (x) = 0.22148 0.42556
# Poissons Ratio (y) = 0.13633 0.00135
# Poissons Ratio (z) = 0.24139 0.00124
#
# Static dielectric constant tensor:
#      x y z
#    x 4.746780 0.076680 0.022200 
#    y 0.076680 4.700320 -0.592680 
#    z 0.022200 -0.592680 4.358290 
# 
# 
# High freq. dielectric constant tensor:
#      x y z
#    x 2.036940 0.005580 -0.002390 
#    y 0.005580 2.023510 -0.039270 
#    z -0.002390 -0.039270 2.012120 
# 
# From -- ./inp_files/153153.got.cif
#   From: 2010.06.25/outbox.cif.g09.slc.cpg/sg2_77_cif.got.tgz:153153.got - 2010.06.27 13:26:56.
