data_PCOD8028280
_publ_section_title
;
Structure prediction by ZEFSAII (Michael W. Deem and Ramdas Pophale) SiO2 
 PCOD8028280
Probable space group: P -1
;
_chemical_formula_sum "Si O2"
_cell_formula_units_Z 16
_cell_length_a 14.369273
_cell_length_b 11.341482
_cell_length_c 8.642139
_cell_angle_alpha 83.468092
_cell_angle_beta 33.751334
_cell_angle_gamma 95.619258
_cell_volume 728.605032
_symmetry_space_group_name_H-M "P -1"
_symmetry_group_IT_number 2
_symmetry_cell_setting 'triclinic'
loop_
_space_group_symop_operation_xyz
x,y,z
-x,-y,-z
loop_
_atom_site_type_symbol
_atom_site_label
_atom_site_fract_x
_atom_site_fract_y
_atom_site_fract_z
Si Si1 0.669147 0.112528 0.310479
Si Si2 0.506310 0.294970 0.643377
Si Si3 0.882806 0.041507 0.276390
Si Si4 0.157497 0.297344 0.960860
Si Si5 0.822266 0.509106 0.315547
Si Si6 0.121702 0.851121 0.284953
Si Si7 0.240116 0.110635 0.242536
Si Si8 0.062496 0.593249 0.543482
O O1 0.618536 0.235369 0.388936
O O2 0.732050 0.078925 0.393563
O O3 0.500000 0.000000 0.500000
O O4 0.833457 0.146520 0.958938
O O5 0.348990 0.301241 0.750062
O O6 0.639985 0.428567 0.493806
O O7 0.427627 0.215391 0.920361
O O8 0.777716 0.921796 0.546797
O O9 0.009989 0.155564 0.191402
O O10 0.000000 0.000000 0.000000
O O11 0.167977 0.347080 0.759041
O O12 0.102231 0.395403 0.130699
O O13 0.816046 0.466008 0.510241
O O14 0.000000 0.500000 0.000000
O O15 0.170114 0.736420 0.313877
O O16 0.913578 0.832960 0.602014
O O17 0.238613 0.986287 0.171146
O O18 0.000000 0.500000 0.500000
#
# Coordination Sequence:
#
# PCOD8028280 Si02
#       8
#     2   2   2   2   2   2   2   2
#     4  12  25  39  63 106 141 179 233 282 343 424
#     4  12  24  44  73 101 139 182 236 295 353 415
#     4  12  24  42  74 104 142 188 231 286 355 423
#     4  11  23  47  70 100 137 185 237 287 348 418
#     4  10  25  45  68  97 132 184 233 282 350 416
#     4  11  22  43  68  99 143 181 231 286 352 421
#     4  11  22  43  73  99 140 186 227 290 358 410
#     4  11  24  42  73  98 134 187 236 283 348 415
#
# _framework density 21.959771
#
# number of rings (size 3 to 8) (size 9 to 14) (size 15 to 20)
#    0.000    0.750    5.000    3.375    5.250    1.500 
#    0.000    0.625    0.000    0.000    0.000    0.000 
#    0.000    0.000    0.000    0.000    0.000    0.000 
#
# Total GULP energy -198341.439160 kJ/mol
# GULP energy per Si atom -12396.339947 kJ/mol
# Density = 2.190979 g / cm^3
# Si number density = 21.959771 Si / 1000 Ang^3
#
#
#
# Elastic Constant Matrix: (Units=GPa)
#
#
# Indices 1 2 3 4 5 6 
#
# 1 133.4330 27.9874 22.6055 -1.0150 -0.1002 -17.8447
# 2 27.9874 80.0458 22.2396 2.1846 9.4700 -8.6016
# 3 22.6055 22.2396 83.1548 -3.6792 7.7668 -0.4912
# 4 -1.0150 2.1846 -3.6792 41.5101 0.3312 7.9122
# 5 -0.1002 9.4700 7.7668 0.3312 42.5602 -7.0914
# 6 -17.8447 -8.6016 -0.4912 7.9122 -7.0914 39.9922
#
#
#
# Elastic Compliance Matrix: (Units=1/GPa)
#
#
# Indices 1 2 3 4 5 6 
#
# 1 0.008807 -0.002302 -0.001923 -0.000569 0.001520 0.003793
# 2 -0.002302 0.014701 -0.003138 -0.001464 -0.002365 0.001967
# 3 -0.001923 -0.003138 0.013655 0.001745 -0.002161 -0.002094
# 4 -0.000569 -0.001464 0.001745 0.025419 -0.001155 -0.005781
# 5 0.001520 -0.002365 -0.002161 -0.001155 0.025237 0.004847
# 6 0.003793 0.001967 -0.002094 -0.005781 0.004847 0.029098
#
#
# Mechanical properties :
#
#
# Convention : Reuss Voigt Hill
#
# Bulk Modulus (GPa) = 44.57192 49.14432 46.85812
# Shear Modulus (GPa) = 35.93981 39.73259 37.83620
#
# Velocity S-wave (km/s) = 4.04991 4.25824 4.15538
# Velocity P-wave (km/s) = 6.49693 6.82676 6.66389
#
# Compressibility (1/GPa) = 0.02243565
#
# Stress axis : x y z
#
# Youngs Moduli (GPa) = 113.54434 68.02461 73.23555
#
# Poissons Ratio (x) = 0.15657 0.14086
# Poissons Ratio (y) = 0.26134 0.22983
# Poissons Ratio (z) = 0.21839 0.21348
#
# Static dielectric constant tensor:
#      x y z
#    x 4.086800 -0.306810 0.262140 
#    y -0.306810 4.101150 -0.144430 
#    z 0.262140 -0.144430 3.990320 
# 
# 
# High freq. dielectric constant tensor:
#      x y z
#    x 1.867250 -0.020060 0.015660 
#    y -0.020060 1.862510 -0.007600 
#    z 0.015660 -0.007600 1.859170 
# 
# From -- ./inp_files/294996.got.cif
#   From: 2010.06.25/outbox.cif.g09.slc.cpg/sg2_148_cif.got.tgz:294996.got - 2010.06.27 13:26:56.
