data_PCOD8028648
_publ_section_title
;
Structure prediction by ZEFSAII (Michael W. Deem and Ramdas Pophale) SiO2 
 PCOD8028648
Probable space group: P -1
;
_chemical_formula_sum "Si O2"
_cell_formula_units_Z 16
_cell_length_a 17.101792
_cell_length_b 5.616647
_cell_length_c 9.177440
_cell_angle_alpha 106.059698
_cell_angle_beta 97.327307
_cell_angle_gamma 51.159186
_cell_volume 658.580108
_symmetry_space_group_name_H-M "P -1"
_symmetry_group_IT_number 2
_symmetry_cell_setting 'triclinic'
loop_
_space_group_symop_operation_xyz
x,y,z
-x,-y,-z
loop_
_atom_site_type_symbol
_atom_site_label
_atom_site_fract_x
_atom_site_fract_y
_atom_site_fract_z
Si Si1 0.534339 0.418326 0.831365
Si Si2 0.156879 0.620162 0.906615
Si Si3 0.280045 0.645383 0.160035
Si Si4 0.974621 0.181721 0.823133
Si Si5 0.678086 0.726788 0.626610
Si Si6 0.908810 0.741244 0.689201
Si Si7 0.409274 0.549297 0.568968
Si Si8 0.208756 0.217255 0.573955
O O1 0.599971 0.536676 0.833588
O O2 0.430443 0.577406 0.746483
O O3 0.614828 0.054082 0.751526
O O4 0.500000 0.500000 0.000000
O O5 0.188693 0.351984 0.753256
O O6 0.256510 0.553235 0.986403
O O7 0.096704 0.606105 0.022503
O O8 0.089873 0.964381 0.870637
O O9 0.254313 0.530343 0.275688
O O10 0.203843 0.028113 0.225270
O O11 0.965267 0.403721 0.729543
O O12 0.959534 0.914783 0.737999
O O13 0.592974 0.733839 0.521780
O O14 0.758838 0.636221 0.507423
O O15 0.893056 0.705009 0.506543
O O16 0.500000 0.500000 0.500000
O O17 0.300576 0.847993 0.540157
#
# Coordination Sequence:
#
# PCOD8028648 Si02
#       8
#     2   2   2   2   2   2   2   2
#     4  12  28  42  68 103 136 188 238 297 357 425
#     4  10  26  45  69 106 139 183 240 293 365 428
#     4  11  24  45  67  99 140 191 229 295 357 435
#     4  10  25  50  73 105 147 192 227 310 357 443
#     4  12  23  46  67  93 140 191 227 302 354 418
#     4  11  22  47  78 101 145 189 240 284 376 423
#     4  12  24  45  66 100 137 184 241 294 361 418
#     4  12  25  42  71 105 133 189 239 297 351 437
#
# _framework density 24.294692999999999
#
# number of rings (size 3 to 8) (size 9 to 14) (size 15 to 20)
#    0.000    0.750    5.000    1.875    3.500    6.000 
#    4.500    0.000    0.000    0.000    0.000    0.000 
#    0.000    0.000    0.000    0.000    0.000    0.000 
#
# Total GULP energy -198254.055319 kJ/mol
# GULP energy per Si atom -12390.878457 kJ/mol
# Density = 2.423940 g / cm^3
# Si number density = 24.294693 Si / 1000 Ang^3
#
#
#
# Elastic Constant Matrix: (Units=GPa)
#
#
# Indices 1 2 3 4 5 6 
#
# 1 69.1616 22.7941 29.5879 -5.9651 32.4996 7.5886
# 2 22.7941 90.7160 28.9467 -26.0056 12.9878 3.1696
# 3 29.5879 28.9467 173.9121 -7.5284 36.1769 10.7328
# 4 -5.9651 -26.0056 -7.5284 39.7323 -10.5693 8.1042
# 5 32.4996 12.9878 36.1769 -10.5693 32.6591 -9.0408
# 6 7.5886 3.1696 10.7328 8.1042 -9.0408 32.0370
#
#
#
# Elastic Compliance Matrix: (Units=1/GPa)
#
#
# Indices 1 2 3 4 5 6 
#
# 1 0.042404 -0.005396 0.006891 -0.005579 -0.056809 -0.026439
# 2 -0.005396 0.015347 -0.002126 0.010249 0.004719 -0.000789
# 3 0.006891 -0.002126 0.009612 -0.001848 -0.019973 -0.009811
# 4 -0.005579 0.010249 -0.001848 0.035188 0.013779 -0.004086
# 5 -0.056809 0.004719 -0.019973 0.013779 0.126199 0.051808
# 6 -0.026439 -0.000789 -0.009811 -0.004086 0.051808 0.056495
#
#
# Mechanical properties :
#
#
# Convention : Reuss Voigt Hill
#
# Bulk Modulus (GPa) = 15.12812 55.16080 35.14446
# Shear Modulus (GPa) = 16.20534 37.71640 26.96087
#
# Velocity S-wave (km/s) = 2.58550 3.94439 3.33489
# Velocity P-wave (km/s) = 3.89275 6.59534 5.41535
#
# Compressibility (1/GPa) = 0.06610207
#
# Stress axis : x y z
#
# Youngs Moduli (GPa) = 23.58278 65.15737 104.03961
#
# Poissons Ratio (x) = 0.35159 -0.71697
# Poissons Ratio (y) = 0.12725 0.22118
# Poissons Ratio (z) = -0.16252 0.13852
#
# Static dielectric constant tensor:
#      x y z
#    x 5.058140 -0.714850 1.038080 
#    y -0.714850 4.943630 -0.913270 
#    z 1.038080 -0.913270 5.351590 
# 
# 
# High freq. dielectric constant tensor:
#      x y z
#    x 1.963850 -0.011290 0.025200 
#    y -0.011290 1.958060 -0.008830 
#    z 0.025200 -0.008830 1.979790 
# 
# From -- ./inp_files/339936.got.cif
#   From: 2010.06.25/outbox.cif.g09.slc.cpg/sg2_170_cif.got.tgz:339936.got - 2010.06.27 13:26:56.
