data_PCOD8028585
_publ_section_title
;
Structure prediction by ZEFSAII (Michael W. Deem and Ramdas Pophale) SiO2 
 PCOD8028585
Probable space group: P -1
;
_chemical_formula_sum "Si O2"
_cell_formula_units_Z 16
_cell_length_a 8.694593
_cell_length_b 15.323122
_cell_length_c 6.443909
_cell_angle_alpha 70.513280
_cell_angle_beta 74.869248
_cell_angle_gamma 104.940361
_cell_volume 722.997059
_symmetry_space_group_name_H-M "P -1"
_symmetry_group_IT_number 2
_symmetry_cell_setting 'triclinic'
loop_
_space_group_symop_operation_xyz
x,y,z
-x,-y,-z
loop_
_atom_site_type_symbol
_atom_site_label
_atom_site_fract_x
_atom_site_fract_y
_atom_site_fract_z
Si Si1 0.530236 0.616582 0.012998
Si Si2 0.640372 0.584421 0.588444
Si Si3 0.450487 0.852956 0.484961
Si Si4 0.629852 0.760430 0.208675
Si Si5 0.267448 0.002454 0.436537
Si Si6 0.768236 0.369837 0.152406
Si Si7 0.940211 0.932223 0.877172
Si Si8 0.913066 0.528278 0.314112
O O1 0.503330 0.530073 0.267456
O O2 0.578773 0.722911 0.021553
O O3 0.675814 0.615234 0.797593
O O4 0.351079 0.589952 0.976153
O O5 0.570949 0.666236 0.459783
O O6 0.805222 0.590320 0.395024
O O7 0.534376 0.832329 0.259903
O O8 0.360591 0.928846 0.393666
O O9 0.311549 0.749660 0.701472
O O10 0.600594 0.901976 0.563073
O O11 0.836348 0.820027 0.086784
O O12 0.105509 0.937644 0.685938
O O13 0.197532 0.039068 0.230132
O O14 0.795814 0.425855 0.320545
O O15 0.950383 0.397703 0.950987
O O16 0.000000 0.000000 0.000000
O O17 0.000000 0.500000 0.500000
#
# Coordination Sequence:
#
# PCOD8028585 Si02
#       8
#     2   2   2   2   2   2   2   2
#     4  11  24  42  67  97 136 175 217 275 319 388
#     4  11  25  40  65  98 132 175 220 266 326 387
#     4  11  23  47  70 103 129 177 226 281 334 398
#     4  12  25  41  70 100 132 172 228 269 336 402
#     4  10  25  48  71  94 141 166 224 287 339 400
#     4  11  24  43  66  97 132 174 224 267 324 396
#     4  11  24  48  68 100 132 177 217 281 347 401
#     4  11  25  44  61  93 139 179 215 269 328 392
#
# _framework density 22.130101
#
# number of rings (size 3 to 8) (size 9 to 14) (size 15 to 20)
#    0.000    1.000    3.750    1.875    5.250    0.500 
#    4.500    0.000    0.000    0.000    0.000    0.000 
#    0.000    0.000    0.000    0.000    0.000    0.000 
#
# Total GULP energy -198384.189011 kJ/mol
# GULP energy per Si atom -12399.011813 kJ/mol
# Density = 2.207973 g / cm^3
# Si number density = 22.130101 Si / 1000 Ang^3
#
#
#
# Elastic Constant Matrix: (Units=GPa)
#
#
# Indices 1 2 3 4 5 6 
#
# 1 97.2779 63.5758 37.3331 15.1957 -6.8196 2.3512
# 2 63.5758 166.4683 61.9248 21.9666 -10.0320 9.7355
# 3 37.3331 61.9248 97.2733 11.0880 -24.1162 4.5372
# 4 15.1957 21.9666 11.0880 43.9491 -2.7399 -7.2302
# 5 -6.8196 -10.0320 -24.1162 -2.7399 39.4411 6.2921
# 6 2.3512 9.7355 4.5372 -7.2302 6.2921 41.5714
#
#
#
# Elastic Compliance Matrix: (Units=1/GPa)
#
#
# Indices 1 2 3 4 5 6 
#
# 1 0.014391 -0.004245 -0.002681 -0.002177 -0.000407 0.000156
# 2 -0.004245 0.009644 -0.004324 -0.002621 -0.000807 -0.001880
# 3 -0.002681 -0.004324 0.016429 -0.000857 0.008758 -0.002104
# 4 -0.002177 -0.002621 -0.000857 0.025886 -0.000635 0.005429
# 5 -0.000407 -0.000807 0.008758 -0.000635 0.031281 -0.005589
# 6 0.000156 -0.001880 -0.002104 0.005429 -0.005589 0.026506
#
#
# Mechanical properties :
#
#
# Convention : Reuss Voigt Hill
#
# Bulk Modulus (GPa) = 55.66441 76.29857 65.98149
# Shear Modulus (GPa) = 32.76009 38.20471 35.48240
#
# Velocity S-wave (km/s) = 3.85169 4.15947 4.00854
# Velocity P-wave (km/s) = 6.70735 7.59081 7.16271
#
# Compressibility (1/GPa) = 0.01796480
#
# Stress axis : x y z
#
# Youngs Moduli (GPa) = 69.48867 103.69099 60.86892
#
# Poissons Ratio (x) = 0.44018 0.16316
# Poissons Ratio (y) = 0.29499 0.26318
# Poissons Ratio (z) = 0.18627 0.44833
#
# Static dielectric constant tensor:
#      x y z
#    x 4.044810 0.059140 -0.276050 
#    y 0.059140 4.179940 0.058120 
#    z -0.276050 0.058120 4.264150 
# 
# 
# High freq. dielectric constant tensor:
#      x y z
#    x 1.859690 0.001770 -0.011690 
#    y 0.001770 1.879990 0.009260 
#    z -0.011690 0.009260 1.887910 
# 
# From -- ./inp_files/37965.got.cif
#   From: 2010.06.25/outbox.cif.g09.slc.cpg/sg2_19_cif.got.tgz:37965.got - 2010.06.27 13:26:56.
