data_PCOD8028664
_publ_section_title
;
Structure prediction by ZEFSAII (Michael W. Deem and Ramdas Pophale) SiO2 
 PCOD8028664
Probable space group: P -1
;
_chemical_formula_sum "Si O2"
_cell_formula_units_Z 16
_cell_length_a 8.256209
_cell_length_b 20.160445
_cell_length_c 6.093999
_cell_angle_alpha 103.637459
_cell_angle_beta 129.610923
_cell_angle_gamma 62.763560
_cell_volume 692.469694
_symmetry_space_group_name_H-M "P -1"
_symmetry_group_IT_number 2
_symmetry_cell_setting 'triclinic'
loop_
_space_group_symop_operation_xyz
x,y,z
-x,-y,-z
loop_
_atom_site_type_symbol
_atom_site_label
_atom_site_fract_x
_atom_site_fract_y
_atom_site_fract_z
Si Si1 0.494955 0.721156 0.541335
Si Si2 0.898503 0.470180 0.691123
Si Si3 0.341204 0.401750 0.739751
Si Si4 0.331601 0.633645 0.632088
Si Si5 0.057609 0.100935 0.166896
Si Si6 0.335816 0.157119 0.147215
Si Si7 0.060804 0.794823 0.472959
Si Si8 0.822141 0.039675 0.569626
O O1 0.550612 0.684427 0.319909
O O2 0.523572 0.652016 0.676529
O O3 0.668474 0.760298 0.764678
O O4 0.234112 0.784279 0.405758
O O5 0.709300 0.539640 0.454236
O O6 0.763731 0.420401 0.620266
O O7 0.102442 0.417849 0.668452
O O8 0.000000 0.500000 0.000000
O O9 0.538719 0.408274 0.068952
O O10 0.111869 0.712502 0.550588
O O11 0.223274 0.138147 0.249581
O O12 0.895467 0.155891 0.258375
O O13 0.210657 0.021044 0.347815
O O14 0.903685 0.091991 0.830328
O O15 0.586693 0.090889 0.284654
O O16 0.197351 0.160903 0.806422
O O17 0.000000 0.000000 0.500000
#
# Coordination Sequence:
#
# PCOD8028664 Si02
#       8
#     2   2   2   2   2   2   2   2
#     4  10  26  41  70 101 139 180 225 285 348 409
#     4  11  26  46  70 105 136 180 237 283 342 413
#     4  11  25  44  72  98 137 183 230 284 343 411
#     4  10  26  44  69  97 140 180 222 284 349 404
#     4  11  25  45  71 104 135 185 228 285 337 417
#     4  12  25  43  71 102 137 180 229 284 340 408
#     4  10  27  43  68 102 139 177 231 283 345 412
#     4  11  26  48  72 100 144 180 232 282 344 405
#
# _framework density 23.105702999999998
#
# number of rings (size 3 to 8) (size 9 to 14) (size 15 to 20)
#    0.750    0.500    0.000    3.750    8.750    9.000 
#    0.000    0.000    0.000    0.000    0.000    0.000 
#    0.000    0.000    0.000    0.000    0.000    0.000 
#
# Total GULP energy -198299.778162 kJ/mol
# GULP energy per Si atom -12393.736135 kJ/mol
# Density = 2.305311 g / cm^3
# Si number density = 23.105703 Si / 1000 Ang^3
#
#
#
# Elastic Constant Matrix: (Units=GPa)
#
#
# Indices 1 2 3 4 5 6 
#
# 1 103.9184 67.6755 43.0463 14.1164 2.8567 4.9925
# 2 67.6755 127.4669 77.6275 12.6343 4.0766 3.5576
# 3 43.0463 77.6275 153.5757 1.5463 5.0356 -2.3984
# 4 14.1164 12.6343 1.5463 56.8798 -2.8434 0.1857
# 5 2.8567 4.0766 5.0356 -2.8434 22.6595 6.9572
# 6 4.9925 3.5576 -2.3984 0.1857 6.9572 63.4162
#
#
#
# Elastic Compliance Matrix: (Units=1/GPa)
#
#
# Indices 1 2 3 4 5 6 
#
# 1 0.014983 -0.007472 -0.000397 -0.002070 -0.000497 -0.000715
# 2 -0.007472 0.015452 -0.005687 -0.001453 -0.000627 -0.000421
# 3 -0.000397 -0.005687 0.009538 0.001041 -0.001173 0.000837
# 4 -0.002070 -0.001453 0.001041 0.018521 0.002633 -0.000059
# 5 -0.000497 -0.000627 -0.001173 0.002633 0.046456 -0.005074
# 6 -0.000715 -0.000421 0.000837 -0.000059 -0.005074 0.016437
#
#
# Mechanical properties :
#
#
# Convention : Reuss Voigt Hill
#
# Bulk Modulus (GPa) = 77.75681 84.62885 81.19283
# Shear Modulus (GPa) = 32.72557 41.69855 37.21206
#
# Velocity S-wave (km/s) = 3.76751 4.25277 4.01747
# Velocity P-wave (km/s) = 7.25612 7.79879 7.53234
#
# Compressibility (1/GPa) = 0.01286061
#
# Stress axis : x y z
#
# Youngs Moduli (GPa) = 66.74450 64.71802 104.83890
#
# Poissons Ratio (x) = 0.48357 0.04159
# Poissons Ratio (y) = 0.49871 0.59625
# Poissons Ratio (z) = 0.02648 0.36807
#
# Static dielectric constant tensor:
#      x y z
#    x 3.984160 0.077130 -0.033460 
#    y 0.077130 4.365100 0.011710 
#    z -0.033460 0.011710 3.980260 
# 
# 
# High freq. dielectric constant tensor:
#      x y z
#    x 1.899020 0.003870 -0.003040 
#    y 0.003870 1.934340 -0.000990 
#    z -0.003040 -0.000990 1.904530 
# 
# From -- ./inp_files/53596.got.cif
#   From: 2010.06.25/outbox.cif.g09.slc.cpg/sg2_27_cif.got.tgz:53596.got - 2010.06.27 13:26:56.
