data_PCOD8028474
_publ_section_title
;
Structure prediction by ZEFSAII (Michael W. Deem and Ramdas Pophale) SiO2 
 PCOD8028474
Probable space group: P -1
;
_chemical_formula_sum "Si O2"
_cell_formula_units_Z 16
_cell_length_a 16.060395
_cell_length_b 13.975414
_cell_length_c 8.976439
_cell_angle_alpha 77.811530
_cell_angle_beta 131.981656
_cell_angle_gamma 140.409994
_cell_volume 731.457423
_symmetry_space_group_name_H-M "P -1"
_symmetry_group_IT_number 2
_symmetry_cell_setting 'triclinic'
loop_
_space_group_symop_operation_xyz
x,y,z
-x,-y,-z
loop_
_atom_site_type_symbol
_atom_site_label
_atom_site_fract_x
_atom_site_fract_y
_atom_site_fract_z
Si Si1 0.104149 0.012035 0.330104
Si Si2 0.487782 0.716430 0.088697
Si Si3 0.315829 0.935733 0.843495
Si Si4 0.070549 0.755317 0.901791
Si Si5 0.351786 0.642147 0.615026
Si Si6 0.806244 0.953669 0.910321
Si Si7 0.733598 0.205405 0.634975
Si Si8 0.005569 0.292135 0.699848
O O1 0.308921 0.195091 0.629123
O O2 0.918153 0.955655 0.148828
O O3 0.984004 0.816772 0.273088
O O4 0.193134 0.081977 0.245853
O O5 0.584392 0.895974 0.179000
O O6 0.442055 0.674525 0.872016
O O7 0.254326 0.519931 0.960800
O O8 0.283869 0.926006 0.986204
O O9 0.075942 0.725791 0.551926
O O10 0.500000 0.000000 0.000000
O O11 0.064139 0.846071 0.969804
O O12 0.846608 0.580478 0.595562
O O13 0.094607 0.675322 0.058069
O O14 0.266881 0.690798 0.483921
O O15 0.546667 0.772321 0.689113
O O16 0.818235 0.186493 0.627331
O O17 0.500000 0.000000 0.500000
#
# Coordination Sequence:
#
# PCOD8028474 Si02
#       8
#     2   2   2   2   2   2   2   2
#     4  10  25  46  73  95 127 176 226 284 328 386
#     4  11  24  43  67  98 135 175 221 269 332 393
#     4  11  23  40  65  93 139 182 216 265 327 394
#     4  12  24  43  66 100 136 174 221 274 328 394
#     4  12  25  42  66 102 135 178 216 268 334 401
#     4  11  24  48  70  97 131 172 227 278 336 385
#     4  12  23  43  68  98 139 176 220 269 328 395
#     4  11  23  42  65 100 133 172 226 267 328 395
#
# _framework density 21.874136
#
# number of rings (size 3 to 8) (size 9 to 14) (size 15 to 20)
#    0.000    0.750    5.000    1.875    3.500    3.500 
#    0.000    3.750    0.000    0.000    0.000    0.000 
#    0.000    0.000    0.000    0.000    0.000    0.000 
#
# Total GULP energy -198260.519037 kJ/mol
# GULP energy per Si atom -12391.282440 kJ/mol
# Density = 2.182435 g / cm^3
# Si number density = 21.874136 Si / 1000 Ang^3
#
#
#
# Elastic Constant Matrix: (Units=GPa)
#
#
# Indices 1 2 3 4 5 6 
#
# 1 68.5976 23.4467 34.7589 -5.7978 4.5628 -8.5403
# 2 23.4467 71.5233 41.7069 -0.6159 1.2440 -2.7775
# 3 34.7589 41.7069 145.4402 -12.4236 -7.8442 -13.2024
# 4 -5.7978 -0.6159 -12.4236 42.8009 -1.4953 -3.2089
# 5 4.5628 1.2440 -7.8442 -1.4953 32.3824 -8.5692
# 6 -8.5403 -2.7775 -13.2024 -3.2089 -8.5692 19.5628
#
#
#
# Elastic Compliance Matrix: (Units=1/GPa)
#
#
# Indices 1 2 3 4 5 6 
#
# 1 0.018263 -0.004231 -0.002585 0.002005 -0.001547 0.005279
# 2 -0.004231 0.018058 -0.004834 -0.002096 -0.002409 -0.003945
# 3 -0.002585 -0.004834 0.010161 0.003304 0.005250 0.007884
# 4 0.002005 -0.002096 0.003304 0.025364 0.004087 0.008758
# 5 -0.001547 -0.002409 0.005250 0.004087 0.037890 0.019793
# 6 0.005279 -0.003945 0.007884 0.008758 0.019793 0.068289
#
#
# Mechanical properties :
#
#
# Convention : Reuss Voigt Hill
#
# Bulk Modulus (GPa) = 43.13580 53.93180 48.53380
# Shear Modulus (GPa) = 23.91753 31.32579 27.62166
#
# Velocity S-wave (km/s) = 3.31027 3.78841 3.55738
# Velocity P-wave (km/s) = 5.86288 6.62156 6.25374
#
# Compressibility (1/GPa) = 0.02318260
#
# Stress axis : x y z
#
# Youngs Moduli (GPa) = 54.75560 55.37688 98.41745
#
# Poissons Ratio (x) = 0.23428 0.25436
# Poissons Ratio (y) = 0.23165 0.47579
# Poissons Ratio (z) = 0.14152 0.26772
#
# Static dielectric constant tensor:
#      x y z
#    x 3.679400 -0.132600 0.177370 
#    y -0.132600 3.142010 0.577550 
#    z 0.177370 0.577550 3.541100 
# 
# 
# High freq. dielectric constant tensor:
#      x y z
#    x 1.845690 0.008330 -0.005210 
#    y 0.008330 1.852220 -0.008840 
#    z -0.005210 -0.008840 1.883850 
# 
# From -- ./inp_files/258708.got.cif
#   From: 2010.06.25/outbox.cif.g09.slc.cpg/sg2_130_cif.got.tgz:258708.got - 2010.06.27 13:26:56.
