data_PCOD8028318
_publ_section_title
;
Structure prediction by ZEFSAII (Michael W. Deem and Ramdas Pophale) SiO2 
 PCOD8028318
Probable space group: P -1
;
_chemical_formula_sum "Si O2"
_cell_formula_units_Z 16
_cell_length_a 9.014471
_cell_length_b 8.730640
_cell_length_c 16.164553
_cell_angle_alpha 116.768895
_cell_angle_beta 47.766031
_cell_angle_gamma 87.023574
_cell_volume 709.705791
_symmetry_space_group_name_H-M "P -1"
_symmetry_group_IT_number 2
_symmetry_cell_setting 'triclinic'
loop_
_space_group_symop_operation_xyz
x,y,z
-x,-y,-z
loop_
_atom_site_type_symbol
_atom_site_label
_atom_site_fract_x
_atom_site_fract_y
_atom_site_fract_z
Si Si1 0.927748 0.697093 0.332206
Si Si2 0.756067 0.102133 0.914109
Si Si3 0.037200 0.630656 0.450561
Si Si4 0.970549 0.838589 0.921206
Si Si5 0.535822 0.529485 0.166518
Si Si6 0.376228 0.406646 0.678995
Si Si7 0.097990 0.911441 0.597234
Si Si8 0.651409 0.683764 0.005448
O O1 0.723567 0.719556 0.355158
O O2 0.892039 0.641408 0.425706
O O3 0.184594 0.531402 0.156292
O O4 0.885995 0.917947 0.416160
O O5 0.726798 0.296036 0.018073
O O6 0.530069 0.156568 0.955704
O O7 0.820758 0.930290 0.915759
O O8 0.986865 0.009209 0.749474
O O9 0.301110 0.544813 0.293977
O O10 0.947841 0.846626 0.581239
O O11 0.000000 0.500000 0.500000
O O12 0.232328 0.640518 0.757236
O O13 0.812564 0.760733 0.004768
O O14 0.000000 0.000000 0.000000
O O15 0.649026 0.594540 0.212078
O O16 0.499487 0.661135 0.129577
O O17 0.652020 0.294811 0.525789
#
# Coordination Sequence:
#
# PCOD8028318 Si02
#       8
#     2   2   2   2   2   2   2   2
#     4  11  22  45  75 105 140 185 242 288 358 422
#     4  12  23  43  71 104 141 183 244 291 353 421
#     4  11  26  45  69 102 146 187 231 295 357 416
#     4  11  25  44  67 106 148 187 235 292 358 424
#     4  11  22  47  74 103 142 181 240 291 356 420
#     4  10  25  45  71 100 146 186 232 293 354 424
#     4  11  25  44  70 102 140 191 235 289 355 423
#     4  11  24  42  78 106 139 186 237 304 347 414
#
# _framework density 22.544554000000002
#
# number of rings (size 3 to 8) (size 9 to 14) (size 15 to 20)
#    0.000    1.000    3.750    2.250    3.500    5.500 
#    2.250    0.000    0.000    0.000    0.000    0.000 
#    0.000    0.000    0.000    0.000    0.000    0.000 
#
# Total GULP energy -198281.642647 kJ/mol
# GULP energy per Si atom -12392.602665 kJ/mol
# Density = 2.249324 g / cm^3
# Si number density = 22.544554 Si / 1000 Ang^3
#
#
#
# Elastic Constant Matrix: (Units=GPa)
#
#
# Indices 1 2 3 4 5 6 
#
# 1 128.2988 47.4767 36.0647 -5.2190 18.1946 -1.1008
# 2 47.4767 112.6186 40.7974 -4.8168 7.8685 1.8838
# 3 36.0647 40.7974 111.4111 -1.3532 7.8236 1.9360
# 4 -5.2190 -4.8168 -1.3532 43.9356 -4.7645 3.4027
# 5 18.1946 7.8685 7.8236 -4.7645 38.8628 9.2569
# 6 -1.1008 1.8838 1.9360 3.4027 9.2569 42.8265
#
#
#
# Elastic Compliance Matrix: (Units=1/GPa)
#
#
# Indices 1 2 3 4 5 6 
#
# 1 0.010125 -0.003353 -0.001790 0.000244 -0.003988 0.001331
# 2 -0.003353 0.011451 -0.003096 0.000814 0.000102 -0.000537
# 3 -0.001790 -0.003096 0.010737 -0.000277 -0.000677 -0.000227
# 4 0.000244 0.000814 -0.000277 0.023424 0.003264 -0.002584
# 5 -0.003988 0.000102 -0.000677 0.003264 0.029725 -0.006761
# 6 0.001331 -0.000537 -0.000227 -0.002584 -0.006761 0.025085
#
#
# Mechanical properties :
#
#
# Convention : Reuss Voigt Hill
#
# Bulk Modulus (GPa) = 63.14857 66.77844 64.96351
# Shear Modulus (GPa) = 37.79183 40.32429 39.05806
#
# Velocity S-wave (km/s) = 4.09873 4.23383 4.16683
# Velocity P-wave (km/s) = 7.10428 7.32020 7.21305
#
# Compressibility (1/GPa) = 0.01583567
#
# Stress axis : x y z
#
# Youngs Moduli (GPa) = 98.76290 87.32599 93.13694
#
# Poissons Ratio (x) = 0.29283 0.16670
# Poissons Ratio (y) = 0.33118 0.28833
# Poissons Ratio (z) = 0.17676 0.27035
#
# Static dielectric constant tensor:
#      x y z
#    x 4.289650 -0.115940 0.246900 
#    y -0.115940 4.093040 0.177930 
#    z 0.246900 0.177930 4.143120 
# 
# 
# High freq. dielectric constant tensor:
#      x y z
#    x 1.899590 -0.005620 0.015000 
#    y -0.005620 1.881300 0.012810 
#    z 0.015000 0.012810 1.885610 
# 
# From -- ./inp_files/495392.got.cif
#   From: 2010.06.25/outbox.cif.g09.slc.cpg/sg2_248_cif.got.tgz:495392.got - 2010.06.27 13:26:56.
