data_PCOD8028506
_publ_section_title
;
Structure prediction by ZEFSAII (Michael W. Deem and Ramdas Pophale) SiO2 
 PCOD8028506
Probable space group: P -1
;
_chemical_formula_sum "Si O2"
_cell_formula_units_Z 16
_cell_length_a 12.330760
_cell_length_b 14.733066
_cell_length_c 9.006179
_cell_angle_alpha 96.797910
_cell_angle_beta 73.125431
_cell_angle_gamma 150.525228
_cell_volume 738.367802
_symmetry_space_group_name_H-M "P -1"
_symmetry_group_IT_number 2
_symmetry_cell_setting 'triclinic'
loop_
_space_group_symop_operation_xyz
x,y,z
-x,-y,-z
loop_
_atom_site_type_symbol
_atom_site_label
_atom_site_fract_x
_atom_site_fract_y
_atom_site_fract_z
Si Si1 0.919518 0.396961 0.162440
Si Si2 0.412101 0.990645 0.889319
Si Si3 0.579862 0.294331 0.447205
Si Si4 0.158622 0.999749 0.061646
Si Si5 0.233527 0.651188 0.339827
Si Si6 0.921350 0.046584 0.568738
Si Si7 0.654269 0.680382 0.070413
Si Si8 0.635369 0.527626 0.556856
O O1 0.790898 0.209859 0.152057
O O2 0.749057 0.348031 0.299891
O O3 0.150057 0.539135 0.201416
O O4 0.000000 0.500000 0.000000
O O5 0.641471 0.164824 0.723605
O O6 0.319129 0.026064 0.966903
O O7 0.500000 0.000000 0.000000
O O8 0.576442 0.268710 0.620013
O O9 0.675754 0.465520 0.430305
O O10 0.318539 0.099555 0.448540
O O11 0.095994 0.949895 0.249344
O O12 0.915502 0.823956 0.028516
O O13 0.311470 0.199808 0.007392
O O14 0.000000 0.500000 0.500000
O O15 0.110687 0.249568 0.458219
O O16 0.000000 0.000000 0.500000
O O17 0.517589 0.603395 0.262472
O O18 0.500000 0.500000 0.000000
O O19 0.500000 0.500000 0.500000
#
# Coordination Sequence:
#
# PCOD8028506 Si02
#       8
#     2   2   2   2   2   2   2   2
#     4  11  25  45  72 103 140 187 241 290 354 428
#     4  12  25  45  71 106 144 186 239 296 356 424
#     4  11  26  44  71 101 143 185 233 296 355 412
#     4  11  26  43  70 106 143 180 237 298 353 426
#     4  10  25  47  69 102 141 179 241 295 351 425
#     4  12  24  43  71 100 139 186 237 286 354 427
#     4  11  25  47  71 104 142 185 234 294 364 421
#     4  12  24  44  70 102 139 184 239 288 351 425
#
# _framework density 21.669418
#
# number of rings (size 3 to 8) (size 9 to 14) (size 15 to 20)
#    0.000    0.750    3.750    2.250    1.750   10.000 
#    0.000    0.000    0.000    0.000    0.000    0.000 
#    0.000    0.000    0.000    0.000    0.000    0.000 
#
# Total GULP energy -198398.300769 kJ/mol
# GULP energy per Si atom -12399.893798 kJ/mol
# Density = 2.162010 g / cm^3
# Si number density = 21.669418 Si / 1000 Ang^3
#
#
#
# Elastic Constant Matrix: (Units=GPa)
#
#
# Indices 1 2 3 4 5 6 
#
# 1 134.1044 60.3661 42.5823 6.6894 7.3863 -1.6595
# 2 60.3661 179.5010 43.7479 1.7425 14.4910 -6.3094
# 3 42.5823 43.7479 102.2606 -6.5421 16.0409 -0.2674
# 4 6.6894 1.7425 -6.5421 46.3762 -0.4850 9.5013
# 5 7.3863 14.4910 16.0409 -0.4850 40.4564 6.8359
# 6 -1.6595 -6.3094 -0.2674 9.5013 6.8359 43.7805
#
#
#
# Elastic Compliance Matrix: (Units=1/GPa)
#
#
# Indices 1 2 3 4 5 6 
#
# 1 0.009638 -0.002476 -0.003113 -0.001802 0.000283 0.000336
# 2 -0.002476 0.007003 -0.001741 -0.000423 -0.001581 0.001243
# 3 -0.003113 -0.001741 0.012550 0.002288 -0.003721 -0.000208
# 4 -0.001802 -0.000423 0.002288 0.023250 0.000744 -0.005277
# 5 0.000283 -0.001581 -0.003721 0.000744 0.027511 -0.004697
# 6 0.000336 0.001243 -0.000208 -0.005277 -0.004697 0.024911
#
#
# Mechanical properties :
#
#
# Convention : Reuss Voigt Hill
#
# Bulk Modulus (GPa) = 68.81601 78.80650 73.81126
# Shear Modulus (GPa) = 40.20353 44.06726 42.13539
#
# Velocity S-wave (km/s) = 4.31201 4.51445 4.41439
# Velocity P-wave (km/s) = 7.52445 7.97623 7.75363
#
# Compressibility (1/GPa) = 0.01453150
#
# Stress axis : x y z
#
# Youngs Moduli (GPa) = 103.75058 142.78580 79.68406
#
# Poissons Ratio (x) = 0.35357 0.24806
# Poissons Ratio (y) = 0.25691 0.13871
# Poissons Ratio (z) = 0.32298 0.24855
#
# Static dielectric constant tensor:
#      x y z
#    x 4.026860 0.233670 0.368720 
#    y 0.233670 4.432940 -0.107020 
#    z 0.368720 -0.107020 4.264490 
# 
# 
# High freq. dielectric constant tensor:
#      x y z
#    x 1.854000 0.004790 0.010460 
#    y 0.004790 1.872740 -0.001920 
#    z 0.010460 -0.001920 1.862220 
# 
# From -- ./inp_files/273149.got.cif
#   From: 2010.06.25/outbox.cif.g09.slc.cpg/sg2_137_cif.got.tgz:273149.got - 2010.06.27 13:26:56.
