data_PCOD8028309
_publ_section_title
;
Structure prediction by ZEFSAII (Michael W. Deem and Ramdas Pophale) SiO2 
 PCOD8028309
Probable space group: P -1
;
_chemical_formula_sum "Si O2"
_cell_formula_units_Z 16
_cell_length_a 9.084610
_cell_length_b 8.974550
_cell_length_c 14.905688
_cell_angle_alpha 73.311856
_cell_angle_beta 40.249711
_cell_angle_gamma 67.443675
_cell_volume 725.109075
_symmetry_space_group_name_H-M "P -1"
_symmetry_group_IT_number 2
_symmetry_cell_setting 'triclinic'
loop_
_space_group_symop_operation_xyz
x,y,z
-x,-y,-z
loop_
_atom_site_type_symbol
_atom_site_label
_atom_site_fract_x
_atom_site_fract_y
_atom_site_fract_z
Si Si1 0.938504 0.968686 0.433086
Si Si2 0.592746 0.596001 0.659274
Si Si3 0.869260 0.493549 0.154314
Si Si4 0.559026 0.038669 0.292752
Si Si5 0.373812 0.921508 0.944203
Si Si6 0.987878 0.761166 0.167609
Si Si7 0.958288 0.367093 0.642158
Si Si8 0.840979 0.836961 0.844204
O O1 0.656372 0.007774 0.549951
O O2 0.054304 0.780811 0.390845
O O3 0.000000 0.000000 0.500000
O O4 0.020724 0.078803 0.303661
O O5 0.405247 0.500673 0.732108
O O6 0.446104 0.776496 0.719518
O O7 0.737235 0.516470 0.694019
O O8 0.790505 0.589170 0.491721
O O9 0.871401 0.655580 0.176630
O O10 0.001127 0.340998 0.178526
O O11 0.000000 0.500000 0.000000
O O12 0.552548 0.005395 0.194377
O O13 0.793909 0.929285 0.248137
O O14 0.600826 0.823403 0.910938
O O15 0.216219 0.801115 0.010012
O O16 0.217683 0.065607 0.052637
O O17 0.078473 0.671249 0.232362
#
# Coordination Sequence:
#
# PCOD8028309 Si02
#       8
#     2   2   2   2   2   2   2   2
#     4  11  23  43  73 103 139 178 233 281 347 412
#     4  10  25  46  70  95 147 176 232 276 353 407
#     4  12  28  44  68 101 142 181 232 290 346 404
#     4  11  24  43  72 100 137 183 226 285 346 405
#     4  11  23  44  69 100 138 182 229 280 344 419
#     4  12  26  42  73 101 139 176 237 285 345 400
#     4  10  25  45  70 103 134 188 222 288 340 416
#     4  11  25  43  71 102 139 184 233 283 344 417
#
# _framework density 22.065646000000001
#
# number of rings (size 3 to 8) (size 9 to 14) (size 15 to 20)
#    0.000    1.000    2.500    2.625    7.000    3.000 
#    0.000    0.000    0.000    0.000    0.000    0.000 
#    0.000    0.000    0.000    0.000    0.000    0.000 
#
# Total GULP energy -198477.347896 kJ/mol
# GULP energy per Si atom -12404.834244 kJ/mol
# Density = 2.201542 g / cm^3
# Si number density = 22.065646 Si / 1000 Ang^3
#
#
#
# Elastic Constant Matrix: (Units=GPa)
#
#
# Indices 1 2 3 4 5 6 
#
# 1 71.4420 38.7100 25.8650 0.0210 -24.6758 13.2625
# 2 38.7100 109.1735 46.7335 -7.9239 -19.0443 -2.5548
# 3 25.8650 46.7335 96.3025 -5.9685 -18.5164 7.1181
# 4 0.0210 -7.9239 -5.9685 23.9177 3.9727 -2.4562
# 5 -24.6758 -19.0443 -18.5164 3.9727 43.9651 -2.1218
# 6 13.2625 -2.5548 7.1181 -2.4562 -2.1218 46.5158
#
#
#
# Elastic Compliance Matrix: (Units=1/GPa)
#
#
# Indices 1 2 3 4 5 6 
#
# 1 0.022184 -0.006316 -0.000890 -0.004555 0.009445 -0.006345
# 2 -0.006316 0.013956 -0.005071 0.003695 0.000202 0.003548
# 3 -0.000890 -0.005071 0.013863 0.001090 0.002950 -0.001954
# 4 -0.004555 0.003695 0.001090 0.044388 -0.004340 0.003481
# 5 0.009445 0.000202 0.002950 -0.004340 0.029672 -0.002009
# 6 -0.006345 0.003548 -0.001954 0.003481 -0.002009 0.023893
#
#
# Mechanical properties :
#
#
# Convention : Reuss Voigt Hill
#
# Bulk Modulus (GPa) = 39.29468 55.50388 47.39928
# Shear Modulus (GPa) = 27.62544 33.92034 30.77289
#
# Velocity S-wave (km/s) = 3.54215 3.92503 3.73849
# Velocity P-wave (km/s) = 5.88012 6.76385 6.33741
#
# Compressibility (1/GPa) = 0.02544874
#
# Stress axis : x y z
#
# Youngs Moduli (GPa) = 45.07843 71.65236 72.13541
#
# Poissons Ratio (x) = 0.45256 0.06422
# Poissons Ratio (y) = 0.28472 0.36577
# Poissons Ratio (z) = 0.04013 0.36332
#
# Static dielectric constant tensor:
#      x y z
#    x 3.847810 -0.265500 -0.212140 
#    y -0.265500 3.515320 -0.359660 
#    z -0.212140 -0.359660 4.026430 
# 
# 
# High freq. dielectric constant tensor:
#      x y z
#    x 1.873710 -0.003070 -0.007000 
#    y -0.003070 1.868280 -0.008470 
#    z -0.007000 -0.008470 1.880160 
# 
# From -- ./inp_files/205420.got.cif
#   From: 2010.06.25/outbox.cif.g09.slc.cpg/sg2_103_cif.got.tgz:205420.got - 2010.06.27 13:26:56.
