data_PCOD8028944
_publ_section_title
;
Structure prediction by ZEFSAII (Michael W. Deem and Ramdas Pophale) SiO2 
 PCOD8028944
Probable space group: P -1
;
_chemical_formula_sum "Si O2"
_cell_formula_units_Z 14
_cell_length_a 6.915979
_cell_length_b 16.472768
_cell_length_c 12.024107
_cell_angle_alpha 42.788306
_cell_angle_beta 127.946899
_cell_angle_gamma 136.544196
_cell_volume 630.025937
_symmetry_space_group_name_H-M "P -1"
_symmetry_group_IT_number 2
_symmetry_cell_setting 'triclinic'
loop_
_space_group_symop_operation_xyz
x,y,z
-x,-y,-z
loop_
_atom_site_type_symbol
_atom_site_label
_atom_site_fract_x
_atom_site_fract_y
_atom_site_fract_z
Si Si1 0.797026 0.798965 0.859052
Si Si2 0.187743 0.388116 0.750683
Si Si3 0.232913 0.507326 0.212819
Si Si4 0.793304 0.583073 0.954251
Si Si5 0.344118 0.696381 0.502865
Si Si6 0.245089 0.779028 0.612027
Si Si7 0.949058 0.928681 0.434246
O O1 0.850678 0.739691 0.820311
O O2 0.469367 0.764549 0.785071
O O3 0.854288 0.721834 0.057655
O O4 0.021054 0.963615 0.761691
O O5 0.427866 0.404583 0.727671
O O6 0.289389 0.545114 0.675293
O O7 0.889627 0.323988 0.648669
O O8 0.244783 0.486816 0.106071
O O9 0.067939 0.358537 0.361828
O O10 0.066730 0.587235 0.105570
O O11 0.500000 0.500000 0.000000
O O12 0.351237 0.793955 0.507804
O O13 0.649057 0.785788 0.460416
O O14 0.209704 0.903481 0.521972
O O15 0.000000 0.000000 0.500000
#
# Coordination Sequence:
#
# PCOD8028944 Si02
#       7
#     2   2   2   2   2   2   2
#     4  12  23  40  72  99 132 175 230 279 331 402
#     4  11  24  46  68 102 138 180 223 281 337 403
#     4  11  20  35  65  96 133 168 222 277 334 389
#     4  11  19  35  59 101 134 162 217 289 326 375
#     4  11  26  48  68  96 145 178 223 279 343 405
#     4  12  23  43  70  99 134 181 227 273 339 402
#     4  12  26  46  71  99 136 182 225 282 341 397
#
# _framework density 22.221306999999999
#
# number of rings (size 3 to 8) (size 9 to 14) (size 15 to 20)
#    0.000    0.571    5.714    3.857    0.000    1.143 
#    2.571    0.714    0.000    0.000    0.000    0.000 
#    0.000    0.000    0.000    0.000    0.000    0.000 
#
# Total GULP energy -173440.768711 kJ/mol
# GULP energy per Si atom -12388.626337 kJ/mol
# Density = 2.217073 g / cm^3
# Si number density = 22.221307 Si / 1000 Ang^3
#
#
#
# Elastic Constant Matrix: (Units=GPa)
#
#
# Indices 1 2 3 4 5 6 
#
# 1 144.5673 40.8919 52.7603 -6.7902 27.0735 2.7992
# 2 40.8919 69.0664 51.2694 -5.2129 11.5518 12.1310
# 3 52.7603 51.2694 141.4265 -20.0535 12.8628 6.3853
# 4 -6.7902 -5.2129 -20.0535 28.6171 1.5780 7.5706
# 5 27.0735 11.5518 12.8628 1.5780 39.9230 -8.7564
# 6 2.7992 12.1310 6.3853 7.5706 -8.7564 41.3563
#
#
#
# Elastic Compliance Matrix: (Units=1/GPa)
#
#
# Indices 1 2 3 4 5 6 
#
# 1 0.009491 -0.003306 -0.001722 0.000897 -0.005104 -0.000652
# 2 -0.003306 0.022990 -0.006329 0.000905 -0.003837 -0.006521
# 3 -0.001722 -0.006329 0.011094 0.006584 -0.001094 -0.001177
# 4 0.000897 0.000905 0.006584 0.043165 -0.007053 -0.010738
# 5 -0.005104 -0.003837 -0.001094 -0.007053 0.032398 0.009791
# 6 -0.000652 -0.006521 -0.001177 -0.010738 0.009791 0.030357
#
#
# Mechanical properties :
#
#
# Convention : Reuss Voigt Hill
#
# Bulk Modulus (GPa) = 47.93481 71.65593 59.79537
# Shear Modulus (GPa) = 27.90777 35.98852 31.94815
#
# Velocity S-wave (km/s) = 3.54771 4.02873 3.79585
# Velocity P-wave (km/s) = 6.19678 7.34557 6.79549
#
# Compressibility (1/GPa) = 0.02086167
#
# Stress axis : x y z
#
# Youngs Moduli (GPa) = 105.36300 43.49776 90.14121
#
# Poissons Ratio (x) = 0.14378 0.15518
# Poissons Ratio (y) = 0.34828 0.57053
# Poissons Ratio (z) = 0.18139 0.27531
#
# Static dielectric constant tensor:
#      x y z
#    x 6.415870 -0.302510 0.859190 
#    y -0.302510 4.171160 -0.348370 
#    z 0.859190 -0.348370 4.176990 
# 
# 
# High freq. dielectric constant tensor:
#      x y z
#    x 1.903910 0.014800 0.017680 
#    y 0.014800 1.842850 -0.021090 
#    z 0.017680 -0.021090 1.868700 
# 
# From -- ./inp_files/367548.got.cif
#   From: 2010.06.25/outbox.cif.g09.slc.cpg/sg2_184_cif.got.tgz:367548.got - 2010.06.27 13:26:56.
