data_PCOD8028345
_publ_section_title
;
Structure prediction by ZEFSAII (Michael W. Deem and Ramdas Pophale) SiO2 
 PCOD8028345
Probable space group: P -1
;
_chemical_formula_sum "Si O2"
_cell_formula_units_Z 14
_cell_length_a 27.564750
_cell_length_b 5.136269
_cell_length_c 10.211795
_cell_angle_alpha 74.011448
_cell_angle_beta 28.174973
_cell_angle_gamma 64.559499
_cell_volume 598.115948
_symmetry_space_group_name_H-M "P -1"
_symmetry_group_IT_number 2
_symmetry_cell_setting 'triclinic'
loop_
_space_group_symop_operation_xyz
x,y,z
-x,-y,-z
loop_
_atom_site_type_symbol
_atom_site_label
_atom_site_fract_x
_atom_site_fract_y
_atom_site_fract_z
Si Si1 0.215237 0.342682 0.064892
Si Si2 0.941155 0.116279 0.760985
Si Si3 0.270705 0.552453 0.417088
Si Si4 0.823936 0.203050 0.672752
Si Si5 0.460517 0.169255 0.436883
Si Si6 0.491862 0.718056 0.205175
Si Si7 0.756693 0.999583 0.357924
O O1 0.116477 0.524593 0.170058
O O2 0.199674 0.519932 0.213582
O O3 0.225303 0.014038 0.113497
O O4 0.326066 0.318076 0.728291
O O5 0.843920 0.001146 0.038357
O O6 0.000000 0.000000 0.500000
O O7 0.041685 0.994496 0.645700
O O8 0.237184 0.669950 0.334300
O O9 0.226632 0.830418 0.579463
O O10 0.210555 0.339972 0.632239
O O11 0.406747 0.367934 0.129611
O O12 0.508871 0.418794 0.282981
O O13 0.500000 0.000000 0.500000
O O14 0.509402 0.947045 0.230489
O O15 0.371663 0.849142 0.404226
#
# Coordination Sequence:
#
# PCOD8028345 Si02
#       7
#     2   2   2   2   2   2   2
#     4  11  22  42  67  99 137 172 224 276 341 399
#     4  10  25  45  72  99 134 174 228 279 342 395
#     4  12  26  45  69  98 140 178 230 271 333 396
#     4  11  24  43  68  99 136 178 223 284 331 392
#     4  12  23  38  68 101 138 174 218 274 340 396
#     4  12  24  44  66 100 139 176 225 270 332 404
#     4  12  26  45  70  98 135 184 226 272 330 405
#
# _framework density 23.406832999999999
#
# number of rings (size 3 to 8) (size 9 to 14) (size 15 to 20)
#    0.000    0.571    1.429    6.857    2.000    3.429 
#    0.000    0.000    0.000    0.000    0.000    0.000 
#    0.000    0.000    0.000    0.000    0.000    0.000 
#
# Total GULP energy -173635.479922 kJ/mol
# GULP energy per Si atom -12402.534280 kJ/mol
# Density = 2.335356 g / cm^3
# Si number density = 23.406833 Si / 1000 Ang^3
#
#
#
# Elastic Constant Matrix: (Units=GPa)
#
#
# Indices 1 2 3 4 5 6 
#
# 1 64.9524 25.9432 17.8657 0.8598 -5.4160 6.0354
# 2 25.9432 101.3901 19.4333 -16.6950 0.2283 1.3839
# 3 17.8657 19.4333 120.4164 -12.0642 -11.8983 -5.7428
# 4 0.8598 -16.6950 -12.0642 37.6369 -2.8172 2.8920
# 5 -5.4160 0.2283 -11.8983 -2.8172 25.8469 2.3124
# 6 6.0354 1.3839 -5.7428 2.8920 2.3124 27.8584
#
#
#
# Elastic Compliance Matrix: (Units=1/GPa)
#
#
# Indices 1 2 3 4 5 6 
#
# 1 0.018553 -0.004721 -0.002159 -0.002661 0.003021 -0.004205
# 2 -0.004721 0.012083 -0.000833 0.005150 -0.000899 -0.000209
# 3 -0.002159 -0.000833 0.009543 0.002905 0.004100 0.001834
# 4 -0.002661 0.005150 0.002905 0.030365 0.004275 -0.002588
# 5 0.003021 -0.000899 0.004100 0.004275 0.042015 -0.003696
# 6 -0.004205 -0.000209 0.001834 -0.002588 -0.003696 0.037771
#
#
# Mechanical properties :
#
#
# Convention : Reuss Voigt Hill
#
# Bulk Modulus (GPa) = 40.39781 45.91593 43.15687
# Shear Modulus (GPa) = 28.73455 33.16957 30.95206
#
# Velocity S-wave (km/s) = 3.50753 3.76851 3.64036
# Velocity P-wave (km/s) = 5.80518 6.21245 6.01227
#
# Compressibility (1/GPa) = 0.02475382
#
# Stress axis : x y z
#
# Youngs Moduli (GPa) = 53.89860 82.75895 104.78972
#
# Poissons Ratio (x) = 0.39071 0.22628
# Poissons Ratio (y) = 0.25446 0.08724
# Poissons Ratio (z) = 0.11639 0.06890
#
# Static dielectric constant tensor:
#      x y z
#    x 4.447300 -0.007380 -0.264390 
#    y -0.007380 4.775290 0.506850 
#    z -0.264390 0.506850 5.291380 
# 
# 
# High freq. dielectric constant tensor:
#      x y z
#    x 1.918140 -0.002650 -0.005240 
#    y -0.002650 1.945230 -0.000570 
#    z -0.005240 -0.000570 1.933460 
# 
# From -- ./inp_files/355969.got.cif
#   From: 2010.06.25/outbox.cif.g09.slc.cpg/sg2_178_cif.got.tgz:355969.got - 2010.06.27 13:26:56.
