data_PCOD8028813
_publ_section_title
;
Structure prediction by ZEFSAII (Michael W. Deem and Ramdas Pophale) SiO2 
 PCOD8028813
Probable space group: P -1
;
_chemical_formula_sum "Si O2"
_cell_formula_units_Z 16
_cell_length_a 6.688313
_cell_length_b 24.667987
_cell_length_c 11.872476
_cell_angle_alpha 150.311147
_cell_angle_beta 44.837685
_cell_angle_gamma 132.741719
_cell_volume 672.966352
_symmetry_space_group_name_H-M "P -1"
_symmetry_group_IT_number 2
_symmetry_cell_setting 'triclinic'
loop_
_space_group_symop_operation_xyz
x,y,z
-x,-y,-z
loop_
_atom_site_type_symbol
_atom_site_label
_atom_site_fract_x
_atom_site_fract_y
_atom_site_fract_z
Si Si1 0.307563 0.464042 0.311532
Si Si2 0.508063 0.296227 0.081735
Si Si3 0.751621 0.683782 0.541673
Si Si4 0.314507 0.026621 0.288998
Si Si5 0.448393 0.166001 0.273622
Si Si6 0.836910 0.613841 0.992826
Si Si7 0.346758 0.074480 0.613749
Si Si8 0.264871 0.636287 0.374043
O O1 0.395251 0.408159 0.290213
O O2 0.548833 0.570789 0.377198
O O3 0.292090 0.370180 0.050652
O O4 0.000000 0.500000 0.500000
O O5 0.382149 0.270000 0.209184
O O6 0.854561 0.311026 0.973700
O O7 0.402682 0.199119 0.861291
O O8 0.781317 0.779032 0.606561
O O9 0.075556 0.662337 0.390675
O O10 0.332351 0.128181 0.376683
O O11 0.450738 0.070124 0.434053
O O12 0.989400 0.969604 0.329810
O O13 0.490921 0.937000 0.008408
O O14 0.732075 0.264311 0.355410
O O15 0.877582 0.484626 0.743437
O O16 0.604881 0.640549 0.222491
O O17 0.500000 0.000000 0.500000
#
# Coordination Sequence:
#
# PCOD8028813 Si02
#       8
#     2   2   2   2   2   2   2   2
#     4  12  24  41  70 105 150 189 240 296 353 434
#     4  12  26  43  76 108 146 192 244 300 364 429
#     4  12  24  43  73 108 143 194 242 289 363 441
#     4  10  26  50  72 107 138 189 246 305 360 423
#     4  11  25  47  76  99 148 190 236 302 367 428
#     4  11  25  44  66 106 152 188 234 294 363 435
#     4  11  26  47  78 106 142 183 252 302 359 425
#     4  11  25  43  68 105 148 192 233 289 366 444
#
# _framework density 23.775334999999998
#
# number of rings (size 3 to 8) (size 9 to 14) (size 15 to 20)
#    0.000    0.750    3.750    2.625    5.250    3.500 
#    0.000    3.125    0.000    0.000    0.000    0.000 
#    0.000    0.000    0.000    0.000    0.000    0.000 
#
# Total GULP energy -198366.721153 kJ/mol
# GULP energy per Si atom -12397.920072 kJ/mol
# Density = 2.372122 g / cm^3
# Si number density = 23.775335 Si / 1000 Ang^3
#
#
#
# Elastic Constant Matrix: (Units=GPa)
#
#
# Indices 1 2 3 4 5 6 
#
# 1 149.6924 53.1099 43.6368 0.4199 4.1294 -13.7012
# 2 53.1099 89.2160 38.6805 5.5853 0.9286 -16.8074
# 3 43.6368 38.6805 88.4986 8.4839 19.2387 -3.0697
# 4 0.4199 5.5853 8.4839 37.4706 -0.8595 0.7989
# 5 4.1294 0.9286 19.2387 -0.8595 43.3107 -1.2303
# 6 -13.7012 -16.8074 -3.0697 0.7989 -1.2303 52.3051
#
#
#
# Elastic Compliance Matrix: (Units=1/GPa)
#
#
# Indices 1 2 3 4 5 6 
#
# 1 0.009012 -0.004023 -0.002885 0.001146 0.000557 0.000894
# 2 -0.004023 0.016912 -0.005727 -0.001206 0.002658 0.004125
# 3 -0.002885 -0.005727 0.017047 -0.003104 -0.007285 -0.001720
# 4 0.001146 -0.001206 -0.003104 0.027613 0.001825 -0.000648
# 5 0.000557 0.002658 -0.007285 0.001825 0.026284 0.001163
# 6 0.000894 0.004125 -0.001720 -0.000648 0.001163 0.020615
#
#
# Mechanical properties :
#
#
# Convention : Reuss Voigt Hill
#
# Bulk Modulus (GPa) = 56.49682 66.47348 61.48515
# Shear Modulus (GPa) = 33.63530 39.41593 36.52562
#
# Velocity S-wave (km/s) = 3.76535 4.07609 3.92380
# Velocity P-wave (km/s) = 6.53591 7.08324 6.81508
#
# Compressibility (1/GPa) = 0.01770011
#
# Stress axis : x y z
#
# Youngs Moduli (GPa) = 110.96304 59.13066 58.66126
#
# Poissons Ratio (x) = 0.23788 0.16924
# Poissons Ratio (y) = 0.44640 0.33597
# Poissons Ratio (z) = 0.32014 0.33865
#
# Static dielectric constant tensor:
#      x y z
#    x 4.339520 -0.293660 0.273750 
#    y -0.293660 4.193060 0.094870 
#    z 0.273750 0.094870 4.379010 
# 
# 
# High freq. dielectric constant tensor:
#      x y z
#    x 1.961970 -0.005540 0.009910 
#    y -0.005540 1.932850 0.007860 
#    z 0.009910 0.007860 1.946540 
# 
# From -- ./inp_files/371446.got.cif
#   From: 2010.06.25/outbox.cif.g09.slc.cpg/sg2_186_cif.got.tgz:371446.got - 2010.06.27 13:26:56.
