data_PCOD8028441
_publ_section_title
;
Structure prediction by ZEFSAII (Michael W. Deem and Ramdas Pophale) SiO2 
 PCOD8028441
Probable space group: P -1
;
_chemical_formula_sum "Si O2"
_cell_formula_units_Z 14
_cell_length_a 9.300729
_cell_length_b 19.980652
_cell_length_c 9.787999
_cell_angle_alpha 47.735719
_cell_angle_beta 91.385122
_cell_angle_gamma 132.001667
_cell_volume 632.939350
_symmetry_space_group_name_H-M "P -1"
_symmetry_group_IT_number 2
_symmetry_cell_setting 'triclinic'
loop_
_space_group_symop_operation_xyz
x,y,z
-x,-y,-z
loop_
_atom_site_type_symbol
_atom_site_label
_atom_site_fract_x
_atom_site_fract_y
_atom_site_fract_z
Si Si1 0.876395 0.518561 0.791489
Si Si2 0.071807 0.296706 0.941402
Si Si3 0.261414 0.077254 0.045888
Si Si4 0.713400 0.180230 0.847992
Si Si5 0.007919 0.393607 0.031830
Si Si6 0.598074 0.704024 0.476234
Si Si7 0.219947 0.178467 0.164306
O O1 0.059589 0.638841 0.492702
O O2 0.834096 0.387326 0.988377
O O3 0.050178 0.656636 0.739350
O O4 0.541518 0.377324 0.971458
O O5 0.055871 0.181223 0.120607
O O6 0.906375 0.226424 0.892486
O O7 0.899614 0.249824 0.130906
O O8 0.576747 0.470761 0.376355
O O9 0.289654 0.162850 0.050734
O O10 0.506348 0.133868 0.994794
O O11 0.339193 0.170960 0.779058
O O12 0.919442 0.844652 0.348620
O O13 0.500000 0.000000 0.000000
O O14 0.376212 0.611641 0.721958
O O15 0.000000 0.000000 0.500000
#
# Coordination Sequence:
#
# PCOD8028441 Si02
#       7
#     2   2   2   2   2   2   2
#     4  11  23  43  71 104 143 186 224 289 349 415
#     4  10  25  46  70  99 138 183 236 285 351 414
#     4  11  23  42  69 103 144 180 230 286 339 418
#     4  12  27  42  70 109 140 183 236 284 348 417
#     4   9  21  44  72  98 138 185 228 276 352 411
#     4   9  21  42  73  96 139 186 227 278 346 409
#     4  12  28  44  72 101 139 183 242 289 356 408
#
# _framework density 22.119022999999999
#
# number of rings (size 3 to 8) (size 9 to 14) (size 15 to 20)
#    0.857    0.571    1.429    2.571    6.000    6.857 
#    0.000    2.143    0.000    0.000    0.000    0.000 
#    0.000    0.000    0.000    0.000    0.000    0.000 
#
# Total GULP energy -173584.951082 kJ/mol
# GULP energy per Si atom -12398.925077 kJ/mol
# Density = 2.206868 g / cm^3
# Si number density = 22.119023 Si / 1000 Ang^3
#
#
#
# Elastic Constant Matrix: (Units=GPa)
#
#
# Indices 1 2 3 4 5 6 
#
# 1 143.2932 61.1871 37.1005 17.0601 7.7836 6.3758
# 2 61.1871 128.3914 17.2762 9.1464 6.6749 1.5643
# 3 37.1005 17.2762 55.7099 1.5449 -5.2142 10.0496
# 4 17.0601 9.1464 1.5449 35.8851 -5.0035 -4.7526
# 5 7.7836 6.6749 -5.2142 -5.0035 23.5673 1.9227
# 6 6.3758 1.5643 10.0496 -4.7526 1.9227 42.5242
#
#
#
# Elastic Compliance Matrix: (Units=1/GPa)
#
#
# Indices 1 2 3 4 5 6 
#
# 1 0.011165 -0.003835 -0.006531 -0.004791 -0.005039 -0.000297
# 2 -0.003835 0.009872 -0.000729 -0.000878 -0.001907 0.000372
# 3 -0.006531 -0.000729 0.024121 0.002832 0.008691 -0.004771
# 4 -0.004791 -0.000878 0.002832 0.031927 0.008971 0.003244
# 5 -0.005039 -0.001907 0.008691 0.008971 0.048662 -0.002426
# 6 -0.000297 0.000372 -0.004771 0.003244 -0.002426 0.025147
#
#
# Mechanical properties :
#
#
# Convention : Reuss Voigt Hill
#
# Bulk Modulus (GPa) = 43.53933 62.05801 52.79867
# Shear Modulus (GPa) = 27.66447 34.51737 31.09092
#
# Velocity S-wave (km/s) = 3.54037 3.95464 3.75323
# Velocity P-wave (km/s) = 6.03649 6.99782 6.53486
#
# Compressibility (1/GPa) = 0.02296774
#
# Stress axis : x y z
#
# Youngs Moduli (GPa) = 89.56894 101.30148 41.45766
#
# Poissons Ratio (x) = 0.38849 0.27076
# Poissons Ratio (y) = 0.34349 0.03021
# Poissons Ratio (z) = 0.58498 0.07381
#
# Static dielectric constant tensor:
#      x y z
#    x 3.920520 0.133160 -0.184810 
#    y 0.133160 4.001450 0.078060 
#    z -0.184810 0.078060 3.973360 
# 
# 
# High freq. dielectric constant tensor:
#      x y z
#    x 1.870200 0.005800 -0.009670 
#    y 0.005800 1.872030 0.006810 
#    z -0.009670 0.006810 1.862650 
# 
# From -- ./inp_files/217039.got.cif
#   From: 2010.06.25/outbox.cif.g09.slc.cpg/sg2_109_cif.got.tgz:217039.got - 2010.06.27 13:26:56.
