data_PCOD8028306
_publ_section_title
;
Structure prediction by ZEFSAII (Michael W. Deem and Ramdas Pophale) SiO2 
 PCOD8028306
Probable space group: P -1
;
_chemical_formula_sum "Si O2"
_cell_formula_units_Z 12
_cell_length_a 22.446479
_cell_length_b 9.490399
_cell_length_c 5.034237
_cell_angle_alpha 108.481213
_cell_angle_beta 94.388228
_cell_angle_gamma 31.505458
_cell_volume 489.227999
_symmetry_space_group_name_H-M "P -1"
_symmetry_group_IT_number 2
_symmetry_cell_setting 'triclinic'
loop_
_space_group_symop_operation_xyz
x,y,z
-x,-y,-z
loop_
_atom_site_type_symbol
_atom_site_label
_atom_site_fract_x
_atom_site_fract_y
_atom_site_fract_z
Si Si1 0.351504 0.161773 0.445422
Si Si2 0.113663 0.857761 0.894815
Si Si3 0.211352 0.191521 0.388180
Si Si4 0.050223 0.554866 0.059985
Si Si5 0.292478 0.677564 0.063721
Si Si6 0.441880 0.254365 0.348742
O O1 0.215498 0.526762 0.614465
O O2 0.333175 0.029510 0.277590
O O3 0.430585 0.095907 0.228439
O O4 0.417393 0.018651 0.673496
O O5 0.175255 0.818973 0.138486
O O6 0.000000 0.000000 0.000000
O O7 0.065657 0.083031 0.801037
O O8 0.159030 0.338288 0.750849
O O9 0.246804 0.944761 0.209907
O O10 0.104127 0.471882 0.317025
O O11 0.000000 0.500000 0.000000
O O12 0.398639 0.429837 0.172995
O O13 0.350756 0.511780 0.700681
#
# Coordination Sequence:
#
# PCOD8028306 Si02
#       6
#     2   2   2   2   2   2
#     4  10  25  45  70 102 136 179 227 281 338 399
#     4  11  24  44  70 104 137 179 224 278 340 406
#     4  12  26  43  70 102 136 178 228 279 337 400
#     4  12  26  44  67 102 142 180 220 276 340 406
#     4  11  25  45  71 100 134 182 226 279 336 399
#     4  10  25  47  71  97 137 179 228 281 334 398
#
# _framework density 24.528441999999998
#
# number of rings (size 3 to 8) (size 9 to 14) (size 15 to 20)
#    0.000    1.000    3.333    1.500    4.667    9.333 
#    0.000    0.000    0.000    0.000    0.000    0.000 
#    0.000    0.000    0.000    0.000    0.000    0.000 
#
# Total GULP energy -148738.856204 kJ/mol
# GULP energy per Si atom -12394.904684 kJ/mol
# Density = 2.447261 g / cm^3
# Si number density = 24.528442 Si / 1000 Ang^3
#
#
#
# Elastic Constant Matrix: (Units=GPa)
#
#
# Indices 1 2 3 4 5 6 
#
# 1 166.5199 44.8252 6.9109 0.6895 26.8925 -12.4431
# 2 44.8252 172.4929 17.0067 -1.6132 11.6053 2.9614
# 3 6.9109 17.0067 41.7814 2.6802 10.7887 9.5743
# 4 0.6895 -1.6132 2.6802 39.0040 -1.4113 -1.3116
# 5 26.8925 11.6053 10.7887 -1.4113 30.4685 -1.6243
# 6 -12.4431 2.9614 9.5743 -1.3116 -1.6243 36.2699
#
#
#
# Elastic Compliance Matrix: (Units=1/GPa)
#
#
# Indices 1 2 3 4 5 6 
#
# 1 0.007597 -0.001653 0.000495 -0.000381 -0.006145 0.002322
# 2 -0.001653 0.006473 -0.002213 0.000424 -0.000230 -0.000506
# 3 0.000495 -0.002213 0.029504 -0.002781 -0.010598 -0.008013
# 4 -0.000381 0.000424 -0.002781 0.025997 0.002450 0.001619
# 5 -0.006145 -0.000230 -0.010598 0.002450 0.042342 0.002693
# 6 0.002322 -0.000506 -0.008013 0.001619 0.002693 0.030703
#
#
# Mechanical properties :
#
#
# Convention : Reuss Voigt Hill
#
# Bulk Modulus (GPa) = 27.14955 57.58664 42.36809
# Shear Modulus (GPa) = 30.93383 41.95192 36.44287
#
# Velocity S-wave (km/s) = 3.55511 4.14011 3.85871
# Velocity P-wave (km/s) = 5.28624 6.81047 6.09618
#
# Compressibility (1/GPa) = 0.03683303
#
# Stress axis : x y z
#
# Youngs Moduli (GPa) = 131.62734 154.48140 33.89379
#
# Poissons Ratio (x) = 0.25537 -0.01679
# Poissons Ratio (y) = 0.21759 0.07501
# Poissons Ratio (z) = -0.06522 0.34188
#
# Static dielectric constant tensor:
#      x y z
#    x 4.758760 -0.883390 -0.033750 
#    y -0.883390 2.754610 -0.029000 
#    z -0.033750 -0.029000 4.452520 
# 
# 
# High freq. dielectric constant tensor:
#      x y z
#    x 1.985560 -0.005080 0.012640 
#    y -0.005080 2.001140 0.007100 
#    z 0.012640 0.007100 1.962470 
# 
# From -- ./inp_files/22637.got.cif
#   From: 2010.06.25/outbox.cif.g09.slc.cpg/sg2_12_cif.got.tgz:22637.got - 2010.06.27 13:26:56.
