data_PCOD8028267
_publ_section_title
;
Structure prediction by ZEFSAII (Michael W. Deem and Ramdas Pophale) SiO2 
 PCOD8028267
Probable space group: P -1
;
_chemical_formula_sum "Si O2"
_cell_formula_units_Z 14
_cell_length_a 15.695118
_cell_length_b 15.670810
_cell_length_c 7.954457
_cell_angle_alpha 111.075845
_cell_angle_beta 51.080438
_cell_angle_gamma 151.101196
_cell_volume 634.323639
_symmetry_space_group_name_H-M "P -1"
_symmetry_group_IT_number 2
_symmetry_cell_setting 'triclinic'
loop_
_space_group_symop_operation_xyz
x,y,z
-x,-y,-z
loop_
_atom_site_type_symbol
_atom_site_label
_atom_site_fract_x
_atom_site_fract_y
_atom_site_fract_z
Si Si1 0.289110 0.526119 0.422462
Si Si2 0.710213 0.555197 0.966470
Si Si3 0.226425 0.858608 0.567847
Si Si4 0.730069 0.770776 0.226864
Si Si5 0.780084 0.085285 0.757643
Si Si6 0.560939 0.171278 0.673813
Si Si7 0.770683 0.870630 0.602048
O O1 0.274299 0.429451 0.243176
O O2 0.526037 0.690998 0.361864
O O3 0.298094 0.627511 0.378781
O O4 0.024483 0.318914 0.695309
O O5 0.954976 0.690975 0.830684
O O6 0.666585 0.622473 0.141305
O O7 0.476129 0.315884 0.116759
O O8 0.306144 0.933245 0.325641
O O9 0.238619 0.759514 0.519939
O O10 0.400920 0.042215 0.611300
O O11 0.719913 0.767165 0.435140
O O12 0.000000 0.000000 0.000000
O O13 0.833614 0.021619 0.588659
O O14 0.588689 0.945996 0.048902
O O15 0.000000 0.000000 0.500000
#
# Coordination Sequence:
#
# PCOD8028267 Si02
#       7
#     2   2   2   2   2   2   2
#     4  11  23  43  68 100 131 177 225 271 340 399
#     4  11  23  41  65  97 135 175 219 276 333 397
#     4  10  25  45  68 101 132 178 228 274 337 397
#     4  12  24  40  66  95 138 172 218 282 331 401
#     4  11  24  44  68 100 135 174 227 276 333 400
#     4  11  23  47  71  95 139 176 224 283 331 395
#     4  12  25  41  64 100 132 178 224 268 338 405
#
# _framework density 22.070751999999999
#
# number of rings (size 3 to 8) (size 9 to 14) (size 15 to 20)
#    0.000    0.857    1.429    6.429    4.000    2.286 
#    2.571    1.429    0.000    0.000    0.000    0.000 
#    0.000    0.000    0.000    0.000    0.000    0.000 
#
# Total GULP energy -173537.475439 kJ/mol
# GULP energy per Si atom -12395.533960 kJ/mol
# Density = 2.202052 g / cm^3
# Si number density = 22.070752 Si / 1000 Ang^3
#
#
#
# Elastic Constant Matrix: (Units=GPa)
#
#
# Indices 1 2 3 4 5 6 
#
# 1 117.4604 42.3712 24.2521 -1.8722 -11.0886 3.0790
# 2 42.3712 86.0141 15.7025 -1.9198 2.2230 -12.0738
# 3 24.2521 15.7025 65.0562 -9.5133 0.9971 -14.3971
# 4 -1.8722 -1.9198 -9.5133 44.5523 -2.3319 5.0005
# 5 -11.0886 2.2230 0.9971 -2.3319 27.5363 0.9459
# 6 3.0790 -12.0738 -14.3971 5.0005 0.9459 41.9414
#
#
#
# Elastic Compliance Matrix: (Units=1/GPa)
#
#
# Indices 1 2 3 4 5 6 
#
# 1 0.012157 -0.005971 -0.004076 0.000147 0.005680 -0.004156
# 2 -0.005971 0.015418 -0.000421 -0.000424 -0.003837 0.004869
# 3 -0.004076 -0.000421 0.018872 0.003010 -0.002254 0.006348
# 4 0.000147 -0.000424 0.003010 0.023400 0.002032 -0.001935
# 5 0.005680 -0.003837 -0.002254 0.002032 0.039284 -0.003424
# 6 -0.004156 0.004869 0.006348 -0.001935 -0.003424 0.028037
#
#
# Mechanical properties :
#
#
# Convention : Reuss Voigt Hill
#
# Bulk Modulus (GPa) = 39.20037 48.13137 43.66587
# Shear Modulus (GPa) = 30.01093 35.21964 32.61529
#
# Velocity S-wave (km/s) = 3.69149 3.99903 3.84834
# Velocity P-wave (km/s) = 5.99744 6.57101 6.29076
#
# Compressibility (1/GPa) = 0.02550996
#
# Stress axis : x y z
#
# Youngs Moduli (GPa) = 82.26005 64.86117 52.98893
#
# Poissons Ratio (x) = 0.38730 0.21598
# Poissons Ratio (y) = 0.49120 0.02230
# Poissons Ratio (z) = 0.33528 0.02730
#
# Static dielectric constant tensor:
#      x y z
#    x 4.031060 -0.064290 0.024970 
#    y -0.064290 4.301240 -0.041700 
#    z 0.024970 -0.041700 3.954680 
# 
# 
# High freq. dielectric constant tensor:
#      x y z
#    x 1.872020 0.000410 -0.002060 
#    y 0.000410 1.883430 -0.000520 
#    z -0.002060 -0.000520 1.869590 
# 
# From -- ./inp_files/227340.got.cif
#   From: 2010.06.25/outbox.cif.g09.slc.cpg/sg2_114_cif.got.tgz:227340.got - 2010.06.27 13:26:56.
