data_PCOD8028141
_publ_section_title
;
Structure prediction by ZEFSAII (Michael W. Deem and Ramdas Pophale) SiO2 
 PCOD8028141
Probable space group: P -1
;
_chemical_formula_sum "Si O2"
_cell_formula_units_Z 16
_cell_length_a 13.796712
_cell_length_b 12.984020
_cell_length_c 11.105510
_cell_angle_alpha 102.903697
_cell_angle_beta 76.142909
_cell_angle_gamma 35.118106
_cell_volume 734.203996
_symmetry_space_group_name_H-M "P -1"
_symmetry_group_IT_number 2
_symmetry_cell_setting 'triclinic'
loop_
_space_group_symop_operation_xyz
x,y,z
-x,-y,-z
loop_
_atom_site_type_symbol
_atom_site_label
_atom_site_fract_x
_atom_site_fract_y
_atom_site_fract_z
Si Si1 0.667944 0.072725 0.918373
Si Si2 0.035944 0.019357 0.122625
Si Si3 0.415027 0.333619 0.822230
Si Si4 0.134892 0.572328 0.304897
Si Si5 0.156936 0.493552 0.548114
Si Si6 0.346467 0.096647 0.463851
Si Si7 0.551079 0.622922 0.436384
Si Si8 0.982307 0.164062 0.789086
O O1 0.761857 0.081279 0.972381
O O2 0.884729 0.771143 0.769159
O O3 0.610386 0.174770 0.828945
O O4 0.417080 0.260165 0.097307
O O5 0.764508 0.329324 0.331635
O O6 0.136971 0.833504 0.139641
O O7 0.000000 0.000000 0.000000
O O8 0.479607 0.341249 0.689278
O O9 0.456223 0.169196 0.738131
O O10 0.127300 0.638839 0.034943
O O11 0.134548 0.576280 0.449765
O O12 0.087864 0.734041 0.300681
O O13 0.900021 0.728576 0.368087
O O14 0.232096 0.297458 0.460359
O O15 0.371519 0.337496 0.526977
O O16 0.500000 0.000000 0.500000
O O17 0.284311 0.855298 0.638910
#
# Coordination Sequence:
#
# PCOD8028141 Si02
#       8
#     2   2   2   2   2   2   2   2
#     4  10  25  44  65  99 133 177 219 270 338 384
#     4  11  24  43  70  98 134 176 220 278 330 392
#     4  11  22  43  67  91 140 170 214 283 322 393
#     4  11  24  42  68  96 133 175 221 268 329 399
#     4  11  23  43  69  93 141 169 216 280 325 388
#     4  12  23  45  69  99 133 178 219 272 335 388
#     4  11  22  43  67  99 133 173 221 274 333 393
#     4  11  23  44  66  96 133 174 221 272 332 392
#
# _framework density 21.792307000000001
#
# number of rings (size 3 to 8) (size 9 to 14) (size 15 to 20)
#    0.000    1.000    5.000    0.750    1.750    2.500 
#    2.250    6.250    0.000    0.000    0.000    0.000 
#    0.000    0.000    0.000    0.000    0.000    0.000 
#
# Total GULP energy -198324.860704 kJ/mol
# GULP energy per Si atom -12395.303794 kJ/mol
# Density = 2.174271 g / cm^3
# Si number density = 21.792307 Si / 1000 Ang^3
#
#
#
# Elastic Constant Matrix: (Units=GPa)
#
#
# Indices 1 2 3 4 5 6 
#
# 1 78.6954 39.1384 49.4532 5.2819 12.6315 1.4458
# 2 39.1384 85.9436 29.6561 -3.1049 7.7966 11.7935
# 3 49.4532 29.6561 128.8206 18.7901 -0.5702 0.9160
# 4 5.2819 -3.1049 18.7901 35.3048 0.0108 1.7523
# 5 12.6315 7.7966 -0.5702 0.0108 31.2431 6.3328
# 6 1.4458 11.7935 0.9160 1.7523 6.3328 47.4377
#
#
#
# Elastic Compliance Matrix: (Units=1/GPa)
#
#
# Indices 1 2 3 4 5 6 
#
# 1 0.021672 -0.007224 -0.006640 -0.000455 -0.007544 0.002288
# 2 -0.007224 0.016092 -0.001407 0.003435 -0.000345 -0.003834
# 3 -0.006640 -0.001407 0.011409 -0.005208 0.003227 0.000093
# 4 -0.000455 0.003435 -0.005208 0.031559 -0.000404 -0.001851
# 5 -0.007544 -0.000345 0.003227 -0.000404 0.036125 -0.004554
# 6 0.002288 -0.003834 0.000093 -0.001851 -0.004554 0.022638
#
#
# Mechanical properties :
#
#
# Convention : Reuss Voigt Hill
#
# Bulk Modulus (GPa) = 53.67193 58.88387 56.27790
# Shear Modulus (GPa) = 28.36913 34.47792 31.42353
#
# Velocity S-wave (km/s) = 3.61195 3.98190 3.80143
# Velocity P-wave (km/s) = 6.48670 6.94405 6.71927
#
# Compressibility (1/GPa) = 0.01863171
#
# Stress axis : x y z
#
# Youngs Moduli (GPa) = 46.14218 62.14138 87.65122
#
# Poissons Ratio (x) = 0.44892 0.58200
# Poissons Ratio (y) = 0.33334 0.12330
# Poissons Ratio (z) = 0.30638 0.08741
#
# Static dielectric constant tensor:
#      x y z
#    x 3.806090 0.061420 0.072390 
#    y 0.061420 4.121770 0.240880 
#    z 0.072390 0.240880 4.128430 
# 
# 
# High freq. dielectric constant tensor:
#      x y z
#    x 1.829810 0.001190 0.004650 
#    y 0.001190 1.872640 0.016390 
#    z 0.004650 0.016390 1.859620 
# 
# From -- ./inp_files/283319.got.cif
#   From: 2010.06.25/outbox.cif.g09.slc.cpg/sg2_142_cif.got.tgz:283319.got - 2010.06.27 13:26:56.
