data_PCOD8028571
_publ_section_title
;
Structure prediction by ZEFSAII (Michael W. Deem and Ramdas Pophale) SiO2 
 PCOD8028571
Probable space group: P -1
;
_chemical_formula_sum "Si O2"
_cell_formula_units_Z 16
_cell_length_a 23.595475
_cell_length_b 17.370858
_cell_length_c 14.739855
_cell_angle_alpha 149.945087
_cell_angle_beta 19.583521
_cell_angle_gamma 160.297963
_cell_volume 670.264997
_symmetry_space_group_name_H-M "P -1"
_symmetry_group_IT_number 2
_symmetry_cell_setting 'triclinic'
loop_
_space_group_symop_operation_xyz
x,y,z
-x,-y,-z
loop_
_atom_site_type_symbol
_atom_site_label
_atom_site_fract_x
_atom_site_fract_y
_atom_site_fract_z
Si Si1 0.079234 0.462113 0.704262
Si Si2 0.219444 0.041098 0.865760
Si Si3 0.484905 0.090505 0.239669
Si Si4 0.551757 0.393452 0.575145
Si Si5 0.702020 0.063228 0.173807
Si Si6 0.759197 0.231406 0.562162
Si Si7 0.897011 0.062657 0.477007
Si Si8 0.151405 0.175294 0.530422
O O1 0.164141 0.476887 0.694286
O O2 0.257811 0.724339 0.668788
O O3 0.115905 0.334705 0.454409
O O4 0.782385 0.297480 0.982289
O O5 0.407489 0.291290 0.786226
O O6 0.349726 0.036033 0.747810
O O7 0.129616 0.851621 0.734315
O O8 0.993920 0.995389 0.195411
O O9 0.406924 0.188564 0.513563
O O10 0.331167 0.992824 0.278180
O O11 0.391880 0.888118 0.236865
O O12 0.588917 0.580159 0.657421
O O13 0.455093 0.846701 0.263986
O O14 0.970267 0.179139 0.853025
O O15 0.000000 0.500000 0.500000
O O16 0.770981 0.898947 0.588795
O O17 0.000000 0.000000 0.500000
#
# Coordination Sequence:
#
# PCOD8028571 Si02
#       8
#     2   2   2   2   2   2   2   2
#     4  12  22  44  76 100 135 187 235 288 337 417
#     4  10  25  48  68 105 141 185 234 279 352 420
#     4  11  24  45  68 105 139 184 235 292 349 403
#     4  11  22  42  75  96 137 182 236 288 345 406
#     4  11  23  46  75 103 136 183 244 281 342 422
#     4  11  25  44  71 104 144 183 227 291 352 416
#     4  11  27  44  67 104 148 181 230 289 354 413
#     4  11  23  46  68 105 134 185 240 288 347 410
#
# _framework density 23.871155000000002
#
# number of rings (size 3 to 8) (size 9 to 14) (size 15 to 20)
#    0.000    1.000    5.000    1.875    1.750    3.000 
#    4.500    0.000    0.000    0.000    0.000    0.000 
#    0.000    0.000    0.000    0.000    0.000    0.000 
#
# Total GULP energy -198222.829233 kJ/mol
# GULP energy per Si atom -12388.926827 kJ/mol
# Density = 2.381682 g / cm^3
# Si number density = 23.871155 Si / 1000 Ang^3
#
#
#
# Elastic Constant Matrix: (Units=GPa)
#
#
# Indices 1 2 3 4 5 6 
#
# 1 152.8015 59.5104 32.1345 -15.9301 5.2794 -10.3284
# 2 59.5104 141.6514 27.1997 -13.2757 8.6321 -0.6573
# 3 32.1345 27.1997 49.2723 1.6558 7.8155 -5.4282
# 4 -15.9301 -13.2757 1.6558 34.0367 1.1390 3.8267
# 5 5.2794 8.6321 7.8155 1.1390 29.6855 -12.5661
# 6 -10.3284 -0.6573 -5.4282 3.8267 -12.5661 39.0904
#
#
#
# Elastic Compliance Matrix: (Units=1/GPa)
#
#
# Indices 1 2 3 4 5 6 
#
# 1 0.008915 -0.002654 -0.004418 0.003130 0.000947 0.001695
# 2 -0.002654 0.009203 -0.003302 0.002812 -0.002297 -0.002019
# 3 -0.004418 -0.003302 0.025999 -0.004640 -0.004304 0.001458
# 4 0.003130 0.002812 -0.004640 0.032717 -0.003086 -0.003965
# 5 0.000947 -0.002297 -0.004304 -0.003086 0.040978 0.013089
# 6 0.001695 -0.002019 0.001458 -0.003965 0.013089 0.030794
#
#
# Mechanical properties :
#
#
# Convention : Reuss Voigt Hill
#
# Bulk Modulus (GPa) = 42.79123 64.60160 53.69641
# Shear Modulus (GPa) = 28.22588 35.55458 31.89023
#
# Velocity S-wave (km/s) = 3.44237 3.86351 3.65901
# Velocity P-wave (km/s) = 5.81074 6.85738 6.35564
#
# Compressibility (1/GPa) = 0.02336928
#
# Stress axis : x y z
#
# Youngs Moduli (GPa) = 112.16714 108.66497 38.46332
#
# Poissons Ratio (x) = 0.28835 0.16994
# Poissons Ratio (y) = 0.29764 0.12701
# Poissons Ratio (z) = 0.49557 0.35881
#
# Static dielectric constant tensor:
#      x y z
#    x 4.515260 0.022090 0.058700 
#    y 0.022090 4.265540 0.258490 
#    z 0.058700 0.258490 3.745600 
# 
# 
# High freq. dielectric constant tensor:
#      x y z
#    x 1.961340 -0.002960 0.012830 
#    y -0.002960 1.942570 0.004200 
#    z 0.012830 0.004200 1.937020 
# 
# From -- ./inp_files/543179.got.cif
#   From: 2010.06.25/outbox.cif.g09.slc.cpg/sg2_272_cif.got.tgz:543179.got - 2010.06.27 13:26:56.
