data_PCOD8028000
_publ_section_title
;
Structure prediction by ZEFSAII (Michael W. Deem and Ramdas Pophale) SiO2 
 PCOD8028000
Probable space group: P -1
;
_chemical_formula_sum "Si O2"
_cell_formula_units_Z 16
_cell_length_a 14.472463
_cell_length_b 11.645835
_cell_length_c 14.906012
_cell_angle_alpha 27.734679
_cell_angle_beta 44.491811
_cell_angle_gamma 61.035187
_cell_volume 731.262665
_symmetry_space_group_name_H-M "P -1"
_symmetry_group_IT_number 2
_symmetry_cell_setting 'triclinic'
loop_
_space_group_symop_operation_xyz
x,y,z
-x,-y,-z
loop_
_atom_site_type_symbol
_atom_site_label
_atom_site_fract_x
_atom_site_fract_y
_atom_site_fract_z
Si Si1 0.899090 0.623286 0.027226
Si Si2 0.074224 0.046636 0.060119
Si Si3 0.647610 0.097356 0.629420
Si Si4 0.659262 0.014450 0.997802
Si Si5 0.827592 0.646572 0.392631
Si Si6 0.453248 0.194171 0.275879
Si Si7 0.668880 0.713727 0.025947
Si Si8 0.398678 0.152907 0.543369
O O1 0.826569 0.717907 0.931437
O O2 0.767898 0.414729 0.327668
O O3 0.988026 0.878846 0.856756
O O4 0.000000 0.500000 0.000000
O O5 0.221945 0.018002 0.999498
O O6 0.100413 0.286058 0.802678
O O7 0.951913 0.752501 0.310840
O O8 0.655566 0.002735 0.588009
O O9 0.485206 0.061550 0.789804
O O10 0.698005 0.927887 0.778432
O O11 0.720539 0.324822 0.702526
O O12 0.611779 0.807227 0.089596
O O13 0.738195 0.828067 0.330320
O O14 0.370609 0.144796 0.461825
O O15 0.593512 0.126212 0.237673
O O16 0.500000 0.500000 0.000000
O O17 0.551907 0.411038 0.286511
#
# Coordination Sequence:
#
# PCOD8028000 Si02
#       8
#     2   2   2   2   2   2   2   2
#     4  11  27  45  64  91 136 174 218 266 326 393
#     4  10  25  41  66  95 131 181 212 259 333 388
#     4  12  23  40  69  98 126 171 218 272 328 379
#     4  11  23  40  69 100 133 164 217 276 325 383
#     4  11  22  43  66  97 133 168 216 271 321 391
#     4  11  22  39  59  95 130 166 213 267 319 381
#     4  11  23  41  67 101 127 167 216 276 325 382
#     4  11  23  37  66  95 128 168 216 268 323 374
#
# _framework density 21.879963
#
# number of rings (size 3 to 8) (size 9 to 14) (size 15 to 20)
#    0.000    1.000    3.750    2.250    3.500    1.500 
#    0.000    0.000    0.000    0.000    0.000    0.000 
#    0.000    0.000    0.000    0.000    0.000    0.000 
#
# Total GULP energy -198409.510960 kJ/mol
# GULP energy per Si atom -12400.594435 kJ/mol
# Density = 2.183016 g / cm^3
# Si number density = 21.879963 Si / 1000 Ang^3
#
#
#
# Elastic Constant Matrix: (Units=GPa)
#
#
# Indices 1 2 3 4 5 6 
#
# 1 139.6827 55.7699 18.3614 -0.3158 12.0567 4.2417
# 2 55.7699 111.1366 11.7801 1.9448 -0.4266 -1.5365
# 3 18.3614 11.7801 54.3340 -6.8836 8.2306 -9.9938
# 4 -0.3158 1.9448 -6.8836 25.1790 -7.4611 4.1405
# 5 12.0567 -0.4266 8.2306 -7.4611 31.2376 -5.9363
# 6 4.2417 -1.5365 -9.9938 4.1405 -5.9363 44.8854
#
#
#
# Elastic Compliance Matrix: (Units=1/GPa)
#
#
# Indices 1 2 3 4 5 6 
#
# 1 0.009693 -0.004661 -0.002166 -0.000920 -0.003830 -0.001979
# 2 -0.004661 0.011497 -0.001184 -0.000753 0.002266 0.000940
# 3 -0.002166 -0.001184 0.021135 0.004298 -0.002947 0.004084
# 4 -0.000920 -0.000753 0.004298 0.044014 0.009383 -0.001801
# 5 -0.003830 0.002266 -0.002947 0.009383 0.037271 0.003847
# 6 -0.001979 0.000940 0.004084 -0.001801 0.003847 0.024082
#
#
# Mechanical properties :
#
#
# Convention : Reuss Voigt Hill
#
# Bulk Modulus (GPa) = 38.01457 52.99735 45.50596
# Shear Modulus (GPa) = 28.98888 34.87654 31.93271
#
# Velocity S-wave (km/s) = 3.64387 3.99682 3.82442
# Velocity P-wave (km/s) = 5.92584 6.75084 6.35175
#
# Compressibility (1/GPa) = 0.02630570
#
# Stress axis : x y z
#
# Youngs Moduli (GPa) = 103.16521 86.97913 47.31468
#
# Poissons Ratio (x) = 0.40538 0.10247
# Poissons Ratio (y) = 0.48081 0.05600
# Poissons Ratio (z) = 0.22342 0.10294
#
# Static dielectric constant tensor:
#      x y z
#    x 4.384610 0.301780 0.049150 
#    y 0.301780 4.285540 -0.262220 
#    z 0.049150 -0.262220 3.665920 
# 
# 
# High freq. dielectric constant tensor:
#      x y z
#    x 1.883020 0.010420 0.011110 
#    y 0.010420 1.869550 -0.013830 
#    z 0.011110 -0.013830 1.834580 
# 
# From -- ./inp_files/532250.got.cif
#   From: 2010.06.25/outbox.cif.g09.slc.cpg/sg2_267_cif.got.tgz:532250.got - 2010.06.27 13:26:56.
