data_PCOD8028783
_publ_section_title
;
Structure prediction by ZEFSAII (Michael W. Deem and Ramdas Pophale) SiO2 
 PCOD8028783
Probable space group: P -1
;
_chemical_formula_sum "Si O2"
_cell_formula_units_Z 14
_cell_length_a 17.879381
_cell_length_b 7.812043
_cell_length_c 8.779070
_cell_angle_alpha 60.968482
_cell_angle_beta 129.567934
_cell_angle_gamma 80.232067
_cell_volume 581.718335
_symmetry_space_group_name_H-M "P -1"
_symmetry_group_IT_number 2
_symmetry_cell_setting 'triclinic'
loop_
_space_group_symop_operation_xyz
x,y,z
-x,-y,-z
loop_
_atom_site_type_symbol
_atom_site_label
_atom_site_fract_x
_atom_site_fract_y
_atom_site_fract_z
Si Si1 0.857236 0.738384 0.799096
Si Si2 0.388022 0.781901 0.141912
Si Si3 0.573706 0.068267 0.159597
Si Si4 0.140209 0.914549 0.883689
Si Si5 0.863285 0.434310 0.183431
Si Si6 0.341837 0.294290 0.943928
Si Si7 0.157826 0.826043 0.284121
O O1 0.733761 0.802170 0.523340
O O2 0.819766 0.021646 0.640002
O O3 0.865241 0.648762 0.022280
O O4 0.000000 0.500000 0.000000
O O5 0.500000 0.500000 0.500000
O O6 0.433177 0.729799 0.044965
O O7 0.240451 0.889860 0.913284
O O8 0.369905 0.024836 0.079099
O O9 0.484805 0.212439 0.139354
O O10 0.500000 0.000000 0.000000
O O11 0.119319 0.728683 0.869740
O O12 0.206016 0.807030 0.183189
O O13 0.990437 0.233303 0.552990
O O14 0.721410 0.585665 0.022061
O O15 0.239048 0.521595 0.582339
O O16 0.000000 0.000000 0.000000
#
# Coordination Sequence:
#
# PCOD8028783 Si02
#       7
#     2   2   2   2   2   2   2
#     4  12  28  46  78 112 149 200 258 308 374 448
#     4  11  25  45  76 104 144 199 245 304 377 450
#     4  10  26  47  75 108 153 196 245 313 378 444
#     4  11  25  46  72 108 152 192 252 306 384 430
#     4  11  26  44  74 110 147 195 250 319 360 453
#     4  11  26  48  72 109 149 195 252 304 377 448
#     4  12  26  45  76 111 154 198 244 312 380 447
#
# _framework density 24.06663
#
# number of rings (size 3 to 8) (size 9 to 14) (size 15 to 20)
#    0.000    0.857    1.429    3.429   18.000    2.286 
#    2.571    0.000    0.000    0.000    0.000    0.000 
#    0.000    0.000    0.000    0.000    0.000    0.000 
#
# Total GULP energy -173577.164337 kJ/mol
# GULP energy per Si atom -12398.368881 kJ/mol
# Density = 2.401185 g / cm^3
# Si number density = 24.066630 Si / 1000 Ang^3
#
#
#
# Elastic Constant Matrix: (Units=GPa)
#
#
# Indices 1 2 3 4 5 6 
#
# 1 184.8258 22.0608 61.5776 -14.1059 7.7418 -18.3720
# 2 22.0608 77.8881 44.6822 -9.2017 -5.8996 3.6562
# 3 61.5776 44.6822 147.5059 -18.3329 3.4660 -1.4063
# 4 -14.1059 -9.2017 -18.3329 35.1158 5.1279 -1.8631
# 5 7.7418 -5.8996 3.4660 5.1279 56.5428 -4.3963
# 6 -18.3720 3.6562 -1.4063 -1.8631 -4.3963 35.4834
#
#
#
# Elastic Compliance Matrix: (Units=1/GPa)
#
#
# Indices 1 2 3 4 5 6 
#
# 1 0.006778 -0.000565 -0.002409 0.001605 -0.000715 0.003468
# 2 -0.000565 0.015946 -0.004498 0.001249 0.001761 -0.001830
# 3 -0.002409 -0.004498 0.009536 0.002961 -0.001022 -0.000377
# 4 0.001605 0.001249 0.002961 0.031541 -0.002968 0.002108
# 5 -0.000715 0.001761 -0.001022 -0.002968 0.018418 0.001534
# 6 0.003468 -0.001830 -0.000377 0.002108 0.001534 0.030452
#
#
# Mechanical properties :
#
#
# Convention : Reuss Voigt Hill
#
# Bulk Modulus (GPa) = 57.75048 74.09564 65.92306
# Shear Modulus (GPa) = 37.48488 44.22168 40.85328
#
# Velocity S-wave (km/s) = 3.95086 4.29122 4.12455
# Velocity P-wave (km/s) = 6.69780 7.44361 7.08053
#
# Compressibility (1/GPa) = 0.01731587
#
# Stress axis : x y z
#
# Youngs Moduli (GPa) = 147.54353 62.71039 104.86558
#
# Poissons Ratio (x) = 0.03544 0.25260
# Poissons Ratio (y) = 0.08338 0.47170
# Poissons Ratio (z) = 0.35541 0.28208
#
# Static dielectric constant tensor:
#      x y z
#    x 5.235860 -0.289630 0.016170 
#    y -0.289630 4.214180 -0.152660 
#    z 0.016170 -0.152660 4.366320 
# 
# 
# High freq. dielectric constant tensor:
#      x y z
#    x 1.987390 -0.002500 -0.000740 
#    y -0.002500 1.932240 -0.012550 
#    z -0.000740 -0.012550 1.954190 
# 
# From -- ./inp_files/328611.got.cif
#   From: 2010.06.25/outbox.cif.g09.slc.cpg/sg2_165_cif.got.tgz:328611.got - 2010.06.27 13:26:56.
