data_PCOD8028616
_publ_section_title
;
Structure prediction by ZEFSAII (Michael W. Deem and Ramdas Pophale) SiO2 
 PCOD8028616
Probable space group: P -1
;
_chemical_formula_sum "Si O2"
_cell_formula_units_Z 16
_cell_length_a 15.849377
_cell_length_b 8.646233
_cell_length_c 12.200572
_cell_angle_alpha 142.736483
_cell_angle_beta 48.078145
_cell_angle_gamma 132.660233
_cell_volume 712.621465
_symmetry_space_group_name_H-M "P -1"
_symmetry_group_IT_number 2
_symmetry_cell_setting 'triclinic'
loop_
_space_group_symop_operation_xyz
x,y,z
-x,-y,-z
loop_
_atom_site_type_symbol
_atom_site_label
_atom_site_fract_x
_atom_site_fract_y
_atom_site_fract_z
Si Si1 0.927521 0.689588 0.409624
Si Si2 0.529335 0.260563 0.396685
Si Si3 0.756263 0.936942 0.787002
Si Si4 0.278015 0.176286 0.828206
Si Si5 0.313029 0.822192 0.401251
Si Si6 0.548808 0.459335 0.732148
Si Si7 0.222712 0.780635 0.857531
Si Si8 0.838457 0.387563 0.788016
O O1 0.816060 0.696839 0.585751
O O2 0.870824 0.515916 0.252746
O O3 0.017642 0.549232 0.305759
O O4 0.000000 0.000000 0.500000
O O5 0.500000 0.500000 0.500000
O O6 0.549171 0.291612 0.527508
O O7 0.649073 0.237115 0.226842
O O8 0.415463 0.997926 0.328732
O O9 0.612808 0.781176 0.837424
O O10 0.776404 0.129084 0.772630
O O11 0.820873 0.103560 0.931251
O O12 0.412439 0.383874 0.850604
O O13 0.270585 0.007667 0.628344
O O14 0.234175 0.974074 0.853024
O O15 0.190109 0.354053 0.992613
O O16 0.367545 0.614067 0.293064
O O17 0.202975 0.662974 0.330240
#
# Coordination Sequence:
#
# PCOD8028616 Si02
#       8
#     2   2   2   2   2   2   2   2
#     4  10  25  49  67  92 136 177 228 280 333 388
#     4  11  22  37  68 101 135 173 217 275 331 400
#     4  11  25  42  70 100 131 178 225 279 331 393
#     4  11  24  42  66 103 137 176 219 271 335 407
#     4  11  22  42  66  95 141 178 213 269 337 396
#     4  11  21  44  67  98 145 177 212 269 344 399
#     4  12  24  44  71  99 135 178 221 273 345 392
#     4  11  27  42  67 101 131 179 231 276 323 398
#
# _framework density 22.452311999999999
#
# number of rings (size 3 to 8) (size 9 to 14) (size 15 to 20)
#    0.000    1.000    3.750    2.250    7.000    5.000 
#    0.000    4.375    0.000    0.000    0.000    0.000 
#    0.000    0.000    0.000    0.000    0.000    0.000 
#
# Total GULP energy -198385.819550 kJ/mol
# GULP energy per Si atom -12399.113722 kJ/mol
# Density = 2.240121 g / cm^3
# Si number density = 22.452312 Si / 1000 Ang^3
#
#
#
# Elastic Constant Matrix: (Units=GPa)
#
#
# Indices 1 2 3 4 5 6 
#
# 1 85.9896 -7.6192 48.3974 -8.4424 -9.9226 -4.8962
# 2 -7.6192 59.1961 3.3471 1.3074 -1.6619 -7.5474
# 3 48.3974 3.3471 105.1770 11.3800 0.1258 5.2841
# 4 -8.4424 1.3074 11.3800 22.2322 -2.8383 4.5654
# 5 -9.9226 -1.6619 0.1258 -2.8383 48.2548 9.0769
# 6 -4.8962 -7.5474 5.2841 4.5654 9.0769 32.5448
#
#
#
# Elastic Compliance Matrix: (Units=1/GPa)
#
#
# Indices 1 2 3 4 5 6 
#
# 1 0.019958 0.003332 -0.010825 0.013004 0.004553 0.002439
# 2 0.003332 0.018084 -0.002408 0.000482 0.000421 0.004901
# 3 -0.010825 -0.002408 0.015986 -0.011998 -0.002610 -0.002371
# 4 0.013004 0.000482 -0.011998 0.058236 0.007312 -0.006193
# 5 0.004553 0.000421 -0.002610 0.007312 0.023299 -0.006318
# 6 0.002439 0.004901 -0.002371 -0.006193 -0.006318 0.035246
#
#
# Mechanical properties :
#
#
# Convention : Reuss Voigt Hill
#
# Bulk Modulus (GPa) = 29.21599 37.62371 33.41985
# Shear Modulus (GPa) = 24.75012 34.35553 29.55283
#
# Velocity S-wave (km/s) = 3.32376 3.91596 3.63195
# Velocity P-wave (km/s) = 5.26977 6.10245 5.70133
#
# Compressibility (1/GPa) = 0.03422783
#
# Stress axis : x y z
#
# Youngs Moduli (GPa) = 50.10500 55.29705 62.55523
#
# Poissons Ratio (x) = -0.18428 0.67715
# Poissons Ratio (y) = -0.16697 0.15062
# Poissons Ratio (z) = 0.54238 0.13315
#
# Static dielectric constant tensor:
#      x y z
#    x 4.065910 0.135490 -0.114100 
#    y 0.135490 3.727570 0.244420 
#    z -0.114100 0.244420 3.921330 
# 
# 
# High freq. dielectric constant tensor:
#      x y z
#    x 1.879550 0.005320 -0.001180 
#    y 0.005320 1.886940 0.005970 
#    z -0.001180 0.005970 1.886050 
# 
# From -- ./inp_files/259000.got.cif
#   From: 2010.06.25/outbox.cif.g09.slc.cpg/sg2_130_cif.got.tgz:259000.got - 2010.06.27 13:26:56.
