data_PCOD8028372
_publ_section_title
;
Structure prediction by ZEFSAII (Michael W. Deem and Ramdas Pophale) SiO2 
 PCOD8028372
Probable space group: P -1
;
_chemical_formula_sum "Si O2"
_cell_formula_units_Z 14
_cell_length_a 6.014039
_cell_length_b 4.950604
_cell_length_c 28.029430
_cell_angle_alpha 97.346711
_cell_angle_beta 45.939638
_cell_angle_gamma 105.816011
_cell_volume 574.692544
_symmetry_space_group_name_H-M "P -1"
_symmetry_group_IT_number 2
_symmetry_cell_setting 'triclinic'
loop_
_space_group_symop_operation_xyz
x,y,z
-x,-y,-z
loop_
_atom_site_type_symbol
_atom_site_label
_atom_site_fract_x
_atom_site_fract_y
_atom_site_fract_z
Si Si1 0.365124 0.216139 0.761939
Si Si2 0.733978 0.355741 0.993554
Si Si3 0.362445 0.541550 0.432512
Si Si4 0.635640 0.130693 0.432566
Si Si5 0.371898 0.387358 0.865523
Si Si6 0.373014 0.014290 0.119929
Si Si7 0.622085 0.734427 0.673615
O O1 0.517867 0.288793 0.793515
O O2 0.395284 0.510487 0.737366
O O3 0.556870 0.037002 0.698965
O O4 0.002123 0.043820 0.818248
O O5 0.981428 0.281657 0.916721
O O6 0.500000 0.500000 0.000000
O O7 0.493585 0.087451 0.048912
O O8 0.000000 0.500000 0.000000
O O9 0.508754 0.406783 0.451419
O O10 0.446459 0.364104 0.372274
O O11 0.000000 0.500000 0.500000
O O12 0.515342 0.872409 0.407519
O O13 0.009949 0.241893 0.372238
O O14 0.500000 0.000000 0.500000
O O15 0.476233 0.724581 0.861723
O O16 0.501467 0.255349 0.889551
#
# Coordination Sequence:
#
# PCOD8028372 Si02
#       7
#     2   2   2   2   2   2   2
#     4  12  28  45  74 100 152 194 240 296 366 458
#     4  10  25  45  79 115 150 198 262 325 383 449
#     4  12  26  45  76 105 142 182 236 303 370 436
#     4  12  26  45  76 105 142 182 236 303 370 436
#     4  11  26  47  74 107 148 194 250 307 373 441
#     4  11  26  47  74 107 148 194 250 307 373 441
#     4  12  28  46  70 111 140 190 246 296 368 447
#
# _framework density 24.360851
#
# number of rings (size 3 to 8) (size 9 to 14) (size 15 to 20)
#    0.000    0.571    1.429    4.714   12.000    7.429 
#    0.000    0.000    0.000    0.000    0.000    0.000 
#    0.000    0.000    0.000    0.000    0.000    0.000 
#
# Total GULP energy -173510.530979 kJ/mol
# GULP energy per Si atom -12393.609356 kJ/mol
# Density = 2.430540 g / cm^3
# Si number density = 24.360851 Si / 1000 Ang^3
#
#
#
# Elastic Constant Matrix: (Units=GPa)
#
#
# Indices 1 2 3 4 5 6 
#
# 1 89.5156 5.2704 23.2026 -0.3934 -8.5486 -16.5466
# 2 5.2704 76.8553 6.5044 -5.0264 -1.9980 -2.9373
# 3 23.2026 6.5044 117.6343 0.5956 2.6703 5.3626
# 4 -0.3934 -5.0264 0.5956 48.9085 5.0484 -3.5549
# 5 -8.5486 -1.9980 2.6703 5.0484 46.1176 1.4606
# 6 -16.5466 -2.9373 5.3626 -3.5549 1.4606 45.2245
#
#
#
# Elastic Compliance Matrix: (Units=1/GPa)
#
#
# Indices 1 2 3 4 5 6 
#
# 1 0.013093 -0.000388 -0.002846 0.000220 0.002391 0.005043
# 2 -0.000388 0.013233 -0.000712 0.001394 0.000362 0.000900
# 3 -0.002846 -0.000712 0.009225 -0.000263 -0.000995 -0.002170
# 4 0.000220 0.001394 -0.000263 0.020965 -0.002240 0.001923
# 5 0.002391 0.000362 -0.000995 -0.002240 0.022442 0.000116
# 6 0.005043 0.000900 -0.002170 0.001923 0.000116 0.024420
#
#
# Mechanical properties :
#
#
# Convention : Reuss Voigt Hill
#
# Bulk Modulus (GPa) = 36.15358 39.32891 37.74124
# Shear Modulus (GPa) = 41.49733 44.65198 43.07465
#
# Velocity S-wave (km/s) = 4.13176 4.28593 4.20955
# Velocity P-wave (km/s) = 6.13473 6.37743 6.25726
#
# Compressibility (1/GPa) = 0.02765978
#
# Stress axis : x y z
#
# Youngs Moduli (GPa) = 76.37462 75.56752 108.40638
#
# Poissons Ratio (x) = 0.02930 0.30857
# Poissons Ratio (y) = 0.02961 0.07713
# Poissons Ratio (z) = 0.21740 0.05377
#
# Static dielectric constant tensor:
#      x y z
#    x 4.559480 0.269160 0.078240 
#    y 0.269160 4.492770 -0.103550 
#    z 0.078240 -0.103550 4.615420 
# 
# 
# High freq. dielectric constant tensor:
#      x y z
#    x 1.973160 0.008770 0.001620 
#    y 0.008770 1.981670 0.003380 
#    z 0.001620 0.003380 1.986250 
# 
# From -- ./inp_files/614709.got.cif
#   From: 2010.06.25/outbox.cif.g09.slc.cpg/sg2_308_cif.got.tgz:614709.got - 2010.06.27 13:26:56.
