data_PCOD8028888
_publ_section_title
;
Structure prediction by ZEFSAII (Michael W. Deem and Ramdas Pophale) SiO2 
 PCOD8028888
Probable space group: P -1
;
_chemical_formula_sum "Si O2"
_cell_formula_units_Z 16
_cell_length_a 11.741058
_cell_length_b 14.323101
_cell_length_c 12.915186
_cell_angle_alpha 135.615879
_cell_angle_beta 125.884183
_cell_angle_gamma 30.745352
_cell_volume 774.247125
_symmetry_space_group_name_H-M "P -1"
_symmetry_group_IT_number 2
_symmetry_cell_setting 'triclinic'
loop_
_space_group_symop_operation_xyz
x,y,z
-x,-y,-z
loop_
_atom_site_type_symbol
_atom_site_label
_atom_site_fract_x
_atom_site_fract_y
_atom_site_fract_z
Si Si1 0.418309 0.029709 0.813634
Si Si2 0.192293 0.002690 0.833317
Si Si3 0.805242 0.653195 0.433663
Si Si4 0.098441 0.302114 0.166832
Si Si5 0.183206 0.412345 0.110445
Si Si6 0.544519 0.531958 0.661006
Si Si7 0.158713 0.868399 0.382886
Si Si8 0.303769 0.043174 0.542744
O O1 0.350329 0.956874 0.794747
O O2 0.674137 0.833397 0.755537
O O3 0.274254 0.134558 0.713461
O O4 0.401760 0.175799 0.992105
O O5 0.954668 0.145683 0.770135
O O6 0.319345 0.777293 0.764179
O O7 0.116790 0.143273 0.002489
O O8 0.562071 0.815915 0.479852
O O9 0.000000 0.500000 0.500000
O O10 0.873492 0.480656 0.256545
O O11 0.807383 0.788189 0.473918
O O12 0.089413 0.424133 0.174630
O O13 0.242465 0.523283 0.253767
O O14 0.000000 0.500000 0.000000
O O15 0.500000 0.500000 0.500000
O O16 0.601137 0.369145 0.640744
O O17 0.180258 0.994026 0.438505
O O18 0.000000 0.000000 0.500000
#
# Coordination Sequence:
#
# PCOD8028888 Si02
#       8
#     2   2   2   2   2   2   2   2
#     4  11  18  37  64  92 132 158 212 274 317 381
#     4  11  22  40  59 100 134 170 206 261 333 391
#     4  11  25  44  69  91 121 173 221 273 320 365
#     4  11  21  38  65  90 126 169 223 265 316 379
#     4  11  22  34  59  99 132 169 208 265 334 385
#     4  12  22  35  58  91 134 175 202 248 326 393
#     4  12  25  38  62  97 138 169 204 259 333 402
#     4  11  25  43  64 100 127 161 223 272 313 390
#
# _framework density 20.665237000000001
#
# number of rings (size 3 to 8) (size 9 to 14) (size 15 to 20)
#    0.000    0.750    6.250    3.000    1.750    1.000 
#    0.000    0.625    0.000    1.500    0.000    0.000 
#    0.000    0.000    0.000    0.000    0.000    0.000 
#
# Total GULP energy -198213.562834 kJ/mol
# GULP energy per Si atom -12388.347677 kJ/mol
# Density = 2.061820 g / cm^3
# Si number density = 20.665237 Si / 1000 Ang^3
#
#
#
# Elastic Constant Matrix: (Units=GPa)
#
#
# Indices 1 2 3 4 5 6 
#
# 1 59.8079 22.7426 37.0095 2.5613 1.5660 4.2963
# 2 22.7426 124.3272 38.2777 -4.9195 3.0060 16.1773
# 3 37.0095 38.2777 127.5832 -4.4166 3.5285 -4.4030
# 4 2.5613 -4.9195 -4.4166 39.6522 -6.4053 1.8841
# 5 1.5660 3.0060 3.5285 -6.4053 32.3673 3.7871
# 6 4.2963 16.1773 -4.4030 1.8841 3.7871 27.2326
#
#
#
# Elastic Compliance Matrix: (Units=1/GPa)
#
#
# Indices 1 2 3 4 5 6 
#
# 1 0.021321 -0.001789 -0.005819 -0.002151 -0.000300 -0.003051
# 2 -0.001789 0.010060 -0.002679 0.001439 0.000465 -0.006291
# 3 -0.005819 -0.002679 0.010534 0.000860 -0.000949 0.004285
# 4 -0.002151 0.001439 0.000860 0.026663 0.005503 -0.002987
# 5 -0.000300 0.000465 -0.000949 0.005503 0.032680 -0.005308
# 6 -0.003051 -0.006291 0.004285 -0.002987 -0.005308 0.042577
#
#
# Mechanical properties :
#
#
# Convention : Reuss Voigt Hill
#
# Bulk Modulus (GPa) = 46.86356 56.41976 51.64166
# Shear Modulus (GPa) = 29.15049 34.09631 31.62340
#
# Velocity S-wave (km/s) = 3.75988 4.06635 3.91611
# Velocity P-wave (km/s) = 6.44792 7.02908 6.74476
#
# Compressibility (1/GPa) = 0.02133854
#
# Stress axis : x y z
#
# Youngs Moduli (GPa) = 46.90248 99.40571 94.93186
#
# Poissons Ratio (x) = 0.17787 0.55245
# Poissons Ratio (y) = 0.08392 0.25435
# Poissons Ratio (z) = 0.27295 0.26633
#
# Static dielectric constant tensor:
#      x y z
#    x 3.506500 0.073040 -0.007130 
#    y 0.073040 4.090470 0.345180 
#    z -0.007130 0.345180 4.293560 
# 
# 
# High freq. dielectric constant tensor:
#      x y z
#    x 1.759970 0.005630 -0.000070 
#    y 0.005630 1.837700 0.001490 
#    z -0.000070 0.001490 1.820480 
# 
# From -- ./inp_files/522531.got.cif
#   From: 2010.06.25/outbox.cif.g09.slc.cpg/sg2_262_cif.got.tgz:522531.got - 2010.06.27 13:26:56.
