data_PCOD8028800
_publ_section_title
;
Structure prediction by ZEFSAII (Michael W. Deem and Ramdas Pophale) SiO2 
 PCOD8028800
Probable space group: P -1
;
_chemical_formula_sum "Si O2"
_cell_formula_units_Z 10
_cell_length_a 8.819545
_cell_length_b 10.215289
_cell_length_c 4.836992
_cell_angle_alpha 103.269497
_cell_angle_beta 106.518922
_cell_angle_gamma 87.501245
_cell_volume 406.533962
_symmetry_space_group_name_H-M "P -1"
_symmetry_group_IT_number 2
_symmetry_cell_setting 'triclinic'
loop_
_space_group_symop_operation_xyz
x,y,z
-x,-y,-z
loop_
_atom_site_type_symbol
_atom_site_label
_atom_site_fract_x
_atom_site_fract_y
_atom_site_fract_z
Si Si1 0.974116 0.821217 0.689362
Si Si2 0.471138 0.177019 0.813341
Si Si3 0.747189 0.990841 0.995118
Si Si4 0.073964 0.356154 0.951598
Si Si5 0.428215 0.354394 0.338844
O O1 0.925954 0.710717 0.382519
O O2 0.825690 0.911031 0.744266
O O3 0.029760 0.740925 0.951162
O O4 0.124829 0.915003 0.730349
O O5 0.435169 0.245490 0.536285
O O6 0.606829 0.067500 0.804506
O O7 0.314868 0.110455 0.847194
O O8 0.530146 0.294808 0.110344
O O9 0.000000 0.500000 0.000000
O O10 0.249149 0.372811 0.167538
O O11 0.500000 0.500000 0.500000
#
# Coordination Sequence:
#
# PCOD8028800 Si02
#       5
#     2   2   2   2   2
#     4  11  26  48  78 109 152 191 256 301 381 437
#     4  11  26  48  78 109 152 191 256 301 381 437
#     4  10  26  48  80 112 152 198 242 312 378 450
#     4  12  28  49  76 107 150 199 255 307 365 447
#     4  12  28  49  76 107 150 199 255 307 365 447
#
# _framework density 24.598191
#
# number of rings (size 3 to 8) (size 9 to 14) (size 15 to 20)
#    0.000    0.800    2.000    2.400    5.600    9.600 
#    0.000    0.000    0.000    0.000    0.000    0.000 
#    0.000    0.000    0.000    0.000    0.000    0.000 
#
# Total GULP energy -123991.418854 kJ/mol
# GULP energy per Si atom -12399.141885 kJ/mol
# Density = 2.454220 g / cm^3
# Si number density = 24.598191 Si / 1000 Ang^3
#
#
#
# Elastic Constant Matrix: (Units=GPa)
#
#
# Indices 1 2 3 4 5 6 
#
# 1 101.9683 47.8380 32.9865 0.4530 7.8697 -15.3154
# 2 47.8380 144.2674 32.1143 2.2410 6.4480 -30.1782
# 3 32.9865 32.1143 110.0868 -0.1073 -8.6656 -18.4534
# 4 0.4530 2.2410 -0.1073 49.1261 6.6448 -0.6742
# 5 7.8697 6.4480 -8.6656 6.6448 35.8093 10.8636
# 6 -15.3154 -30.1782 -18.4534 -0.6742 10.8636 37.0999
#
#
#
# Elastic Compliance Matrix: (Units=1/GPa)
#
#
# Indices 1 2 3 4 5 6 
#
# 1 0.012778 -0.002880 -0.002848 0.000571 -0.003893 0.002666
# 2 -0.002880 0.009819 -0.001057 0.000171 -0.003651 0.007344
# 3 -0.002848 -0.001057 0.010892 -0.000233 0.002711 0.002584
# 4 0.000571 0.000171 -0.000233 0.021009 -0.004725 0.002024
# 5 -0.003893 -0.003651 0.002711 -0.004725 0.035094 -0.013590
# 6 0.002666 0.007344 0.002584 0.002024 -0.013590 0.039330
#
#
# Mechanical properties :
#
#
# Convention : Reuss Voigt Hill
#
# Bulk Modulus (GPa) = 50.20643 64.68892 57.44767
# Shear Modulus (GPa) = 33.52743 40.63264 37.08004
#
# Velocity S-wave (km/s) = 3.69589 4.06871 3.88677
# Velocity P-wave (km/s) = 6.21834 6.95901 6.59908
#
# Compressibility (1/GPa) = 0.01991777
#
# Stress axis : x y z
#
# Youngs Moduli (GPa) = 78.26082 101.84556 91.81275
#
# Poissons Ratio (x) = 0.29335 0.26144
# Poissons Ratio (y) = 0.22542 0.09708
# Poissons Ratio (z) = 0.22285 0.10769
#
# Static dielectric constant tensor:
#      x y z
#    x 4.605280 0.057100 -0.123380 
#    y 0.057100 4.994660 0.191650 
#    z -0.123380 0.191650 4.554110 
# 
# 
# High freq. dielectric constant tensor:
#      x y z
#    x 1.976960 -0.002680 -0.004730 
#    y -0.002680 2.001210 0.006610 
#    z -0.004730 0.006610 1.994950 
# 
# From -- ./inp_files/22541.got.cif
#   From: 2010.06.25/outbox.cif.g09.slc.cpg/sg2_12_cif.got.tgz:22541.got - 2010.06.27 13:26:56.
