data_PCOD8028822
_publ_section_title
;
Structure prediction by ZEFSAII (Michael W. Deem and Ramdas Pophale) SiO2 
 PCOD8028822
Probable space group: P -1
;
_chemical_formula_sum "Si O2"
_cell_formula_units_Z 16
_cell_length_a 11.318766
_cell_length_b 8.450255
_cell_length_c 8.681415
_cell_angle_alpha 119.418263
_cell_angle_beta 102.140863
_cell_angle_gamma 86.322434
_cell_volume 706.354127
_symmetry_space_group_name_H-M "P -1"
_symmetry_group_IT_number 2
_symmetry_cell_setting 'triclinic'
loop_
_space_group_symop_operation_xyz
x,y,z
-x,-y,-z
loop_
_atom_site_type_symbol
_atom_site_label
_atom_site_fract_x
_atom_site_fract_y
_atom_site_fract_z
Si Si1 0.652688 0.978103 0.689240
Si Si2 0.028790 0.796437 0.382564
Si Si3 0.623956 0.578347 0.996635
Si Si4 0.617641 0.951504 0.314617
Si Si5 0.747670 0.301611 0.425470
Si Si6 0.833986 0.288283 0.931822
Si Si7 0.902113 0.480024 0.326576
Si Si8 0.613532 0.599381 0.658306
O O1 0.673562 0.985561 0.515071
O O2 0.657321 0.775764 0.658883
O O3 0.527010 0.069385 0.734455
O O4 0.761234 0.097393 0.852989
O O5 0.125557 0.772238 0.530267
O O6 0.078572 0.736614 0.201975
O O7 0.907675 0.673446 0.331944
O O8 0.000000 0.000000 0.500000
O O9 0.670467 0.765356 0.180366
O O10 0.500000 0.500000 0.000000
O O11 0.733856 0.442126 0.959460
O O12 0.586362 0.643139 0.847192
O O13 0.652493 0.128729 0.302365
O O14 0.769014 0.416832 0.326851
O O15 0.713538 0.447796 0.614040
O O16 0.922065 0.332903 0.124066
O O17 0.000000 0.500000 0.500000
O O18 0.500000 0.500000 0.500000
#
# Coordination Sequence:
#
# PCOD8028822 Si02
#       8
#     2   2   2   2   2   2   2   2
#     4  11  24  41  70 107 146 193 235 285 355 452
#     4  11  25  50  74 101 134 192 256 308 360 420
#     4  12  26  42  69 110 149 192 237 283 360 452
#     4  11  23  43  67 104 152 187 239 279 355 453
#     4  11  24  46  70 102 147 190 236 299 363 428
#     4  12  25  47  76 105 146 191 240 302 373 428
#     4  10  27  49  72 100 138 185 249 315 362 417
#     4  12  25  42  69 104 154 195 230 287 360 436
#
# _framework density 22.651527999999999
#
# number of rings (size 3 to 8) (size 9 to 14) (size 15 to 20)
#    0.000    0.750    5.000    1.125    8.750    0.500 
#    0.000    2.500    0.000    0.000    0.000    0.000 
#    0.000    0.000    0.000    0.000    0.000    0.000 
#
# Total GULP energy -198249.822081 kJ/mol
# GULP energy per Si atom -12390.613880 kJ/mol
# Density = 2.259997 g / cm^3
# Si number density = 22.651528 Si / 1000 Ang^3
#
#
#
# Elastic Constant Matrix: (Units=GPa)
#
#
# Indices 1 2 3 4 5 6 
#
# 1 75.8960 60.9862 58.8150 1.5898 -9.7969 17.8728
# 2 60.9862 147.8607 70.1743 27.6156 -6.2163 36.6477
# 3 58.8150 70.1743 153.4500 15.9453 0.5331 20.6917
# 4 1.5898 27.6156 15.9453 41.1896 -0.8243 -2.4424
# 5 -9.7969 -6.2163 0.5331 -0.8243 43.5736 3.8226
# 6 17.8728 36.6477 20.6917 -2.4424 3.8226 52.0000
#
#
#
# Elastic Compliance Matrix: (Units=1/GPa)
#
#
# Indices 1 2 3 4 5 6 
#
# 1 0.025803 -0.008612 -0.006728 0.007471 0.004807 -0.000125
# 2 -0.008612 0.014526 -0.001410 -0.009275 0.000609 -0.007197
# 3 -0.006728 -0.001410 0.010135 -0.002798 -0.001827 -0.000724
# 4 0.007471 -0.009275 -0.002798 0.031688 0.000417 0.006540
# 5 0.004807 0.000609 -0.001827 0.000417 0.024422 -0.003130
# 6 -0.000125 -0.007197 -0.000724 0.006540 -0.003130 0.025171
#
#
# Mechanical properties :
#
#
# Convention : Reuss Voigt Hill
#
# Bulk Modulus (GPa) = 58.94636 84.12865 71.53751
# Shear Modulus (GPa) = 29.25689 39.83471 34.54580
#
# Velocity S-wave (km/s) = 3.59779 4.19810 3.90949
# Velocity P-wave (km/s) = 6.58319 7.79229 7.21312
#
# Compressibility (1/GPa) = 0.01696457
#
# Stress axis : x y z
#
# Youngs Moduli (GPa) = 38.75470 68.84163 98.66868
#
# Poissons Ratio (x) = 0.59287 0.66383
# Poissons Ratio (y) = 0.33376 0.13911
# Poissons Ratio (z) = 0.26074 0.09706
#
# Static dielectric constant tensor:
#      x y z
#    x 4.397290 0.740140 -0.181880 
#    y 0.740140 4.527270 -0.254130 
#    z -0.181880 -0.254130 4.274460 
# 
# 
# High freq. dielectric constant tensor:
#      x y z
#    x 1.887330 0.024620 -0.001490 
#    y 0.024620 1.902210 0.007350 
#    z -0.001490 0.007350 1.900810 
# 
# From -- ./inp_files/242178.got.cif
#   From: 2010.06.25/outbox.cif.g09.slc.cpg/sg2_122_cif.got.tgz:242178.got - 2010.06.27 13:26:56.
