data_PCOD8028454
_publ_section_title
;
Structure prediction by ZEFSAII (Michael W. Deem and Ramdas Pophale) SiO2 
 PCOD8028454
Probable space group: P -1
;
_chemical_formula_sum "Si O2"
_cell_formula_units_Z 16
_cell_length_a 11.627162
_cell_length_b 9.021358
_cell_length_c 14.577783
_cell_angle_alpha 84.830653
_cell_angle_beta 30.335704
_cell_angle_gamma 91.538619
_cell_volume 752.338407
_symmetry_space_group_name_H-M "P -1"
_symmetry_group_IT_number 2
_symmetry_cell_setting 'triclinic'
loop_
_space_group_symop_operation_xyz
x,y,z
-x,-y,-z
loop_
_atom_site_type_symbol
_atom_site_label
_atom_site_fract_x
_atom_site_fract_y
_atom_site_fract_z
Si Si1 0.519954 0.953593 0.132292
Si Si2 0.213388 0.386126 0.957274
Si Si3 0.648556 0.268166 0.596980
Si Si4 0.228078 0.701638 0.837395
Si Si5 0.844669 0.559406 0.793705
Si Si6 0.061494 0.924362 0.053999
Si Si7 0.480470 0.750140 0.992175
Si Si8 0.549925 0.836039 0.457723
O O1 0.343755 0.886303 0.341345
O O2 0.490922 0.122115 0.114234
O O3 0.476277 0.834712 0.086365
O O4 0.786266 0.959966 0.984561
O O5 0.457238 0.338285 0.778525
O O6 0.214823 0.534918 0.889883
O O7 0.169811 0.410890 0.091161
O O8 0.991598 0.269115 0.074382
O O9 0.574374 0.231759 0.545856
O O10 0.892252 0.387915 0.426257
O O11 0.455926 0.734758 0.615394
O O12 0.233738 0.811248 0.915120
O O13 0.691333 0.662172 0.840691
O O14 0.757661 0.378874 0.844293
O O15 0.823534 0.836363 0.268516
O O16 0.000000 0.000000 0.000000
O O17 0.500000 0.000000 0.500000
#
# Coordination Sequence:
#
# PCOD8028454 Si02
#       8
#     2   2   2   2   2   2   2   2
#     4  11  23  45  70 100 134 174 231 279 337 388
#     4  11  23  41  65  94 139 173 219 270 334 401
#     4  12  24  41  73  99 135 177 225 281 333 406
#     4  11  23  39  61  99 137 179 212 268 330 405
#     4  11  24  46  72  95 133 181 225 279 347 387
#     4  12  22  40  69  96 138 176 214 271 339 403
#     4  10  25  46  71  96 131 181 228 286 330 397
#     4  12  24  37  64 103 133 176 221 265 338 407
#
# _framework density 21.267025
#
# number of rings (size 3 to 8) (size 9 to 14) (size 15 to 20)
#    0.000    0.750    6.250    0.750    1.750    3.500 
#    0.000    0.000    0.000    0.000    0.000    0.000 
#    0.000    0.000    0.000    0.000    0.000    0.000 
#
# Total GULP energy -198368.557504 kJ/mol
# GULP energy per Si atom -12398.034844 kJ/mol
# Density = 2.121862 g / cm^3
# Si number density = 21.267025 Si / 1000 Ang^3
#
#
#
# Elastic Constant Matrix: (Units=GPa)
#
#
# Indices 1 2 3 4 5 6 
#
# 1 82.6583 28.9181 43.9812 -4.7552 -2.5964 -2.0823
# 2 28.9181 91.1744 40.3874 -11.7773 -1.8263 3.6190
# 3 43.9812 40.3874 172.8804 -13.9251 -0.6224 0.1938
# 4 -4.7552 -11.7773 -13.9251 22.1002 9.7506 4.4645
# 5 -2.5964 -1.8263 -0.6224 9.7506 27.8157 -9.2297
# 6 -2.0823 3.6190 0.1938 4.4645 -9.2297 32.7873
#
#
#
# Elastic Compliance Matrix: (Units=1/GPa)
#
#
# Indices 1 2 3 4 5 6 
#
# 1 0.015100 -0.003756 -0.003157 -0.002486 0.002799 0.002519
# 2 -0.003756 0.014013 -0.001688 0.007928 -0.003524 -0.003847
# 3 -0.003157 -0.001688 0.007315 0.004219 -0.002129 -0.001231
# 4 -0.002486 0.007928 0.004219 0.068592 -0.029905 -0.018816
# 5 0.002799 -0.003524 -0.002129 -0.029905 0.052901 0.019543
# 6 0.002519 -0.003847 -0.001231 -0.018816 0.019543 0.039155
#
#
# Mechanical properties :
#
#
# Convention : Reuss Voigt Hill
#
# Bulk Modulus (GPa) = 52.01057 63.69850 57.85454
# Shear Modulus (GPa) = 22.65654 32.10240 27.37947
#
# Velocity S-wave (km/s) = 3.26749 3.88943 3.59195
# Velocity P-wave (km/s) = 6.22450 7.08428 6.66826
#
# Compressibility (1/GPa) = 0.01922686
#
# Stress axis : x y z
#
# Youngs Moduli (GPa) = 66.22424 71.36162 136.69859
#
# Poissons Ratio (x) = 0.26803 0.43157
# Poissons Ratio (y) = 0.24873 0.23075
# Poissons Ratio (z) = 0.20907 0.12046
#
# Static dielectric constant tensor:
#      x y z
#    x 4.252710 -0.088350 0.335430 
#    y -0.088350 4.131940 -1.008950 
#    z 0.335430 -1.008950 5.559290 
# 
# 
# High freq. dielectric constant tensor:
#      x y z
#    x 1.841160 0.005470 0.006820 
#    y 0.005470 1.843770 -0.016300 
#    z 0.006820 -0.016300 1.828480 
# 
# From -- ./inp_files/315886.got.cif
#   From: 2010.06.25/outbox.cif.g09.slc.cpg/sg2_158_cif.got.tgz:315886.got - 2010.06.27 13:26:56.
