data_PCOD8028397
_publ_section_title
;
Structure prediction by ZEFSAII (Michael W. Deem and Ramdas Pophale) SiO2 
 PCOD8028397
Probable space group: P -1
;
_chemical_formula_sum "Si O2"
_cell_formula_units_Z 16
_cell_length_a 14.993705
_cell_length_b 11.804367
_cell_length_c 9.255109
_cell_angle_alpha 104.685053
_cell_angle_beta 95.692199
_cell_angle_gamma 27.370672
_cell_volume 698.674061
_symmetry_space_group_name_H-M "P -1"
_symmetry_group_IT_number 2
_symmetry_cell_setting 'triclinic'
loop_
_space_group_symop_operation_xyz
x,y,z
-x,-y,-z
loop_
_atom_site_type_symbol
_atom_site_label
_atom_site_fract_x
_atom_site_fract_y
_atom_site_fract_z
Si Si1 0.372395 0.470412 0.680695
Si Si2 0.006401 0.279870 0.671421
Si Si3 0.392667 0.372670 0.323636
Si Si4 0.656295 0.879838 0.093164
Si Si5 0.285803 0.845767 0.800268
Si Si6 0.014718 0.112624 0.094133
Si Si7 0.818626 0.934029 0.677159
Si Si8 0.037554 0.397283 0.153774
O O1 0.353099 0.466678 0.507378
O O2 0.331273 0.655626 0.753149
O O3 0.209773 0.588146 0.789424
O O4 0.587500 0.178576 0.682302
O O5 0.040655 0.238372 0.493639
O O6 0.975285 0.447946 0.773169
O O7 0.813396 0.424924 0.722066
O O8 0.196778 0.992398 0.680911
O O9 0.495932 0.345458 0.221028
O O10 0.534473 0.091439 0.266334
O O11 0.823730 0.603473 0.114523
O O12 0.779532 0.833423 0.005383
O O13 0.500000 0.000000 0.000000
O O14 0.118115 0.072735 0.972521
O O15 0.159799 0.963217 0.209267
O O16 0.000000 0.000000 0.000000
O O17 0.913808 0.726574 0.732588
#
# Coordination Sequence:
#
# PCOD8028397 Si02
#       8
#     2   2   2   2   2   2   2   2
#     4  11  25  47  71 103 141 184 236 288 356 416
#     4  12  25  44  72 103 142 185 237 292 345 411
#     4  12  23  43  70 104 135 183 238 285 350 413
#     4  11  23  43  70 100 137 181 232 285 348 421
#     4  11  25  45  73 102 141 182 238 293 345 418
#     4  10  25  46  68 103 140 182 233 290 350 418
#     4  12  25  44  72 100 146 186 227 294 352 412
#     4  11  25  44  68 102 142 180 236 290 350 414
#
# _framework density 22.900518999999999
#
# number of rings (size 3 to 8) (size 9 to 14) (size 15 to 20)
#    0.000    0.750    5.000    1.500    1.750    7.500 
#    0.000    1.250    0.000    0.000    0.000    0.000 
#    0.000    0.000    0.000    0.000    0.000    0.000 
#
# Total GULP energy -198275.989622 kJ/mol
# GULP energy per Si atom -12392.249351 kJ/mol
# Density = 2.284840 g / cm^3
# Si number density = 22.900519 Si / 1000 Ang^3
#
#
#
# Elastic Constant Matrix: (Units=GPa)
#
#
# Indices 1 2 3 4 5 6 
#
# 1 110.7462 41.5933 35.8211 -0.1520 -15.5572 -27.2648
# 2 41.5933 92.9987 15.3880 -5.1662 -11.1245 -12.4822
# 3 35.8211 15.3880 111.0243 9.3098 -18.1482 -10.3297
# 4 -0.1520 -5.1662 9.3098 38.2936 -5.3755 -5.9796
# 5 -15.5572 -11.1245 -18.1482 -5.3755 36.7681 -7.2595
# 6 -27.2648 -12.4822 -10.3297 -5.9796 -7.2595 36.2971
#
#
#
# Elastic Compliance Matrix: (Units=1/GPa)
#
#
# Indices 1 2 3 4 5 6 
#
# 1 0.014853 -0.003855 -0.002416 0.002736 0.006476 0.010890
# 2 -0.003855 0.013416 -0.000029 0.002717 0.003370 0.002831
# 3 -0.002416 -0.000029 0.010833 -0.001735 0.004429 0.001858
# 4 0.002736 0.002717 -0.001735 0.029280 0.007130 0.008745
# 5 0.006476 0.003370 0.004429 0.007130 0.037330 0.015925
# 6 0.010890 0.002831 0.001858 0.008745 0.015925 0.041858
#
#
# Mechanical properties :
#
#
# Convention : Reuss Voigt Hill
#
# Bulk Modulus (GPa) = 37.73279 55.59712 46.66496
# Shear Modulus (GPa) = 29.58505 37.06954 33.32730
#
# Velocity S-wave (km/s) = 3.59819 4.02770 3.81899
# Velocity P-wave (km/s) = 5.81165 6.77939 6.31409
#
# Compressibility (1/GPa) = 0.02650215
#
# Stress axis : x y z
#
# Youngs Moduli (GPa) = 67.32481 74.53877 92.31152
#
# Poissons Ratio (x) = 0.28736 0.22299
# Poissons Ratio (y) = 0.25955 0.00270
# Poissons Ratio (z) = 0.16263 0.00218
#
# Static dielectric constant tensor:
#      x y z
#    x 4.506650 -0.373090 -0.071650 
#    y -0.373090 4.015870 0.237460 
#    z -0.071650 0.237460 4.487050 
# 
# 
# High freq. dielectric constant tensor:
#      x y z
#    x 1.915120 -0.022950 0.006220 
#    y -0.022950 1.893820 0.015970 
#    z 0.006220 0.015970 1.923910 
# 
# From -- ./inp_files/307727.got.cif
#   From: 2010.06.25/outbox.cif.g09.slc.cpg/sg2_154_cif.got.tgz:307727.got - 2010.06.27 13:26:56.
