data_PCOD8028791
_publ_section_title
;
Structure prediction by ZEFSAII (Michael W. Deem and Ramdas Pophale) SiO2 
 PCOD8028791
Probable space group: P -1
;
_chemical_formula_sum "Si O2"
_cell_formula_units_Z 14
_cell_length_a 12.191869
_cell_length_b 8.849620
_cell_length_c 5.329214
_cell_angle_alpha 76.878494
_cell_angle_beta 77.643356
_cell_angle_gamma 81.319518
_cell_volume 543.828005
_symmetry_space_group_name_H-M "P -1"
_symmetry_group_IT_number 2
_symmetry_cell_setting 'triclinic'
loop_
_space_group_symop_operation_xyz
x,y,z
-x,-y,-z
loop_
_atom_site_type_symbol
_atom_site_label
_atom_site_fract_x
_atom_site_fract_y
_atom_site_fract_z
Si Si1 0.904579 0.493070 0.844435
Si Si2 0.568771 0.841127 0.441145
Si Si3 0.010734 0.755109 0.443056
Si Si4 0.556883 0.334238 0.776080
Si Si5 0.843982 0.053427 0.411761
Si Si6 0.702207 0.040148 0.994841
Si Si7 0.661144 0.595040 0.843440
O O1 0.910012 0.317193 0.796433
O O2 0.775998 0.551247 0.962877
O O3 0.928631 0.623016 0.579645
O O4 0.000000 0.500000 0.000000
O O5 0.476874 0.720610 0.465271
O O6 0.653355 0.763187 0.643177
O O7 0.500000 0.000000 0.500000
O O8 0.645554 0.880612 0.146792
O O9 0.936798 0.912952 0.339886
O O10 0.092270 0.792724 0.620719
O O11 0.648560 0.459302 0.688486
O O12 0.602472 0.178532 0.961533
O O13 0.439387 0.413422 0.911966
O O14 0.766500 0.087290 0.196462
O O15 0.778452 0.014745 0.716511
#
# Coordination Sequence:
#
# PCOD8028791 Si02
#       7
#     2   2   2   2   2   2   2
#     4  11  26  46  76 106 153 201 259 314 382 455
#     4  12  25  46  74 110 155 197 255 312 382 460
#     4  10  26  48  70 111 146 203 262 320 375 453
#     4  11  26  45  74 111 153 202 247 313 380 473
#     4  11  27  46  80 111 152 201 257 320 386 446
#     4  12  26  45  80 116 156 199 253 319 390 459
#     4  11  26  48  72 110 152 203 252 311 389 452
#
# _framework density 25.743435000000002
#
# number of rings (size 3 to 8) (size 9 to 14) (size 15 to 20)
#    0.000    0.857    1.429    3.429   10.000    3.429 
#    2.571    0.000    0.000    0.000    0.000    0.000 
#    0.000    0.000    0.000    0.000    0.000    0.000 
#
# Total GULP energy -173510.886873 kJ/mol
# GULP energy per Si atom -12393.634777 kJ/mol
# Density = 2.568484 g / cm^3
# Si number density = 25.743435 Si / 1000 Ang^3
#
#
#
# Elastic Constant Matrix: (Units=GPa)
#
#
# Indices 1 2 3 4 5 6 
#
# 1 151.2300 48.5694 31.4696 4.4449 30.5365 -26.0709
# 2 48.5694 126.2889 16.5200 13.5146 13.2272 -13.6026
# 3 31.4696 16.5200 81.0904 7.6230 16.6366 -16.3940
# 4 4.4449 13.5146 7.6230 30.0336 7.0330 1.0489
# 5 30.5365 13.2272 16.6366 7.0330 51.7091 -3.2913
# 6 -26.0709 -13.6026 -16.3940 1.0489 -3.2913 46.5870
#
#
#
# Elastic Compliance Matrix: (Units=1/GPa)
#
#
# Indices 1 2 3 4 5 6 
#
# 1 0.009202 -0.002633 -0.001569 0.001077 -0.004179 0.003509
# 2 -0.002633 0.009535 -0.000259 -0.003834 -0.000197 0.001292
# 3 -0.001569 -0.000259 0.014716 -0.002802 -0.003102 0.004069
# 4 0.001077 -0.003834 -0.002802 0.036576 -0.003894 -0.002601
# 5 -0.004179 -0.000197 -0.003102 -0.003894 0.023273 -0.001756
# 6 0.003509 0.001292 0.004069 -0.002601 -0.001756 0.025172
#
#
# Mechanical properties :
#
#
# Convention : Reuss Voigt Hill
#
# Bulk Modulus (GPa) = 40.76509 61.30302 51.03406
# Shear Modulus (GPa) = 36.88056 43.13595 40.00826
#
# Velocity S-wave (km/s) = 3.78910 4.09786 3.94650
# Velocity P-wave (km/s) = 5.91714 6.80108 6.37445
#
# Compressibility (1/GPa) = 0.02453079
#
# Stress axis : x y z
#
# Youngs Moduli (GPa) = 108.67558 104.87669 67.95360
#
# Poissons Ratio (x) = 0.27617 0.10663
# Poissons Ratio (y) = 0.28617 0.01757
# Poissons Ratio (z) = 0.17052 0.02711
#
# Static dielectric constant tensor:
#      x y z
#    x 5.014330 0.354710 -0.047450 
#    y 0.354710 5.191600 -0.014640 
#    z -0.047450 -0.014640 4.391600 
# 
# 
# High freq. dielectric constant tensor:
#      x y z
#    x 2.039460 0.004330 0.010830 
#    y 0.004330 2.049140 0.003090 
#    z 0.010830 0.003090 2.005420 
# 
# From -- ./inp_files/27502.got.cif
#   From: 2010.06.25/outbox.cif.g09.slc.cpg/sg2_14_cif.got.tgz:27502.got - 2010.06.27 13:26:56.
