data_PCOD8028882
_publ_section_title
;
Structure prediction by ZEFSAII (Michael W. Deem and Ramdas Pophale) SiO2 
 PCOD8028882
Probable space group: P -1
;
_chemical_formula_sum "Si O2"
_cell_formula_units_Z 14
_cell_length_a 16.165089
_cell_length_b 9.540818
_cell_length_c 12.342682
_cell_angle_alpha 48.935212
_cell_angle_beta 154.439562
_cell_angle_gamma 119.419417
_cell_volume 588.389500
_symmetry_space_group_name_H-M "P -1"
_symmetry_group_IT_number 2
_symmetry_cell_setting 'triclinic'
loop_
_space_group_symop_operation_xyz
x,y,z
-x,-y,-z
loop_
_atom_site_type_symbol
_atom_site_label
_atom_site_fract_x
_atom_site_fract_y
_atom_site_fract_z
Si Si1 0.879763 0.722822 0.699674
Si Si2 0.781786 0.045433 0.268656
Si Si3 0.431687 0.694987 0.932097
Si Si4 0.932932 0.354690 0.570417
Si Si5 0.181958 0.908184 0.053836
Si Si6 0.821538 0.415121 0.638361
Si Si7 0.505866 0.927992 0.270740
O O1 0.918976 0.496312 0.819283
O O2 0.737223 0.784135 0.607684
O O3 0.753721 0.844199 0.385904
O O4 0.074755 0.797461 0.900014
O O5 0.747106 0.195230 0.251430
O O6 0.617919 0.134236 0.938753
O O7 0.000000 0.000000 0.500000
O O8 0.311272 0.594468 0.758220
O O9 0.511534 0.844399 0.879765
O O10 0.600354 0.549062 0.278364
O O11 0.968360 0.394186 0.718973
O O12 0.000000 0.500000 0.500000
O O13 0.051973 0.131988 0.798251
O O14 0.199103 0.795223 0.246016
O O15 0.405590 0.895839 0.282074
#
# Coordination Sequence:
#
# PCOD8028882 Si02
#       7
#     2   2   2   2   2   2   2
#     4  11  22  42  70 103 137 180 226 283 336 410
#     4  11  18  35  72 100 135 174 236 283 329 393
#     4  11  22  44  69 100 130 184 236 285 328 410
#     4  12  27  48  71  98 135 187 237 280 338 413
#     4  12  26  46  70 102 145 183 220 286 352 405
#     4  12  26  44  67 106 144 175 227 289 346 405
#     4  11  20  41  74  97 137 177 237 277 338 401
#
# _framework density 23.793761
#
# number of rings (size 3 to 8) (size 9 to 14) (size 15 to 20)
#    0.000    0.571    7.143    3.000    2.000    0.571 
#    2.571    1.429    0.000    0.000    0.000    0.000 
#    0.000    0.000    0.000    0.000    0.000    0.000 
#
# Total GULP energy -173582.146108 kJ/mol
# GULP energy per Si atom -12398.724722 kJ/mol
# Density = 2.373960 g / cm^3
# Si number density = 23.793761 Si / 1000 Ang^3
#
#
#
# Elastic Constant Matrix: (Units=GPa)
#
#
# Indices 1 2 3 4 5 6 
#
# 1 160.3982 55.8766 34.0792 -3.5374 -1.5786 32.0061
# 2 55.8766 125.8169 48.8615 -13.2141 -8.5152 16.0268
# 3 34.0792 48.8615 64.9678 -13.4917 11.2941 19.3356
# 4 -3.5374 -13.2141 -13.4917 42.7759 7.7156 -9.8080
# 5 -1.5786 -8.5152 11.2941 7.7156 28.2451 3.7588
# 6 32.0061 16.0268 19.3356 -9.8080 3.7588 36.2531
#
#
#
# Elastic Compliance Matrix: (Units=1/GPa)
#
#
# Indices 1 2 3 4 5 6 
#
# 1 0.008737 -0.002589 -0.001483 -0.002393 0.001835 -0.006615
# 2 -0.002589 0.013662 -0.010794 -0.000687 0.008351 0.000951
# 3 -0.001483 -0.010794 0.030778 0.007820 -0.016920 -0.006464
# 4 -0.002393 -0.000687 0.007820 0.029407 -0.012498 0.007497
# 5 0.001835 0.008351 -0.016920 -0.012498 0.048834 -0.004732
# 6 -0.006615 0.000951 -0.006464 0.007497 -0.004732 0.038970
#
#
# Mechanical properties :
#
#
# Convention : Reuss Voigt Hill
#
# Bulk Modulus (GPa) = 42.65486 69.86859 56.26172
# Shear Modulus (GPa) = 24.04608 35.61254 29.82931
#
# Velocity S-wave (km/s) = 3.18245 3.87294 3.54455
# Velocity P-wave (km/s) = 5.60980 7.03047 6.35993
#
# Compressibility (1/GPa) = 0.02344399
#
# Stress axis : x y z
#
# Youngs Moduli (GPa) = 114.46022 73.19788 32.49109
#
# Poissons Ratio (x) = 0.18947 0.04819
# Poissons Ratio (y) = 0.29628 0.35072
# Poissons Ratio (z) = 0.16975 0.79013
#
# Static dielectric constant tensor:
#      x y z
#    x 4.433840 0.062970 -0.021310 
#    y 0.062970 4.351710 -0.051580 
#    z -0.021310 -0.051580 4.657520 
# 
# 
# High freq. dielectric constant tensor:
#      x y z
#    x 1.948400 0.002480 -0.002220 
#    y 0.002480 1.936780 -0.008300 
#    z -0.002220 -0.008300 1.951040 
# 
# From -- ./inp_files/316055.got.cif
#   From: 2010.06.25/outbox.cif.g09.slc.cpg/sg2_159_cif.got.tgz:316055.got - 2010.06.27 13:26:56.
