data_PCOD8028672
_publ_section_title
;
Structure prediction by ZEFSAII (Michael W. Deem and Ramdas Pophale) SiO2 
 PCOD8028672
Probable space group: P -1
;
_chemical_formula_sum "Si O2"
_cell_formula_units_Z 12
_cell_length_a 9.229582
_cell_length_b 14.663466
_cell_length_c 8.447144
_cell_angle_alpha 116.254060
_cell_angle_beta 32.688147
_cell_angle_gamma 101.142935
_cell_volume 514.504088
_symmetry_space_group_name_H-M "P -1"
_symmetry_group_IT_number 2
_symmetry_cell_setting 'triclinic'
loop_
_space_group_symop_operation_xyz
x,y,z
-x,-y,-z
loop_
_atom_site_type_symbol
_atom_site_label
_atom_site_fract_x
_atom_site_fract_y
_atom_site_fract_z
Si Si1 0.502856 0.386616 0.340582
Si Si2 0.684188 0.201629 0.590911
Si Si3 0.836748 0.756204 0.358779
Si Si4 0.330187 0.431316 0.171058
Si Si5 0.552903 0.072056 0.367545
Si Si6 0.280233 0.132323 0.121097
O O1 0.500000 0.500000 0.500000
O O2 0.290178 0.340953 0.596561
O O3 0.395874 0.402432 0.271600
O O4 0.820178 0.295589 0.992257
O O5 0.746837 0.134389 0.315999
O O6 0.978915 0.214802 0.386311
O O7 0.434455 0.320370 0.887711
O O8 0.563441 0.141151 0.788359
O O9 0.738206 0.831322 0.351045
O O10 0.713507 0.840843 0.681102
O O11 0.000000 0.500000 0.500000
O O12 0.500000 0.500000 0.000000
O O13 0.500000 0.000000 0.500000
O O14 0.712781 0.991264 0.013507
#
# Coordination Sequence:
#
# PCOD8028672 Si02
#       6
#     2   2   2   2   2   2
#     4  12  28  47  69 102 138 179 231 277 339 407
#     4  11  23  43  66  98 136 171 224 275 337 397
#     4  12  24  47  71  99 138 184 220 283 339 401
#     4  12  25  43  71  98 134 176 225 283 337 396
#     4  10  26  43  71 104 137 177 229 281 336 405
#     4  11  21  45  67  95 134 176 221 274 331 405
#
# _framework density 23.323428
#
# number of rings (size 3 to 8) (size 9 to 14) (size 15 to 20)
#    0.000    0.667    3.333    3.500    4.667    5.333 
#    0.000    5.833    0.000    0.000    0.000    0.000 
#    0.000    0.000    0.000    0.000    0.000    0.000 
#
# Total GULP energy -148766.844324 kJ/mol
# GULP energy per Si atom -12397.237027 kJ/mol
# Density = 2.327034 g / cm^3
# Si number density = 23.323428 Si / 1000 Ang^3
#
#
#
# Elastic Constant Matrix: (Units=GPa)
#
#
# Indices 1 2 3 4 5 6 
#
# 1 99.5945 51.0449 16.7986 6.5212 -15.7425 -8.1982
# 2 51.0449 113.6086 25.6047 15.5146 1.6244 -2.3206
# 3 16.7986 25.6047 77.7767 3.3526 -20.9526 -3.2362
# 4 6.5212 15.5146 3.3526 42.8350 12.3747 3.4979
# 5 -15.7425 1.6244 -20.9526 12.3747 44.3996 16.9675
# 6 -8.1982 -2.3206 -3.2362 3.4979 16.9675 50.4262
#
#
#
# Elastic Compliance Matrix: (Units=1/GPa)
#
#
# Indices 1 2 3 4 5 6 
#
# 1 0.014301 -0.006450 0.000747 -0.001664 0.006065 0.000151
# 2 -0.006450 0.012966 -0.003908 -0.002231 -0.004331 0.000909
# 3 0.000747 -0.003908 0.016654 -0.002665 0.009815 -0.002107
# 4 -0.001664 -0.002231 -0.002665 0.027352 -0.009704 0.000824
# 5 0.006065 -0.004331 0.009815 -0.009704 0.035998 -0.010023
# 6 0.000151 0.000909 -0.002107 0.000824 -0.010023 0.023078
#
#
# Mechanical properties :
#
#
# Convention : Reuss Voigt Hill
#
# Bulk Modulus (GPa) = 40.49028 53.09736 46.79382
# Shear Modulus (GPa) = 31.68483 40.70094 36.19288
#
# Velocity S-wave (km/s) = 3.68978 4.18193 3.94354
# Velocity P-wave (km/s) = 5.96244 6.79214 6.39077
#
# Compressibility (1/GPa) = 0.02469729
#
# Stress axis : x y z
#
# Youngs Moduli (GPa) = 69.92714 77.12336 60.04565
#
# Poissons Ratio (x) = 0.49745 -0.04483
# Poissons Ratio (y) = 0.45103 0.23468
# Poissons Ratio (z) = -0.05220 0.30142
#
# Static dielectric constant tensor:
#      x y z
#    x 4.453240 0.303770 0.118940 
#    y 0.303770 4.629780 0.377700 
#    z 0.118940 0.377700 4.219150 
# 
# 
# High freq. dielectric constant tensor:
#      x y z
#    x 1.930180 0.013470 -0.004640 
#    y 0.013470 1.930720 0.017540 
#    z -0.004640 0.017540 1.921030 
# 
# From -- ./inp_files/24383.got.cif
#   From: 2010.06.25/outbox.cif.g09.slc.cpg/sg2_13_cif.got.tgz:24383.got - 2010.06.27 13:26:56.
