data_PCOD8028641
_publ_section_title
;
Structure prediction by ZEFSAII (Michael W. Deem and Ramdas Pophale) SiO2 
 PCOD8028641
Probable space group: P -1
;
_chemical_formula_sum "Si O2"
_cell_formula_units_Z 16
_cell_length_a 14.847729
_cell_length_b 8.411949
_cell_length_c 11.356638
_cell_angle_alpha 101.101638
_cell_angle_beta 39.798867
_cell_angle_gamma 105.476154
_cell_volume 874.827729
_symmetry_space_group_name_H-M "P -1"
_symmetry_group_IT_number 2
_symmetry_cell_setting 'triclinic'
loop_
_space_group_symop_operation_xyz
x,y,z
-x,-y,-z
loop_
_atom_site_type_symbol
_atom_site_label
_atom_site_fract_x
_atom_site_fract_y
_atom_site_fract_z
Si Si1 0.385121 0.523331 0.965495
Si Si2 0.297874 0.400108 0.286096
Si Si3 0.165520 0.308671 0.002237
Si Si4 0.053374 0.341150 0.879621
Si Si5 0.047681 0.479324 0.663051
Si Si6 0.788599 0.210352 0.804272
Si Si7 0.868944 0.960911 0.537117
Si Si8 0.901233 0.040699 0.874911
O O1 0.326835 0.409594 0.119304
O O2 0.307310 0.436498 0.915798
O O3 0.351279 0.707142 0.038842
O O4 0.554764 0.540135 0.782636
O O5 0.187664 0.524078 0.445334
O O6 0.230112 0.214545 0.363405
O O7 0.021178 0.365533 0.205361
O O8 0.173480 0.129964 0.017291
O O9 0.167021 0.303188 0.857157
O O10 0.109602 0.386192 0.697316
O O11 0.926255 0.180255 0.972164
O O12 0.000000 0.500000 0.000000
O O13 0.930880 0.351658 0.689233
O O14 0.791677 0.086662 0.893920
O O15 0.780935 0.107347 0.674319
O O16 0.940145 0.970943 0.337621
O O17 0.000000 0.000000 0.500000
#
# Coordination Sequence:
#
# PCOD8028641 Si02
#       8
#     2   2   2   2   2   2   2   2
#     4  10  23  33  50  77 107 139 172 206 260 307
#     4  11  20  36  50  73 111 135 172 214 254 307
#     4  10  20  32  55  79 104 134 172 212 256 302
#     4   9  17  33  53  82 103 127 170 220 256 294
#     4   9  18  33  55  76 104 135 174 213 250 300
#     4   9  18  32  50  78 103 134 173 207 254 307
#     4  10  17  30  52  74 100 133 170 209 250 298
#     4  10  18  31  53  82 102 131 169 218 252 298
#
# _framework density 18.289315999999999
#
# number of rings (size 3 to 8) (size 9 to 14) (size 15 to 20)
#    0.000    2.250    3.750    2.625    1.750    1.500 
#    0.000    0.625    0.000    0.000    0.000    3.500 
#    0.000    0.000    0.000    0.000    0.000    0.000 
#
# Total GULP energy -198253.078343 kJ/mol
# GULP energy per Si atom -12390.817396 kJ/mol
# Density = 1.824769 g / cm^3
# Si number density = 18.289316 Si / 1000 Ang^3
#
#
#
# Elastic Constant Matrix: (Units=GPa)
#
#
# Indices 1 2 3 4 5 6 
#
# 1 62.5195 11.8073 15.9733 -1.0843 -9.2389 2.6183
# 2 11.8073 88.5703 9.1154 5.8915 -0.1209 -0.1592
# 3 15.9733 9.1154 45.1570 -4.0894 -14.1786 6.7697
# 4 -1.0843 5.8915 -4.0894 23.5402 -0.2535 4.4859
# 5 -9.2389 -0.1209 -14.1786 -0.2535 19.7369 2.8267
# 6 2.6183 -0.1592 6.7697 4.4859 2.8267 27.5465
#
#
#
# Elastic Compliance Matrix: (Units=1/GPa)
#
#
# Indices 1 2 3 4 5 6 
#
# 1 0.018356 -0.002122 -0.003811 0.001089 0.006088 -0.001622
# 2 -0.002122 0.012236 -0.003689 -0.004278 -0.003950 0.002281
# 3 -0.003811 -0.003689 0.034816 0.009414 0.025090 -0.012323
# 4 0.001089 -0.004278 0.009414 0.047462 0.009452 -0.011141
# 5 0.006088 -0.003950 0.025090 0.009452 0.073913 -0.015891
# 6 -0.001622 0.002281 -0.012323 -0.011141 -0.015891 0.042943
#
#
# Mechanical properties :
#
#
# Convention : Reuss Voigt Hill
#
# Bulk Modulus (GPa) = 21.66231 30.00432 25.83332
# Shear Modulus (GPa) = 18.91369 24.78811 21.85090
#
# Velocity S-wave (km/s) = 3.21929 3.68548 3.46024
# Velocity P-wave (km/s) = 5.06837 5.87804 5.48816
#
# Compressibility (1/GPa) = 0.04616313
#
# Stress axis : x y z
#
# Youngs Moduli (GPa) = 54.47819 81.72401 28.72273
#
# Poissons Ratio (x) = 0.17341 0.10947
# Poissons Ratio (y) = 0.11559 0.10596
# Poissons Ratio (z) = 0.20764 0.30150
#
# Static dielectric constant tensor:
#      x y z
#    x 3.755030 0.040040 0.311560 
#    y 0.040040 3.673860 0.361930 
#    z 0.311560 0.361930 3.373830 
# 
# 
# High freq. dielectric constant tensor:
#      x y z
#    x 1.697130 -0.001540 0.014710 
#    y -0.001540 1.720980 0.011380 
#    z 0.014710 0.011380 1.667000 
# 
# From -- ./inp_files/178963.got.cif
#   From: 2010.06.25/outbox.cif.g09.slc.cpg/sg2_90_cif.got.tgz:178963.got - 2010.06.27 13:26:56.
