data_PCOD8028764
_publ_section_title
;
Structure prediction by ZEFSAII (Michael W. Deem and Ramdas Pophale) SiO2 
 PCOD8028764
Probable space group: P -1
;
_chemical_formula_sum "Si O2"
_cell_formula_units_Z 16
_cell_length_a 21.078577
_cell_length_b 5.247917
_cell_length_c 9.912817
_cell_angle_alpha 116.016480
_cell_angle_beta 59.439464
_cell_angle_gamma 130.696968
_cell_volume 706.184237
_symmetry_space_group_name_H-M "P -1"
_symmetry_group_IT_number 2
_symmetry_cell_setting 'triclinic'
loop_
_space_group_symop_operation_xyz
x,y,z
-x,-y,-z
loop_
_atom_site_type_symbol
_atom_site_label
_atom_site_fract_x
_atom_site_fract_y
_atom_site_fract_z
Si Si1 0.562799 0.371621 0.082495
Si Si2 0.049745 0.398916 0.023908
Si Si3 0.222508 0.599126 0.738870
Si Si4 0.003519 0.625021 0.379269
Si Si5 0.660406 0.619120 0.302296
Si Si6 0.148199 0.344008 0.483676
Si Si7 0.666718 0.418602 0.745406
Si Si8 0.412168 0.365845 0.342199
O O1 0.606336 0.377022 0.178749
O O2 0.510114 0.558690 0.210692
O O3 0.642102 0.573472 0.933833
O O4 0.500000 0.000000 0.000000
O O5 0.150093 0.585586 0.909665
O O6 0.052093 0.522002 0.200309
O O7 0.000000 0.500000 0.000000
O O8 0.000000 0.000000 0.000000
O O9 0.272430 0.479017 0.748105
O O10 0.175490 0.326242 0.603437
O O11 0.288044 0.979065 0.695529
O O12 0.000000 0.500000 0.500000
O O13 0.900350 0.452577 0.404377
O O14 0.069692 0.028114 0.414529
O O15 0.589799 0.523697 0.477242
O O16 0.233250 0.483582 0.329471
O O17 0.652250 0.572062 0.661142
O O18 0.609963 0.013410 0.714887
#
# Coordination Sequence:
#
# PCOD8028764 Si02
#       8
#     2   2   2   2   2   2   2   2
#     4  10  26  47  70 104 146 178 231 291 357 424
#     4  12  26  47  72  99 146 192 233 294 359 412
#     4  12  26  45  72 105 140 184 241 296 341 425
#     4  11  27  43  73 105 138 194 235 291 355 422
#     4  12  25  45  72 104 134 188 237 284 355 419
#     4  11  24  45  68 101 146 178 243 285 356 407
#     4  11  24  42  72  99 138 184 224 287 352 402
#     4  11  22  45  70 101 132 186 227 283 344 420
#
# _framework density 22.656974000000002
#
# number of rings (size 3 to 8) (size 9 to 14) (size 15 to 20)
#    0.000    0.750    3.750    2.250    7.000    5.000 
#    0.000    4.375    0.000    0.000    0.000    0.000 
#    0.000    0.000    0.000    0.000    0.000    0.000 
#
# Total GULP energy -198217.175187 kJ/mol
# GULP energy per Si atom -12388.573449 kJ/mol
# Density = 2.260541 g / cm^3
# Si number density = 22.656974 Si / 1000 Ang^3
#
#
#
# Elastic Constant Matrix: (Units=GPa)
#
#
# Indices 1 2 3 4 5 6 
#
# 1 133.9162 35.0732 55.1441 9.1609 -0.0066 5.7517
# 2 35.0732 60.1293 37.2706 1.8475 2.8824 -5.7221
# 3 55.1441 37.2706 197.3577 -15.5688 -2.8021 21.5704
# 4 9.1609 1.8475 -15.5688 31.6815 10.3452 -2.2980
# 5 -0.0066 2.8824 -2.8021 10.3452 47.7829 -6.6829
# 6 5.7517 -5.7221 21.5704 -2.2980 -6.6829 41.2073
#
#
#
# Elastic Compliance Matrix: (Units=1/GPa)
#
#
# Indices 1 2 3 4 5 6 
#
# 1 0.009804 -0.004430 -0.002097 -0.003961 0.000868 -0.000966
# 2 -0.004430 0.022037 -0.003620 -0.001220 -0.000520 0.005421
# 3 -0.002097 -0.003620 0.007080 0.004291 -0.000829 -0.003811
# 4 -0.003961 -0.001220 0.004291 0.037398 -0.007921 -0.001062
# 5 0.000868 -0.000520 -0.000829 -0.007921 0.023122 0.003549
# 6 -0.000966 0.005421 -0.003811 -0.001062 0.003549 0.027666
#
#
# Mechanical properties :
#
#
# Convention : Reuss Voigt Hill
#
# Bulk Modulus (GPa) = 53.68913 71.81988 62.75451
# Shear Modulus (GPa) = 32.54980 41.72871 37.13925
#
# Velocity S-wave (km/s) = 3.79441 4.29623 4.05309
# Velocity P-wave (km/s) = 6.55322 7.50851 7.04707
#
# Compressibility (1/GPa) = 0.01862574
#
# Stress axis : x y z
#
# Youngs Moduli (GPa) = 102.00209 45.37806 141.24792
#
# Poissons Ratio (x) = 0.20104 0.29621
# Poissons Ratio (y) = 0.45191 0.51130
# Poissons Ratio (z) = 0.21391 0.16426
#
# Static dielectric constant tensor:
#      x y z
#    x 4.284350 0.057250 -0.456780 
#    y 0.057250 3.787520 -0.229080 
#    z -0.456780 -0.229080 4.944390 
# 
# 
# High freq. dielectric constant tensor:
#      x y z
#    x 1.907070 0.004880 -0.014100 
#    y 0.004880 1.869920 -0.009420 
#    z -0.014100 -0.009420 1.923060 
# 
# From -- ./inp_files/135684.got.cif
#   From: 2010.06.25/outbox.cif.g09.slc.cpg/sg2_68_cif.got.tgz:135684.got - 2010.06.27 13:26:56.
