data_PCOD8028528
_publ_section_title
;
Structure prediction by ZEFSAII (Michael W. Deem and Ramdas Pophale) SiO2 
 PCOD8028528
Probable space group: P -1
;
_chemical_formula_sum "Si O2"
_cell_formula_units_Z 14
_cell_length_a 5.090202
_cell_length_b 21.733962
_cell_length_c 10.886407
_cell_angle_alpha 32.340774
_cell_angle_beta 63.471664
_cell_angle_gamma 59.548204
_cell_volume 554.961077
_symmetry_space_group_name_H-M "P -1"
_symmetry_group_IT_number 2
_symmetry_cell_setting 'triclinic'
loop_
_space_group_symop_operation_xyz
x,y,z
-x,-y,-z
loop_
_atom_site_type_symbol
_atom_site_label
_atom_site_fract_x
_atom_site_fract_y
_atom_site_fract_z
Si Si1 0.666728 0.207800 0.161576
Si Si2 0.594723 0.277832 0.656724
Si Si3 0.605829 0.523392 0.300443
Si Si4 0.965261 0.819076 0.629593
Si Si5 0.193030 0.940568 0.174591
Si Si6 0.105248 0.169315 0.929471
Si Si7 0.139912 0.551184 0.997364
O O1 0.371381 0.161155 0.279196
O O2 0.792713 0.175048 0.326079
O O3 0.605641 0.350496 0.914212
O O4 0.904314 0.134485 0.136710
O O5 0.544140 0.417963 0.403817
O O6 0.605160 0.194083 0.673442
O O7 0.286017 0.254331 0.816764
O O8 0.885052 0.238449 0.750975
O O9 0.500000 0.500000 0.500000
O O10 0.964004 0.522400 0.207306
O O11 0.958658 0.921597 0.359179
O O12 0.064374 0.691949 0.755518
O O13 0.333033 0.044691 0.033409
O O14 0.000000 0.000000 0.000000
O O15 0.500000 0.500000 0.000000
O O16 0.000000 0.500000 0.000000
#
# Coordination Sequence:
#
# PCOD8028528 Si02
#       7
#     2   2   2   2   2   2   2
#     4  11  25  44  67 105 142 182 230 285 365 426
#     4  11  24  43  70 102 141 179 235 294 351 406
#     4  11  24  45  74 111 145 192 240 297 358 433
#     4  11  25  44  69  99 142 183 231 294 355 428
#     4  10  25  47  72 101 134 185 242 295 349 421
#     4  11  24  43  68 100 139 181 236 289 347 416
#     4  11  24  45  68 104 147 193 236 288 362 436
#
# _framework density 25.226996
#
# number of rings (size 3 to 8) (size 9 to 14) (size 15 to 20)
#    0.000    1.143    1.429    3.857    2.000   10.857 
#    0.000    0.000    0.000    0.000    0.000    0.000 
#    0.000    0.000    0.000    0.000    0.000    0.000 
#
# Total GULP energy -173460.807384 kJ/mol
# GULP energy per Si atom -12390.057670 kJ/mol
# Density = 2.516958 g / cm^3
# Si number density = 25.226996 Si / 1000 Ang^3
#
#
#
# Elastic Constant Matrix: (Units=GPa)
#
#
# Indices 1 2 3 4 5 6 
#
# 1 110.8376 21.1646 28.2856 2.1434 -6.9318 -10.8554
# 2 21.1646 112.3657 28.6213 -2.8393 -2.3193 -2.4029
# 3 28.2856 28.6213 129.7692 11.6914 -0.1167 10.1783
# 4 2.1434 -2.8393 11.6914 35.5366 10.6856 -16.8173
# 5 -6.9318 -2.3193 -0.1167 10.6856 36.8542 1.2953
# 6 -10.8554 -2.4029 10.1783 -16.8173 1.2953 34.2187
#
#
#
# Elastic Compliance Matrix: (Units=1/GPa)
#
#
# Indices 1 2 3 4 5 6 
#
# 1 0.010422 -0.001109 -0.002623 0.002222 0.001060 0.005061
# 2 -0.001109 0.009840 -0.002403 0.003026 -0.000564 0.002562
# 3 -0.002623 -0.002403 0.010111 -0.007628 0.001874 -0.007828
# 4 0.002222 0.003026 -0.007628 0.047975 -0.014285 0.027305
# 5 0.001060 -0.000564 0.001874 -0.014285 0.031744 -0.008483
# 6 0.005061 0.002562 -0.007828 0.027305 -0.008483 0.047079
#
#
# Mechanical properties :
#
#
# Convention : Reuss Voigt Hill
#
# Bulk Modulus (GPa) = 55.23783 56.56840 55.90312
# Shear Modulus (GPa) = 28.49418 39.64862 34.07140
#
# Velocity S-wave (km/s) = 3.36447 3.96874 3.67903
# Velocity P-wave (km/s) = 6.08578 6.59345 6.34469
#
# Compressibility (1/GPa) = 0.01810354
#
# Stress axis : x y z
#
# Youngs Moduli (GPa) = 95.94736 101.62667 98.90488
#
# Poissons Ratio (x) = 0.11267 0.25947
# Poissons Ratio (y) = 0.10637 0.23764
# Poissons Ratio (z) = 0.25171 0.24418
#
# Static dielectric constant tensor:
#      x y z
#    x 4.370470 -0.026340 -0.544280 
#    y -0.026340 5.281350 0.017290 
#    z -0.544280 0.017290 4.911850 
# 
# 
# High freq. dielectric constant tensor:
#      x y z
#    x 1.993000 -0.001930 -0.029130 
#    y -0.001930 2.029430 0.001020 
#    z -0.029130 0.001020 2.015730 
# 
# From -- ./inp_files/370931.got.cif
#   From: 2010.06.25/outbox.cif.g09.slc.cpg/sg2_186_cif.got.tgz:370931.got - 2010.06.27 13:26:56.
