data_PCOD8028327
_publ_section_title
;
Structure prediction by ZEFSAII (Michael W. Deem and Ramdas Pophale) SiO2 
 PCOD8028327
Probable space group: P -1
;
_chemical_formula_sum "Si O2"
_cell_formula_units_Z 10
_cell_length_a 16.276359
_cell_length_b 5.087763
_cell_length_c 15.387342
_cell_angle_alpha 83.003530
_cell_angle_beta 162.070433
_cell_angle_gamma 92.388408
_cell_volume 377.687285
_symmetry_space_group_name_H-M "P -1"
_symmetry_group_IT_number 2
_symmetry_cell_setting 'triclinic'
loop_
_space_group_symop_operation_xyz
x,y,z
-x,-y,-z
loop_
_atom_site_type_symbol
_atom_site_label
_atom_site_fract_x
_atom_site_fract_y
_atom_site_fract_z
Si Si1 0.481402 0.276578 0.920480
Si Si2 0.591079 0.775710 0.784153
Si Si3 0.932342 0.387649 0.256638
Si Si4 0.241420 0.365080 0.403419
Si Si5 0.801266 0.805560 0.817366
O O1 0.191925 0.389485 0.577131
O O2 0.500000 0.500000 0.000000
O O3 0.736107 0.220240 0.111781
O O4 0.500000 0.000000 0.000000
O O5 0.341061 0.627459 0.526832
O O6 0.815642 0.672348 0.935023
O O7 0.495019 0.099321 0.669869
O O8 0.741151 0.692901 0.031687
O O9 0.028247 0.277880 0.260588
O O10 0.149504 0.412480 0.206042
O O11 0.500000 0.000000 0.500000
O O12 0.000000 0.000000 0.000000
#
# Coordination Sequence:
#
# PCOD8028327 Si02
#       5
#     2   2   2   2   2
#     4  12  30  54  80 111 150 191 244 314 394 460
#     4  11  27  48  76 113 156 201 255 305 362 441
#     4  12  28  51  84 112 150 196 250 313 376 450
#     4  11  27  48  76 113 156 201 255 305 362 441
#     4  10  25  45  71 107 158 206 248 301 363 425
#
# _framework density 26.476928999999998
#
# number of rings (size 3 to 8) (size 9 to 14) (size 15 to 20)
#    0.000    0.800    2.000    1.800   14.000    4.000 
#    0.000    0.000    0.000    0.000    0.000    0.000 
#    0.000    0.000    0.000    0.000    0.000    0.000 
#
# Total GULP energy -123999.913696 kJ/mol
# GULP energy per Si atom -12399.991370 kJ/mol
# Density = 2.641667 g / cm^3
# Si number density = 26.476929 Si / 1000 Ang^3
#
#
#
# Elastic Constant Matrix: (Units=GPa)
#
#
# Indices 1 2 3 4 5 6 
#
# 1 181.8424 54.2971 75.3970 -7.8112 0.2726 49.8444
# 2 54.2971 108.4763 38.1038 6.6338 -14.8629 20.3326
# 3 75.3970 38.1038 178.0651 10.6204 -21.7408 31.6084
# 4 -7.8112 6.6338 10.6204 32.7277 15.7889 3.6222
# 5 0.2726 -14.8629 -21.7408 15.7889 70.1610 -2.1860
# 6 49.8444 20.3326 31.6084 3.6222 -2.1860 43.8393
#
#
#
# Elastic Compliance Matrix: (Units=1/GPa)
#
#
# Indices 1 2 3 4 5 6 
#
# 1 0.010509 -0.003441 -0.002960 0.006850 -0.003508 -0.008960
# 2 -0.003441 0.011965 -0.000228 -0.004772 0.003523 -0.000902
# 3 -0.002960 -0.000228 0.007913 -0.004692 0.003419 -0.001676
# 4 0.006850 -0.004772 -0.004692 0.041124 -0.011939 -0.006186
# 5 -0.003508 0.003523 0.003419 -0.011939 0.018815 0.001814
# 6 -0.008960 -0.000902 -0.001676 -0.006186 0.001814 0.035226
#
#
# Mechanical properties :
#
#
# Convention : Reuss Voigt Hill
#
# Bulk Modulus (GPa) = 58.38200 89.33108 73.85654
# Shear Modulus (GPa) = 34.59712 49.38466 41.99089
#
# Velocity S-wave (km/s) = 3.61874 4.32348 3.98671
# Velocity P-wave (km/s) = 6.28954 7.66392 7.01050
#
# Compressibility (1/GPa) = 0.01712857
#
# Stress axis : x y z
#
# Youngs Moduli (GPa) = 95.15217 83.57846 126.37690
#
# Poissons Ratio (x) = 0.28758 0.37408
# Poissons Ratio (y) = 0.32740 0.02887
# Poissons Ratio (z) = 0.28165 0.01909
#
# Static dielectric constant tensor:
#      x y z
#    x 5.621320 0.301050 -0.050740 
#    y 0.301050 4.785960 -0.612300 
#    z -0.050740 -0.612300 5.217970 
# 
# 
# High freq. dielectric constant tensor:
#      x y z
#    x 2.090460 0.017480 0.005450 
#    y 0.017480 2.057380 -0.035930 
#    z 0.005450 -0.035930 2.100420 
# 
# From -- ./inp_files/8459.got.cif
#   From: 2010.06.25/outbox.cif.g09.slc.cpg/sg2_5_cif.got.tgz:8459.got - 2010.06.27 13:26:56.
