data_PCOD8028209
_publ_section_title
;
Structure prediction by ZEFSAII (Michael W. Deem and Ramdas Pophale) SiO2 
 PCOD8028209
Probable space group: P -1
;
_chemical_formula_sum "Si O2"
_cell_formula_units_Z 16
_cell_length_a 11.754505
_cell_length_b 16.760832
_cell_length_c 8.713616
_cell_angle_alpha 145.849550
_cell_angle_beta 129.906961
_cell_angle_gamma 62.497812
_cell_volume 729.658804
_symmetry_space_group_name_H-M "P -1"
_symmetry_group_IT_number 2
_symmetry_cell_setting 'triclinic'
loop_
_space_group_symop_operation_xyz
x,y,z
-x,-y,-z
loop_
_atom_site_type_symbol
_atom_site_label
_atom_site_fract_x
_atom_site_fract_y
_atom_site_fract_z
Si Si1 0.906242 0.304851 0.240432
Si Si2 0.976704 0.851435 0.654046
Si Si3 0.186731 0.723574 0.425154
Si Si4 0.544324 0.345829 0.273938
Si Si5 0.057860 0.373521 0.162963
Si Si6 0.748584 0.825103 0.147775
Si Si7 0.371753 0.915657 0.654343
Si Si8 0.417771 0.850286 0.264794
O O1 0.030455 0.276457 0.429071
O O2 0.861313 0.464064 0.475177
O O3 0.970151 0.297344 0.112615
O O4 0.765138 0.177370 0.943973
O O5 0.117171 0.847184 0.653136
O O6 0.823199 0.827978 0.385754
O O7 0.000000 0.000000 0.000000
O O8 0.285178 0.645956 0.505006
O O9 0.288587 0.783636 0.467349
O O10 0.051868 0.613516 0.056572
O O11 0.500000 0.500000 0.500000
O O12 0.428689 0.234832 0.094951
O O13 0.530454 0.286521 0.992463
O O14 0.178984 0.273045 0.065160
O O15 0.754118 0.987075 0.348934
O O16 0.455590 0.855046 0.485253
O O17 0.500000 0.000000 0.000000
O O18 0.500000 0.000000 0.500000
#
# Coordination Sequence:
#
# PCOD8028209 Si02
#       8
#     2   2   2   2   2   2   2   2
#     4  11  23  46  69 100 141 182 233 285 353 420
#     4  11  26  40  67 101 134 177 234 287 350 409
#     4  11  24  44  71  97 138 187 227 292 352 410
#     4  12  26  45  70 103 143 184 238 287 352 425
#     4  10  25  44  71  99 139 188 229 288 353 419
#     4  11  25  42  65 101 136 181 234 286 347 418
#     4  12  24  44  68  99 140 179 234 289 353 412
#     4  12  23  45  73 101 138 186 233 290 349 415
#
# _framework density 21.928056999999999
#
# number of rings (size 3 to 8) (size 9 to 14) (size 15 to 20)
#    0.000    0.750    5.000    1.500    3.500    2.000 
#    0.000    0.625    0.000    0.000    0.000    0.000 
#    0.000    0.000    0.000    0.000    0.000    0.000 
#
# Total GULP energy -198330.117099 kJ/mol
# GULP energy per Si atom -12395.632319 kJ/mol
# Density = 2.187815 g / cm^3
# Si number density = 21.928057 Si / 1000 Ang^3
#
#
#
# Elastic Constant Matrix: (Units=GPa)
#
#
# Indices 1 2 3 4 5 6 
#
# 1 110.7949 21.4646 53.2480 -3.8604 -25.6988 2.5146
# 2 21.4646 90.8949 33.7033 -7.9531 -14.8435 -4.7902
# 3 53.2480 33.7033 107.2450 -6.3801 -26.8620 -1.5879
# 4 -3.8604 -7.9531 -6.3801 37.3683 -3.0925 -1.4148
# 5 -25.6988 -14.8435 -26.8620 -3.0925 53.7494 -1.2058
# 6 2.5146 -4.7902 -1.5879 -1.4148 -1.2058 36.3219
#
#
#
# Elastic Compliance Matrix: (Units=1/GPa)
#
#
# Indices 1 2 3 4 5 6 
#
# 1 0.012396 -0.000491 -0.005181 0.000518 0.003209 -0.001023
# 2 -0.000491 0.012905 -0.003162 0.002382 0.001925 0.001754
# 3 -0.005181 -0.003162 0.013920 0.001503 0.003709 0.000732
# 4 0.000518 0.002382 0.001503 0.027909 0.003297 0.001540
# 5 0.003209 0.001925 0.003709 0.003297 0.022738 0.001077
# 6 -0.001023 0.001754 0.000732 0.001540 0.001077 0.027962
#
#
# Mechanical properties :
#
#
# Convention : Reuss Voigt Hill
#
# Bulk Modulus (GPa) = 46.39583 58.41852 52.40718
# Shear Modulus (GPa) = 35.04259 38.85584 36.94922
#
# Velocity S-wave (km/s) = 4.00192 4.21404 4.10935
# Velocity P-wave (km/s) = 6.52365 7.09763 6.81668
#
# Compressibility (1/GPa) = 0.02155366
#
# Stress axis : x y z
#
# Youngs Moduli (GPa) = 80.66818 77.48705 71.83906
#
# Poissons Ratio (x) = 0.03802 0.37222
# Poissons Ratio (y) = 0.03959 0.22716
# Poissons Ratio (z) = 0.41796 0.24502
#
# Static dielectric constant tensor:
#      x y z
#    x 4.049500 0.284380 -0.163610 
#    y 0.284380 3.845160 -0.005030 
#    z -0.163610 -0.005030 4.283350 
# 
# 
# High freq. dielectric constant tensor:
#      x y z
#    x 1.872420 0.005720 -0.014020 
#    y 0.005720 1.844400 -0.008060 
#    z -0.014020 -0.008060 1.876240 
# 
# From -- ./inp_files/207348.got.cif
#   From: 2010.06.25/outbox.cif.g09.slc.cpg/sg2_104_cif.got.tgz:207348.got - 2010.06.27 13:26:56.
