data_PCOD8028176
_publ_section_title
;
Structure prediction by ZEFSAII (Michael W. Deem and Ramdas Pophale) SiO2 
 PCOD8028176
Probable space group: P -1
;
_chemical_formula_sum "Si O2"
_cell_formula_units_Z 12
_cell_length_a 14.167911
_cell_length_b 12.142741
_cell_length_c 11.933328
_cell_angle_alpha 116.804310
_cell_angle_beta 54.284602
_cell_angle_gamma 159.665908
_cell_volume 544.339755
_symmetry_space_group_name_H-M "P -1"
_symmetry_group_IT_number 2
_symmetry_cell_setting 'triclinic'
loop_
_space_group_symop_operation_xyz
x,y,z
-x,-y,-z
loop_
_atom_site_type_symbol
_atom_site_label
_atom_site_fract_x
_atom_site_fract_y
_atom_site_fract_z
Si Si1 0.149863 0.207580 0.100502
Si Si2 0.577847 0.626979 0.381077
Si Si3 0.756780 0.450678 0.905596
Si Si4 0.634198 0.369116 0.349985
Si Si5 0.686918 0.862070 0.752964
Si Si6 0.771396 0.238582 0.141185
O O1 0.145876 0.352964 0.164952
O O2 0.500000 0.500000 0.000000
O O3 0.941073 0.966695 0.244324
O O4 0.000000 0.000000 0.000000
O O5 0.500000 0.500000 0.500000
O O6 0.489424 0.685981 0.474919
O O7 0.349252 0.322783 0.316696
O O8 0.069373 0.702229 0.859952
O O9 0.552856 0.138030 0.853413
O O10 0.569224 0.341467 0.077512
O O11 0.383351 0.142284 0.319618
O O12 0.682662 0.271759 0.290463
O O13 0.968399 0.763489 0.266980
O O14 0.000000 0.500000 0.000000
#
# Coordination Sequence:
#
# PCOD8028176 Si02
#       6
#     2   2   2   2   2   2
#     4  12  27  45  70 100 138 177 221 280 345 401
#     4  10  25  44  69 101 135 175 224 280 341 403
#     4  12  23  39  65  97 133 168 229 274 328 390
#     4  11  23  38  63  97 133 171 220 272 329 382
#     4  11  20  37  65  97 129 167 218 280 323 385
#     4  12  22  39  64  97 134 179 224 273 320 400
#
# _framework density 22.045055999999999
#
# number of rings (size 3 to 8) (size 9 to 14) (size 15 to 20)
#    0.000    0.667    5.000    3.000    4.667    2.667 
#    0.000    1.667    0.000    0.000    0.000    0.000 
#    0.000    0.000    0.000    0.000    0.000    0.000 
#
# Total GULP energy -148764.966905 kJ/mol
# GULP energy per Si atom -12397.080575 kJ/mol
# Density = 2.199488 g / cm^3
# Si number density = 22.045056 Si / 1000 Ang^3
#
#
#
# Elastic Constant Matrix: (Units=GPa)
#
#
# Indices 1 2 3 4 5 6 
#
# 1 92.9615 24.3946 36.6990 -4.5685 -6.4973 -3.6735
# 2 24.3946 109.7788 41.7827 17.0416 0.9397 -8.9643
# 3 36.6990 41.7827 133.4278 8.7001 -20.7591 -14.6856
# 4 -4.5685 17.0416 8.7001 41.4879 -13.4654 -7.9678
# 5 -6.4973 0.9397 -20.7591 -13.4654 29.2753 2.5960
# 6 -3.6735 -8.9643 -14.6856 -7.9678 2.5960 40.5066
#
#
#
# Elastic Compliance Matrix: (Units=1/GPa)
#
#
# Indices 1 2 3 4 5 6 
#
# 1 0.012821 -0.002515 -0.002506 0.003986 0.002956 0.000292
# 2 -0.002515 0.012177 -0.003694 -0.006608 -0.006631 0.000253
# 3 -0.002506 -0.003694 0.010735 0.002078 0.007887 0.002751
# 4 0.003986 -0.006608 0.002078 0.033490 0.017521 0.005117
# 5 0.002956 -0.006631 0.007887 0.017521 0.048502 0.001998
# 6 0.000292 0.000253 0.002751 0.005117 0.001998 0.026645
#
#
# Mechanical properties :
#
#
# Convention : Reuss Voigt Hill
#
# Bulk Modulus (GPa) = 54.64173 60.21340 57.42756
# Shear Modulus (GPa) = 29.77901 37.80673 33.79287
#
# Velocity S-wave (km/s) = 3.67934 4.14572 3.91947
# Velocity P-wave (km/s) = 6.54907 7.09148 6.82566
#
# Compressibility (1/GPa) = 0.01830103
#
# Stress axis : x y z
#
# Youngs Moduli (GPa) = 77.99856 82.11907 93.15094
#
# Poissons Ratio (x) = 0.20655 0.23348
# Poissons Ratio (y) = 0.19619 0.34414
# Poissons Ratio (z) = 0.19550 0.30339
#
# Static dielectric constant tensor:
#      x y z
#    x 4.378870 -0.459590 -0.627030 
#    y -0.459590 4.461540 0.455470 
#    z -0.627030 0.455470 4.604580 
# 
# 
# High freq. dielectric constant tensor:
#      x y z
#    x 1.854760 0.002140 -0.024200 
#    y 0.002140 1.882140 0.016310 
#    z -0.024200 0.016310 1.857230 
# 
# From -- ./inp_files/25083.got.cif
#   From: 2010.06.25/outbox.cif.g09.slc.cpg/sg2_13_cif.got.tgz:25083.got - 2010.06.27 13:26:56.
