data_PCOD8028816
_publ_section_title
;
Structure prediction by ZEFSAII (Michael W. Deem and Ramdas Pophale) SiO2 
 PCOD8028816
Probable space group: P -1
;
_chemical_formula_sum "Si O2"
_cell_formula_units_Z 16
_cell_length_a 9.099754
_cell_length_b 12.741374
_cell_length_c 9.104413
_cell_angle_alpha 59.311650
_cell_angle_beta 53.616762
_cell_angle_gamma 74.228141
_cell_volume 730.083263
_symmetry_space_group_name_H-M "P -1"
_symmetry_group_IT_number 2
_symmetry_cell_setting 'triclinic'
loop_
_space_group_symop_operation_xyz
x,y,z
-x,-y,-z
loop_
_atom_site_type_symbol
_atom_site_label
_atom_site_fract_x
_atom_site_fract_y
_atom_site_fract_z
Si Si1 0.173328 0.284961 0.565410
Si Si2 0.052627 0.863225 0.700806
Si Si3 0.205509 0.681386 0.373341
Si Si4 0.766800 0.886005 0.616583
Si Si5 0.534360 0.513769 0.643547
Si Si6 0.853758 0.921025 0.058262
Si Si7 0.574152 0.086093 0.019264
Si Si8 0.155993 0.601897 0.797625
O O1 0.247393 0.191506 0.468134
O O2 0.323339 0.385402 0.450751
O O3 0.150240 0.214549 0.781678
O O4 0.982871 0.342491 0.588131
O O5 0.124940 0.732180 0.801783
O O6 0.952636 0.846723 0.614451
O O7 0.218005 0.966886 0.523958
O O8 0.899609 0.910500 0.867048
O O9 0.377892 0.608904 0.259618
O O10 0.275470 0.821442 0.212317
O O11 0.172159 0.632820 0.593177
O O12 0.586549 0.849734 0.844099
O O13 0.500000 0.500000 0.500000
O O14 0.336732 0.545395 0.801573
O O15 0.670833 0.994213 0.138226
O O16 0.000000 0.000000 0.000000
O O17 0.500000 0.000000 0.000000
O O18 0.000000 0.500000 0.000000
#
# Coordination Sequence:
#
# PCOD8028816 Si02
#       8
#     2   2   2   2   2   2   2   2
#     4  12  25  48  73 104 147 183 239 299 351 427
#     4  11  23  44  70 100 146 182 235 281 362 418
#     4  11  24  48  71 101 143 189 238 286 359 415
#     4  11  24  42  74 105 137 189 230 292 350 428
#     4  10  27  46  70 100 135 188 240 289 349 419
#     4  12  25  43  68 110 143 182 232 288 360 424
#     4  12  25  41  74 107 145 188 232 287 355 433
#     4  11  26  45  74 102 140 186 244 293 347 418
#
# _framework density 21.915308
#
# number of rings (size 3 to 8) (size 9 to 14) (size 15 to 20)
#    0.000    0.750    5.000    1.125   10.500    1.500 
#    0.000    1.250    0.000    0.000    0.000    0.000 
#    0.000    0.000    0.000    0.000    0.000    0.000 
#
# Total GULP energy -198273.575490 kJ/mol
# GULP energy per Si atom -12392.098468 kJ/mol
# Density = 2.186543 g / cm^3
# Si number density = 21.915308 Si / 1000 Ang^3
#
#
#
# Elastic Constant Matrix: (Units=GPa)
#
#
# Indices 1 2 3 4 5 6 
#
# 1 157.3168 61.0811 38.7300 -11.1466 -20.3050 -8.3064
# 2 61.0811 118.5273 27.4651 -12.8412 -10.2585 -5.2651
# 3 38.7300 27.4651 99.7308 -7.7665 -9.3373 -3.6684
# 4 -11.1466 -12.8412 -7.7665 29.5549 0.0773 0.3540
# 5 -20.3050 -10.2585 -9.3373 0.0773 33.0964 -0.2076
# 6 -8.3064 -5.2651 -3.6684 0.3540 -0.2076 51.9276
#
#
#
# Elastic Compliance Matrix: (Units=1/GPa)
#
#
# Indices 1 2 3 4 5 6 
#
# 1 0.008865 -0.003612 -0.001965 0.001237 0.003768 0.000920
# 2 -0.003612 0.011024 -0.001300 0.003078 0.000830 0.000430
# 3 -0.001965 -0.001300 0.011445 0.001693 0.001619 0.000357
# 4 0.001237 0.003078 0.001693 0.036074 0.002109 0.000392
# 5 0.003768 0.000830 0.001619 0.002109 0.033241 0.000920
# 6 0.000920 0.000430 0.000357 0.000392 0.000920 0.019475
#
#
# Mechanical properties :
#
#
# Convention : Reuss Voigt Hill
#
# Bulk Modulus (GPa) = 56.88453 70.01415 63.44934
# Shear Modulus (GPa) = 35.78113 39.46901 37.62507
#
# Velocity S-wave (km/s) = 4.04505 4.24840 4.14797
# Velocity P-wave (km/s) = 6.91589 7.48880 7.20804
#
# Compressibility (1/GPa) = 0.01757947
#
# Stress axis : x y z
#
# Youngs Moduli (GPa) = 112.79710 90.71040 87.37710
#
# Poissons Ratio (x) = 0.32768 0.17171
# Poissons Ratio (y) = 0.40746 0.11358
# Poissons Ratio (z) = 0.22166 0.11791
#
# Static dielectric constant tensor:
#      x y z
#    x 3.895690 -1.026990 -0.030950 
#    y -1.026990 2.592640 0.381950 
#    z -0.030950 0.381950 3.805580 
# 
# 
# High freq. dielectric constant tensor:
#      x y z
#    x 1.870740 -0.009230 -0.006660 
#    y -0.009230 1.873980 -0.005660 
#    z -0.006660 -0.005660 1.848970 
# 
# From -- ./inp_files/184858.got.cif
#   From: 2010.06.25/outbox.cif.g09.slc.cpg/sg2_93_cif.got.tgz:184858.got - 2010.06.27 13:26:56.
