data_PCOD8028145
_publ_section_title
;
Structure prediction by ZEFSAII (Michael W. Deem and Ramdas Pophale) SiO2 
 PCOD8028145
Probable space group: P -1
;
_chemical_formula_sum "Si O2"
_cell_formula_units_Z 16
_cell_length_a 14.168282
_cell_length_b 8.705631
_cell_length_c 8.278867
_cell_angle_alpha 93.230715
_cell_angle_beta 101.247142
_cell_angle_gamma 44.325265
_cell_volume 694.631123
_symmetry_space_group_name_H-M "P -1"
_symmetry_group_IT_number 2
_symmetry_cell_setting 'triclinic'
loop_
_space_group_symop_operation_xyz
x,y,z
-x,-y,-z
loop_
_atom_site_type_symbol
_atom_site_label
_atom_site_fract_x
_atom_site_fract_y
_atom_site_fract_z
Si Si1 0.794909 0.820659 0.015131
Si Si2 0.544674 0.133568 0.370601
Si Si3 0.273203 0.509374 0.498491
Si Si4 0.652244 0.740033 0.183097
Si Si5 0.985613 0.354172 0.691268
Si Si6 0.875775 0.030199 0.504673
Si Si7 0.538156 0.288472 0.056855
Si Si8 0.178739 0.174988 0.344879
O O1 0.751028 0.717216 0.090996
O O2 0.951476 0.686539 0.112229
O O3 0.693192 0.077919 0.037340
O O4 0.790308 0.799929 0.822074
O O5 0.415422 0.286967 0.457132
O O6 0.531929 0.290079 0.250351
O O7 0.545946 0.977739 0.252523
O O8 0.681327 0.984752 0.514268
O O9 0.253019 0.454364 0.663523
O O10 0.146001 0.609510 0.344003
O O11 0.264476 0.705592 0.532386
O O12 0.564407 0.717993 0.054700
O O13 0.932364 0.575352 0.606275
O O14 0.114707 0.128016 0.622976
O O15 0.881003 0.932729 0.673271
O O16 0.000000 0.000000 0.500000
O O17 0.500000 0.500000 0.000000
#
# Coordination Sequence:
#
# PCOD8028145 Si02
#       8
#     2   2   2   2   2   2   2   2
#     4  11  26  45  70 106 141 187 238 289 351 419
#     4  11  24  45  74 104 138 186 241 287 355 413
#     4  11  25  43  74 104 141 188 233 299 346 429
#     4  11  24  44  73 102 145 182 234 290 352 422
#     4  11  25  46  70 100 145 184 242 283 353 414
#     4  10  25  44  66 101 139 185 231 289 359 411
#     4  11  27  45  71 106 147 183 225 299 356 423
#     4  12  25  45  75 104 139 184 247 290 342 430
#
# _framework density 23.033809999999999
#
# number of rings (size 3 to 8) (size 9 to 14) (size 15 to 20)
#    0.000    1.000    1.250    4.875   12.250    0.500 
#    0.000    2.500    0.000    0.000    0.000    0.000 
#    0.000    0.000    0.000    0.000    0.000    0.000 
#
# Total GULP energy -198286.601219 kJ/mol
# GULP energy per Si atom -12392.912576 kJ/mol
# Density = 2.298138 g / cm^3
# Si number density = 23.033810 Si / 1000 Ang^3
#
#
#
# Elastic Constant Matrix: (Units=GPa)
#
#
# Indices 1 2 3 4 5 6 
#
# 1 112.6496 74.8631 75.2757 -8.4817 -7.8425 10.4467
# 2 74.8631 122.8625 59.7732 -8.9379 -8.3371 26.2547
# 3 75.2757 59.7732 164.5984 -14.4304 -6.9120 5.1373
# 4 -8.4817 -8.9379 -14.4304 28.4742 -8.3169 -8.7536
# 5 -7.8425 -8.3371 -6.9120 -8.3169 44.4056 -13.9868
# 6 10.4467 26.2547 5.1373 -8.7536 -13.9868 43.3631
#
#
#
# Elastic Compliance Matrix: (Units=1/GPa)
#
#
# Indices 1 2 3 4 5 6 
#
# 1 0.018108 -0.008957 -0.004909 0.001390 0.001801 0.002504
# 2 -0.008957 0.015901 -0.001626 -0.001490 -0.001687 -0.008122
# 3 -0.004909 -0.001626 0.009260 0.003998 0.001791 0.002455
# 4 0.001390 -0.001490 0.003998 0.045119 0.013287 0.013488
# 5 0.001801 -0.001687 0.001791 0.013287 0.029220 0.012482
# 6 0.002504 -0.008122 0.002455 0.013488 0.012482 0.033833
#
#
# Mechanical properties :
#
#
# Convention : Reuss Voigt Hill
#
# Bulk Modulus (GPa) = 81.40475 91.10382 86.25428
# Shear Modulus (GPa) = 26.80670 35.92848 31.36759
#
# Velocity S-wave (km/s) = 3.41515 3.95373 3.69427
# Velocity P-wave (km/s) = 7.13927 7.77694 7.46491
#
# Compressibility (1/GPa) = 0.01228430
#
# Stress axis : x y z
#
# Youngs Moduli (GPa) = 55.22446 62.89098 107.99016
#
# Poissons Ratio (x) = 0.56331 0.53015
# Poissons Ratio (y) = 0.49464 0.17559
# Poissons Ratio (z) = 0.27111 0.10226
#
# Static dielectric constant tensor:
#      x y z
#    x 4.177010 0.309350 -0.192230 
#    y 0.309350 4.721690 -0.163460 
#    z -0.192230 -0.163460 4.287710 
# 
# 
# High freq. dielectric constant tensor:
#      x y z
#    x 1.903860 0.004900 -0.004410 
#    y 0.004900 1.925600 -0.010730 
#    z -0.004410 -0.010730 1.906580 
# 
# From -- ./inp_files/298567.got.cif
#   From: 2010.06.25/outbox.cif.g09.slc.cpg/sg2_150_cif.got.tgz:298567.got - 2010.06.27 13:26:56.
