data_PCOD8028885
_publ_section_title
;
Structure prediction by ZEFSAII (Michael W. Deem and Ramdas Pophale) SiO2 
 PCOD8028885
Probable space group: P -1
;
_chemical_formula_sum "Si O2"
_cell_formula_units_Z 14
_cell_length_a 21.855653
_cell_length_b 14.298611
_cell_length_c 12.504450
_cell_angle_alpha 27.674006
_cell_angle_beta 31.197737
_cell_angle_gamma 20.846898
_cell_volume 636.698587
_symmetry_space_group_name_H-M "P -1"
_symmetry_group_IT_number 2
_symmetry_cell_setting 'triclinic'
loop_
_space_group_symop_operation_xyz
x,y,z
-x,-y,-z
loop_
_atom_site_type_symbol
_atom_site_label
_atom_site_fract_x
_atom_site_fract_y
_atom_site_fract_z
Si Si1 0.921329 0.106738 0.673080
Si Si2 0.690779 0.133931 0.377310
Si Si3 0.161080 0.075612 0.852399
Si Si4 0.967689 0.341646 0.545603
Si Si5 0.121454 0.540593 0.804472
Si Si6 0.484946 0.069373 0.828692
Si Si7 0.199683 0.566416 0.085230
O O1 0.021299 0.129511 0.582512
O O2 0.834700 0.367191 0.453972
O O3 0.045299 0.783475 0.762737
O O4 0.783865 0.144438 0.909906
O O5 0.511457 0.275398 0.555640
O O6 0.691320 0.114733 0.266915
O O7 0.712561 0.334123 0.179229
O O8 0.857591 0.799367 0.513372
O O9 0.139694 0.330827 0.669049
O O10 0.972132 0.243932 0.920758
O O11 0.850533 0.368236 0.780492
O O12 0.300997 0.222839 0.902833
O O13 0.000000 0.500000 0.000000
O O14 0.647082 0.783481 0.808284
O O15 0.500000 0.000000 0.000000
#
# Coordination Sequence:
#
# PCOD8028885 Si02
#       7
#     2   2   2   2   2   2   2
#     4  11  23  42  72  94 124 180 232 253 327 400
#     4  11  21  37  64 103 141 162 217 277 325 390
#     4  11  18  36  68 103 134 173 211 271 334 386
#     4  11  19  36  71 102 132 172 214 275 328 385
#     4  11  28  49  67  92 135 180 223 267 323 410
#     4  12  27  43  66 100 135 172 218 274 335 382
#     4  11  20  37  64 104 139 165 216 275 333 385
#
# _framework density 21.988427000000001
#
# number of rings (size 3 to 8) (size 9 to 14) (size 15 to 20)
#    0.000    0.857    5.714    3.429    2.000    2.857 
#    0.000    1.429    0.000    0.000    0.000    0.000 
#    0.000    0.000    0.000    0.000    0.000    0.000 
#
# Total GULP energy -173481.878312 kJ/mol
# GULP energy per Si atom -12391.562737 kJ/mol
# Density = 2.193838 g / cm^3
# Si number density = 21.988427 Si / 1000 Ang^3
#
#
#
# Elastic Constant Matrix: (Units=GPa)
#
#
# Indices 1 2 3 4 5 6 
#
# 1 114.6118 44.3856 54.3910 10.3421 7.6423 13.6176
# 2 44.3856 68.7548 25.6116 8.9689 2.1797 -8.6778
# 3 54.3910 25.6116 169.0515 5.9666 8.6852 -9.5326
# 4 10.3421 8.9689 5.9666 30.1787 -0.9073 -2.8812
# 5 7.6423 2.1797 8.6852 -0.9073 45.0760 -1.5825
# 6 13.6176 -8.6778 -9.5326 -2.8812 -1.5825 29.6633
#
#
#
# Elastic Compliance Matrix: (Units=1/GPa)
#
#
# Indices 1 2 3 4 5 6 
#
# 1 0.016593 -0.010221 -0.004279 -0.003045 -0.001991 -0.012384
# 2 -0.010221 0.022635 0.000530 -0.002222 0.000889 0.011316
# 3 -0.004279 0.000530 0.007488 0.000242 -0.000579 0.004518
# 4 -0.003045 -0.002222 0.000242 0.035248 0.001438 0.004326
# 5 -0.001991 0.000889 -0.000579 0.001438 0.022702 0.002338
# 6 -0.012384 0.011316 0.004518 0.004326 0.002338 0.044704
#
#
# Mechanical properties :
#
#
# Convention : Reuss Voigt Hill
#
# Bulk Modulus (GPa) = 53.25733 66.79940 60.02836
# Shear Modulus (GPa) = 27.23804 36.18561 31.71183
#
# Velocity S-wave (km/s) = 3.52340 4.06108 3.80176
# Velocity P-wave (km/s) = 6.38949 7.24121 6.82865
#
# Compressibility (1/GPa) = 0.01877676
#
# Stress axis : x y z
#
# Youngs Moduli (GPa) = 60.26767 44.17959 133.55249
#
# Poissons Ratio (x) = 0.45154 0.57143
# Poissons Ratio (y) = 0.61597 -0.07078
# Poissons Ratio (z) = 0.25787 -0.02341
#
# Static dielectric constant tensor:
#      x y z
#    x 3.878590 0.239360 0.074030 
#    y 0.239360 3.543830 -0.121070 
#    z 0.074030 -0.121070 4.501680 
# 
# 
# High freq. dielectric constant tensor:
#      x y z
#    x 1.855960 0.027270 -0.001200 
#    y 0.027270 1.816350 -0.009990 
#    z -0.001200 -0.009990 1.900250 
# 
# From -- ./inp_files/270259.got.cif
#   From: 2010.06.25/outbox.cif.g09.slc.cpg/sg2_136_cif.got.tgz:270259.got - 2010.06.27 13:26:56.
