data_PCOD8028106
_publ_section_title
;
Structure prediction by ZEFSAII (Michael W. Deem and Ramdas Pophale) SiO2 
 PCOD8028106
Probable space group: P -1
;
_chemical_formula_sum "Si O2"
_cell_formula_units_Z 16
_cell_length_a 5.998418
_cell_length_b 11.298572
_cell_length_c 13.615316
_cell_angle_alpha 53.405464
_cell_angle_beta 92.068758
_cell_angle_gamma 69.847142
_cell_volume 658.837488
_symmetry_space_group_name_H-M "P -1"
_symmetry_group_IT_number 2
_symmetry_cell_setting 'triclinic'
loop_
_space_group_symop_operation_xyz
x,y,z
-x,-y,-z
loop_
_atom_site_type_symbol
_atom_site_label
_atom_site_fract_x
_atom_site_fract_y
_atom_site_fract_z
Si Si1 0.838711 0.956350 0.093750
Si Si2 0.398330 0.523208 0.730874
Si Si3 0.720150 0.474792 0.589030
Si Si4 0.833000 0.052045 0.252650
Si Si5 0.591774 0.614499 0.876334
Si Si6 0.715245 0.755323 0.058490
Si Si7 0.050156 0.288499 0.517864
Si Si8 0.995344 0.699182 0.888670
O O1 0.849685 0.782658 0.144494
O O2 0.951985 0.949329 0.206116
O O3 0.551802 0.089542 0.032254
O O4 0.000000 0.000000 0.000000
O O5 0.647661 0.419765 0.719379
O O6 0.462278 0.624317 0.765081
O O7 0.311946 0.408817 0.846132
O O8 0.175736 0.643526 0.597175
O O9 0.500000 0.500000 0.500000
O O10 0.747695 0.642281 0.531040
O O11 0.966857 0.338481 0.606285
O O12 0.558837 0.209955 0.155089
O O13 0.011760 0.137064 0.244312
O O14 0.827382 0.912330 0.394235
O O15 0.859067 0.618735 0.858779
O O16 0.700905 0.437588 0.029250
O O17 0.889510 0.739789 0.976591
#
# Coordination Sequence:
#
# PCOD8028106 Si02
#       8
#     2   2   2   2   2   2   2   2
#     4  11  24  41  65 105 140 173 217 289 354 414
#     4  11  26  43  70  98 137 182 236 279 335 418
#     4   9  22  45  66 101 130 180 229 280 334 405
#     4  12  25  44  69 101 145 178 226 288 349 414
#     4  11  27  44  71  99 136 187 237 285 343 414
#     4  11  25  41  69 104 133 174 231 282 350 417
#     4  10  25  43  71 100 138 180 231 277 350 408
#     4  11  25  45  70 102 136 184 233 288 349 401
#
# _framework density 24.285198000000001
#
# number of rings (size 3 to 8) (size 9 to 14) (size 15 to 20)
#    0.000    1.250    2.500    1.125   12.250    2.500 
#    0.000    1.250    0.000    0.000    0.000    0.000 
#    0.000    0.000    0.000    0.000    0.000    0.000 
#
# Total GULP energy -198221.804134 kJ/mol
# GULP energy per Si atom -12388.862758 kJ/mol
# Density = 2.422992 g / cm^3
# Si number density = 24.285198 Si / 1000 Ang^3
#
#
#
# Elastic Constant Matrix: (Units=GPa)
#
#
# Indices 1 2 3 4 5 6 
#
# 1 96.9062 51.6202 34.4878 -5.6314 -2.0527 20.0902
# 2 51.6202 109.0598 38.1145 0.8139 0.9840 20.6260
# 3 34.4878 38.1145 85.5205 -23.1462 -9.7269 15.5390
# 4 -5.6314 0.8139 -23.1462 50.3337 8.5371 -5.3146
# 5 -2.0527 0.9840 -9.7269 8.5371 29.3348 6.5727
# 6 20.0902 20.6260 15.5390 -5.3146 6.5727 57.9064
#
#
#
# Elastic Compliance Matrix: (Units=1/GPa)
#
#
# Indices 1 2 3 4 5 6 
#
# 1 0.014856 -0.005524 -0.002995 -0.000022 0.000792 -0.002475
# 2 -0.005524 0.013735 -0.004450 -0.002914 -0.001042 -0.001931
# 3 -0.002995 -0.004450 0.017582 0.006906 0.004194 -0.001936
# 4 -0.000022 -0.002914 0.006906 0.024161 -0.005090 0.001987
# 5 0.000792 -0.001042 0.004194 -0.005090 0.038362 -0.005851
# 6 -0.002475 -0.001931 -0.001936 0.001987 -0.005851 0.020182
#
#
# Mechanical properties :
#
#
# Convention : Reuss Voigt Hill
#
# Bulk Modulus (GPa) = 49.41859 59.99236 54.70548
# Shear Modulus (GPa) = 30.94759 38.66592 34.80675
#
# Velocity S-wave (km/s) = 3.57366 3.99452 3.78994
# Velocity P-wave (km/s) = 6.11731 6.78467 6.45962
#
# Compressibility (1/GPa) = 0.02023530
#
# Stress axis : x y z
#
# Youngs Moduli (GPa) = 67.31128 72.80408 56.87527
#
# Poissons Ratio (x) = 0.40217 0.17036
# Poissons Ratio (y) = 0.37182 0.25311
# Poissons Ratio (z) = 0.20161 0.32400
#
# Static dielectric constant tensor:
#      x y z
#    x 4.753380 0.228120 -0.091590 
#    y 0.228120 4.519110 -0.009890 
#    z -0.091590 -0.009890 4.111540 
# 
# 
# High freq. dielectric constant tensor:
#      x y z
#    x 1.994220 0.007120 -0.008970 
#    y 0.007120 1.976640 -0.001520 
#    z -0.008970 -0.001520 1.932220 
# 
# From -- ./inp_files/482639.got.cif
#   From: 2010.06.25/outbox.cif.g09.slc.cpg/sg2_242_cif.got.tgz:482639.got - 2010.06.27 13:26:56.
