data_PCOD8028560
_publ_section_title
;
Structure prediction by ZEFSAII (Michael W. Deem and Ramdas Pophale) SiO2 
 PCOD8028560
Probable space group: P -1
;
_chemical_formula_sum "Si O2"
_cell_formula_units_Z 12
_cell_length_a 24.974758
_cell_length_b 21.984597
_cell_length_c 7.909130
_cell_angle_alpha 146.820712
_cell_angle_beta 145.731249
_cell_angle_gamma 11.439391
_cell_volume 470.602019
_symmetry_space_group_name_H-M "P -1"
_symmetry_group_IT_number 2
_symmetry_cell_setting 'triclinic'
loop_
_space_group_symop_operation_xyz
x,y,z
-x,-y,-z
loop_
_atom_site_type_symbol
_atom_site_label
_atom_site_fract_x
_atom_site_fract_y
_atom_site_fract_z
Si Si1 0.649118 0.296615 0.667483
Si Si2 0.954336 0.758794 0.110563
Si Si3 0.067244 0.217416 0.277644
Si Si4 0.507524 0.864373 0.765677
Si Si5 0.735697 0.787759 0.733487
Si Si6 0.092532 0.958699 0.894380
O O1 0.321580 0.672861 0.685734
O O2 0.704197 0.106412 0.332384
O O3 0.761135 0.212442 0.943546
O O4 0.820245 0.179979 0.700704
O O5 0.204718 0.506038 0.301967
O O6 0.010147 0.726636 0.986130
O O7 0.907698 0.677442 0.800921
O O8 0.894049 0.510015 0.578303
O O9 0.376747 0.921249 0.422178
O O10 0.999743 0.185371 0.140924
O O11 0.500000 0.000000 0.000000
O O12 0.348374 0.038245 0.931391
O O13 0.500000 0.000000 0.500000
#
# Coordination Sequence:
#
# PCOD8028560 Si02
#       6
#     2   2   2   2   2   2
#     4  10  25  47  76 105 150 192 251 308 368 438
#     4  12  27  47  71 108 148 189 245 309 363 445
#     4  12  26  46  73 109 143 194 247 302 371 442
#     4  12  26  44  72 104 149 194 240 298 376 441
#     4  12  25  46  72 107 149 188 240 306 370 441
#     4  10  25  47  76 108 143 200 247 306 372 438
#
# _framework density 25.499255000000002
#
# number of rings (size 3 to 8) (size 9 to 14) (size 15 to 20)
#    0.000    0.667    3.333    3.000   11.667    2.667 
#    0.000    0.000    0.000    0.000    0.000    0.000 
#    0.000    0.000    0.000    0.000    0.000    0.000 
#
# Total GULP energy -148763.687726 kJ/mol
# GULP energy per Si atom -12396.973977 kJ/mol
# Density = 2.544122 g / cm^3
# Si number density = 25.499255 Si / 1000 Ang^3
#
#
#
# Elastic Constant Matrix: (Units=GPa)
#
#
# Indices 1 2 3 4 5 6 
#
# 1 108.7172 54.5081 31.6225 -4.4597 33.6128 -0.0274
# 2 54.5081 117.6869 39.9582 4.8659 24.4634 -13.4716
# 3 31.6225 39.9582 82.5008 14.5182 21.2840 2.8163
# 4 -4.4597 4.8659 14.5182 46.5620 7.7989 -8.2566
# 5 33.6128 24.4634 21.2840 7.7989 47.4469 0.8254
# 6 -0.0274 -13.4716 2.8163 -8.2566 0.8254 36.9485
#
#
#
# Elastic Compliance Matrix: (Units=1/GPa)
#
#
# Indices 1 2 3 4 5 6 
#
# 1 0.014675 -0.004752 -0.001980 0.003700 -0.007657 -0.000573
# 2 -0.004752 0.013119 -0.004430 0.000773 -0.001630 0.005326
# 3 -0.001980 -0.004430 0.016834 -0.005191 -0.002942 -0.003994
# 4 0.003700 0.000773 -0.005191 0.025346 -0.004970 0.006455
# 5 -0.007657 -0.001630 -0.002942 -0.004970 0.029515 -0.002146
# 6 -0.000573 0.005326 -0.003994 0.006455 -0.002146 0.030801
#
#
# Mechanical properties :
#
#
# Convention : Reuss Voigt Hill
#
# Bulk Modulus (GPa) = 44.83195 62.34249 53.58722
# Shear Modulus (GPa) = 31.24051 38.37922 34.80987
#
# Velocity S-wave (km/s) = 3.50402 3.88379 3.69878
# Velocity P-wave (km/s) = 5.83015 6.67934 6.26914
#
# Compressibility (1/GPa) = 0.02230552
#
# Stress axis : x y z
#
# Youngs Moduli (GPa) = 68.14110 76.22760 59.40216
#
# Poissons Ratio (x) = 0.36222 0.11761
# Poissons Ratio (y) = 0.32380 0.26313
# Poissons Ratio (z) = 0.13491 0.33766
#
# Static dielectric constant tensor:
#      x y z
#    x 4.289900 -2.026480 -1.124820 
#    y -2.026480 3.965650 -0.223460 
#    z -1.124820 -0.223460 4.386170 
# 
# 
# High freq. dielectric constant tensor:
#      x y z
#    x 2.025490 0.006050 0.004010 
#    y 0.006050 2.016630 0.004180 
#    z 0.004010 0.004180 2.013510 
# 
# From -- ./inp_files/21266.got.cif
#   From: 2010.06.25/outbox.cif.g09.slc.cpg/sg2_11_cif.got.tgz:21266.got - 2010.06.27 13:26:56.
