data_PCOD8028619
_publ_section_title
;
Structure prediction by ZEFSAII (Michael W. Deem and Ramdas Pophale) SiO2 
 PCOD8028619
Probable space group: P -1
;
_chemical_formula_sum "Si O2"
_cell_formula_units_Z 16
_cell_length_a 8.845054
_cell_length_b 9.345874
_cell_length_c 18.600220
_cell_angle_alpha 59.617260
_cell_angle_beta 40.192831
_cell_angle_gamma 46.445588
_cell_volume 718.442422
_symmetry_space_group_name_H-M "P -1"
_symmetry_group_IT_number 2
_symmetry_cell_setting 'triclinic'
loop_
_space_group_symop_operation_xyz
x,y,z
-x,-y,-z
loop_
_atom_site_type_symbol
_atom_site_label
_atom_site_fract_x
_atom_site_fract_y
_atom_site_fract_z
Si Si1 0.140015 0.672296 0.856221
Si Si2 0.780894 0.568958 0.376855
Si Si3 0.753214 0.360974 0.768376
Si Si4 0.266693 0.719662 0.045267
Si Si5 0.836656 0.172384 0.457302
Si Si6 0.074792 0.030921 0.252321
Si Si7 0.829935 0.637101 0.179174
Si Si8 0.632094 0.950937 0.073669
O O1 0.441851 0.541199 0.817748
O O2 0.057108 0.540965 0.873478
O O3 0.165676 0.819966 0.754897
O O4 0.904291 0.789218 0.972203
O O5 0.809067 0.371175 0.446150
O O6 0.482918 0.767012 0.455285
O O7 0.791175 0.564237 0.287545
O O8 0.037697 0.565030 0.320899
O O9 0.765384 0.250748 0.865226
O O10 0.871230 0.187369 0.710839
O O11 0.006517 0.740086 0.094705
O O12 0.500000 0.500000 0.000000
O O13 0.335613 0.875839 0.950486
O O14 0.000000 0.000000 0.500000
O O15 0.999545 0.112239 0.339082
O O16 0.333016 0.041808 0.120712
O O17 0.566960 0.834496 0.189471
#
# Coordination Sequence:
#
# PCOD8028619 Si02
#       8
#     2   2   2   2   2   2   2   2
#     4  12  24  43  67  98 144 187 225 276 341 409
#     4  10  25  49  71 101 139 170 233 294 343 406
#     4  11  26  44  66 102 142 183 227 281 342 408
#     4  11  24  40  60  99 146 183 235 280 326 402
#     4  11  25  48  79 102 128 178 229 290 358 410
#     4  12  25  43  69 102 140 179 234 284 341 412
#     4  11  22  41  68  97 136 184 229 280 335 405
#     4  12  24  40  68 103 143 191 232 273 340 410
#
# _framework density 22.270399000000001
#
# number of rings (size 3 to 8) (size 9 to 14) (size 15 to 20)
#    0.000    0.750    3.750    3.375    3.500    1.500 
#    0.000    1.250    0.000    0.000    0.000    0.000 
#    0.000    0.000    0.000    0.000    0.000    0.000 
#
# Total GULP energy -198255.129018 kJ/mol
# GULP energy per Si atom -12390.945564 kJ/mol
# Density = 2.221971 g / cm^3
# Si number density = 22.270399 Si / 1000 Ang^3
#
#
#
# Elastic Constant Matrix: (Units=GPa)
#
#
# Indices 1 2 3 4 5 6 
#
# 1 103.2151 51.7303 49.9651 4.9555 -15.1239 -2.5942
# 2 51.7303 148.5826 48.1227 -1.9814 -3.8132 -1.9369
# 3 49.9651 48.1227 79.8598 1.8549 -9.4468 -2.1355
# 4 4.9555 -1.9814 1.8549 39.2071 -3.3417 3.7531
# 5 -15.1239 -3.8132 -9.4468 -3.3417 26.5673 -4.7020
# 6 -2.5942 -1.9369 -2.1355 3.7531 -4.7020 34.6686
#
#
#
# Elastic Compliance Matrix: (Units=1/GPa)
#
#
# Indices 1 2 3 4 5 6 
#
# 1 0.015657 -0.002954 -0.007231 -0.001420 0.006010 0.001530
# 2 -0.002954 0.008944 -0.003768 0.000887 -0.001675 -0.000277
# 3 -0.007231 -0.003768 0.019630 -0.000072 0.002455 0.000798
# 4 -0.001420 0.000887 -0.000072 0.026164 0.002123 -0.002606
# 5 0.006010 -0.001675 0.002455 0.002123 0.043043 0.006115
# 6 0.001530 -0.000277 0.000798 -0.002606 0.006115 0.030104
#
#
# Mechanical properties :
#
#
# Convention : Reuss Voigt Hill
#
# Bulk Modulus (GPa) = 61.25306 70.14372 65.69839
# Shear Modulus (GPa) = 28.26635 32.21123 30.23879
#
# Velocity S-wave (km/s) = 3.56650 3.80724 3.68883
# Velocity P-wave (km/s) = 6.67262 7.13383 6.90708
#
# Compressibility (1/GPa) = 0.01632571
#
# Stress axis : x y z
#
# Youngs Moduli (GPa) = 63.87094 111.80455 50.94263
#
# Poissons Ratio (x) = 0.33025 0.36836
# Poissons Ratio (y) = 0.18866 0.19194
# Poissons Ratio (z) = 0.46185 0.42125
#
# Static dielectric constant tensor:
#      x y z
#    x 3.914390 -0.169620 0.079180 
#    y -0.169620 4.198010 -0.052260 
#    z 0.079180 -0.052260 3.682670 
# 
# 
# High freq. dielectric constant tensor:
#      x y z
#    x 1.887100 -0.013660 -0.001200 
#    y -0.013660 1.900730 -0.002340 
#    z -0.001200 -0.002340 1.854520 
# 
# From -- ./inp_files/557004.got.cif
#   From: 2010.06.25/outbox.cif.g09.slc.cpg/sg2_279_cif.got.tgz:557004.got - 2010.06.27 13:26:56.
