data_PCOD8028979
_publ_section_title
;
Structure prediction by ZEFSAII (Michael W. Deem and Ramdas Pophale) SiO2 
 PCOD8028979
Probable space group: P -1
;
_chemical_formula_sum "Si O2"
_cell_formula_units_Z 14
_cell_length_a 11.373358
_cell_length_b 9.085576
_cell_length_c 9.242044
_cell_angle_alpha 119.647362
_cell_angle_beta 66.675465
_cell_angle_gamma 70.458185
_cell_volume 569.520635
_symmetry_space_group_name_H-M "P -1"
_symmetry_group_IT_number 2
_symmetry_cell_setting 'triclinic'
loop_
_space_group_symop_operation_xyz
x,y,z
-x,-y,-z
loop_
_atom_site_type_symbol
_atom_site_label
_atom_site_fract_x
_atom_site_fract_y
_atom_site_fract_z
Si Si1 0.862608 0.738266 0.406979
Si Si2 0.649535 0.763607 0.742938
Si Si3 0.661241 0.406150 0.681655
Si Si4 0.687353 0.836809 0.265250
Si Si5 0.326715 0.526672 0.963252
Si Si6 0.050066 0.057959 0.307206
Si Si7 0.142696 0.253788 0.137101
O O1 0.686425 0.813421 0.594029
O O2 0.816445 0.821275 0.304112
O O3 0.923928 0.852925 0.516527
O O4 0.995388 0.467285 0.217083
O O5 0.619527 0.588629 0.671513
O O6 0.816363 0.649923 0.707364
O O7 0.500000 0.000000 0.000000
O O8 0.512158 0.396389 0.731929
O O9 0.853542 0.163666 0.449564
O O10 0.640449 0.508587 0.898748
O O11 0.747915 0.587967 0.101926
O O12 0.500000 0.000000 0.500000
O O13 0.701067 0.913055 0.135800
O O14 0.183592 0.788194 0.116311
O O15 0.087800 0.125378 0.173387
#
# Coordination Sequence:
#
# PCOD8028979 Si02
#       7
#     2   2   2   2   2   2   2
#     4  11  22  40  72 101 131 174 227 284 336 400
#     4  11  19  36  68 102 132 170 230 280 328 399
#     4  11  21  41  70 102 136 174 231 282 339 397
#     4  12  27  46  65 100 142 179 222 281 356 406
#     4  11  26  42  68 102 141 179 225 282 343 413
#     4  11  22  45  77 101 130 176 239 285 334 400
#     4  11  21  43  68 102 132 176 232 280 334 409
#
# _framework density 24.582077000000002
#
# number of rings (size 3 to 8) (size 9 to 14) (size 15 to 20)
#    0.000    0.857    4.286    4.286    4.000    0.000 
#    2.571    3.571    0.000    0.000    0.000    0.000 
#    0.000    0.000    0.000    0.000    0.000    0.000 
#
# Total GULP energy -173577.387677 kJ/mol
# GULP energy per Si atom -12398.384834 kJ/mol
# Density = 2.452613 g / cm^3
# Si number density = 24.582077 Si / 1000 Ang^3
#
#
#
# Elastic Constant Matrix: (Units=GPa)
#
#
# Indices 1 2 3 4 5 6 
#
# 1 81.3298 22.5519 26.9689 -0.2495 -16.9487 5.7083
# 2 22.5519 76.3471 20.5192 3.7660 5.6730 9.7743
# 3 26.9689 20.5192 85.8471 -4.3799 -15.2418 6.2641
# 4 -0.2495 3.7660 -4.3799 43.0443 -2.7051 -7.0221
# 5 -16.9487 5.6730 -15.2418 -2.7051 37.4331 -9.5961
# 6 5.7083 9.7743 6.2641 -7.0221 -9.5961 27.7432
#
#
#
# Elastic Compliance Matrix: (Units=1/GPa)
#
#
# Indices 1 2 3 4 5 6 
#
# 1 0.015925 -0.004841 -0.002610 0.001018 0.007428 0.001845
# 2 -0.004841 0.017458 -0.003804 -0.003851 -0.008796 -0.008313
# 3 -0.002610 -0.003804 0.014430 0.002343 0.005747 0.001200
# 4 0.001018 -0.003851 0.002343 0.025720 0.006238 0.009286
# 5 0.007428 -0.008796 0.005747 0.006238 0.038050 0.015013
# 6 0.001845 -0.008313 0.001200 0.009286 0.015013 0.045866
#
#
# Mechanical properties :
#
#
# Convention : Reuss Voigt Hill
#
# Bulk Modulus (GPa) = 39.51858 42.62269 41.07063
# Shear Modulus (GPa) = 26.54030 33.20972 29.87501
#
# Velocity S-wave (km/s) = 3.28938 3.67955 3.48992
# Velocity P-wave (km/s) = 5.52610 5.95220 5.74310
#
# Compressibility (1/GPa) = 0.02530455
#
# Stress axis : x y z
#
# Youngs Moduli (GPa) = 62.79471 57.27982 69.30034
#
# Poissons Ratio (x) = 0.27729 0.18084
# Poissons Ratio (y) = 0.30399 0.26359
# Poissons Ratio (z) = 0.16387 0.21787
#
# Static dielectric constant tensor:
#      x y z
#    x 4.349980 0.003510 -0.329070 
#    y 0.003510 4.569340 -0.366950 
#    z -0.329070 -0.366950 4.569740 
# 
# 
# High freq. dielectric constant tensor:
#      x y z
#    x 1.960270 0.004280 -0.036770 
#    y 0.004280 1.982690 -0.006470 
#    z -0.036770 -0.006470 1.975410 
# 
# From -- ./inp_files/158990.got.cif
#   From: 2010.06.25/outbox.cif.g09.slc.cpg/sg2_80_cif.got.tgz:158990.got - 2010.06.27 13:26:56.
