data_PCOD8028218
_publ_section_title
;
Structure prediction by ZEFSAII (Michael W. Deem and Ramdas Pophale) SiO2 
 PCOD8028218
Probable space group: P -1
;
_chemical_formula_sum "Si O2"
_cell_formula_units_Z 16
_cell_length_a 14.119504
_cell_length_b 13.162998
_cell_length_c 8.818109
_cell_angle_alpha 59.547367
_cell_angle_beta 92.283588
_cell_angle_gamma 43.457065
_cell_volume 705.494367
_symmetry_space_group_name_H-M "P -1"
_symmetry_group_IT_number 2
_symmetry_cell_setting 'triclinic'
loop_
_space_group_symop_operation_xyz
x,y,z
-x,-y,-z
loop_
_atom_site_type_symbol
_atom_site_label
_atom_site_fract_x
_atom_site_fract_y
_atom_site_fract_z
Si Si1 0.170748 0.459741 0.871698
Si Si2 0.709328 0.138058 0.204990
Si Si3 0.428144 0.355369 0.509552
Si Si4 0.388273 0.643201 0.659453
Si Si5 0.148388 0.694760 0.493491
Si Si6 0.342614 0.081603 0.987612
Si Si7 0.200026 0.203865 0.575391
Si Si8 0.333642 0.263239 0.345822
O O1 0.250560 0.489294 0.768413
O O2 0.265126 0.232128 0.015468
O O3 0.962076 0.677722 0.626517
O O4 0.185687 0.456123 0.056899
O O5 0.702245 0.177664 0.351795
O O6 0.645224 0.068407 0.232912
O O7 0.560731 0.377373 0.926287
O O8 0.919432 0.935233 0.300580
O O9 0.526882 0.371468 0.461322
O O10 0.228097 0.587090 0.409358
O O11 0.400011 0.314290 0.382648
O O12 0.575970 0.131444 0.799240
O O13 0.214192 0.752986 0.505062
O O14 0.177228 0.242354 0.727774
O O15 0.500000 0.000000 0.000000
O O16 0.239219 0.292088 0.453291
O O17 0.500000 0.000000 0.500000
#
# Coordination Sequence:
#
# PCOD8028218 Si02
#       8
#     2   2   2   2   2   2   2   2
#     4  11  24  40  67  98 137 181 223 279 344 405
#     4  10  25  44  72  99 132 186 232 285 349 407
#     4  12  25  41  71 107 137 180 232 283 346 407
#     4  11  25  45  71  99 137 180 237 287 345 407
#     4  11  24  46  70 100 138 182 233 287 343 409
#     4  12  21  41  68  96 135 181 216 272 344 412
#     4  11  23  42  64  98 137 173 228 279 342 409
#     4  12  23  40  67  99 141 177 227 279 338 415
#
# _framework density 22.679133
#
# number of rings (size 3 to 8) (size 9 to 14) (size 15 to 20)
#    0.000    0.750    3.750    3.000    5.250    1.500 
#    0.000    1.250    0.000    0.000    0.000    0.000 
#    0.000    0.000    0.000    0.000    0.000    0.000 
#
# Total GULP energy -198277.258326 kJ/mol
# GULP energy per Si atom -12392.328645 kJ/mol
# Density = 2.262751 g / cm^3
# Si number density = 22.679133 Si / 1000 Ang^3
#
#
#
# Elastic Constant Matrix: (Units=GPa)
#
#
# Indices 1 2 3 4 5 6 
#
# 1 81.2330 0.4642 17.9733 6.8048 -11.4935 7.7509
# 2 0.4642 76.7807 11.3740 5.3986 -2.1679 0.4474
# 3 17.9733 11.3740 97.0489 21.1222 6.2582 -2.6471
# 4 6.8048 5.3986 21.1222 36.5684 3.8056 5.8059
# 5 -11.4935 -2.1679 6.2582 3.8056 39.9320 4.3604
# 6 7.7509 0.4474 -2.6471 5.8059 4.3604 35.2164
#
#
#
# Elastic Compliance Matrix: (Units=1/GPa)
#
#
# Indices 1 2 3 4 5 6 
#
# 1 0.014106 0.000577 -0.002901 -0.000957 0.005052 -0.003798
# 2 0.000577 0.013370 -0.001483 -0.001303 0.001287 -0.000353
# 3 -0.002901 -0.001483 0.012751 -0.006822 -0.002598 0.003062
# 4 -0.000957 -0.001303 -0.006822 0.032710 -0.001799 -0.005456
# 5 0.005052 0.001287 -0.002598 -0.001799 0.027631 -0.004448
# 6 -0.003798 -0.000353 0.003062 -0.005456 -0.004448 0.030917
#
#
# Mechanical properties :
#
#
# Convention : Reuss Voigt Hill
#
# Bulk Modulus (GPa) = 30.66292 34.96508 32.81400
# Shear Modulus (GPa) = 33.33980 37.36009 35.34995
#
# Velocity S-wave (km/s) = 3.83830 4.06314 3.95232
# Velocity P-wave (km/s) = 5.76134 6.12069 5.94374
#
# Compressibility (1/GPa) = 0.03261268
#
# Stress axis : x y z
#
# Youngs Moduli (GPa) = 70.89075 74.79283 78.42521
#
# Poissons Ratio (x) = -0.04312 0.22752
# Poissons Ratio (y) = -0.04087 0.11629
# Poissons Ratio (z) = 0.20566 0.11091
#
# Static dielectric constant tensor:
#      x y z
#    x 5.678330 -0.628920 0.183130 
#    y -0.628920 4.158020 0.415500 
#    z 0.183130 0.415500 3.749100 
# 
# 
# High freq. dielectric constant tensor:
#      x y z
#    x 1.901850 0.015020 -0.006440 
#    y 0.015020 1.892430 0.005820 
#    z -0.006440 0.005820 1.896970 
# 
# From -- ./inp_files/314660.got.cif
#   From: 2010.06.25/outbox.cif.g09.slc.cpg/sg2_158_cif.got.tgz:314660.got - 2010.06.27 13:26:56.
