data_PCOD8028330
_publ_section_title
;
Structure prediction by ZEFSAII (Michael W. Deem and Ramdas Pophale) SiO2 
 PCOD8028330
Probable space group: P -1
;
_chemical_formula_sum "Si O2"
_cell_formula_units_Z 16
_cell_length_a 22.222145
_cell_length_b 8.950542
_cell_length_c 12.975912
_cell_angle_alpha 35.463405
_cell_angle_beta 28.193536
_cell_angle_gamma 41.956424
_cell_volume 704.308236
_symmetry_space_group_name_H-M "P -1"
_symmetry_group_IT_number 2
_symmetry_cell_setting 'triclinic'
loop_
_space_group_symop_operation_xyz
x,y,z
-x,-y,-z
loop_
_atom_site_type_symbol
_atom_site_label
_atom_site_fract_x
_atom_site_fract_y
_atom_site_fract_z
Si Si1 0.609949 0.552537 0.609243
Si Si2 0.665635 0.515210 0.779724
Si Si3 0.730193 0.031591 0.080298
Si Si4 0.119548 0.159039 0.226920
Si Si5 0.406854 0.224051 0.064920
Si Si6 0.051617 0.367273 0.721535
Si Si7 0.791544 0.051837 0.585513
Si Si8 0.036667 0.936081 0.153196
O O1 0.592739 0.518247 0.778797
O O2 0.638208 0.844896 0.381003
O O3 0.720225 0.339138 0.520199
O O4 0.476656 0.488537 0.790478
O O5 0.616511 0.771518 0.777417
O O6 0.819099 0.491253 0.545300
O O7 0.643493 0.259501 0.025027
O O8 0.811096 0.844055 0.984693
O O9 0.829517 0.150849 0.942311
O O10 0.073222 0.454538 0.154973
O O11 0.216587 0.029227 0.238053
O O12 0.000000 0.000000 0.500000
O O13 0.270037 0.185575 0.245185
O O14 0.500000 0.000000 0.000000
O O15 0.023539 0.296485 0.684781
O O16 0.070361 0.131142 0.903973
O O17 0.935060 0.059605 0.321213
#
# Coordination Sequence:
#
# PCOD8028330 Si02
#       8
#     2   2   2   2   2   2   2   2
#     4  11  24  45  66  95 128 169 223 271 312 377
#     4  12  22  43  70  95 127 169 218 267 319 383
#     4  12  25  39  69 101 131 172 207 264 327 383
#     4  12  22  37  62 101 134 168 210 254 321 390
#     4  10  25  45  71  90 123 179 217 268 330 366
#     4  11  23  38  61 100 137 171 209 260 321 394
#     4  11  21  41  67  91 134 174 212 264 320 380
#     4  11  23  38  63  99 135 173 208 258 328 389
#
# _framework density 22.717326
#
# number of rings (size 3 to 8) (size 9 to 14) (size 15 to 20)
#    0.000    0.750    6.250    1.125    1.750    2.500 
#    0.000    0.625    2.750    0.000    0.000    0.000 
#    0.000    0.000    0.000    0.000    0.000    0.000 
#
# Total GULP energy -198274.772008 kJ/mol
# GULP energy per Si atom -12392.173251 kJ/mol
# Density = 2.266562 g / cm^3
# Si number density = 22.717326 Si / 1000 Ang^3
#
#
#
# Elastic Constant Matrix: (Units=GPa)
#
#
# Indices 1 2 3 4 5 6 
#
# 1 120.7043 18.4612 41.2054 -20.7274 0.1970 8.8359
# 2 18.4612 82.2487 7.4315 3.7580 9.1459 11.8589
# 3 41.2054 7.4315 85.3707 -12.1223 -3.2249 4.4226
# 4 -20.7274 3.7580 -12.1223 32.6007 9.6232 4.6181
# 5 0.1970 9.1459 -3.2249 9.6232 36.4108 1.4195
# 6 8.8359 11.8589 4.4226 4.6181 1.4195 32.0472
#
#
#
# Elastic Compliance Matrix: (Units=1/GPa)
#
#
# Indices 1 2 3 4 5 6 
#
# 1 0.011406 -0.001901 -0.004302 0.006745 -0.001641 -0.002747
# 2 -0.001901 0.013601 -0.000372 -0.001480 -0.002888 -0.004116
# 3 -0.004302 -0.000372 0.014265 0.002539 0.000750 -0.001044
# 4 0.006745 -0.001480 0.002539 0.039937 -0.009723 -0.006987
# 5 -0.001641 -0.002888 0.000750 -0.009723 0.030778 0.001455
# 6 -0.002747 -0.004116 -0.001044 -0.006987 0.001455 0.034571
#
#
# Mechanical properties :
#
#
# Convention : Reuss Voigt Hill
#
# Bulk Modulus (GPa) = 38.28222 46.94667 42.61444
# Shear Modulus (GPa) = 30.04533 34.96011 32.50272
#
# Velocity S-wave (km/s) = 3.64067 3.92716 3.78662
# Velocity P-wave (km/s) = 5.87884 6.42448 6.15770
#
# Compressibility (1/GPa) = 0.02612179
#
# Stress axis : x y z
#
# Youngs Moduli (GPa) = 87.67333 73.52522 70.10062
#
# Poissons Ratio (x) = 0.13978 0.30155
# Poissons Ratio (y) = 0.16668 0.02610
# Poissons Ratio (z) = 0.37714 0.02737
#
# Static dielectric constant tensor:
#      x y z
#    x 4.236960 0.057060 -0.425450 
#    y 0.057060 4.196370 0.059900 
#    z -0.425450 0.059900 3.999530 
# 
# 
# High freq. dielectric constant tensor:
#      x y z
#    x 1.896640 0.020000 -0.012500 
#    y 0.020000 1.899550 0.018390 
#    z -0.012500 0.018390 1.898010 
# 
# From -- ./inp_files/244665.got.cif
#   From: 2010.06.25/outbox.cif.g09.slc.cpg/sg2_123_cif.got.tgz:244665.got - 2010.06.27 13:26:56.
