data_PCOD8028682
_publ_section_title
;
Structure prediction by ZEFSAII (Michael W. Deem and Ramdas Pophale) SiO2 
 PCOD8028682
Probable space group: P -1
;
_chemical_formula_sum "Si O2"
_cell_formula_units_Z 16
_cell_length_a 11.976403
_cell_length_b 11.229254
_cell_length_c 12.436249
_cell_angle_alpha 45.453114
_cell_angle_beta 33.169038
_cell_angle_gamma 53.876884
_cell_volume 652.119074
_symmetry_space_group_name_H-M "P -1"
_symmetry_group_IT_number 2
_symmetry_cell_setting 'triclinic'
loop_
_space_group_symop_operation_xyz
x,y,z
-x,-y,-z
loop_
_atom_site_type_symbol
_atom_site_label
_atom_site_fract_x
_atom_site_fract_y
_atom_site_fract_z
Si Si1 0.052920 0.685623 0.933798
Si Si2 0.324663 0.313785 0.494944
Si Si3 0.898594 0.982442 0.208215
Si Si4 0.563956 0.329520 0.503207
Si Si5 0.565699 0.622169 0.034108
Si Si6 0.209949 0.834413 0.221128
Si Si7 0.989196 0.544491 0.691379
Si Si8 0.343855 0.180031 0.947569
O O1 0.205821 0.647919 0.736896
O O2 0.163156 0.832199 0.821429
O O3 0.024277 0.518272 0.134409
O O4 0.839738 0.744500 0.022420
O O5 0.299490 0.137737 0.564641
O O6 0.400822 0.278512 0.575950
O O7 0.489030 0.433280 0.231742
O O8 0.095191 0.397706 0.628474
O O9 0.043327 0.900811 0.232408
O O10 0.000000 0.000000 0.000000
O O11 0.500000 0.500000 0.500000
O O12 0.544691 0.193251 0.700704
O O13 0.380791 0.740408 0.067951
O O14 0.638392 0.710343 0.029744
O O15 0.756026 0.600197 0.811666
O O16 0.126539 0.708165 0.459523
O O17 0.308299 0.982285 0.120647
#
# Coordination Sequence:
#
# PCOD8028682 Si02
#       8
#     2   2   2   2   2   2   2   2
#     4  11  24  41  71 107 133 186 228 279 346 394
#     4  11  22  41  67  98 133 181 220 281 340 387
#     4  11  23  49  74  95 137 177 232 292 332 406
#     4  12  23  40  69 106 140 173 229 284 338 401
#     4  11  24  41  67  99 141 181 225 276 344 410
#     4  10  26  44  67  97 134 186 222 281 347 400
#     4  11  22  42  64 100 140 175 229 272 344 408
#     4  11  23  43  67 100 141 182 229 284 333 401
#
# _framework density 24.535395999999999
#
# number of rings (size 3 to 8) (size 9 to 14) (size 15 to 20)
#    0.000    1.000    5.000    1.125    1.750    6.000 
#    0.000    3.750    0.000    0.000    0.000    0.000 
#    0.000    0.000    0.000    0.000    0.000    0.000 
#
# Total GULP energy -198283.658823 kJ/mol
# GULP energy per Si atom -12392.728676 kJ/mol
# Density = 2.447955 g / cm^3
# Si number density = 24.535396 Si / 1000 Ang^3
#
#
#
# Elastic Constant Matrix: (Units=GPa)
#
#
# Indices 1 2 3 4 5 6 
#
# 1 46.2223 -2.7189 5.7841 -21.7440 -3.0577 12.1752
# 2 -2.7189 57.5878 30.6732 -6.3914 11.5343 -4.4758
# 3 5.7841 30.6732 131.1934 -10.4773 10.2036 -7.7076
# 4 -21.7440 -6.3914 -10.4773 57.9441 0.6733 -9.5094
# 5 -3.0577 11.5343 10.2036 0.6733 24.5110 -6.6534
# 6 12.1752 -4.4758 -7.7076 -9.5094 -6.6534 32.3300
#
#
#
# Elastic Compliance Matrix: (Units=1/GPa)
#
#
# Indices 1 2 3 4 5 6 
#
# 1 0.028517 0.002500 -0.001606 0.009386 0.000652 -0.007881
# 2 0.002500 0.021731 -0.004336 0.002669 -0.008144 0.000142
# 3 -0.001606 -0.004336 0.009011 0.000916 -0.001355 0.002144
# 4 0.009386 0.002669 0.000916 0.021806 -0.000132 0.003440
# 5 0.000652 -0.008144 -0.001355 -0.000132 0.047460 0.008032
# 6 -0.007881 0.000142 0.002144 0.003440 0.008032 0.037095
#
#
# Mechanical properties :
#
#
# Convention : Reuss Voigt Hill
#
# Bulk Modulus (GPa) = 19.09290 33.60890 26.35090
# Shear Modulus (GPa) = 26.32113 36.37468 31.34791
#
# Velocity S-wave (km/s) = 3.27889 3.85455 3.57832
# Velocity P-wave (km/s) = 4.70462 5.79120 5.27596
#
# Compressibility (1/GPa) = 0.05237549
#
# Stress axis : x y z
#
# Youngs Moduli (GPa) = 35.06692 46.01775 110.97126
#
# Poissons Ratio (x) = -0.11506 0.17822
# Poissons Ratio (y) = -0.08768 0.48117
# Poissons Ratio (z) = 0.05632 0.19953
#
# Static dielectric constant tensor:
#      x y z
#    x 3.929630 -0.219170 -1.147240 
#    y -0.219170 4.798040 -0.428440 
#    z -1.147240 -0.428440 3.051020 
# 
# 
# High freq. dielectric constant tensor:
#      x y z
#    x 1.961780 -0.008480 -0.015310 
#    y -0.008480 1.978370 -0.012320 
#    z -0.015310 -0.012320 1.987410 
# 
# From -- ./inp_files/531623.got.cif
#   From: 2010.06.25/outbox.cif.g09.slc.cpg/sg2_266_cif.got.tgz:531623.got - 2010.06.27 13:26:56.
