data_PCOD8028046
_publ_section_title
;
Structure prediction by ZEFSAII (Michael W. Deem and Ramdas Pophale) SiO2 
 PCOD8028046
Probable space group: P -1
;
_chemical_formula_sum "Si O2"
_cell_formula_units_Z 14
_cell_length_a 8.621676
_cell_length_b 18.925161
_cell_length_c 5.264850
_cell_angle_alpha 80.979590
_cell_angle_beta 77.662784
_cell_angle_gamma 44.565711
_cell_volume 588.882920
_symmetry_space_group_name_H-M "P -1"
_symmetry_group_IT_number 2
_symmetry_cell_setting 'triclinic'
loop_
_space_group_symop_operation_xyz
x,y,z
-x,-y,-z
loop_
_atom_site_type_symbol
_atom_site_label
_atom_site_fract_x
_atom_site_fract_y
_atom_site_fract_z
Si Si1 0.750187 0.378278 0.609837
Si Si2 0.509608 0.133178 0.070297
Si Si3 0.638378 0.344813 0.176255
Si Si4 0.678570 0.654692 0.969832
Si Si5 0.875533 0.489897 0.358477
Si Si6 0.214900 0.981442 0.460279
Si Si7 0.915580 0.819836 0.656981
O O1 0.591042 0.409497 0.404596
O O2 0.788111 0.450544 0.567491
O O3 0.987222 0.261112 0.558648
O O4 0.629684 0.396661 0.901541
O O5 0.450825 0.233445 0.963726
O O6 0.292207 0.152514 0.151518
O O7 0.634368 0.094088 0.318828
O O8 0.658399 0.057059 0.831186
O O9 0.449793 0.342624 0.224440
O O10 0.885457 0.231102 0.177896
O O11 0.934798 0.595917 0.859931
O O12 0.676673 0.597053 0.230535
O O13 0.000000 0.500000 0.500000
O O14 0.150159 0.083247 0.492830
O O15 0.000000 0.000000 0.500000
#
# Coordination Sequence:
#
# PCOD8028046 Si02
#       7
#     2   2   2   2   2   2   2
#     4  10  25  45  70 102 140 187 226 299 338 429
#     4  12  27  44  75 101 144 186 236 287 354 419
#     4  10  25  42  74  97 148 177 239 284 358 403
#     4  11  26  46  68 108 137 192 234 298 352 417
#     4  11  27  45  75  99 147 184 244 288 356 427
#     4  12  28  45  73 106 143 183 237 290 353 417
#     4  10  25  45  71 103 144 182 240 281 358 414
#
# _framework density 23.773826
#
# number of rings (size 3 to 8) (size 9 to 14) (size 15 to 20)
#    0.857    0.286    1.429    2.143   16.000    1.143 
#    0.000    0.000    0.000    0.000    0.000    0.000 
#    0.000    0.000    0.000    0.000    0.000    0.000 
#
# Total GULP energy -173595.158617 kJ/mol
# GULP energy per Si atom -12399.654187 kJ/mol
# Density = 2.371972 g / cm^3
# Si number density = 23.773826 Si / 1000 Ang^3
#
#
#
# Elastic Constant Matrix: (Units=GPa)
#
#
# Indices 1 2 3 4 5 6 
#
# 1 123.7635 58.1986 19.5318 -8.6854 -5.5137 -11.6845
# 2 58.1986 113.2354 30.7033 -25.4019 -2.2565 21.3172
# 3 19.5318 30.7033 118.4453 -6.5860 -2.2797 -8.3568
# 4 -8.6854 -25.4019 -6.5860 34.3745 -1.0170 -1.2498
# 5 -5.5137 -2.2565 -2.2797 -1.0170 44.6898 -2.0592
# 6 -11.6845 21.3172 -8.3568 -1.2498 -2.0592 43.7715
#
#
#
# Elastic Compliance Matrix: (Units=1/GPa)
#
#
# Indices 1 2 3 4 5 6 
#
# 1 0.012700 -0.008751 0.000592 -0.002820 0.001448 0.007753
# 2 -0.008751 0.018983 -0.003746 0.010644 -0.000624 -0.012022
# 3 0.000592 -0.003746 0.009560 -0.000632 0.000533 0.003815
# 4 -0.002820 0.010644 -0.000632 0.035963 0.000746 -0.004995
# 5 0.001448 -0.000624 0.000533 0.000746 0.022654 0.001879
# 6 0.007753 -0.012022 0.003815 -0.004995 0.001879 0.031444
#
#
# Mechanical properties :
#
#
# Convention : Reuss Voigt Hill
#
# Bulk Modulus (GPa) = 57.36046 63.59017 60.47532
# Shear Modulus (GPa) = 31.07002 41.03454 36.05228
#
# Velocity S-wave (km/s) = 3.61903 4.15907 3.89841
# Velocity P-wave (km/s) = 6.45315 7.06186 6.76435
#
# Compressibility (1/GPa) = 0.01743361
#
# Stress axis : x y z
#
# Youngs Moduli (GPa) = 78.73882 52.67862 104.59892
#
# Poissons Ratio (x) = 0.46100 -0.06195
# Poissons Ratio (y) = 0.68906 0.39183
# Poissons Ratio (z) = -0.04664 0.19734
#
# Static dielectric constant tensor:
#      x y z
#    x 4.663180 -0.362110 -0.148940 
#    y -0.362110 4.531230 0.071070 
#    z -0.148940 0.071070 4.232810 
# 
# 
# High freq. dielectric constant tensor:
#      x y z
#    x 1.956680 -0.008220 -0.006900 
#    y -0.008220 1.953120 -0.002300 
#    z -0.006900 -0.002300 1.938510 
# 
# From -- ./inp_files/47409.got.cif
#   From: 2010.06.25/outbox.cif.g09.slc.cpg/sg2_24_cif.got.tgz:47409.got - 2010.06.27 13:26:56.
