data_PCOD8028987
_publ_section_title
;
Structure prediction by ZEFSAII (Michael W. Deem and Ramdas Pophale) SiO2 
 PCOD8028987
Probable space group: P -1
;
_chemical_formula_sum "Si O2"
_cell_formula_units_Z 14
_cell_length_a 11.459954
_cell_length_b 7.886149
_cell_length_c 9.479094
_cell_angle_alpha 77.349134
_cell_angle_beta 91.282288
_cell_angle_gamma 131.429214
_cell_volume 617.862479
_symmetry_space_group_name_H-M "P -1"
_symmetry_group_IT_number 2
_symmetry_cell_setting 'triclinic'
loop_
_space_group_symop_operation_xyz
x,y,z
-x,-y,-z
loop_
_atom_site_type_symbol
_atom_site_label
_atom_site_fract_x
_atom_site_fract_y
_atom_site_fract_z
Si Si1 0.260591 0.031708 0.591009
Si Si2 0.491551 0.167961 0.209156
Si Si3 0.284458 0.682033 0.577326
Si Si4 0.417844 0.716608 0.294895
Si Si5 0.266291 0.237693 0.277411
Si Si6 0.033744 0.916429 0.837922
Si Si7 0.177123 0.380800 0.878966
O O1 0.239829 0.838329 0.532683
O O2 0.288528 0.600357 0.438709
O O3 0.114365 0.889383 0.721266
O O4 0.256067 0.186515 0.453638
O O5 0.540943 0.168532 0.372929
O O6 0.357052 0.178984 0.203448
O O7 0.647591 0.402100 0.093790
O O8 0.437107 0.927786 0.184160
O O9 0.153025 0.462783 0.716799
O O10 0.417337 0.191650 0.659764
O O11 0.354313 0.513087 0.217567
O O12 0.096219 0.082833 0.230325
O O13 0.162792 0.162111 0.879669
O O14 0.951146 0.702654 0.987877
#
# Coordination Sequence:
#
# PCOD8028987 Si02
#       7
#     2   2   2   2   2   2   2
#     4  11  19  37  61  86 120 149 191 237 288 348
#     4   9  19  39  61  86 110 153 199 233 281 336
#     4   9  18  37  65  82 109 152 202 234 271 346
#     4  11  19  37  64  91 112 150 195 239 290 335
#     4  12  22  35  61  93 121 142 187 253 290 337
#     4  11  24  38  55  87 118 156 193 230 298 344
#     4   9  21  43  59  75 114 163 201 228 274 358
#
# _framework density 22.658761999999999
#
# number of rings (size 3 to 8) (size 9 to 14) (size 15 to 20)
#    0.857    0.857    2.857    3.429    0.000    1.143 
#    2.571    2.143    0.000    0.000    0.000    0.000 
#    0.000    0.000    0.000    0.000    0.000    0.000 
#
# Total GULP energy -173499.028419 kJ/mol
# GULP energy per Si atom -12392.787744 kJ/mol
# Density = 2.260719 g / cm^3
# Si number density = 22.658762 Si / 1000 Ang^3
#
#
#
# Elastic Constant Matrix: (Units=GPa)
#
#
# Indices 1 2 3 4 5 6 
#
# 1 85.3421 45.3063 35.9942 -13.4889 -10.1183 -6.2960
# 2 45.3063 91.8338 39.5323 -28.1090 -5.0662 -15.0057
# 3 35.9942 39.5323 62.8236 -19.7809 -16.9532 6.9477
# 4 -13.4889 -28.1090 -19.7809 21.2146 9.9595 -5.1297
# 5 -10.1183 -5.0662 -16.9532 9.9595 23.2220 -6.2601
# 6 -6.2960 -15.0057 6.9477 -5.1297 -6.2601 22.3680
#
#
#
# Elastic Compliance Matrix: (Units=1/GPa)
#
#
# Indices 1 2 3 4 5 6 
#
# 1 0.018188 -0.007295 -0.006722 -0.005987 0.004594 0.002226
# 2 -0.007295 0.044767 -0.014825 0.059559 -0.018726 0.041002
# 3 -0.006722 -0.014825 0.034097 -0.003897 0.015265 -0.019050
# 4 -0.005987 0.059559 -0.003897 0.153187 -0.041150 0.063095
# 5 0.004594 -0.018726 0.015265 -0.041150 0.068046 -0.006404
# 6 0.002226 0.041002 -0.019050 0.063095 -0.006404 0.091434
#
#
# Mechanical properties :
#
#
# Convention : Reuss Voigt Hill
#
# Bulk Modulus (GPa) = 25.40136 53.51834 39.45985
# Shear Modulus (GPa) = 10.40532 21.30537 15.85534
#
# Velocity S-wave (km/s) = 2.14526 3.06971 2.64814
# Velocity P-wave (km/s) = 4.16784 6.01953 5.17714
#
# Compressibility (1/GPa) = 0.03936798
#
# Stress axis : x y z
#
# Youngs Moduli (GPa) = 54.98189 22.33794 29.32847
#
# Poissons Ratio (x) = 0.16295 0.19714
# Poissons Ratio (y) = 0.40108 0.43480
# Poissons Ratio (z) = 0.36958 0.33116
#
# Static dielectric constant tensor:
#      x y z
#    x 3.785280 -0.012640 -0.234510 
#    y -0.012640 3.952980 -0.304150 
#    z -0.234510 -0.304150 3.901310 
# 
# 
# High freq. dielectric constant tensor:
#      x y z
#    x 1.867900 -0.005590 -0.019420 
#    y -0.005590 1.888120 -0.020320 
#    z -0.019420 -0.020320 1.883110 
# 
# From -- ./inp_files/410282.got.cif
#   From: 2010.06.25/outbox.cif.g09.slc.cpg/sg2_206_cif.got.tgz:410282.got - 2010.06.27 13:26:56.
