data_PCOD8028597
_publ_section_title
;
Structure prediction by ZEFSAII (Michael W. Deem and Ramdas Pophale) SiO2 
 PCOD8028597
Probable space group: P -1
;
_chemical_formula_sum "Si O2"
_cell_formula_units_Z 16
_cell_length_a 13.674221
_cell_length_b 8.671594
_cell_length_c 10.439249
_cell_angle_alpha 94.054938
_cell_angle_beta 34.310782
_cell_angle_gamma 104.297811
_cell_volume 655.709068
_symmetry_space_group_name_H-M "P -1"
_symmetry_group_IT_number 2
_symmetry_cell_setting 'triclinic'
loop_
_space_group_symop_operation_xyz
x,y,z
-x,-y,-z
loop_
_atom_site_type_symbol
_atom_site_label
_atom_site_fract_x
_atom_site_fract_y
_atom_site_fract_z
Si Si1 0.850321 0.079918 0.140306
Si Si2 0.555841 0.748979 0.388948
Si Si3 0.327102 0.828519 0.437816
Si Si4 0.506787 0.872246 0.877751
Si Si5 0.327597 0.524448 0.836829
Si Si6 0.653017 0.599588 0.677815
Si Si7 0.207935 0.609333 0.312596
Si Si8 0.000311 0.401464 0.862503
O O1 0.834399 0.176834 0.290774
O O2 0.657304 0.940825 0.310692
O O3 0.909426 0.206564 0.967417
O O4 0.000000 0.000000 0.000000
O O5 0.447448 0.730666 0.369832
O O6 0.419522 0.678521 0.651370
O O7 0.696283 0.645855 0.222542
O O8 0.222416 0.735065 0.420816
O O9 0.454137 0.018799 0.286355
O O10 0.669122 0.788355 0.709093
O O11 0.309493 0.722006 0.087381
O O12 0.500000 0.000000 0.000000
O O13 0.452078 0.528491 0.825976
O O14 0.127582 0.534021 0.091754
O O15 0.673474 0.506998 0.781088
O O16 0.803417 0.575180 0.413460
O O17 0.000000 0.500000 0.500000
O O18 0.000000 0.500000 0.000000
#
# Coordination Sequence:
#
# PCOD8028597 Si02
#       8
#     2   2   2   2   2   2   2   2
#     4  12  24  40  64 110 157 187 236 289 362 462
#     4  11  22  41  67 104 150 196 231 286 363 466
#     4  11  22  46  71 105 145 199 235 300 378 435
#     4  10  25  48  74 100 139 190 255 316 368 429
#     4  11  23  42  69 105 149 190 239 282 367 456
#     4  12  25  47  75 106 145 197 239 306 382 428
#     4  11  26  49  76 105 136 189 268 322 365 427
#     4  12  25  42  70 112 154 191 238 293 358 470
#
# _framework density 24.401064999999999
#
# number of rings (size 3 to 8) (size 9 to 14) (size 15 to 20)
#    0.000    0.750    2.500    6.000    3.500    0.000 
#    0.000    2.500    0.000    0.000    0.000    0.000 
#    0.000    0.000    0.000    0.000    0.000    0.000 
#
# Total GULP energy -198220.199835 kJ/mol
# GULP energy per Si atom -12388.762490 kJ/mol
# Density = 2.434553 g / cm^3
# Si number density = 24.401065 Si / 1000 Ang^3
#
#
#
# Elastic Constant Matrix: (Units=GPa)
#
#
# Indices 1 2 3 4 5 6 
#
# 1 96.2179 25.9888 25.1085 -7.6828 -23.9257 -11.1904
# 2 25.9888 131.2567 43.9106 2.1443 -16.9876 -14.6371
# 3 25.1085 43.9106 97.3058 3.1708 -19.8916 -3.8023
# 4 -7.6828 2.1443 3.1708 68.3057 -13.2923 3.9134
# 5 -23.9257 -16.9876 -19.8916 -13.2923 35.4976 0.2795
# 6 -11.1904 -14.6371 -3.8023 3.9134 0.2795 44.2480
#
#
#
# Elastic Compliance Matrix: (Units=1/GPa)
#
#
# Indices 1 2 3 4 5 6 
#
# 1 0.013898 -0.000847 -0.001267 0.003334 0.009479 0.002771
# 2 -0.000847 0.009530 -0.003578 0.000004 0.001966 0.002618
# 3 -0.001267 -0.003578 0.013206 0.000348 0.004968 -0.000431
# 4 0.003334 0.000004 0.000348 0.016733 0.008716 -0.000660
# 5 0.009479 0.001966 0.004968 0.008716 0.041529 0.002441
# 6 0.002771 0.002618 -0.000431 -0.000660 0.002441 0.024173
#
#
# Mechanical properties :
#
#
# Convention : Reuss Voigt Hill
#
# Bulk Modulus (GPa) = 39.60294 57.19956 48.40125
# Shear Modulus (GPa) = 36.00577 44.92842 40.46710
#
# Velocity S-wave (km/s) = 3.84550 4.29563 4.07678
# Velocity P-wave (km/s) = 5.99853 6.93510 6.48375
#
# Compressibility (1/GPa) = 0.02525065
#
# Stress axis : x y z
#
# Youngs Moduli (GPa) = 71.95307 104.93705 75.72528
#
# Poissons Ratio (x) = 0.08885 0.09592
# Poissons Ratio (y) = 0.06092 0.27093
# Poissons Ratio (z) = 0.09115 0.37545
#
# Static dielectric constant tensor:
#      x y z
#    x 4.399730 0.032660 0.079740 
#    y 0.032660 5.737680 -0.181200 
#    z 0.079740 -0.181200 4.667570 
# 
# 
# High freq. dielectric constant tensor:
#      x y z
#    x 1.953130 -0.008250 0.010350 
#    y -0.008250 2.002080 0.007800 
#    z 0.010350 0.007800 1.972150 
# 
# From -- ./inp_files/447464.got.cif
#   From: 2010.06.25/outbox.cif.g09.slc.cpg/sg2_224_cif.got.tgz:447464.got - 2010.06.27 13:26:56.
