data_PCOD8028101
_publ_section_title
;
Structure prediction by ZEFSAII (Michael W. Deem and Ramdas Pophale) SiO2 
 PCOD8028101
Probable space group: P -1
;
_chemical_formula_sum "Si O2"
_cell_formula_units_Z 14
_cell_length_a 6.721870
_cell_length_b 10.776555
_cell_length_c 11.420716
_cell_angle_alpha 50.546876
_cell_angle_beta 95.158365
_cell_angle_gamma 82.943694
_cell_volume 618.540072
_symmetry_space_group_name_H-M "P -1"
_symmetry_group_IT_number 2
_symmetry_cell_setting 'triclinic'
loop_
_space_group_symop_operation_xyz
x,y,z
-x,-y,-z
loop_
_atom_site_type_symbol
_atom_site_label
_atom_site_fract_x
_atom_site_fract_y
_atom_site_fract_z
Si Si1 0.964556 0.829522 0.652991
Si Si2 0.636180 0.817282 0.105664
Si Si3 0.707982 0.612522 0.645939
Si Si4 0.043050 0.640809 0.334239
Si Si5 0.579025 0.349335 0.180877
Si Si6 0.570476 0.249612 0.657358
Si Si7 0.654015 0.876722 0.813766
O O1 0.177362 0.692884 0.760621
O O2 0.817634 0.759074 0.599145
O O3 0.861724 0.853187 0.762362
O O4 0.000000 0.000000 0.500000
O O5 0.500759 0.711364 0.233643
O O6 0.848716 0.790407 0.205422
O O7 0.686854 0.769802 0.000964
O O8 0.500000 0.000000 0.000000
O O9 0.877799 0.441862 0.737958
O O10 0.535750 0.592733 0.739619
O O11 0.597399 0.633414 0.501508
O O12 0.202324 0.724485 0.360716
O O13 0.000000 0.500000 0.500000
O O14 0.519877 0.183195 0.232424
O O15 0.500000 0.500000 0.000000
O O16 0.568645 0.066332 0.725623
#
# Coordination Sequence:
#
# PCOD8028101 Si02
#       7
#     2   2   2   2   2   2   2
#     4  11  25  45  73  97 133 185 228 279 334 401
#     4  10  25  45  67 100 141 175 226 274 343 408
#     4  11  26  43  69 103 138 173 234 274 343 403
#     4  12  27  41  72 105 134 181 228 278 343 400
#     4  11  27  43  70  99 138 178 222 288 338 392
#     4  11  24  45  70 100 140 178 224 285 336 404
#     4  10  25  43  69  99 135 178 231 270 341 405
#
# _framework density 22.633941
#
# number of rings (size 3 to 8) (size 9 to 14) (size 15 to 20)
#    0.000    1.143    1.429    2.143   10.000    8.000 
#    0.000    0.000    0.000    0.000    0.000    0.000 
#    0.000    0.000    0.000    0.000    0.000    0.000 
#
# Total GULP energy -173530.988814 kJ/mol
# GULP energy per Si atom -12395.070630 kJ/mol
# Density = 2.258242 g / cm^3
# Si number density = 22.633941 Si / 1000 Ang^3
#
#
#
# Elastic Constant Matrix: (Units=GPa)
#
#
# Indices 1 2 3 4 5 6 
#
# 1 147.1002 31.1578 64.8840 10.7645 3.4397 -14.4724
# 2 31.1578 77.1957 25.5193 8.8309 -4.3885 -12.5577
# 3 64.8840 25.5193 131.2056 14.9722 -0.3955 -16.2932
# 4 10.7645 8.8309 14.9722 36.2644 -11.4390 -1.9533
# 5 3.4397 -4.3885 -0.3955 -11.4390 47.4932 4.0081
# 6 -14.4724 -12.5577 -16.2932 -1.9533 4.0081 40.0785
#
#
#
# Elastic Compliance Matrix: (Units=1/GPa)
#
#
# Indices 1 2 3 4 5 6 
#
# 1 0.009178 -0.002207 -0.003869 -0.000912 -0.001216 0.001127
# 2 -0.002207 0.015052 -0.001189 -0.002104 0.000759 0.003257
# 3 -0.003869 -0.001189 0.010394 -0.002930 -0.000649 0.002378
# 4 -0.000912 -0.002104 -0.002930 0.031906 0.007649 -0.001390
# 5 -0.001216 0.000759 -0.000649 0.007649 0.023255 -0.002418
# 6 0.001127 0.003257 0.002378 -0.001390 -0.002418 0.027519
#
#
# Mechanical properties :
#
#
# Convention : Reuss Voigt Hill
#
# Bulk Modulus (GPa) = 49.76796 66.51375 58.14086
# Shear Modulus (GPa) = 36.09252 40.36326 38.22789
#
# Velocity S-wave (km/s) = 3.99760 4.22750 4.11416
# Velocity P-wave (km/s) = 6.58359 7.29929 6.95066
#
# Compressibility (1/GPa) = 0.02009325
#
# Stress axis : x y z
#
# Youngs Moduli (GPa) = 108.95307 66.43754 96.20917
#
# Poissons Ratio (x) = 0.14662 0.37225
# Poissons Ratio (y) = 0.24045 0.11442
# Poissons Ratio (z) = 0.42156 0.07901
#
# Static dielectric constant tensor:
#      x y z
#    x 3.973670 -0.333670 0.179600 
#    y -0.333670 4.080340 0.380340 
#    z 0.179600 0.380340 3.844830 
# 
# 
# High freq. dielectric constant tensor:
#      x y z
#    x 1.908010 -0.010820 -0.008010 
#    y -0.010820 1.894740 0.004960 
#    z -0.008010 0.004960 1.897170 
# 
# From -- ./inp_files/71149.got.cif
#   From: 2010.06.25/outbox.cif.g09.slc.cpg/sg2_36_cif.got.tgz:71149.got - 2010.06.27 13:26:56.
