data_PCOD8028928
_publ_section_title
;
Structure prediction by ZEFSAII (Michael W. Deem and Ramdas Pophale) SiO2 
 PCOD8028928
Probable space group: P -1
;
_chemical_formula_sum "Si O2"
_cell_formula_units_Z 16
_cell_length_a 13.289723
_cell_length_b 11.438741
_cell_length_c 11.666455
_cell_angle_alpha 64.377039
_cell_angle_beta 116.703306
_cell_angle_gamma 61.722111
_cell_volume 798.062611
_symmetry_space_group_name_H-M "P -1"
_symmetry_group_IT_number 2
_symmetry_cell_setting 'triclinic'
loop_
_space_group_symop_operation_xyz
x,y,z
-x,-y,-z
loop_
_atom_site_type_symbol
_atom_site_label
_atom_site_fract_x
_atom_site_fract_y
_atom_site_fract_z
Si Si1 0.959245 0.571894 0.752469
Si Si2 0.696912 0.862717 0.295082
Si Si3 0.594791 0.783596 0.586638
Si Si4 0.215740 0.090638 0.127181
Si Si5 0.914617 0.325593 0.062208
Si Si6 0.815487 0.229734 0.238056
Si Si7 0.596862 0.078924 0.930059
Si Si8 0.500539 0.692476 0.002546
O O1 0.912072 0.655246 0.560373
O O2 0.772345 0.657810 0.647772
O O3 0.961865 0.692308 0.786807
O O4 0.161860 0.294982 0.993388
O O5 0.571465 0.849083 0.249412
O O6 0.564077 0.109789 0.174441
O O7 0.732622 0.859722 0.179218
O O8 0.500000 0.000000 0.500000
O O9 0.421803 0.872487 0.393650
O O10 0.690668 0.594101 0.809322
O O11 0.039300 0.185617 0.066693
O O12 0.256750 0.996677 0.059272
O O13 0.893313 0.209347 0.164729
O O14 0.662118 0.261297 0.126095
O O15 0.715623 0.443580 0.167921
O O16 0.000000 0.000000 0.500000
O O17 0.488766 0.294920 0.858862
#
# Coordination Sequence:
#
# PCOD8028928 Si02
#       8
#     2   2   2   2   2   2   2   2
#     4  11  20  31  54  94 125 160 200 242 302 361
#     4   9  19  36  61  92 121 159 202 246 309 359
#     4  11  19  34  54  83 130 165 189 247 301 369
#     4  11  21  36  55  91 133 156 196 240 305 381
#     4  11  24  34  59  94 122 161 204 248 312 353
#     4  11  24  43  65  88 116 158 216 261 294 348
#     4   9  20  38  61  91 124 165 198 241 316 373
#     4   9  22  43  60  85 120 157 205 258 295 356
#
# _framework density 20.048552000000001
#
# number of rings (size 3 to 8) (size 9 to 14) (size 15 to 20)
#    0.750    1.000    3.750    1.500    3.500    2.500 
#    2.250    0.625    0.000    1.500    0.000    0.000 
#    0.000    0.000    0.000    0.000    0.000    0.000 
#
# Total GULP energy -198255.719685 kJ/mol
# GULP energy per Si atom -12390.982480 kJ/mol
# Density = 2.000292 g / cm^3
# Si number density = 20.048552 Si / 1000 Ang^3
#
#
#
# Elastic Constant Matrix: (Units=GPa)
#
#
# Indices 1 2 3 4 5 6 
#
# 1 66.8881 34.1421 35.2635 -1.7478 -6.5918 -16.4182
# 2 34.1421 92.4187 23.9536 2.6453 0.1333 -12.3178
# 3 35.2635 23.9536 135.9276 2.1117 -11.2620 -6.0520
# 4 -1.7478 2.6453 2.1117 21.9343 -4.8572 -4.2878
# 5 -6.5918 0.1333 -11.2620 -4.8572 22.6454 4.0170
# 6 -16.4182 -12.3178 -6.0520 -4.2878 4.0170 33.1384
#
#
#
# Elastic Compliance Matrix: (Units=1/GPa)
#
#
# Indices 1 2 3 4 5 6 
#
# 1 0.023149 -0.006499 -0.004206 0.005665 0.004395 0.008485
# 2 -0.006499 0.013769 -0.000892 -0.002461 -0.003266 0.001813
# 3 -0.004206 -0.000892 0.008829 -0.000603 0.003269 -0.001278
# 4 0.005665 -0.002461 -0.000603 0.050168 0.010891 0.006953
# 5 0.004395 -0.003266 0.003269 0.010891 0.049967 -0.003088
# 6 0.008485 0.001813 -0.001278 0.006953 -0.003088 0.036095
#
#
# Mechanical properties :
#
#
# Convention : Reuss Voigt Hill
#
# Bulk Modulus (GPa) = 44.34220 53.55031 48.94626
# Shear Modulus (GPa) = 23.50845 29.00196 26.25520
#
# Velocity S-wave (km/s) = 3.42800 3.80753 3.62274
# Velocity P-wave (km/s) = 6.15091 6.78955 6.47811
#
# Compressibility (1/GPa) = 0.02255188
#
# Stress axis : x y z
#
# Youngs Moduli (GPa) = 43.19767 72.62522 113.26802
#
# Poissons Ratio (x) = 0.47202 0.47645
# Poissons Ratio (y) = 0.28076 0.10104
# Poissons Ratio (z) = 0.18171 0.06478
#
# Static dielectric constant tensor:
#      x y z
#    x 3.491820 -0.211370 0.028460 
#    y -0.211370 3.577610 -0.012200 
#    z 0.028460 -0.012200 4.213140 
# 
# 
# High freq. dielectric constant tensor:
#      x y z
#    x 1.759340 -0.020500 -0.003240 
#    y -0.020500 1.760570 0.007760 
#    z -0.003240 0.007760 1.786480 
# 
# From -- ./inp_files/450017.got.cif
#   From: 2010.06.25/outbox.cif.g09.slc.cpg/sg2_226_cif.got.tgz:450017.got - 2010.06.27 13:26:56.
