data_PCOD8028412
_publ_section_title
;
Structure prediction by ZEFSAII (Michael W. Deem and Ramdas Pophale) SiO2 
 PCOD8028412
Probable space group: P -1
;
_chemical_formula_sum "Si O2"
_cell_formula_units_Z 14
_cell_length_a 12.116282
_cell_length_b 14.882213
_cell_length_c 8.477008
_cell_angle_alpha 119.767044
_cell_angle_beta 31.260930
_cell_angle_gamma 131.126908
_cell_volume 588.980576
_symmetry_space_group_name_H-M "P -1"
_symmetry_group_IT_number 2
_symmetry_cell_setting 'triclinic'
loop_
_space_group_symop_operation_xyz
x,y,z
-x,-y,-z
loop_
_atom_site_type_symbol
_atom_site_label
_atom_site_fract_x
_atom_site_fract_y
_atom_site_fract_z
Si Si1 0.124708 0.138871 0.940573
Si Si2 0.748260 0.336976 0.981532
Si Si3 0.892090 0.553639 0.800169
Si Si4 0.154178 0.310095 0.279918
Si Si5 0.873185 0.085244 0.886950
Si Si6 0.690132 0.255127 0.322038
Si Si7 0.713216 0.826712 0.785337
O O1 0.418994 0.214958 0.681469
O O2 0.077978 0.158467 0.834652
O O3 0.996960 0.185112 0.262737
O O4 0.000000 0.000000 0.000000
O O5 0.737538 0.453727 0.035740
O O6 0.986302 0.337701 0.621633
O O7 0.761459 0.342656 0.159029
O O8 0.500385 0.216250 0.121304
O O9 0.725123 0.588962 0.922826
O O10 0.000000 0.500000 0.500000
O O11 0.114193 0.673830 0.716031
O O12 0.344951 0.288572 0.132976
O O13 0.015556 0.122798 0.578989
O O14 0.726787 0.939220 0.962256
O O15 0.682760 0.133002 0.169548
#
# Coordination Sequence:
#
# PCOD8028412 Si02
#       7
#     2   2   2   2   2   2   2
#     4  12  26  42  67 105 138 180 226 278 346 408
#     4  11  25  46  71  98 136 187 230 276 336 407
#     4  10  25  46  69 102 136 177 233 288 340 390
#     4  11  24  43  66 100 140 169 232 282 336 393
#     4  11  24  43  68 105 140 176 229 275 343 417
#     4  12  25  47  71  98 143 181 225 284 338 405
#     4  11  24  42  71 104 137 181 225 277 343 410
#
# _framework density 23.769881000000002
#
# number of rings (size 3 to 8) (size 9 to 14) (size 15 to 20)
#    0.000    0.857    5.714    0.429    6.000    1.714 
#    2.571    1.429    0.000    0.000    0.000    0.000 
#    0.000    0.000    0.000    0.000    0.000    0.000 
#
# Total GULP energy -173489.047376 kJ/mol
# GULP energy per Si atom -12392.074813 kJ/mol
# Density = 2.371578 g / cm^3
# Si number density = 23.769881 Si / 1000 Ang^3
#
#
#
# Elastic Constant Matrix: (Units=GPa)
#
#
# Indices 1 2 3 4 5 6 
#
# 1 117.2407 13.7975 12.2398 4.9086 6.2429 -15.9819
# 2 13.7975 77.3285 11.4915 13.5727 3.1380 -19.0081
# 3 12.2398 11.4915 49.2147 -1.5220 9.8321 -5.9346
# 4 4.9086 13.5727 -1.5220 24.7334 3.3805 -0.4497
# 5 6.2429 3.1380 9.8321 3.3805 30.5541 0.2340
# 6 -15.9819 -19.0081 -5.9346 -0.4497 0.2340 51.8207
#
#
#
# Elastic Compliance Matrix: (Units=1/GPa)
#
#
# Indices 1 2 3 4 5 6 
#
# 1 0.009222 -0.000483 -0.001701 -0.001469 -0.001144 0.002465
# 2 -0.000483 0.016437 -0.003445 -0.009104 0.000485 0.005404
# 3 -0.001701 -0.003445 0.023266 0.004676 -0.007310 0.000950
# 4 -0.001469 -0.009104 0.004676 0.046695 -0.005414 -0.002827
# 5 -0.001144 0.000485 -0.007310 -0.005414 0.035873 -0.001221
# 6 0.002465 0.005404 0.000950 -0.002827 -0.001221 0.022130
#
#
# Mechanical properties :
#
#
# Convention : Reuss Voigt Hill
#
# Bulk Modulus (GPa) = 26.54691 35.42684 30.98687
# Shear Modulus (GPa) = 28.17939 35.17198 31.67569
#
# Velocity S-wave (km/s) = 3.44686 3.85084 3.65444
# Velocity P-wave (km/s) = 5.19939 5.89139 5.55617
#
# Compressibility (1/GPa) = 0.03766917
#
# Stress axis : x y z
#
# Youngs Moduli (GPa) = 108.43398 60.83998 42.98129
#
# Poissons Ratio (x) = 0.02936 0.07309
# Poissons Ratio (y) = 0.05234 0.14805
# Poissons Ratio (z) = 0.18440 0.20957
#
# Static dielectric constant tensor:
#      x y z
#    x 4.824930 -0.288920 0.087300 
#    y -0.288920 4.970190 0.149840 
#    z 0.087300 0.149840 3.857100 
# 
# 
# High freq. dielectric constant tensor:
#      x y z
#    x 1.963290 -0.010780 0.015780 
#    y -0.010780 1.948380 0.021710 
#    z 0.015780 0.021710 1.906980 
# 
# From -- ./inp_files/53693.got.cif
#   From: 2010.06.25/outbox.cif.g09.slc.cpg/sg2_27_cif.got.tgz:53693.got - 2010.06.27 13:26:56.
