data_PCOD8028044
_publ_section_title
;
Structure prediction by ZEFSAII (Michael W. Deem and Ramdas Pophale) SiO2 
 PCOD8028044
Probable space group: P -1
;
_chemical_formula_sum "Si O2"
_cell_formula_units_Z 16
_cell_length_a 17.591159
_cell_length_b 5.117778
_cell_length_c 10.089144
_cell_angle_alpha 64.446507
_cell_angle_beta 113.215599
_cell_angle_gamma 123.862699
_cell_volume 665.952890
_symmetry_space_group_name_H-M "P -1"
_symmetry_group_IT_number 2
_symmetry_cell_setting 'triclinic'
loop_
_space_group_symop_operation_xyz
x,y,z
-x,-y,-z
loop_
_atom_site_type_symbol
_atom_site_label
_atom_site_fract_x
_atom_site_fract_y
_atom_site_fract_z
Si Si1 0.574757 0.344315 0.414934
Si Si2 0.855430 0.267379 0.693090
Si Si3 0.453537 0.021692 0.776025
Si Si4 0.815589 0.759192 0.976116
Si Si5 0.639406 0.127515 0.981500
Si Si6 0.215724 0.064522 0.818111
Si Si7 0.777824 0.756972 0.521046
Si Si8 0.963635 0.585929 0.091111
O O1 0.536587 0.612840 0.315738
O O2 0.669003 0.510574 0.531168
O O3 0.500000 0.000000 0.500000
O O4 0.604145 0.237574 0.320884
O O5 0.843329 0.589567 0.626138
O O6 0.966030 0.371254 0.749662
O O7 0.807031 0.063313 0.838388
O O8 0.810991 0.070077 0.570660
O O9 0.400077 0.839243 0.910782
O O10 0.556443 0.038675 0.838632
O O11 0.727774 0.453477 0.919106
O O12 0.809119 0.726070 0.139159
O O13 0.924117 0.853503 0.985677
O O14 0.678908 0.867011 0.084471
O O15 0.212138 0.143248 0.646692
O O16 0.138833 0.690757 0.870966
O O17 0.000000 0.500000 0.000000
#
# Coordination Sequence:
#
# PCOD8028044 Si02
#       8
#     2   2   2   2   2   2   2   2
#     4  12  27  46  72 100 151 193 235 295 373 435
#     4  12  28  46  74 106 147 189 244 299 359 447
#     4  11  25  46  73 105 141 184 253 305 351 432
#     4  11  25  44  79 102 147 191 249 302 368 426
#     4  10  25  42  73 106 137 187 249 308 357 423
#     4  11  25  46  76 103 152 193 241 305 369 434
#     4  12  29  48  70 108 154 190 239 298 377 434
#     4  11  24  48  75 111 143 190 247 308 366 426
#
# _framework density 24.025725999999999
#
# number of rings (size 3 to 8) (size 9 to 14) (size 15 to 20)
#    0.000    0.750    2.500    3.000   12.250    2.000 
#    0.000    0.000    0.000    0.000    0.000    0.000 
#    0.000    0.000    0.000    0.000    0.000    0.000 
#
# Total GULP energy -198268.352055 kJ/mol
# GULP energy per Si atom -12391.772003 kJ/mol
# Density = 2.397104 g / cm^3
# Si number density = 24.025726 Si / 1000 Ang^3
#
#
#
# Elastic Constant Matrix: (Units=GPa)
#
#
# Indices 1 2 3 4 5 6 
#
# 1 123.6311 24.5078 36.5220 7.9504 24.1039 7.5509
# 2 24.5078 51.4677 23.1616 12.6152 11.0235 -5.9909
# 3 36.5220 23.1616 88.1931 1.2540 12.1419 -5.3216
# 4 7.9504 12.6152 1.2540 45.2522 -4.8126 3.3713
# 5 24.1039 11.0235 12.1419 -4.8126 48.6697 5.5960
# 6 7.5509 -5.9909 -5.3216 3.3713 5.5960 41.4852
#
#
#
# Elastic Compliance Matrix: (Units=1/GPa)
#
#
# Indices 1 2 3 4 5 6 
#
# 1 0.010506 -0.002703 -0.003248 -0.001233 -0.003658 -0.002126
# 2 -0.002703 0.026302 -0.004727 -0.007601 -0.004760 0.004944
# 3 -0.003248 -0.004727 0.014139 0.001268 -0.000923 0.001744
# 4 -0.001233 -0.007601 0.001268 0.025174 0.004898 -0.003417
# 5 -0.003658 -0.004760 -0.000923 0.004898 0.024594 -0.003856
# 6 -0.002126 0.004944 0.001744 -0.003417 -0.003856 0.026227
#
#
# Mechanical properties :
#
#
# Convention : Reuss Voigt Hill
#
# Bulk Modulus (GPa) = 33.79226 47.96384 40.87805
# Shear Modulus (GPa) = 31.61314 39.02146 35.31730
#
# Velocity S-wave (km/s) = 3.63134 4.03445 3.83819
# Velocity P-wave (km/s) = 5.62829 6.45827 6.05751
#
# Compressibility (1/GPa) = 0.02959257
#
# Stress axis : x y z
#
# Youngs Moduli (GPa) = 95.18160 38.02050 70.72421
#
# Poissons Ratio (x) = 0.10276 0.22971
# Poissons Ratio (y) = 0.25726 0.33428
# Poissons Ratio (z) = 0.30915 0.17971
#
# Static dielectric constant tensor:
#      x y z
#    x 4.553520 0.183020 0.164040 
#    y 0.183020 4.629610 0.059920 
#    z 0.164040 0.059920 4.375280 
# 
# 
# High freq. dielectric constant tensor:
#      x y z
#    x 1.967100 0.009540 0.008370 
#    y 0.009540 1.968620 -0.000240 
#    z 0.008370 -0.000240 1.949240 
# 
# From -- ./inp_files/323473.got.cif
#   From: 2010.06.25/outbox.cif.g09.slc.cpg/sg2_162_cif.got.tgz:323473.got - 2010.06.27 13:26:56.
