data_PCOD8028974
_publ_section_title
;
Structure prediction by ZEFSAII (Michael W. Deem and Ramdas Pophale) SiO2 
 PCOD8028974
Probable space group: P -1
;
_chemical_formula_sum "Si O2"
_cell_formula_units_Z 12
_cell_length_a 12.190415
_cell_length_b 8.959198
_cell_length_c 6.323467
_cell_angle_alpha 78.216744
_cell_angle_beta 68.600808
_cell_angle_gamma 60.690407
_cell_volume 560.422006
_symmetry_space_group_name_H-M "P -1"
_symmetry_group_IT_number 2
_symmetry_cell_setting 'triclinic'
loop_
_space_group_symop_operation_xyz
x,y,z
-x,-y,-z
loop_
_atom_site_type_symbol
_atom_site_label
_atom_site_fract_x
_atom_site_fract_y
_atom_site_fract_z
Si Si1 0.231680 0.353669 0.264806
Si Si2 0.903213 0.284108 0.539632
Si Si3 0.168262 0.115964 0.634748
Si Si4 0.433096 0.447682 0.872605
Si Si5 0.678586 0.264952 0.473798
Si Si6 0.058869 0.305658 0.071431
O O1 0.130415 0.546525 0.347257
O O2 0.244629 0.230355 0.490392
O O3 0.175258 0.266594 0.164536
O O4 0.362087 0.349148 0.071324
O O5 0.773551 0.256371 0.608651
O O6 0.037294 0.138323 0.589797
O O7 0.935655 0.294131 0.268842
O O8 0.275027 0.919655 0.607901
O O9 0.116596 0.164257 0.893233
O O10 0.538247 0.318854 0.669382
O O11 0.333549 0.607765 0.750493
O O12 0.500000 0.500000 0.000000
O O13 0.000000 0.500000 0.000000
#
# Coordination Sequence:
#
# PCOD8028974 Si02
#       6
#     2   2   2   2   2   2
#     4  11  22  40  68  95 124 172 219 256 314 389
#     4  11  21  39  67  98 132 166 208 261 326 389
#     4  11  24  40  66 103 133 160 209 273 319 377
#     4  11  25  46  69  86 128 180 217 261 317 380
#     4  11  26  43  65  98 128 169 221 262 318 377
#     4  11  19  36  63  95 133 168 206 252 327 381
#
# _framework density 21.412438000000002
#
# number of rings (size 3 to 8) (size 9 to 14) (size 15 to 20)
#    0.000    1.000    5.000    2.500    0.000    4.000 
#    0.000    1.667    0.000    0.000    0.000    0.000 
#    0.000    0.000    0.000    0.000    0.000    0.000 
#
# Total GULP energy -148661.217710 kJ/mol
# GULP energy per Si atom -12388.434809 kJ/mol
# Density = 2.136370 g / cm^3
# Si number density = 21.412438 Si / 1000 Ang^3
#
#
#
# Elastic Constant Matrix: (Units=GPa)
#
#
# Indices 1 2 3 4 5 6 
#
# 1 76.6051 19.7921 27.5918 1.6458 -12.2781 -1.8889
# 2 19.7921 120.6706 33.0481 25.8064 -3.6142 -10.7940
# 3 27.5918 33.0481 114.4056 20.2064 -9.6202 -5.3156
# 4 1.6458 25.8064 20.2064 30.6543 5.9481 -0.6301
# 5 -12.2781 -3.6142 -9.6202 5.9481 37.7291 1.4743
# 6 -1.8889 -10.7940 -5.3156 -0.6301 1.4743 20.0841
#
#
#
# Elastic Compliance Matrix: (Units=1/GPa)
#
#
# Indices 1 2 3 4 5 6 
#
# 1 0.015262 -0.002078 -0.003225 0.002341 0.003605 -0.000726
# 2 -0.002078 0.011294 -0.000801 -0.009035 0.001420 0.005275
# 3 -0.003225 -0.000801 0.011331 -0.007130 0.002816 0.001835
# 4 0.002341 -0.009035 -0.007130 0.046473 -0.009077 -0.004399
# 5 0.003605 0.001420 0.002816 -0.009077 0.029988 -0.000639
# 6 -0.000726 0.005275 0.001835 -0.004399 -0.000639 0.052952
#
#
# Mechanical properties :
#
#
# Convention : Reuss Voigt Hill
#
# Bulk Modulus (GPa) = 38.94065 52.50503 45.72284
# Shear Modulus (GPa) = 26.58636 33.11012 29.84824
#
# Velocity S-wave (km/s) = 3.52750 3.93657 3.73764
# Velocity P-wave (km/s) = 5.90055 6.72578 6.32664
#
# Compressibility (1/GPa) = 0.02568011
#
# Stress axis : x y z
#
# Youngs Moduli (GPa) = 65.52314 88.54443 88.25091
#
# Poissons Ratio (x) = 0.18396 0.28458
# Poissons Ratio (y) = 0.13613 0.07069
# Poissons Ratio (z) = 0.21129 0.07093
#
# Static dielectric constant tensor:
#      x y z
#    x 3.840410 0.021920 -0.368460 
#    y 0.021920 3.610660 0.025390 
#    z -0.368460 0.025390 4.667920 
# 
# 
# High freq. dielectric constant tensor:
#      x y z
#    x 1.833610 0.002440 -0.002080 
#    y 0.002440 1.822900 0.011420 
#    z -0.002080 0.011420 1.860820 
# 
# From -- ./inp_files/21361.got.cif
#   From: 2010.06.25/outbox.cif.g09.slc.cpg/sg2_11_cif.got.tgz:21361.got - 2010.06.27 13:26:56.
