data_PCOD8028706
_publ_section_title
;
Structure prediction by ZEFSAII (Michael W. Deem and Ramdas Pophale) SiO2 
 PCOD8028706
Probable space group: P -1
;
_chemical_formula_sum "Si O2"
_cell_formula_units_Z 14
_cell_length_a 20.073988
_cell_length_b 9.754458
_cell_length_c 12.108217
_cell_angle_alpha 48.794215
_cell_angle_beta 153.081057
_cell_angle_gamma 144.961837
_cell_volume 592.622496
_symmetry_space_group_name_H-M "P -1"
_symmetry_group_IT_number 2
_symmetry_cell_setting 'triclinic'
loop_
_space_group_symop_operation_xyz
x,y,z
-x,-y,-z
loop_
_atom_site_type_symbol
_atom_site_label
_atom_site_fract_x
_atom_site_fract_y
_atom_site_fract_z
Si Si1 0.203138 0.646304 0.788316
Si Si2 0.924839 0.653148 0.035602
Si Si3 0.484361 0.757029 0.738695
Si Si4 0.599178 0.262610 0.627644
Si Si5 0.711957 0.841136 0.632036
Si Si6 0.595339 0.808503 0.228238
Si Si7 0.232472 0.239373 0.702861
O O1 0.139877 0.558017 0.865692
O O2 0.000000 0.500000 0.500000
O O3 0.328714 0.932968 0.833335
O O4 0.351111 0.612801 0.975677
O O5 0.838821 0.506136 0.868086
O O6 0.824821 0.754182 0.877922
O O7 0.163848 0.885822 0.271413
O O8 0.469019 0.741307 0.592215
O O9 0.284918 0.503071 0.639525
O O10 0.531204 0.005719 0.706069
O O11 0.665711 0.779851 0.034227
O O12 0.503281 0.329993 0.535378
O O13 0.694664 0.842898 0.473946
O O14 0.671727 0.734084 0.287853
O O15 0.000000 0.000000 0.500000
#
# Coordination Sequence:
#
# PCOD8028706 Si02
#       7
#     2   2   2   2   2   2   2
#     4  11  23  39  65 103 139 175 212 280 347 411
#     4  11  23  39  64 102 134 176 219 276 351 406
#     4  10  26  45  68  99 128 190 237 276 337 411
#     4  11  23  45  69  93 140 178 229 286 339 406
#     4  11  24  40  67 105 134 174 223 284 350 414
#     4  11  24  42  68 103 137 175 227 278 349 408
#     4  11  26  47  70 100 140 184 234 284 336 408
#
# _framework density 23.623808
#
# number of rings (size 3 to 8) (size 9 to 14) (size 15 to 20)
#    0.000    1.143    2.857    2.143    4.000    8.000 
#    0.000    2.857    0.000    0.000    0.000    0.000 
#    0.000    0.000    0.000    0.000    0.000    0.000 
#
# Total GULP energy -173469.034872 kJ/mol
# GULP energy per Si atom -12390.645348 kJ/mol
# Density = 2.357004 g / cm^3
# Si number density = 23.623808 Si / 1000 Ang^3
#
#
#
# Elastic Constant Matrix: (Units=GPa)
#
#
# Indices 1 2 3 4 5 6 
#
# 1 66.5835 -4.7038 27.1996 5.9287 -24.2000 -2.7812
# 2 -4.7038 108.8003 41.1730 9.6231 -14.3894 12.1872
# 3 27.1996 41.1730 116.4306 21.7223 -25.2483 3.8438
# 4 5.9287 9.6231 21.7223 50.9649 1.6196 -7.8086
# 5 -24.2000 -14.3894 -25.2483 1.6196 40.6671 0.6775
# 6 -2.7812 12.1872 3.8438 -7.8086 0.6775 28.0002
#
#
#
# Elastic Compliance Matrix: (Units=1/GPa)
#
#
# Indices 1 2 3 4 5 6 
#
# 1 0.021242 0.003980 -0.003343 -0.002191 0.012061 -0.000066
# 2 0.003980 0.012105 -0.003664 -0.002108 0.004545 -0.005068
# 3 -0.003343 -0.003664 0.012656 -0.004760 0.004793 -0.001918
# 4 -0.002191 -0.002108 -0.004760 0.023741 -0.006086 0.008121
# 5 0.012061 0.004545 0.004793 -0.006086 0.036661 -0.004022
# 6 -0.000066 -0.005068 -0.001918 0.008121 -0.004022 0.040539
#
#
# Mechanical properties :
#
#
# Convention : Reuss Voigt Hill
#
# Bulk Modulus (GPa) = 25.03255 46.57244 35.80250
# Shear Modulus (GPa) = 30.06350 39.13614 34.59982
#
# Velocity S-wave (km/s) = 3.57121 4.07460 3.83118
# Velocity P-wave (km/s) = 5.25586 6.47252 5.89566
#
# Compressibility (1/GPa) = 0.03994799
#
# Stress axis : x y z
#
# Youngs Moduli (GPa) = 47.07723 82.60966 79.01142
#
# Poissons Ratio (x) = -0.32878 0.26415
# Poissons Ratio (y) = -0.18736 0.28952
# Poissons Ratio (z) = 0.15739 0.30271
#
# Static dielectric constant tensor:
#      x y z
#    x 4.001460 -0.113230 -0.189210 
#    y -0.113230 4.807360 0.155090 
#    z -0.189210 0.155090 4.655350 
# 
# 
# High freq. dielectric constant tensor:
#      x y z
#    x 1.909410 -0.002180 -0.026110 
#    y -0.002180 1.966830 0.001870 
#    z -0.026110 0.001870 1.943050 
# 
# From -- ./inp_files/542866.got.cif
#   From: 2010.06.25/outbox.cif.g09.slc.cpg/sg2_272_cif.got.tgz:542866.got - 2010.06.27 13:26:56.
