data_PCOD8028316
_publ_section_title
;
Structure prediction by ZEFSAII (Michael W. Deem and Ramdas Pophale) SiO2 
 PCOD8028316
Probable space group: P -1
;
_chemical_formula_sum "Si O2"
_cell_formula_units_Z 16
_cell_length_a 5.100764
_cell_length_b 22.813739
_cell_length_c 9.100052
_cell_angle_alpha 134.154241
_cell_angle_beta 102.885733
_cell_angle_gamma 102.549700
_cell_volume 626.756032
_symmetry_space_group_name_H-M "P -1"
_symmetry_group_IT_number 2
_symmetry_cell_setting 'triclinic'
loop_
_space_group_symop_operation_xyz
x,y,z
-x,-y,-z
loop_
_atom_site_type_symbol
_atom_site_label
_atom_site_fract_x
_atom_site_fract_y
_atom_site_fract_z
Si Si1 0.412343 0.213192 0.925303
Si Si2 0.948181 0.831878 0.480877
Si Si3 0.587713 0.960690 0.079973
Si Si4 0.462008 0.792936 0.592135
Si Si5 0.535829 0.517858 0.786218
Si Si6 0.743555 0.099107 0.780145
Si Si7 0.962391 0.581057 0.211582
Si Si8 0.677155 0.420842 0.395788
O O1 0.289602 0.231439 0.788845
O O2 0.645965 0.175546 0.858081
O O3 0.106316 0.137426 0.851329
O O4 0.621288 0.315210 0.211633
O O5 0.753740 0.803519 0.557001
O O6 0.232367 0.812383 0.497233
O O7 0.087409 0.945371 0.654228
O O8 0.295618 0.919379 0.083555
O O9 0.618028 0.870810 0.879897
O O10 0.500000 0.000000 0.000000
O O11 0.278025 0.685647 0.448176
O O12 0.183426 0.448467 0.692564
O O13 0.645841 0.447640 0.608529
O O14 0.572947 0.581294 0.757558
O O15 0.735300 0.587134 0.069692
O O16 0.500000 0.000000 0.500000
O O17 0.000000 0.500000 0.000000
O O18 0.000000 0.500000 0.500000
#
# Coordination Sequence:
#
# PCOD8028316 Si02
#       8
#     2   2   2   2   2   2   2   2
#     4  12  28  44  80 103 146 191 245 290 371 428
#     4  11  24  46  72 107 136 189 233 295 354 430
#     4  10  25  47  72 104 144 180 234 290 358 420
#     4  11  26  42  74 101 145 183 240 287 360 420
#     4  10  25  45  70  98 149 181 244 297 366 415
#     4  12  27  49  73 108 145 189 239 303 357 433
#     4  11  25  44  70 103 141 190 237 298 355 433
#     4  11  26  46  72 104 145 190 243 304 361 435
#
# _framework density 25.528276000000002
#
# number of rings (size 3 to 8) (size 9 to 14) (size 15 to 20)
#    0.000    1.000    1.250    3.000   14.000    3.000 
#    0.000    0.000    0.000    0.000    0.000    0.000 
#    0.000    0.000    0.000    0.000    0.000    0.000 
#
# Total GULP energy -198356.402740 kJ/mol
# GULP energy per Si atom -12397.275171 kJ/mol
# Density = 2.547017 g / cm^3
# Si number density = 25.528276 Si / 1000 Ang^3
#
#
#
# Elastic Constant Matrix: (Units=GPa)
#
#
# Indices 1 2 3 4 5 6 
#
# 1 64.6840 -1.2161 3.5400 7.4520 -14.7176 16.2581
# 2 -1.2161 100.9091 29.7575 -2.5297 -12.5885 27.3541
# 3 3.5400 29.7575 122.3131 22.8173 -23.3517 7.0269
# 4 7.4520 -2.5297 22.8173 62.2105 3.0786 -2.5388
# 5 -14.7176 -12.5885 -23.3517 3.0786 35.5857 -2.1099
# 6 16.2581 27.3541 7.0269 -2.5388 -2.1099 49.8064
#
#
#
# Elastic Compliance Matrix: (Units=1/GPa)
#
#
# Indices 1 2 3 4 5 6 
#
# 1 0.020403 0.003212 0.001864 -0.003867 0.010632 -0.008434
# 2 0.003212 0.013224 -0.002160 0.000424 0.004089 -0.007811
# 3 0.001864 -0.002160 0.011043 -0.004775 0.007613 -0.000901
# 4 -0.003867 0.000424 -0.004775 0.018704 -0.006059 0.002400
# 5 0.010632 0.004089 0.007613 -0.006059 0.039142 -0.005441
# 6 -0.008434 -0.007811 -0.000901 0.002400 -0.005441 0.027140
#
#
# Mechanical properties :
#
#
# Convention : Reuss Voigt Hill
#
# Bulk Modulus (GPa) = 19.80144 39.11876 29.46010
# Shear Modulus (GPa) = 35.54723 46.57551 41.06137
#
# Velocity S-wave (km/s) = 3.73562 4.27601 4.01492
# Velocity P-wave (km/s) = 5.13615 6.30365 5.74961
#
# Compressibility (1/GPa) = 0.05050137
#
# Stress axis : x y z
#
# Youngs Moduli (GPa) = 49.01350 75.62121 90.55258
#
# Poissons Ratio (x) = -0.24288 -0.16878
# Poissons Ratio (y) = -0.15742 0.19558
# Poissons Ratio (z) = -0.09136 0.16333
#
# Static dielectric constant tensor:
#      x y z
#    x 4.618970 -0.046570 0.215570 
#    y -0.046570 4.577140 0.057590 
#    z 0.215570 0.057590 6.057890 
# 
# 
# High freq. dielectric constant tensor:
#      x y z
#    x 2.012860 0.000100 -0.002280 
#    y 0.000100 2.028350 -0.009180 
#    z -0.002280 -0.009180 2.034500 
# 
# From -- ./inp_files/142677.got.cif
#   From: 2010.06.25/outbox.cif.g09.slc.cpg/sg2_72_cif.got.tgz:142677.got - 2010.06.27 13:26:56.
