data_PCOD8028941
_publ_section_title
;
Structure prediction by ZEFSAII (Michael W. Deem and Ramdas Pophale) SiO2 
 PCOD8028941
Probable space group: P -1
;
_chemical_formula_sum "Si O2"
_cell_formula_units_Z 16
_cell_length_a 21.557592
_cell_length_b 7.760124
_cell_length_c 11.763740
_cell_angle_alpha 91.493669
_cell_angle_beta 51.921639
_cell_angle_gamma 132.467721
_cell_volume 845.993774
_symmetry_space_group_name_H-M "P -1"
_symmetry_group_IT_number 2
_symmetry_cell_setting 'triclinic'
loop_
_space_group_symop_operation_xyz
x,y,z
-x,-y,-z
loop_
_atom_site_type_symbol
_atom_site_label
_atom_site_fract_x
_atom_site_fract_y
_atom_site_fract_z
Si Si1 0.945140 0.646834 0.783015
Si Si2 0.567100 0.392166 0.404612
Si Si3 0.768136 0.350441 0.749594
Si Si4 0.211834 0.293629 0.415089
Si Si5 0.803836 0.111575 0.531376
Si Si6 0.674457 0.244363 0.211973
Si Si7 0.432578 0.377716 0.386546
Si Si8 0.488636 0.152946 0.820681
O O1 0.860766 0.478675 0.757284
O O2 0.035034 0.632592 0.696098
O O3 0.836488 0.475589 0.007754
O O4 0.060985 0.018335 0.651863
O O5 0.679714 0.442217 0.266731
O O6 0.545606 0.444714 0.307888
O O7 0.632144 0.637775 0.431323
O O8 0.406952 0.036657 0.617875
O O9 0.801924 0.607882 0.676426
O O10 0.808058 0.289573 0.604990
O O11 0.598652 0.021170 0.965370
O O12 0.346260 0.605554 0.344663
O O13 0.242275 0.145561 0.347266
O O14 0.696680 0.946223 0.543576
O O15 0.583705 0.102945 0.195616
O O16 0.521035 0.668280 0.209906
#
# Coordination Sequence:
#
# PCOD8028941 Si02
#       8
#     2   2   2   2   2   2   2   2
#     4   9  20  38  51  79 116 144 177 222 265 331
#     4   9  18  34  60  78 106 134 184 227 280 313
#     4  11  19  35  56  81 108 155 182 212 269 315
#     4   9  20  34  52  76 117 143 182 221 258 321
#     4   9  21  35  56  75 119 141 178 223 267 316
#     4   9  18  35  59  80 103 142 179 224 275 321
#     4   9  18  36  52  83 108 136 173 240 267 318
#     4   9  19  34  53  81 111 137 185 227 258 320
#
# _framework density 18.912669000000001
#
# number of rings (size 3 to 8) (size 9 to 14) (size 15 to 20)
#    0.750    2.000    0.000    1.125    1.750    2.000 
#    4.500    5.000    0.000    0.000    0.000    0.000 
#    0.000    0.000    0.000    0.000    0.000    0.000 
#
# Total GULP energy -198231.814728 kJ/mol
# GULP energy per Si atom -12389.488421 kJ/mol
# Density = 1.886962 g / cm^3
# Si number density = 18.912669 Si / 1000 Ang^3
#
#
#
# Elastic Constant Matrix: (Units=GPa)
#
#
# Indices 1 2 3 4 5 6 
#
# 1 54.3991 12.4300 13.9381 6.0228 6.8770 -6.1039
# 2 12.4300 52.5633 28.3430 0.9440 -12.2222 -3.3543
# 3 13.9381 28.3430 106.5023 -3.3206 -2.9330 0.8199
# 4 6.0228 0.9440 -3.3206 22.8378 0.2524 -6.3888
# 5 6.8770 -12.2222 -2.9330 0.2524 19.7621 -3.1269
# 6 -6.1039 -3.3543 0.8199 -6.3888 -3.1269 19.3844
#
#
#
# Elastic Compliance Matrix: (Units=1/GPa)
#
#
# Indices 1 2 3 4 5 6 
#
# 1 0.022783 -0.007096 -0.001606 -0.005154 -0.012115 0.002361
# 2 -0.007096 0.029356 -0.006320 0.001451 0.020767 0.006941
# 3 -0.001606 -0.006320 0.011298 0.001850 -0.001979 -0.001787
# 4 -0.005154 0.001451 0.001850 0.049696 0.004816 0.015705
# 5 -0.012115 0.020767 -0.001979 0.004816 0.069304 0.012629
# 6 0.002361 0.006941 -0.001787 0.015705 0.012629 0.060821
#
#
# Mechanical properties :
#
#
# Convention : Reuss Voigt Hill
#
# Bulk Modulus (GPa) = 29.94528 35.87631 32.91080
# Shear Modulus (GPa) = 17.57885 22.98043 20.27964
#
# Velocity S-wave (km/s) = 3.05204 3.48958 3.27812
# Velocity P-wave (km/s) = 5.31862 5.93691 5.63625
#
# Compressibility (1/GPa) = 0.03339424
#
# Stress axis : x y z
#
# Youngs Moduli (GPa) = 43.89322 34.06442 88.50758
#
# Poissons Ratio (x) = 0.24171 0.14212
# Poissons Ratio (y) = 0.31145 0.55938
# Poissons Ratio (z) = 0.07048 0.21529
#
# Static dielectric constant tensor:
#      x y z
#    x 3.392640 0.037390 0.008260 
#    y 0.037390 3.324990 -0.107050 
#    z 0.008260 -0.107050 3.449800 
# 
# 
# High freq. dielectric constant tensor:
#      x y z
#    x 1.729580 0.001580 -0.001140 
#    y 0.001580 1.721580 -0.007100 
#    z -0.001140 -0.007100 1.712190 
# 
# From -- ./inp_files/177709.got.cif
#   From: 2010.06.25/outbox.cif.g09.slc.cpg/sg2_89_cif.got.tgz:177709.got - 2010.06.27 13:26:56.
