data_PCOD8028838
_publ_section_title
;
Structure prediction by ZEFSAII (Michael W. Deem and Ramdas Pophale) SiO2 
 PCOD8028838
Probable space group: P -1
;
_chemical_formula_sum "Si O2"
_cell_formula_units_Z 16
_cell_length_a 10.511005
_cell_length_b 13.138672
_cell_length_c 12.290832
_cell_angle_alpha 135.037945
_cell_angle_beta 91.838089
_cell_angle_gamma 122.740246
_cell_volume 722.652845
_symmetry_space_group_name_H-M "P -1"
_symmetry_group_IT_number 2
_symmetry_cell_setting 'triclinic'
loop_
_space_group_symop_operation_xyz
x,y,z
-x,-y,-z
loop_
_atom_site_type_symbol
_atom_site_label
_atom_site_fract_x
_atom_site_fract_y
_atom_site_fract_z
Si Si1 0.691515 0.683931 0.728803
Si Si2 0.334910 0.476799 0.955163
Si Si3 0.807851 0.472439 0.624839
Si Si4 0.481577 0.819496 0.397805
Si Si5 0.132180 0.998217 0.364632
Si Si6 0.608196 0.232007 0.233817
Si Si7 0.367114 0.506025 0.735780
Si Si8 0.177257 0.935223 0.084045
O O1 0.500000 0.500000 0.500000
O O2 0.793549 0.623074 0.700791
O O3 0.598594 0.658987 0.822345
O O4 0.872004 0.955896 0.893900
O O5 0.382093 0.581648 0.915522
O O6 0.500000 0.500000 0.000000
O O7 0.348991 0.616780 0.148881
O O8 0.097826 0.199458 0.736950
O O9 0.637333 0.284239 0.569327
O O10 0.780230 0.348369 0.421348
O O11 0.047302 0.681891 0.837153
O O12 0.706001 0.940337 0.505219
O O13 0.500000 0.000000 0.500000
O O14 0.205434 0.226518 0.513425
O O15 0.115268 0.888503 0.172355
O O16 0.705961 0.429209 0.296404
O O17 0.426742 0.143418 0.233597
O O18 0.500000 0.000000 0.000000
#
# Coordination Sequence:
#
# PCOD8028838 Si02
#       8
#     2   2   2   2   2   2   2   2
#     4  11  17  38  67  98 129 167 212 275 339 401
#     4  12  26  45  70 107 138 182 236 290 352 407
#     4  12  21  43  65  97 131 166 230 273 335 417
#     4  12  27  45  69 100 138 188 236 288 345 418
#     4  12  22  46  72  99 137 178 235 290 343 412
#     4  11  25  45  66  95 143 179 219 286 347 412
#     4  11  22  41  67 100 135 176 223 285 347 403
#     4  11  22  38  71 101 125 175 222 279 344 409
#
# _framework density 22.140644999999999
#
# number of rings (size 3 to 8) (size 9 to 14) (size 15 to 20)
#    0.000    0.500    8.750    0.750    1.750    1.000 
#    4.500    0.000    0.000    0.000    0.000    0.000 
#    0.000    0.000    0.000    0.000    0.000    0.000 
#
# Total GULP energy -198339.626634 kJ/mol
# GULP energy per Si atom -12396.226665 kJ/mol
# Density = 2.209025 g / cm^3
# Si number density = 22.140645 Si / 1000 Ang^3
#
#
#
# Elastic Constant Matrix: (Units=GPa)
#
#
# Indices 1 2 3 4 5 6 
#
# 1 39.0029 30.1273 20.4735 14.7092 2.0006 -5.6916
# 2 30.1273 112.8991 49.9603 -19.3460 0.8266 5.7104
# 3 20.4735 49.9603 143.6163 -9.7965 -11.3404 -7.5188
# 4 14.7092 -19.3460 -9.7965 40.2805 7.3782 -5.6132
# 5 2.0006 0.8266 -11.3404 7.3782 38.2754 5.7262
# 6 -5.6916 5.7104 -7.5188 -5.6132 5.7262 27.2939
#
#
#
# Elastic Compliance Matrix: (Units=1/GPa)
#
#
# Indices 1 2 3 4 5 6 
#
# 1 0.052300 -0.017919 -0.002590 -0.027378 0.000950 0.008112
# 2 -0.017919 0.017669 -0.003076 0.014023 -0.002325 -0.004909
# 3 -0.002590 -0.003076 0.008803 0.001549 0.002153 0.002395
# 4 -0.027378 0.014023 0.001549 0.043556 -0.007144 0.002240
# 5 0.000950 -0.002325 0.002153 -0.007144 0.029084 -0.006293
# 6 0.008112 -0.004909 0.002395 0.002240 -0.006293 0.041798
#
#
# Mechanical properties :
#
#
# Convention : Reuss Voigt Hill
#
# Bulk Modulus (GPa) = 31.64344 55.18227 43.41285
# Shear Modulus (GPa) = 19.92720 34.16711 27.04715
#
# Velocity S-wave (km/s) = 3.00330 3.93260 3.49894
# Velocity P-wave (km/s) = 5.13317 6.75264 5.99781
#
# Compressibility (1/GPa) = 0.03160213
#
# Stress axis : x y z
#
# Youngs Moduli (GPa) = 19.12044 56.59763 113.59266
#
# Poissons Ratio (x) = 1.01416 0.29422
# Poissons Ratio (y) = 0.34262 0.34941
# Poissons Ratio (z) = 0.04952 0.17409
#
# Static dielectric constant tensor:
#      x y z
#    x 2.915850 0.722290 -1.073410 
#    y 0.722290 3.851310 0.605670 
#    z -1.073410 0.605670 2.990150 
# 
# 
# High freq. dielectric constant tensor:
#      x y z
#    x 1.843030 0.008680 -0.000590 
#    y 0.008680 1.879710 -0.007130 
#    z -0.000590 -0.007130 1.887700 
# 
# From -- ./inp_files/428943.got.cif
#   From: 2010.06.25/outbox.cif.g09.slc.cpg/sg2_215_cif.got.tgz:428943.got - 2010.06.27 13:26:56.
