data_PCOD8028179
_publ_section_title
;
Structure prediction by ZEFSAII (Michael W. Deem and Ramdas Pophale) SiO2 
 PCOD8028179
Probable space group: P -1
;
_chemical_formula_sum "Si O2"
_cell_formula_units_Z 16
_cell_length_a 10.469710
_cell_length_b 5.304630
_cell_length_c 22.085858
_cell_angle_alpha 67.812803
_cell_angle_beta 143.809074
_cell_angle_gamma 116.554245
_cell_volume 647.548976
_symmetry_space_group_name_H-M "P -1"
_symmetry_group_IT_number 2
_symmetry_cell_setting 'triclinic'
loop_
_space_group_symop_operation_xyz
x,y,z
-x,-y,-z
loop_
_atom_site_type_symbol
_atom_site_label
_atom_site_fract_x
_atom_site_fract_y
_atom_site_fract_z
Si Si1 0.483728 0.039971 0.219302
Si Si2 0.015016 0.397161 0.132053
Si Si3 0.307026 0.074466 0.882216
Si Si4 0.976520 0.384962 0.765806
Si Si5 0.149675 0.650068 0.488274
Si Si6 0.007527 0.792923 0.637127
Si Si7 0.360017 0.623959 0.108676
Si Si8 0.385190 0.106939 0.304723
O O1 0.392496 0.313581 0.149310
O O2 0.732392 0.082896 0.287245
O O3 0.485188 0.976963 0.296925
O O4 0.323397 0.765609 0.146945
O O5 0.068134 0.665806 0.172505
O O6 0.231388 0.303035 0.201638
O O7 0.898210 0.198901 0.163452
O O8 0.856074 0.390260 0.014592
O O9 0.410127 0.160213 0.847491
O O10 0.221313 0.336630 0.850778
O O11 0.500000 0.000000 0.000000
O O12 0.966392 0.667037 0.700577
O O13 0.763045 0.132452 0.685559
O O14 0.095060 0.456147 0.426264
O O15 0.411416 0.693562 0.598561
O O16 0.000000 0.500000 0.500000
O O17 0.889343 0.044538 0.565904
#
# Coordination Sequence:
#
# PCOD8028179 Si02
#       8
#     2   2   2   2   2   2   2   2
#     4  12  26  45  74 110 144 192 251 305 362 433
#     4  10  25  44  69 102 156 197 239 299 367 435
#     4   9  20  39  66 103 139 196 241 300 352 431
#     4  11  25  46  71 107 154 198 242 305 371 437
#     4  12  28  51  80 111 141 190 248 312 382 436
#     4  12  27  48  82 110 144 187 255 314 362 446
#     4  11  25  42  74 108 145 196 250 296 356 441
#     4  11  29  47  72 104 153 195 241 311 377 438
#
# _framework density 24.708555
#
# number of rings (size 3 to 8) (size 9 to 14) (size 15 to 20)
#    0.000    1.000    2.500    1.875   12.250    3.000 
#    0.000    0.000    0.000    0.000    0.000    0.000 
#    0.000    0.000    0.000    0.000    0.000    0.000 
#
# Total GULP energy -198239.159856 kJ/mol
# GULP energy per Si atom -12389.947491 kJ/mol
# Density = 2.465232 g / cm^3
# Si number density = 24.708555 Si / 1000 Ang^3
#
#
#
# Elastic Constant Matrix: (Units=GPa)
#
#
# Indices 1 2 3 4 5 6 
#
# 1 73.4395 5.4889 34.2977 10.7779 -8.6017 -16.6469
# 2 5.4889 84.5724 27.1300 -8.4713 8.2873 -6.5598
# 3 34.2977 27.1300 117.9469 13.2558 12.1638 -4.4845
# 4 10.7779 -8.4713 13.2558 42.5345 -3.5739 -6.2281
# 5 -8.6017 8.2873 12.1638 -3.5739 42.4843 7.3365
# 6 -16.6469 -6.5598 -4.4845 -6.2281 7.3365 42.7139
#
#
#
# Elastic Compliance Matrix: (Units=1/GPa)
#
#
# Indices 1 2 3 4 5 6 
#
# 1 0.018078 0.000425 -0.005367 -0.001665 0.004004 0.005617
# 2 0.000425 0.013678 -0.003427 0.003945 -0.001750 0.002782
# 3 -0.005367 -0.003427 0.011557 -0.003427 -0.003799 -0.001252
# 4 -0.001665 0.003945 -0.003427 0.026381 0.001545 0.003179
# 5 0.004004 -0.001750 -0.003799 0.001545 0.026501 -0.003434
# 6 0.005617 0.002782 -0.001252 0.003179 -0.003434 0.026950
#
#
# Mechanical properties :
#
#
# Convention : Reuss Voigt Hill
#
# Bulk Modulus (GPa) = 37.62944 45.53242 41.58093
# Shear Modulus (GPa) = 33.61566 39.48269 36.54917
#
# Velocity S-wave (km/s) = 3.69248 4.00176 3.85022
# Velocity P-wave (km/s) = 5.78287 6.31030 6.05233
#
# Compressibility (1/GPa) = 0.02657494
#
# Stress axis : x y z
#
# Youngs Moduli (GPa) = 55.31655 73.10829 86.53065
#
# Poissons Ratio (x) = -0.03107 0.46440
# Poissons Ratio (y) = -0.02351 0.29654
# Poissons Ratio (z) = 0.29687 0.25054
#
# Static dielectric constant tensor:
#      x y z
#    x 5.379040 0.737900 0.203940 
#    y 0.737900 5.547590 0.135330 
#    z 0.203940 0.135330 4.352990 
# 
# 
# High freq. dielectric constant tensor:
#      x y z
#    x 2.002080 0.009660 -0.000510 
#    y 0.009660 2.002370 0.006970 
#    z -0.000510 0.006970 1.976640 
# 
# From -- ./inp_files/609152.got.cif
#   From: 2010.06.25/outbox.cif.g09.slc.cpg/sg2_305_cif.got.tgz:609152.got - 2010.06.27 13:26:56.
