data_PCOD8028575
_publ_section_title
;
Structure prediction by ZEFSAII (Michael W. Deem and Ramdas Pophale) SiO2 
 PCOD8028575
Probable space group: P -1
;
_chemical_formula_sum "Si O2"
_cell_formula_units_Z 16
_cell_length_a 11.652058
_cell_length_b 6.924240
_cell_length_c 11.629140
_cell_angle_alpha 54.995687
_cell_angle_beta 71.046048
_cell_angle_gamma 75.673644
_cell_volume 724.599628
_symmetry_space_group_name_H-M "P -1"
_symmetry_group_IT_number 2
_symmetry_cell_setting 'triclinic'
loop_
_space_group_symop_operation_xyz
x,y,z
-x,-y,-z
loop_
_atom_site_type_symbol
_atom_site_label
_atom_site_fract_x
_atom_site_fract_y
_atom_site_fract_z
Si Si1 0.142457 0.960797 0.732267
Si Si2 0.414290 0.383259 0.868687
Si Si3 0.394247 0.827902 0.568362
Si Si4 0.265605 0.851895 0.372989
Si Si5 0.219708 0.616612 0.015297
Si Si6 0.909186 0.514196 0.420350
Si Si7 0.062870 0.225160 0.284571
Si Si8 0.336614 0.886151 0.078154
O O1 0.264976 0.919680 0.632324
O O2 0.018911 0.929119 0.714841
O O3 0.132044 0.223454 0.695113
O O4 0.141268 0.792869 0.898796
O O5 0.429808 0.560669 0.694737
O O6 0.542242 0.287191 0.912917
O O7 0.346708 0.531874 0.942162
O O8 0.347916 0.148909 0.930907
O O9 0.376849 0.833830 0.433538
O O10 0.500000 0.000000 0.500000
O O11 0.214998 0.596341 0.466726
O O12 0.306642 0.926747 0.208047
O O13 0.156500 0.042739 0.386215
O O14 0.142710 0.393020 0.128615
O O15 0.237921 0.751787 0.084092
O O16 0.000000 0.500000 0.500000
O O17 0.972098 0.380515 0.339786
#
# Coordination Sequence:
#
# PCOD8028575 Si02
#       8
#     2   2   2   2   2   2   2   2
#     4  11  26  46  68 106 142 187 234 290 352 416
#     4  10  25  48  69 101 144 182 237 292 345 415
#     4  11  27  47  74 103 145 186 233 296 356 410
#     4  12  25  45  71 106 142 185 236 291 350 421
#     4  11  25  43  74 101 143 184 237 288 352 418
#     4  12  24  42  71 101 143 185 235 284 350 424
#     4  12  24  46  70 103 144 187 232 291 351 414
#     4  11  25  45  74 101 139 190 237 286 352 418
#
# _framework density 22.081159
#
# number of rings (size 3 to 8) (size 9 to 14) (size 15 to 20)
#    0.000    0.750    3.750    2.625    5.250    5.000 
#    0.000    0.000    0.000    0.000    0.000    0.000 
#    0.000    0.000    0.000    0.000    0.000    0.000 
#
# Total GULP energy -198405.444322 kJ/mol
# GULP energy per Si atom -12400.340270 kJ/mol
# Density = 2.203090 g / cm^3
# Si number density = 22.081159 Si / 1000 Ang^3
#
#
#
# Elastic Constant Matrix: (Units=GPa)
#
#
# Indices 1 2 3 4 5 6 
#
# 1 100.4116 25.9421 49.1964 -14.6619 -2.1328 28.8069
# 2 25.9421 95.1405 52.1405 -27.0272 6.0703 5.9062
# 3 49.1964 52.1405 121.8238 -23.5484 9.1071 8.1721
# 4 -14.6619 -27.0272 -23.5484 45.3390 1.9864 1.5515
# 5 -2.1328 6.0703 9.1071 1.9864 32.5027 -5.4835
# 6 28.8069 5.9062 8.1721 1.5515 -5.4835 31.6832
#
#
#
# Elastic Compliance Matrix: (Units=1/GPa)
#
#
# Indices 1 2 3 4 5 6 
#
# 1 0.017190 0.000098 -0.005372 0.003322 -0.000022 -0.014428
# 2 0.000098 0.015465 -0.005003 0.006836 -0.002305 -0.002415
# 3 -0.005372 -0.005003 0.013016 0.002104 -0.002880 0.001858
# 4 0.003322 0.006836 0.002104 0.028740 -0.004592 -0.007039
# 5 -0.000022 -0.002305 -0.002880 -0.004592 0.033501 0.007216
# 6 -0.014428 -0.002415 0.001858 -0.007039 0.007216 0.046245
#
#
# Mechanical properties :
#
#
# Convention : Reuss Voigt Hill
#
# Bulk Modulus (GPa) = 39.81411 63.54820 51.68115
# Shear Modulus (GPa) = 27.31010 34.57811 30.94410
#
# Velocity S-wave (km/s) = 3.52064 3.96151 3.74756
# Velocity P-wave (km/s) = 5.88188 7.05454 6.49473
#
# Compressibility (1/GPa) = 0.02511673
#
# Stress axis : x y z
#
# Youngs Moduli (GPa) = 58.17502 64.66380 76.82612
#
# Poissons Ratio (x) = -0.00631 0.41270
# Poissons Ratio (y) = -0.00568 0.38433
# Poissons Ratio (z) = 0.31251 0.32349
#
# Static dielectric constant tensor:
#      x y z
#    x 4.002540 -0.083120 -0.070550 
#    y -0.083120 4.221100 -0.167360 
#    z -0.070550 -0.167360 4.212180 
# 
# 
# High freq. dielectric constant tensor:
#      x y z
#    x 1.871270 -0.002360 -0.002280 
#    y -0.002360 1.875170 -0.016480 
#    z -0.002280 -0.016480 1.879460 
# 
# From -- ./inp_files/409825.got.cif
#   From: 2010.06.25/outbox.cif.g09.slc.cpg/sg2_205_cif.got.tgz:409825.got - 2010.06.27 13:26:56.
