data_PCOD8028805
_publ_section_title
;
Structure prediction by ZEFSAII (Michael W. Deem and Ramdas Pophale) SiO2 
 PCOD8028805
Probable space group: P -1
;
_chemical_formula_sum "Si O2"
_cell_formula_units_Z 12
_cell_length_a 9.480882
_cell_length_b 8.413262
_cell_length_c 12.345095
_cell_angle_alpha 119.872080
_cell_angle_beta 143.411933
_cell_angle_gamma 77.446706
_cell_volume 476.152954
_symmetry_space_group_name_H-M "P -1"
_symmetry_group_IT_number 2
_symmetry_cell_setting 'triclinic'
loop_
_space_group_symop_operation_xyz
x,y,z
-x,-y,-z
loop_
_atom_site_type_symbol
_atom_site_label
_atom_site_fract_x
_atom_site_fract_y
_atom_site_fract_z
Si Si1 0.418349 0.314805 0.148127
Si Si2 0.924654 0.635548 0.645194
Si Si3 0.375648 0.267882 0.339590
Si Si4 0.190746 0.954176 0.753150
Si Si5 0.346343 0.574901 0.017266
Si Si6 0.307727 0.982735 0.592176
O O1 0.704077 0.452525 0.396608
O O2 0.264346 0.225398 0.133656
O O3 0.420162 0.128074 0.013267
O O4 0.287063 0.441876 0.043239
O O5 0.832358 0.786728 0.711452
O O6 0.078227 0.547200 0.790465
O O7 0.099888 0.754009 0.696694
O O8 0.500000 0.500000 0.500000
O O9 0.571222 0.155636 0.444346
O O10 0.961459 0.038541 0.631761
O O11 0.276353 0.910965 0.673131
O O12 0.500000 0.500000 0.000000
O O13 0.503247 0.795007 0.223965
#
# Coordination Sequence:
#
# PCOD8028805 Si02
#       6
#     2   2   2   2   2   2
#     4  11  25  47  73 111 141 192 241 297 366 424
#     4  11  27  50  73 105 151 193 243 297 362 436
#     4  10  26  49  70 107 147 197 242 294 360 441
#     4  11  25  46  78 110 144 194 239 310 359 426
#     4  12  26  46  75 113 144 187 244 306 364 428
#     4  11  25  47  75 111 150 185 251 296 365 433
#
# _framework density 25.201985000000001
#
# number of rings (size 3 to 8) (size 9 to 14) (size 15 to 20)
#    0.000    1.000    3.333    1.000    7.000    6.000 
#    3.000    0.000    0.000    0.000    0.000    0.000 
#    0.000    0.000    0.000    0.000    0.000    0.000 
#
# Total GULP energy -148837.085439 kJ/mol
# GULP energy per Si atom -12403.090453 kJ/mol
# Density = 2.514462 g / cm^3
# Si number density = 25.201985 Si / 1000 Ang^3
#
#
#
# Elastic Constant Matrix: (Units=GPa)
#
#
# Indices 1 2 3 4 5 6 
#
# 1 98.2101 28.3713 19.4097 -1.0494 -11.2902 -18.4940
# 2 28.3713 93.2534 24.0123 10.2809 -4.8621 -18.6882
# 3 19.4097 24.0123 133.0348 4.1081 0.0076 -5.2084
# 4 -1.0494 10.2809 4.1081 47.0225 -3.7413 0.7717
# 5 -11.2902 -4.8621 0.0076 -3.7413 27.6872 0.3363
# 6 -18.4940 -18.6882 -5.2084 0.7717 0.3363 59.9643
#
#
#
# Elastic Compliance Matrix: (Units=1/GPa)
#
#
# Indices 1 2 3 4 5 6 
#
# 1 0.012300 -0.002770 -0.001226 0.001314 0.004673 0.002780
# 2 -0.002770 0.012967 -0.001732 -0.002737 0.000741 0.003068
# 3 -0.001226 -0.001732 0.008013 -0.000414 -0.000860 -0.000212
# 4 0.001314 -0.002737 -0.000414 0.022187 0.003063 -0.000787
# 5 0.004673 0.000741 -0.000860 0.003063 0.038551 0.001342
# 6 0.002780 0.003068 -0.000212 -0.000787 0.001342 0.018474
#
#
# Mechanical properties :
#
#
# Convention : Reuss Voigt Hill
#
# Bulk Modulus (GPa) = 45.82321 52.00943 48.91632
# Shear Modulus (GPa) = 38.10282 43.78179 40.94231
#
# Velocity S-wave (km/s) = 3.89253 4.17254 4.03496
# Velocity P-wave (km/s) = 6.19873 6.62535 6.41559
#
# Compressibility (1/GPa) = 0.02182300
#
# Stress axis : x y z
#
# Youngs Moduli (GPa) = 81.30239 77.11685 124.79892
#
# Poissons Ratio (x) = 0.21363 0.15306
# Poissons Ratio (y) = 0.22522 0.21613
# Poissons Ratio (z) = 0.09972 0.13355
#
# Static dielectric constant tensor:
#      x y z
#    x 5.892110 -0.254230 -0.413020 
#    y -0.254230 5.226460 -0.187860 
#    z -0.413020 -0.187860 4.702150 
# 
# 
# High freq. dielectric constant tensor:
#      x y z
#    x 2.000610 -0.004170 -0.008790 
#    y -0.004170 2.030600 -0.004470 
#    z -0.008790 -0.004470 2.010030 
# 
# From -- ./inp_files/383426.got.cif
#   From: 2010.06.25/outbox.cif.g09.slc.cpg/sg2_192_cif.got.tgz:383426.got - 2010.06.27 13:26:56.
