data_PCOD8028545
_publ_section_title
;
Structure prediction by ZEFSAII (Michael W. Deem and Ramdas Pophale) SiO2 
 PCOD8028545
Probable space group: P -1
;
_chemical_formula_sum "Si O2"
_cell_formula_units_Z 16
_cell_length_a 13.537497
_cell_length_b 5.226739
_cell_length_c 10.215795
_cell_angle_alpha 81.471285
_cell_angle_beta 99.652204
_cell_angle_gamma 80.553674
_cell_volume 691.358279
_symmetry_space_group_name_H-M "P -1"
_symmetry_group_IT_number 2
_symmetry_cell_setting 'triclinic'
loop_
_space_group_symop_operation_xyz
x,y,z
-x,-y,-z
loop_
_atom_site_type_symbol
_atom_site_label
_atom_site_fract_x
_atom_site_fract_y
_atom_site_fract_z
Si Si1 0.078243 0.756064 0.086328
Si Si2 0.081345 0.507434 0.834018
Si Si3 0.305141 0.376086 0.854158
Si Si4 0.290508 0.710501 0.264753
Si Si5 0.966438 0.751534 0.567616
Si Si6 0.727436 0.840705 0.569644
Si Si7 0.621214 0.105025 0.268506
Si Si8 0.429117 0.432010 0.108052
O O1 0.180357 0.813769 0.167262
O O2 0.012447 0.645742 0.190232
O O3 0.106908 0.561959 0.984908
O O4 0.000000 0.000000 0.000000
O O5 0.187564 0.351718 0.810382
O O6 0.034727 0.750602 0.714209
O O7 0.320905 0.656206 0.774924
O O8 0.369468 0.122857 0.819081
O O9 0.335717 0.341922 0.017578
O O10 0.295706 0.441841 0.369934
O O11 0.377444 0.669751 0.174434
O O12 0.308273 0.950243 0.339563
O O13 0.846145 0.804179 0.564981
O O14 0.000000 0.500000 0.500000
O O15 0.000000 0.000000 0.500000
O O16 0.659567 0.962414 0.422488
O O17 0.499098 0.219577 0.234189
O O18 0.500000 0.500000 0.000000
#
# Coordination Sequence:
#
# PCOD8028545 Si02
#       8
#     2   2   2   2   2   2   2   2
#     4  11  25  41  68  97 138 182 228 285 343 419
#     4  11  24  41  65 100 132 182 228 275 348 414
#     4  11  23  43  71 101 139 175 233 293 348 410
#     4  12  26  47  71 101 144 183 230 300 344 413
#     4  12  25  42  67  99 141 187 228 278 335 411
#     4  12  26  46  69 101 146 186 238 279 347 421
#     4  11  25  45  70 102 135 185 233 288 346 414
#     4  10  25  47  74 105 137 178 236 297 360 410
#
# _framework density 23.142848999999998
#
# number of rings (size 3 to 8) (size 9 to 14) (size 15 to 20)
#    0.000    0.750    2.500    4.125    5.250    5.000 
#    0.000    0.000    0.000    0.000    0.000    0.000 
#    0.000    0.000    0.000    0.000    0.000    0.000 
#
# Total GULP energy -198228.322513 kJ/mol
# GULP energy per Si atom -12389.270157 kJ/mol
# Density = 2.309017 g / cm^3
# Si number density = 23.142849 Si / 1000 Ang^3
#
#
#
# Elastic Constant Matrix: (Units=GPa)
#
#
# Indices 1 2 3 4 5 6 
#
# 1 89.3856 23.1842 45.2649 -16.9413 4.2448 -28.1836
# 2 23.1842 120.9811 27.4636 7.8977 -3.0056 -15.9587
# 3 45.2649 27.4636 95.9704 1.8307 16.1675 -25.6922
# 4 -16.9413 7.8977 1.8307 32.8956 -10.7692 8.8392
# 5 4.2448 -3.0056 16.1675 -10.7692 43.2759 -7.8573
# 6 -28.1836 -15.9587 -25.6922 8.8392 -7.8573 37.4699
#
#
#
# Elastic Compliance Matrix: (Units=1/GPa)
#
#
# Indices 1 2 3 4 5 6 
#
# 1 0.019654 -0.001593 -0.007907 0.010601 0.004861 0.007201
# 2 -0.001593 0.009509 -0.001253 -0.003534 0.000955 0.003027
# 3 -0.007907 -0.001253 0.017460 -0.008629 -0.006877 0.006084
# 4 0.010601 -0.003534 -0.008629 0.042812 0.011289 -0.007181
# 5 0.004861 0.000955 -0.006877 0.011289 0.028561 0.002674
# 6 0.007201 0.003027 0.006084 -0.007181 0.002674 0.039820
#
#
# Mechanical properties :
#
#
# Convention : Reuss Voigt Hill
#
# Bulk Modulus (GPa) = 39.81430 55.35138 47.58284
# Shear Modulus (GPa) = 26.63900 36.75657 31.69779
#
# Velocity S-wave (km/s) = 3.39642 3.98961 3.70490
# Velocity P-wave (km/s) = 5.71156 6.72248 6.23754
#
# Compressibility (1/GPa) = 0.02511661
#
# Stress axis : x y z
#
# Youngs Moduli (GPa) = 50.88090 105.16204 57.27413
#
# Poissons Ratio (x) = 0.16748 0.45288
# Poissons Ratio (y) = 0.08103 0.07178
# Poissons Ratio (z) = 0.40233 0.13179
#
# Static dielectric constant tensor:
#      x y z
#    x 4.413730 -0.170510 0.143040 
#    y -0.170510 3.866880 -0.606810 
#    z 0.143040 -0.606810 3.482560 
# 
# 
# High freq. dielectric constant tensor:
#      x y z
#    x 1.923230 -0.017370 0.006770 
#    y -0.017370 1.916700 -0.005430 
#    z 0.006770 -0.005430 1.930440 
# 
# From -- ./inp_files/110969.got.cif
#   From: 2010.06.25/outbox.cif.g09.slc.cpg/sg2_56_cif.got.tgz:110969.got - 2010.06.27 13:26:56.
