data_PCOD8028337
_publ_section_title
;
Structure prediction by ZEFSAII (Michael W. Deem and Ramdas Pophale) SiO2 
 PCOD8028337
Probable space group: P -1
;
_chemical_formula_sum "Si O2"
_cell_formula_units_Z 14
_cell_length_a 8.577743
_cell_length_b 12.329152
_cell_length_c 17.883174
_cell_angle_alpha 19.816132
_cell_angle_beta 110.133906
_cell_angle_gamma 107.616695
_cell_volume 600.627266
_symmetry_space_group_name_H-M "P -1"
_symmetry_group_IT_number 2
_symmetry_cell_setting 'triclinic'
loop_
_space_group_symop_operation_xyz
x,y,z
-x,-y,-z
loop_
_atom_site_type_symbol
_atom_site_label
_atom_site_fract_x
_atom_site_fract_y
_atom_site_fract_z
Si Si1 0.565399 0.210701 0.599720
Si Si2 0.708195 0.361251 0.947931
Si Si3 0.084608 0.588139 0.624304
Si Si4 0.431546 0.312115 0.829318
Si Si5 0.205312 0.247728 0.150637
Si Si6 0.988785 0.626936 0.747324
Si Si7 0.754915 0.678628 0.428640
O O1 0.507802 0.386111 0.400743
O O2 0.698475 0.419121 0.529227
O O3 0.399590 0.176049 0.641254
O O4 0.657043 0.872874 0.809873
O O5 0.514556 0.327771 0.914943
O O6 0.711437 0.525432 0.922998
O O7 0.794746 0.563876 0.766186
O O8 0.808200 0.009072 0.186919
O O9 0.231073 0.333165 0.786531
O O10 0.068348 0.497131 0.767597
O O11 0.910671 0.511795 0.606851
O O12 0.128459 0.952649 0.374518
O O13 0.500000 0.000000 0.000000
O O14 0.070418 0.471114 0.937629
O O15 0.000000 0.000000 0.500000
#
# Coordination Sequence:
#
# PCOD8028337 Si02
#       7
#     2   2   2   2   2   2   2
#     4  10  25  45  72 102 150 184 242 294 362 423
#     4  12  24  45  74 101 148 187 238 296 357 425
#     4  11  25  45  73 106 143 183 245 292 356 423
#     4  11  25  46  70 106 143 186 241 298 350 430
#     4  11  25  45  70 109 142 188 241 298 353 430
#     4  12  24  45  73 107 147 186 237 298 359 424
#     4  11  23  46  74 105 141 195 235 297 359 422
#
# _framework density 23.308968
#
# number of rings (size 3 to 8) (size 9 to 14) (size 15 to 20)
#    0.000    0.857    4.286    2.143    2.000    6.286 
#    2.571    2.143    0.000    0.000    0.000    0.000 
#    0.000    0.000    0.000    0.000    0.000    0.000 
#
# Total GULP energy -173519.550095 kJ/mol
# GULP energy per Si atom -12394.253578 kJ/mol
# Density = 2.325592 g / cm^3
# Si number density = 23.308968 Si / 1000 Ang^3
#
#
#
# Elastic Constant Matrix: (Units=GPa)
#
#
# Indices 1 2 3 4 5 6 
#
# 1 122.8868 68.1456 47.5982 -8.6863 15.5653 2.2816
# 2 68.1456 156.1492 41.2732 2.5911 16.9661 12.6246
# 3 47.5982 41.2732 86.0462 -3.9623 11.9750 0.7435
# 4 -8.6863 2.5911 -3.9623 38.8460 -6.8941 0.6849
# 5 15.5653 16.9661 11.9750 -6.8941 36.3788 5.7346
# 6 2.2816 12.6246 0.7435 0.6849 5.7346 38.5543
#
#
#
# Elastic Compliance Matrix: (Units=1/GPa)
#
#
# Indices 1 2 3 4 5 6 
#
# 1 0.012627 -0.004224 -0.004635 0.002330 -0.001611 0.000923
# 2 -0.004224 0.009174 -0.001878 -0.002036 -0.001860 -0.002405
# 3 -0.004635 -0.001878 0.015412 0.000233 -0.002317 0.000933
# 4 0.002330 -0.002036 0.000233 0.027355 0.005175 -0.000731
# 5 -0.001611 -0.001860 -0.002317 0.005175 0.031422 -0.004017
# 6 0.000923 -0.002405 0.000933 -0.000731 -0.004017 0.027263
#
#
# Mechanical properties :
#
#
# Convention : Reuss Voigt Hill
#
# Bulk Modulus (GPa) = 63.53902 75.45737 69.49819
# Shear Modulus (GPa) = 33.33955 36.62684 34.98319
#
# Velocity S-wave (km/s) = 3.78608 3.96834 3.87828
# Velocity P-wave (km/s) = 6.81404 7.31026 7.06651
#
# Compressibility (1/GPa) = 0.01573836
#
# Stress axis : x y z
#
# Youngs Moduli (GPa) = 79.19707 109.00241 64.88527
#
# Poissons Ratio (x) = 0.46038 0.30076
# Poissons Ratio (y) = 0.33449 0.12187
# Poissons Ratio (z) = 0.36710 0.20474
#
# Static dielectric constant tensor:
#      x y z
#    x 3.944940 -0.107590 -0.125490 
#    y -0.107590 4.370970 0.293850 
#    z -0.125490 0.293850 4.290150 
# 
# 
# High freq. dielectric constant tensor:
#      x y z
#    x 1.924290 -0.002340 0.002070 
#    y -0.002340 1.926320 0.009340 
#    z 0.002070 0.009340 1.925340 
# 
# From -- ./inp_files/278935.got.cif
#   From: 2010.06.25/outbox.cif.g09.slc.cpg/sg2_140_cif.got.tgz:278935.got - 2010.06.27 13:26:56.
