data_PCOD8028270
_publ_section_title
;
Structure prediction by ZEFSAII (Michael W. Deem and Ramdas Pophale) SiO2 
 PCOD8028270
Probable space group: P -1
;
_chemical_formula_sum "Si O2"
_cell_formula_units_Z 14
_cell_length_a 19.141376
_cell_length_b 8.882725
_cell_length_c 8.873650
_cell_angle_alpha 33.312992
_cell_angle_beta 131.724491
_cell_angle_gamma 131.579707
_cell_volume 596.817316
_symmetry_space_group_name_H-M "P -1"
_symmetry_group_IT_number 2
_symmetry_cell_setting 'triclinic'
loop_
_space_group_symop_operation_xyz
x,y,z
-x,-y,-z
loop_
_atom_site_type_symbol
_atom_site_label
_atom_site_fract_x
_atom_site_fract_y
_atom_site_fract_z
Si Si1 0.851759 0.850416 0.322800
Si Si2 0.441391 0.548456 0.520540
Si Si3 0.914080 0.367737 0.374872
Si Si4 0.659801 0.987852 0.992843
Si Si5 0.381412 0.163283 0.276497
Si Si6 0.257942 0.579328 0.717921
Si Si7 0.952366 0.805865 0.803084
O O1 0.798575 0.578769 0.375844
O O2 0.901765 0.726196 0.635594
O O3 0.775098 0.020615 0.125780
O O4 0.932130 0.066031 0.157478
O O5 0.500000 0.500000 0.500000
O O6 0.511124 0.741264 0.582620
O O7 0.359115 0.714528 0.230269
O O8 0.388264 0.241043 0.760869
O O9 0.813344 0.396991 0.269846
O O10 0.000000 0.500000 0.500000
O O11 0.906803 0.036063 0.625397
O O12 0.935035 0.522085 0.114343
O O13 0.609889 0.887381 0.845406
O O14 0.318487 0.886536 0.498940
O O15 0.330758 0.413051 0.028919
#
# Coordination Sequence:
#
# PCOD8028270 Si02
#       7
#     2   2   2   2   2   2   2
#     4  10  25  45  68 102 133 180 230 276 335 385
#     4  12  26  45  69 100 134 168 216 283 339 400
#     4  12  25  42  67  98 139 181 226 270 339 387
#     4  11  24  43  72  95 133 174 222 271 333 408
#     4  11  24  44  69  98 132 175 226 269 333 399
#     4  11  24  42  69  98 136 178 224 274 323 406
#     4  11  26  43  68  98 141 179 226 283 325 395
#
# _framework density 23.457763
#
# number of rings (size 3 to 8) (size 9 to 14) (size 15 to 20)
#    0.000    0.857    1.429    5.143    4.000   10.286 
#    0.000    0.000    0.000    0.000    0.000    0.000 
#    0.000    0.000    0.000    0.000    0.000    0.000 
#
# Total GULP energy -173708.982277 kJ/mol
# GULP energy per Si atom -12407.784448 kJ/mol
# Density = 2.340437 g / cm^3
# Si number density = 23.457763 Si / 1000 Ang^3
#
#
#
# Elastic Constant Matrix: (Units=GPa)
#
#
# Indices 1 2 3 4 5 6 
#
# 1 139.2262 -12.0771 50.1021 -7.2094 11.4660 -7.3488
# 2 -12.0771 38.0758 10.4840 1.8924 5.6742 8.0584
# 3 50.1021 10.4840 128.9224 -12.0502 -7.1183 7.2010
# 4 -7.2094 1.8924 -12.0502 27.0449 -0.5602 1.6857
# 5 11.4660 5.6742 -7.1183 -0.5602 42.6692 1.5708
# 6 -7.3488 8.0584 7.2010 1.6857 1.5708 29.2732
#
#
#
# Elastic Compliance Matrix: (Units=1/GPa)
#
#
# Indices 1 2 3 4 5 6 
#
# 1 0.009626 0.004338 -0.004452 0.000038 -0.003999 0.002530
# 2 0.004338 0.031133 -0.004470 -0.002767 -0.005870 -0.005907
# 3 -0.004452 -0.004470 0.010604 0.004110 0.003722 -0.002932
# 4 0.000038 -0.002767 0.004110 0.039206 0.001653 -0.002586
# 5 -0.003999 -0.005870 0.003722 0.001653 0.026000 -0.001794
# 6 0.002530 -0.005907 -0.002932 -0.002586 -0.001794 0.037389
#
#
# Mechanical properties :
#
#
# Convention : Reuss Voigt Hill
#
# Bulk Modulus (GPa) = 23.70072 44.80471 34.25272
# Shear Modulus (GPa) = 28.21820 36.97850 32.59835
#
# Velocity S-wave (km/s) = 3.47210 3.97468 3.73186
# Velocity P-wave (km/s) = 5.11854 6.34080 5.76217
#
# Compressibility (1/GPa) = 0.04219282
#
# Stress axis : x y z
#
# Youngs Moduli (GPa) = 103.88782 32.12062 94.30651
#
# Poissons Ratio (x) = -0.13933 0.41986
# Poissons Ratio (y) = -0.45062 0.42157
# Poissons Ratio (z) = 0.46251 0.14359
#
# Static dielectric constant tensor:
#      x y z
#    x 4.482890 0.000780 0.123010 
#    y 0.000780 4.195990 0.094390 
#    z 0.123010 0.094390 4.346600 
# 
# 
# High freq. dielectric constant tensor:
#      x y z
#    x 1.947370 0.001780 0.007930 
#    y 0.001780 1.924360 -0.001540 
#    z 0.007930 -0.001540 1.939940 
# 
# From -- ./inp_files/328294.got.cif
#   From: 2010.06.25/outbox.cif.g09.slc.cpg/sg2_165_cif.got.tgz:328294.got - 2010.06.27 13:26:56.
