data_PCOD8028231
_publ_section_title
;
Structure prediction by ZEFSAII (Michael W. Deem and Ramdas Pophale) SiO2 
 PCOD8028231
Probable space group: P -1
;
_chemical_formula_sum "Si O2"
_cell_formula_units_Z 14
_cell_length_a 8.852544
_cell_length_b 14.724839
_cell_length_c 9.471616
_cell_angle_alpha 112.665158
_cell_angle_beta 90.628423
_cell_angle_gamma 39.156626
_cell_volume 625.495813
_symmetry_space_group_name_H-M "P -1"
_symmetry_group_IT_number 2
_symmetry_cell_setting 'triclinic'
loop_
_space_group_symop_operation_xyz
x,y,z
-x,-y,-z
loop_
_atom_site_type_symbol
_atom_site_label
_atom_site_fract_x
_atom_site_fract_y
_atom_site_fract_z
Si Si1 0.279672 0.924387 0.127369
Si Si2 0.436810 0.609542 0.240555
Si Si3 0.423862 0.947177 0.880971
Si Si4 0.834358 0.237675 0.958666
Si Si5 0.118193 0.347956 0.505421
Si Si6 0.262986 0.356398 0.814158
Si Si7 0.196357 0.680395 0.546773
O O1 0.156547 0.883274 0.091206
O O2 0.480239 0.830690 0.208390
O O3 0.445078 0.846965 0.935291
O O4 0.026978 0.140590 0.251685
O O5 0.234798 0.698730 0.163937
O O6 0.648252 0.583006 0.197192
O O7 0.234201 0.733664 0.445531
O O8 0.612031 0.415062 0.160136
O O9 0.604882 0.834643 0.677749
O O10 0.123878 0.127635 0.925836
O O11 0.500000 0.000000 0.000000
O O12 0.190230 0.336827 0.660398
O O13 0.000000 0.500000 0.500000
O O14 0.911047 0.369428 0.522977
O O15 0.000000 0.500000 0.000000
O O16 0.500000 0.500000 0.500000
#
# Coordination Sequence:
#
# PCOD8028231 Si02
#       7
#     2   2   2   2   2   2   2
#     4  11  26  47  73 105 140 192 237 290 355 425
#     4  10  25  45  71 104 140 185 236 289 352 425
#     4  12  26  46  69 103 144 182 238 294 348 415
#     4  10  25  44  74  99 138 191 232 290 354 420
#     4  12  29  45  73 105 141 192 233 295 361 412
#     4  11  27  48  77 105 145 183 240 299 354 425
#     4  12  27  45  71 103 148 185 242 290 351 427
#
# _framework density 22.382245999999999
#
# number of rings (size 3 to 8) (size 9 to 14) (size 15 to 20)
#    0.000    0.857    1.429    3.000   18.000    1.714 
#    0.000    0.000    0.000    0.000    0.000    0.000 
#    0.000    0.000    0.000    0.000    0.000    0.000 
#
# Total GULP energy -173550.010697 kJ/mol
# GULP energy per Si atom -12396.429335 kJ/mol
# Density = 2.233130 g / cm^3
# Si number density = 22.382246 Si / 1000 Ang^3
#
#
#
# Elastic Constant Matrix: (Units=GPa)
#
#
# Indices 1 2 3 4 5 6 
#
# 1 154.7143 69.6984 64.7769 -7.0725 0.4973 -16.9213
# 2 69.6984 120.3925 42.0535 3.4983 4.7090 -16.5880
# 3 64.7769 42.0535 141.8234 -12.0662 -7.9008 -10.0010
# 4 -7.0725 3.4983 -12.0662 22.5563 8.2708 6.9996
# 5 0.4973 4.7090 -7.9008 8.2708 43.2975 -7.8132
# 6 -16.9213 -16.5880 -10.0010 6.9996 -7.8132 37.3286
#
#
#
# Elastic Compliance Matrix: (Units=1/GPa)
#
#
# Indices 1 2 3 4 5 6 
#
# 1 0.010024 -0.004644 -0.002960 0.002006 -0.000308 0.001247
# 2 -0.004644 0.012295 -0.001708 -0.005584 0.000191 0.003988
# 3 -0.002960 -0.001708 0.009300 0.003923 0.001149 -0.000104
# 4 0.002006 -0.005584 0.003923 0.056541 -0.011959 -0.013627
# 5 -0.000308 0.000191 0.001149 -0.011959 0.027045 0.008156
# 6 0.001247 0.003988 -0.000104 -0.013627 0.008156 0.033361
#
#
# Mechanical properties :
#
#
# Convention : Reuss Voigt Hill
#
# Bulk Modulus (GPa) = 76.94882 85.55417 81.25149
# Shear Modulus (GPa) = 29.15099 36.66324 32.90711
#
# Velocity S-wave (km/s) = 3.61281 4.05167 3.83852
# Velocity P-wave (km/s) = 7.20120 7.75856 7.48507
#
# Compressibility (1/GPa) = 0.01299565
#
# Stress axis : x y z
#
# Youngs Moduli (GPa) = 99.76266 81.33102 107.52846
#
# Poissons Ratio (x) = 0.37767 0.31828
# Poissons Ratio (y) = 0.46325 0.18368
# Poissons Ratio (z) = 0.29530 0.13893
#
# Static dielectric constant tensor:
#      x y z
#    x 34.649390 26.303930 -21.106970 
#    y 26.303930 26.932600 -18.250440 
#    z -21.106970 -18.250440 18.880590 
# 
# 
# High freq. dielectric constant tensor:
#      x y z
#    x 1.897040 -0.005260 -0.005610 
#    y -0.005260 1.893820 -0.011240 
#    z -0.005610 -0.011240 1.890300 
# 
# From -- ./inp_files/183998.got.cif
#   From: 2010.06.25/outbox.cif.g09.slc.cpg/sg2_92_cif.got.tgz:183998.got - 2010.06.27 13:26:56.
