data_PCOD8028366
_publ_section_title
;
Structure prediction by ZEFSAII (Michael W. Deem and Ramdas Pophale) SiO2 
 PCOD8028366
Probable space group: P -1
;
_chemical_formula_sum "Si O2"
_cell_formula_units_Z 10
_cell_length_a 9.269616
_cell_length_b 10.117313
_cell_length_c 10.589824
_cell_angle_alpha 85.655253
_cell_angle_beta 51.210331
_cell_angle_gamma 45.185122
_cell_volume 411.811944
_symmetry_space_group_name_H-M "P -1"
_symmetry_group_IT_number 2
_symmetry_cell_setting 'triclinic'
loop_
_space_group_symop_operation_xyz
x,y,z
-x,-y,-z
loop_
_atom_site_type_symbol
_atom_site_label
_atom_site_fract_x
_atom_site_fract_y
_atom_site_fract_z
Si Si1 0.700582 0.696785 0.903148
Si Si2 0.826314 0.968498 0.061706
Si Si3 0.258727 0.537984 0.694499
Si Si4 0.169285 0.281512 0.507156
Si Si5 0.305621 0.914727 0.363395
O O1 0.934765 0.690586 0.771429
O O2 0.964226 0.414771 0.743319
O O3 0.390233 0.889659 0.959814
O O4 0.556800 0.769600 0.116449
O O5 0.581004 0.067082 0.304016
O O6 0.124830 0.680745 0.890262
O O7 0.000000 0.000000 0.000000
O O8 0.500000 0.500000 0.500000
O O9 0.471984 0.275522 0.627494
O O10 0.000000 0.500000 0.500000
O O11 0.130294 0.160507 0.476910
O O12 0.000000 0.000000 0.500000
#
# Coordination Sequence:
#
# PCOD8028366 Si02
#       5
#     2   2   2   2   2
#     4  11  25  49  77 103 152 198 246 310 371 435
#     4  11  24  44  76 110 149 197 251 300 376 447
#     4  12  26  46  76 109 152 200 246 307 381 438
#     4  10  25  45  75 106 150 192 250 305 371 436
#     4  12  28  47  74 114 151 193 256 307 367 449
#
# _framework density 24.282928999999999
#
# number of rings (size 3 to 8) (size 9 to 14) (size 15 to 20)
#    0.000    0.800    2.000    3.600   14.000    1.600 
#    3.600    0.000    0.000    0.000    0.000    0.000 
#    0.000    0.000    0.000    0.000    0.000    0.000 
#
# Total GULP energy -123943.566679 kJ/mol
# GULP energy per Si atom -12394.356668 kJ/mol
# Density = 2.422766 g / cm^3
# Si number density = 24.282929 Si / 1000 Ang^3
#
#
#
# Elastic Constant Matrix: (Units=GPa)
#
#
# Indices 1 2 3 4 5 6 
#
# 1 170.8771 50.9962 54.2322 4.3717 -16.1805 42.2523
# 2 50.9962 105.9567 33.6473 11.5833 4.9996 26.3344
# 3 54.2322 33.6473 173.3386 -0.8852 20.0245 38.0893
# 4 4.3717 11.5833 -0.8852 35.3487 13.9329 5.7993
# 5 -16.1805 4.9996 20.0245 13.9329 63.4670 6.6668
# 6 42.2523 26.3344 38.0893 5.7993 6.6668 50.4983
#
#
#
# Elastic Compliance Matrix: (Units=1/GPa)
#
#
# Indices 1 2 3 4 5 6 
#
# 1 0.008748 -0.002498 -0.001525 -0.000880 0.003653 -0.005247
# 2 -0.002498 0.012037 -0.000836 -0.003007 -0.000328 -0.003168
# 3 -0.001525 -0.000836 0.007614 0.002419 -0.002843 -0.003933
# 4 -0.000880 -0.003007 0.002419 0.032863 -0.007726 -0.002274
# 5 0.003653 -0.000328 -0.002843 -0.007726 0.019562 -0.002436
# 6 -0.005247 -0.003168 -0.003933 -0.002274 -0.002436 0.029394
#
#
# Mechanical properties :
#
#
# Convention : Reuss Voigt Hill
#
# Bulk Modulus (GPa) = 53.53586 80.88045 67.20816
# Shear Modulus (GPa) = 39.63116 50.61591 45.12354
#
# Velocity S-wave (km/s) = 4.04426 4.57050 4.31541
# Velocity P-wave (km/s) = 6.62590 7.82512 7.25035
#
# Compressibility (1/GPa) = 0.01867907
#
# Stress axis : x y z
#
# Youngs Moduli (GPa) = 114.31770 83.07613 131.34288
#
# Poissons Ratio (x) = 0.20750 0.20036
# Poissons Ratio (y) = 0.28553 0.10987
# Poissons Ratio (z) = 0.17439 0.06949
#
# Static dielectric constant tensor:
#      x y z
#    x -15.524160 9.550650 11.846500 
#    y 9.550650 0.046010 -5.017870 
#    z 11.846500 -5.017870 -1.250700 
# 
# 
# High freq. dielectric constant tensor:
#      x y z
#    x 1.970280 0.017390 0.003170 
#    y 0.017390 1.942850 0.015970 
#    z 0.003170 0.015970 1.996990 
# 
# From -- ./inp_files/143918.got.cif
#   From: 2010.06.25/outbox.cif.g09.slc.cpg/sg2_72_cif.got.tgz:143918.got - 2010.06.27 13:26:56.
