data_PCOD8028117
_publ_section_title
;
Structure prediction by ZEFSAII (Michael W. Deem and Ramdas Pophale) SiO2 
 PCOD8028117
Probable space group: P -1
;
_chemical_formula_sum "Si O2"
_cell_formula_units_Z 16
_cell_length_a 10.038417
_cell_length_b 12.941344
_cell_length_c 19.162613
_cell_angle_alpha 35.411939
_cell_angle_beta 142.146383
_cell_angle_gamma 148.642833
_cell_volume 713.543735
_symmetry_space_group_name_H-M "P -1"
_symmetry_group_IT_number 2
_symmetry_cell_setting 'triclinic'
loop_
_space_group_symop_operation_xyz
x,y,z
-x,-y,-z
loop_
_atom_site_type_symbol
_atom_site_label
_atom_site_fract_x
_atom_site_fract_y
_atom_site_fract_z
Si Si1 0.451064 0.270073 0.615678
Si Si2 0.420900 0.511031 0.235153
Si Si3 0.206011 0.680318 0.158318
Si Si4 0.453359 0.020608 0.626727
Si Si5 0.655557 0.858114 0.034737
Si Si6 0.916333 0.999748 0.627102
Si Si7 0.996159 0.195010 0.701465
Si Si8 0.413688 0.654323 0.902654
O O1 0.500000 0.500000 0.500000
O O2 0.726550 0.316175 0.733643
O O3 0.374059 0.133998 0.587017
O O4 0.217329 0.126548 0.654293
O O5 0.372943 0.607495 0.229596
O O6 0.407900 0.637404 0.093089
O O7 0.722301 0.567625 0.332106
O O8 0.199711 0.254232 0.282556
O O9 0.891563 0.507626 0.107649
O O10 0.326288 0.929582 0.049846
O O11 0.757588 0.206644 0.623125
O O12 0.247497 0.940683 0.521441
O O13 0.429723 0.807030 0.763115
O O14 0.938227 0.908928 0.149883
O O15 0.611218 0.816090 0.956891
O O16 0.894571 0.045875 0.672665
O O17 0.500000 0.500000 0.000000
#
# Coordination Sequence:
#
# PCOD8028117 Si02
#       8
#     2   2   2   2   2   2   2   2
#     4  12  25  47  75 105 145 190 242 298 356 430
#     4  10  25  43  73 103 140 191 240 296 348 427
#     4  12  23  45  72 102 144 193 237 299 364 416
#     4  12  26  46  75 106 146 192 237 298 364 425
#     4  10  25  46  68 107 141 186 238 295 355 428
#     4  12  25  50  72 106 145 186 250 292 356 427
#     4  10  26  47  70 104 147 185 238 296 359 423
#     4  12  28  45  73 109 145 187 242 294 362 434
#
# _framework density 22.423293000000001
#
# number of rings (size 3 to 8) (size 9 to 14) (size 15 to 20)
#    0.750    0.000    2.500    4.125    5.250    2.000 
#    2.250    0.000    0.000    0.000    0.000    0.000 
#    0.000    0.000    0.000    0.000    0.000    0.000 
#
# Total GULP energy -198335.913131 kJ/mol
# GULP energy per Si atom -12395.994571 kJ/mol
# Density = 2.237226 g / cm^3
# Si number density = 22.423293 Si / 1000 Ang^3
#
#
#
# Elastic Constant Matrix: (Units=GPa)
#
#
# Indices 1 2 3 4 5 6 
#
# 1 93.0862 33.3855 24.3243 4.0307 4.5077 8.7304
# 2 33.3855 101.6818 54.4166 -10.1057 -5.8920 -1.6822
# 3 24.3243 54.4166 119.0264 4.2551 -7.2853 -6.7245
# 4 4.0307 -10.1057 4.2551 54.5765 -6.4502 -4.6078
# 5 4.5077 -5.8920 -7.2853 -6.4502 27.1486 8.1775
# 6 8.7304 -1.6822 -6.7245 -4.6078 8.1775 31.1767
#
#
#
# Elastic Compliance Matrix: (Units=1/GPa)
#
#
# Indices 1 2 3 4 5 6 
#
# 1 0.013108 -0.004187 -0.001064 -0.002306 -0.002794 -0.003734
# 2 -0.004187 0.014951 -0.005901 0.003950 0.003155 0.000462
# 3 -0.001064 -0.005901 0.011548 -0.001629 0.001017 0.001963
# 4 -0.002306 0.003950 -0.001629 0.020118 0.004923 0.002190
# 5 -0.002794 0.003155 0.001017 0.004923 0.042186 -0.009166
# 6 -0.003734 0.000462 0.001963 0.002190 -0.009166 0.036297
#
#
# Mechanical properties :
#
#
# Convention : Reuss Voigt Hill
#
# Bulk Modulus (GPa) = 57.79774 59.78304 58.79039
# Shear Modulus (GPa) = 30.06968 36.02490 33.04729
#
# Velocity S-wave (km/s) = 3.66594 4.01257 3.84317
# Velocity P-wave (km/s) = 6.61442 6.94166 6.78001
#
# Compressibility (1/GPa) = 0.01730171
#
# Stress axis : x y z
#
# Youngs Moduli (GPa) = 76.29026 66.88682 86.59303
#
# Poissons Ratio (x) = 0.28007 0.09213
# Poissons Ratio (y) = 0.31944 0.51102
# Poissons Ratio (z) = 0.08117 0.39472
#
# Static dielectric constant tensor:
#      x y z
#    x 3.940000 0.044790 -0.116350 
#    y 0.044790 4.031890 0.169770 
#    z -0.116350 0.169770 4.118690 
# 
# 
# High freq. dielectric constant tensor:
#      x y z
#    x 1.880130 0.001050 -0.005520 
#    y 0.001050 1.889260 0.006700 
#    z -0.005520 0.006700 1.892030 
# 
# From -- ./inp_files/559724.got.cif
#   From: 2010.06.25/outbox.cif.g09.slc.cpg/sg2_280_cif.got.tgz:559724.got - 2010.06.27 13:26:56.
