data_PCOD8028210
_publ_section_title
;
Structure prediction by ZEFSAII (Michael W. Deem and Ramdas Pophale) SiO2 
 PCOD8028210
Probable space group: P -1
;
_chemical_formula_sum "Si O2"
_cell_formula_units_Z 14
_cell_length_a 9.374833
_cell_length_b 15.722685
_cell_length_c 9.066786
_cell_angle_alpha 66.520263
_cell_angle_beta 54.366147
_cell_angle_gamma 36.493518
_cell_volume 639.190644
_symmetry_space_group_name_H-M "P -1"
_symmetry_group_IT_number 2
_symmetry_cell_setting 'triclinic'
loop_
_space_group_symop_operation_xyz
x,y,z
-x,-y,-z
loop_
_atom_site_type_symbol
_atom_site_label
_atom_site_fract_x
_atom_site_fract_y
_atom_site_fract_z
Si Si1 0.200703 0.581309 0.122678
Si Si2 0.603200 0.208658 0.553044
Si Si3 0.515609 0.706829 0.763559
Si Si4 0.018034 0.147190 0.847105
Si Si5 0.409036 0.148215 0.203244
Si Si6 0.918087 0.901599 0.495861
Si Si7 0.856219 0.646930 0.051236
O O1 0.227034 0.467492 0.252554
O O2 0.007919 0.729936 0.228407
O O3 0.087659 0.621998 0.994485
O O4 0.500000 0.500000 0.000000
O O5 0.573424 0.262087 0.372330
O O6 0.312461 0.318766 0.729549
O O7 0.782076 0.209222 0.538505
O O8 0.728441 0.055299 0.578852
O O9 0.621812 0.764696 0.707282
O O10 0.253893 0.787859 0.966438
O O11 0.064777 0.088542 0.696333
O O12 0.280167 0.014895 0.880234
O O13 0.198444 0.152074 0.362334
O O14 0.336914 0.222922 0.038371
O O15 0.000000 0.500000 0.000000
#
# Coordination Sequence:
#
# PCOD8028210 Si02
#       7
#     2   2   2   2   2   2   2
#     4  10  25  44  72 100 142 183 237 282 349 420
#     4  11  27  45  70 106 146 181 239 289 354 414
#     4  11  24  46  72 104 142 194 229 288 353 421
#     4  11  24  45  75 103 145 187 236 284 356 419
#     4  12  25  43  76 103 139 186 239 285 356 408
#     4  11  26  44  70 110 143 179 235 302 342 418
#     4  12  27  48  70 104 144 188 231 293 354 417
#
# _framework density 21.902698999999998
#
# number of rings (size 3 to 8) (size 9 to 14) (size 15 to 20)
#    0.000    0.857    2.857    2.571   12.000    2.857 
#    0.000    1.429    0.000    0.000    0.000    0.000 
#    0.000    0.000    0.000    0.000    0.000    0.000 
#
# Total GULP energy -173630.223136 kJ/mol
# GULP energy per Si atom -12402.158795 kJ/mol
# Density = 2.185285 g / cm^3
# Si number density = 21.902699 Si / 1000 Ang^3
#
#
#
# Elastic Constant Matrix: (Units=GPa)
#
#
# Indices 1 2 3 4 5 6 
#
# 1 163.9889 59.7412 41.1573 0.2393 3.8375 -5.5843
# 2 59.7412 141.2768 26.3428 3.2035 -2.5064 0.0887
# 3 41.1573 26.3428 103.3057 -0.7835 2.2320 2.9341
# 4 0.2393 3.2035 -0.7835 31.0812 2.6244 6.4091
# 5 3.8375 -2.5064 2.2320 2.6244 27.3839 -8.3615
# 6 -5.5843 0.0887 2.9341 6.4091 -8.3615 43.3875
#
#
#
# Elastic Compliance Matrix: (Units=1/GPa)
#
#
# Indices 1 2 3 4 5 6 
#
# 1 0.007795 -0.002869 -0.002384 0.000042 -0.000860 0.000998
# 2 -0.002869 0.008540 -0.001076 -0.001026 0.001403 0.000108
# 3 -0.002384 -0.001076 0.010974 0.000790 -0.001158 -0.001387
# 4 0.000042 -0.001026 0.000790 0.034000 -0.005281 -0.006086
# 5 -0.000860 0.001403 -0.001158 -0.005281 0.039945 0.008443
# 6 0.000998 0.000108 -0.001387 -0.006086 0.008443 0.025796
#
#
# Mechanical properties :
#
#
# Convention : Reuss Voigt Hill
#
# Bulk Modulus (GPa) = 68.24445 73.67266 70.95855
# Shear Modulus (GPa) = 34.57993 39.12585 36.85289
#
# Velocity S-wave (km/s) = 3.97772 4.23111 4.10637
# Velocity P-wave (km/s) = 7.23339 7.58809 7.41286
#
# Compressibility (1/GPa) = 0.01465321
#
# Stress axis : x y z
#
# Youngs Moduli (GPa) = 128.28140 117.09442 91.12114
#
# Poissons Ratio (x) = 0.33592 0.21720
# Poissons Ratio (y) = 0.36801 0.09804
# Poissons Ratio (z) = 0.30577 0.12599
#
# Static dielectric constant tensor:
#      x y z
#    x 4.357040 0.123350 0.061410 
#    y 0.123350 4.682120 0.042240 
#    z 0.061410 0.042240 3.654470 
# 
# 
# High freq. dielectric constant tensor:
#      x y z
#    x 1.886020 -0.002130 0.004340 
#    y -0.002130 1.875880 0.004140 
#    z 0.004340 0.004140 1.843090 
# 
# From -- ./inp_files/179854.got.cif
#   From: 2010.06.25/outbox.cif.g09.slc.cpg/sg2_90_cif.got.tgz:179854.got - 2010.06.27 13:26:56.
