data_PCOD8028255
_publ_section_title
;
Structure prediction by ZEFSAII (Michael W. Deem and Ramdas Pophale) SiO2 
 PCOD8028255
Probable space group: P -1
;
_chemical_formula_sum "Si O2"
_cell_formula_units_Z 14
_cell_length_a 19.907606
_cell_length_b 8.311212
_cell_length_c 9.327525
_cell_angle_alpha 32.682531
_cell_angle_beta 47.755409
_cell_angle_gamma 59.670005
_cell_volume 609.722213
_symmetry_space_group_name_H-M "P -1"
_symmetry_group_IT_number 2
_symmetry_cell_setting 'triclinic'
loop_
_space_group_symop_operation_xyz
x,y,z
-x,-y,-z
loop_
_atom_site_type_symbol
_atom_site_label
_atom_site_fract_x
_atom_site_fract_y
_atom_site_fract_z
Si Si1 0.054962 0.330486 0.657239
Si Si2 0.748725 0.728686 0.701151
Si Si3 0.638033 0.611166 0.441196
Si Si4 0.529586 0.992423 0.127898
Si Si5 0.223851 0.570615 0.827713
Si Si6 0.591949 0.736384 0.708264
Si Si7 0.015654 0.352745 0.234862
O O1 0.157290 0.315319 0.475150
O O2 0.000000 0.500000 0.500000
O O3 0.059965 0.531063 0.642984
O O4 0.000000 0.000000 0.000000
O O5 0.668263 0.617458 0.787213
O O6 0.751809 0.071553 0.491405
O O7 0.730020 0.520923 0.023555
O O8 0.737052 0.589863 0.246198
O O9 0.637064 0.838210 0.409892
O O10 0.575374 0.704523 0.329804
O O11 0.603072 0.294571 0.807412
O O12 0.441781 0.987559 0.363051
O O13 0.500000 0.000000 0.000000
O O14 0.115763 0.462550 0.073554
O O15 0.500000 0.500000 0.000000
O O16 0.000000 0.000000 0.500000
O O17 0.000000 0.500000 0.000000
#
# Coordination Sequence:
#
# PCOD8028255 Si02
#       7
#     2   2   2   2   2   2   2
#     4  12  23  48  72 104 140 186 237 287 349 428
#     4  12  25  46  73  99 139 190 235 284 343 425
#     4  11  24  41  64  96 133 170 220 285 340 400
#     4  11  22  42  67  92 128 176 224 276 340 408
#     4  12  25  46  68 104 138 183 236 277 348 433
#     4  10  25  45  67 102 139 178 235 293 347 404
#     4  12  26  44  71 104 146 179 228 297 356 415
#
# _framework density 22.961276000000002
#
# number of rings (size 3 to 8) (size 9 to 14) (size 15 to 20)
#    0.000    0.571    2.857    5.143    2.000    5.714 
#    2.571    0.000    0.000    0.000    0.000    0.000 
#    0.000    0.000    0.000    0.000    0.000    0.000 
#
# Total GULP energy -173537.398433 kJ/mol
# GULP energy per Si atom -12395.528459 kJ/mol
# Density = 2.290902 g / cm^3
# Si number density = 22.961276 Si / 1000 Ang^3
#
#
#
# Elastic Constant Matrix: (Units=GPa)
#
#
# Indices 1 2 3 4 5 6 
#
# 1 131.2738 33.5617 24.6923 7.9321 12.9278 -7.4724
# 2 33.5617 182.8300 44.3785 34.1156 10.0367 -1.9164
# 3 24.6923 44.3785 85.8506 0.1945 17.9846 -7.2663
# 4 7.9321 34.1156 0.1945 53.0212 -0.0749 3.7498
# 5 12.9278 10.0367 17.9846 -0.0749 42.2314 5.7966
# 6 -7.4724 -1.9164 -7.2663 3.7498 5.7966 41.1485
#
#
#
# Elastic Compliance Matrix: (Units=1/GPa)
#
#
# Indices 1 2 3 4 5 6 
#
# 1 0.008454 -0.000946 -0.001388 -0.000767 -0.001992 0.001597
# 2 -0.000946 0.007350 -0.003530 -0.004572 0.000044 -0.000042
# 3 -0.001388 -0.003530 0.015292 0.002211 -0.005639 0.002877
# 4 -0.000767 -0.004572 0.002211 0.022056 0.000703 -0.002071
# 5 -0.001992 0.000044 -0.005639 0.000703 0.027406 -0.005280
# 6 0.001597 -0.000042 0.002877 -0.002071 -0.005280 0.026031
#
#
# Mechanical properties :
#
#
# Convention : Reuss Voigt Hill
#
# Bulk Modulus (GPa) = 51.63082 67.24661 59.43872
# Shear Modulus (GPa) = 40.07265 47.10169 43.58717
#
# Velocity S-wave (km/s) = 4.18212 4.53410 4.36166
# Velocity P-wave (km/s) = 6.77164 7.53401 7.16297
#
# Compressibility (1/GPa) = 0.01936828
#
# Stress axis : x y z
#
# Youngs Moduli (GPa) = 118.28683 136.05001 65.39365
#
# Poissons Ratio (x) = 0.12866 0.09080
# Poissons Ratio (y) = 0.11186 0.23083
# Poissons Ratio (z) = 0.16424 0.48024
#
# Static dielectric constant tensor:
#      x y z
#    x 4.213660 0.087080 0.128110 
#    y 0.087080 4.992390 0.189320 
#    z 0.128110 0.189320 4.170800 
# 
# 
# High freq. dielectric constant tensor:
#      x y z
#    x 1.904860 -0.003460 0.016790 
#    y -0.003460 1.934240 0.013730 
#    z 0.016790 0.013730 1.903990 
# 
# From -- ./inp_files/343178.got.cif
#   From: 2010.06.25/outbox.cif.g09.slc.cpg/sg2_172_cif.got.tgz:343178.got - 2010.06.27 13:26:56.
