data_PCOD8028489
_publ_section_title
;
Structure prediction by ZEFSAII (Michael W. Deem and Ramdas Pophale) SiO2 
 PCOD8028489
Probable space group: P -1
;
_chemical_formula_sum "Si O2"
_cell_formula_units_Z 14
_cell_length_a 8.287529
_cell_length_b 15.653485
_cell_length_c 5.433382
_cell_angle_alpha 122.825334
_cell_angle_beta 92.013251
_cell_angle_gamma 72.789578
_cell_volume 558.864926
_symmetry_space_group_name_H-M "P -1"
_symmetry_group_IT_number 2
_symmetry_cell_setting 'triclinic'
loop_
_space_group_symop_operation_xyz
x,y,z
-x,-y,-z
loop_
_atom_site_type_symbol
_atom_site_label
_atom_site_fract_x
_atom_site_fract_y
_atom_site_fract_z
Si Si1 0.584037 0.577292 0.491705
Si Si2 0.255253 0.122968 0.578531
Si Si3 0.989951 0.236363 0.390293
Si Si4 0.849401 0.667100 0.824313
Si Si5 0.129629 0.557986 0.999334
Si Si6 0.368977 0.922177 0.556887
Si Si7 0.316732 0.809882 0.871378
O O1 0.500000 0.500000 0.500000
O O2 0.740435 0.586845 0.680249
O O3 0.675453 0.521940 0.154568
O O4 0.453303 0.695593 0.626323
O O5 0.439718 0.074499 0.382127
O O6 0.092255 0.135538 0.412672
O O7 0.246503 0.044259 0.681175
O O8 0.241764 0.243087 0.841267
O O9 0.873011 0.199019 0.131955
O O10 0.141053 0.272089 0.333372
O O11 0.861360 0.340828 0.684839
O O12 0.046403 0.603591 0.802704
O O13 0.000000 0.500000 0.000000
O O14 0.308618 0.886090 0.753182
O O15 0.361465 0.851354 0.200579
#
# Coordination Sequence:
#
# PCOD8028489 Si02
#       7
#     2   2   2   2   2   2   2
#     4  12  26  44  73 104 151 197 243 312 369 433
#     4  10  25  46  80 100 146 192 245 299 380 444
#     4  11  26  45  72 103 149 194 245 304 369 451
#     4  11  23  46  69 105 140 193 249 297 365 458
#     4  11  25  42  68 101 138 198 251 296 364 444
#     4  11  27  50  75 111 144 195 244 314 370 441
#     4  12  29  47  72 113 154 184 252 309 369 437
#
# _framework density 25.050774000000001
#
# number of rings (size 3 to 8) (size 9 to 14) (size 15 to 20)
#    0.000    0.857    2.857    2.143   12.000    2.857 
#    0.000    0.000    0.000    0.000    0.000    0.000 
#    0.000    0.000    0.000    0.000    0.000    0.000 
#
# Total GULP energy -173505.274525 kJ/mol
# GULP energy per Si atom -12393.233895 kJ/mol
# Density = 2.499376 g / cm^3
# Si number density = 25.050774 Si / 1000 Ang^3
#
#
#
# Elastic Constant Matrix: (Units=GPa)
#
#
# Indices 1 2 3 4 5 6 
#
# 1 98.7518 9.2006 22.0559 7.1314 4.3902 13.5306
# 2 9.2006 86.1602 11.2645 8.6398 -4.5545 15.7282
# 3 22.0559 11.2645 50.0776 -4.9318 3.0376 -5.6697
# 4 7.1314 8.6398 -4.9318 34.2612 1.2174 -9.4678
# 5 4.3902 -4.5545 3.0376 1.2174 34.0507 -2.2676
# 6 13.5306 15.7282 -5.6697 -9.4678 -2.2676 41.9245
#
#
#
# Elastic Compliance Matrix: (Units=1/GPa)
#
#
# Indices 1 2 3 4 5 6 
#
# 1 0.013146 0.001454 -0.007476 -0.006142 -0.001096 -0.007246
# 2 0.001454 0.014495 -0.005644 -0.007097 0.001965 -0.008167
# 3 -0.007476 -0.005644 0.026761 0.009728 -0.001844 0.010246
# 4 -0.006142 -0.007097 0.009728 0.037684 -0.001414 0.014394
# 5 -0.001096 0.001965 -0.001844 -0.001414 0.030032 0.000673
# 6 -0.007246 -0.008167 0.010246 0.014394 0.000673 0.033927
#
#
# Mechanical properties :
#
#
# Convention : Reuss Voigt Hill
#
# Bulk Modulus (GPa) = 32.18391 35.55907 33.87149
# Shear Modulus (GPa) = 26.35277 34.87852 30.61564
#
# Velocity S-wave (km/s) = 3.24693 3.73542 3.49971
# Velocity P-wave (km/s) = 5.18962 5.72975 5.46636
#
# Compressibility (1/GPa) = 0.03107142
#
# Stress axis : x y z
#
# Youngs Moduli (GPa) = 76.07076 68.98802 37.36765
#
# Poissons Ratio (x) = -0.10032 0.27935
# Poissons Ratio (y) = -0.11062 0.21090
# Poissons Ratio (z) = 0.56868 0.38936
#
# Static dielectric constant tensor:
#      x y z
#    x 4.383800 -0.193410 0.124420 
#    y -0.193410 4.992390 0.156380 
#    z 0.124420 0.156380 4.501050 
# 
# 
# High freq. dielectric constant tensor:
#      x y z
#    x 1.994910 -0.008190 0.002990 
#    y -0.008190 2.010500 0.011890 
#    z 0.002990 0.011890 1.993210 
# 
# From -- ./inp_files/26878.got.cif
#   From: 2010.06.25/outbox.cif.g09.slc.cpg/sg2_14_cif.got.tgz:26878.got - 2010.06.27 13:26:56.
