data_PCOD8028529
_publ_section_title
;
Structure prediction by ZEFSAII (Michael W. Deem and Ramdas Pophale) SiO2 
 PCOD8028529
Probable space group: P -1
;
_chemical_formula_sum "Si O2"
_cell_formula_units_Z 16
_cell_length_a 23.199219
_cell_length_b 5.115018
_cell_length_c 14.450111
_cell_angle_alpha 58.127511
_cell_angle_beta 150.725768
_cell_angle_gamma 114.746096
_cell_volume 708.406155
_symmetry_space_group_name_H-M "P -1"
_symmetry_group_IT_number 2
_symmetry_cell_setting 'triclinic'
loop_
_space_group_symop_operation_xyz
x,y,z
-x,-y,-z
loop_
_atom_site_type_symbol
_atom_site_label
_atom_site_fract_x
_atom_site_fract_y
_atom_site_fract_z
Si Si1 0.252746 0.213619 0.562816
Si Si2 0.738218 0.508311 0.287448
Si Si3 0.629626 0.079435 0.689360
Si Si4 0.992884 0.640502 0.564326
Si Si5 0.575801 0.833584 0.843421
Si Si6 0.133921 0.243554 0.975524
Si Si7 0.012700 0.627069 0.892358
Si Si8 0.581397 0.616578 0.395661
O O1 0.309370 0.361270 0.704591
O O2 0.311272 0.343419 0.530198
O O3 0.113339 0.316017 0.344863
O O4 0.281928 0.848025 0.680305
O O5 0.875138 0.559865 0.465003
O O6 0.670179 0.691390 0.075426
O O7 0.638130 0.428232 0.599539
O O8 0.500000 0.000000 0.500000
O O9 0.645701 0.040092 0.830297
O O10 0.725202 0.847579 0.811752
O O11 0.000000 0.500000 0.500000
O O12 0.103634 0.503458 0.806660
O O13 0.000000 0.000000 0.500000
O O14 0.519251 0.559836 0.762034
O O15 0.472998 0.047855 0.710554
O O16 0.096075 0.372141 0.999506
O O17 0.068835 0.947014 0.913121
O O18 0.000000 0.500000 0.000000
#
# Coordination Sequence:
#
# PCOD8028529 Si02
#       8
#     2   2   2   2   2   2   2   2
#     4  12  24  45  69 102 145 183 230 292 342 424
#     4  12  25  44  70 100 148 178 233 289 348 419
#     4  10  25  47  72 101 141 176 239 297 346 415
#     4  12  24  42  68  98 137 181 229 282 340 415
#     4  11  25  45  69 103 137 187 234 291 351 412
#     4  12  25  45  68 104 135 181 231 274 363 410
#     4  12  25  44  70 101 141 182 232 286 343 419
#     4  11  25  44  71 101 137 187 237 286 355 408
#
# _framework density 22.585913000000001
#
# number of rings (size 3 to 8) (size 9 to 14) (size 15 to 20)
#    0.000    0.500    2.500    5.250    0.000   12.000 
#    0.000    0.000    0.000    0.000    0.000    0.000 
#    0.000    0.000    0.000    0.000    0.000    0.000 
#
# Total GULP energy -198491.943123 kJ/mol
# GULP energy per Si atom -12405.746445 kJ/mol
# Density = 2.253451 g / cm^3
# Si number density = 22.585913 Si / 1000 Ang^3
#
#
#
# Elastic Constant Matrix: (Units=GPa)
#
#
# Indices 1 2 3 4 5 6 
#
# 1 146.4543 32.5411 52.6195 -1.0427 2.3247 -4.7786
# 2 32.5411 71.8417 42.9178 -13.2413 11.7859 -9.9851
# 3 52.6195 42.9178 139.1484 -19.7011 -10.5319 3.4624
# 4 -1.0427 -13.2413 -19.7011 22.3184 -1.2167 -6.1598
# 5 2.3247 11.7859 -10.5319 -1.2167 32.2814 -3.1431
# 6 -4.7786 -9.9851 3.4624 -6.1598 -3.1431 44.9908
#
#
#
# Elastic Compliance Matrix: (Units=1/GPa)
#
#
# Indices 1 2 3 4 5 6 
#
# 1 0.008474 -0.002641 -0.002995 -0.003868 -0.000773 -0.000039
# 2 -0.002641 0.022299 -0.005341 0.009506 -0.008774 0.005768
# 3 -0.002995 -0.005341 0.011414 0.006813 0.006047 -0.001027
# 4 -0.003868 0.009506 0.006813 0.058993 0.002170 0.009403
# 5 -0.000773 -0.008774 0.006047 0.002170 0.036324 0.000340
# 6 -0.000039 0.005768 -0.001027 0.009403 0.000340 0.024893
#
#
# Mechanical properties :
#
#
# Convention : Reuss Voigt Hill
#
# Bulk Modulus (GPa) = 49.42108 68.17792 58.79950
# Shear Modulus (GPa) = 26.16472 35.20920 30.68696
#
# Velocity S-wave (km/s) = 3.40730 3.95258 3.69002
# Velocity P-wave (km/s) = 6.11624 7.14717 6.65171
#
# Compressibility (1/GPa) = 0.02023428
#
# Stress axis : x y z
#
# Youngs Moduli (GPa) = 118.00183 44.84431 87.60798
#
# Poissons Ratio (x) = 0.11842 0.26241
# Poissons Ratio (y) = 0.31160 0.46792
# Poissons Ratio (z) = 0.35345 0.23952
#
# Static dielectric constant tensor:
#      x y z
#    x 4.450020 0.169400 -0.134220 
#    y 0.169400 4.257850 -0.215810 
#    z -0.134220 -0.215810 4.199970 
# 
# 
# High freq. dielectric constant tensor:
#      x y z
#    x 1.910160 0.000220 -0.005680 
#    y 0.000220 1.894310 -0.010730 
#    z -0.005680 -0.010730 1.900780 
# 
# From -- ./inp_files/542008.got.cif
#   From: 2010.06.25/outbox.cif.g09.slc.cpg/sg2_272_cif.got.tgz:542008.got - 2010.06.27 13:26:56.
