data_PCOD8028538
_publ_section_title
;
Structure prediction by ZEFSAII (Michael W. Deem and Ramdas Pophale) SiO2 
 PCOD8028538
Probable space group: P -1
;
_chemical_formula_sum "Si O2"
_cell_formula_units_Z 14
_cell_length_a 5.187885
_cell_length_b 9.024393
_cell_length_c 21.787545
_cell_angle_alpha 40.536054
_cell_angle_beta 85.845547
_cell_angle_gamma 102.280189
_cell_volume 602.165839
_symmetry_space_group_name_H-M "P -1"
_symmetry_group_IT_number 2
_symmetry_cell_setting 'triclinic'
loop_
_space_group_symop_operation_xyz
x,y,z
-x,-y,-z
loop_
_atom_site_type_symbol
_atom_site_label
_atom_site_fract_x
_atom_site_fract_y
_atom_site_fract_z
Si Si1 0.402313 0.220977 0.443152
Si Si2 0.057838 0.257266 0.088749
Si Si3 0.912726 0.922034 0.626063
Si Si4 0.788531 0.244729 0.612464
Si Si5 0.821055 0.754702 0.042356
Si Si6 0.807194 0.550137 0.847736
Si Si7 0.742736 0.761323 0.307844
O O1 0.227996 0.239461 0.380774
O O2 0.656307 0.494754 0.359310
O O3 0.500000 0.000000 0.500000
O O4 0.206459 0.152654 0.528792
O O5 0.239741 0.320424 0.129184
O O6 0.208261 0.200153 0.044424
O O7 0.783490 0.992804 0.188469
O O8 0.000000 0.500000 0.000000
O O9 0.969488 0.747063 0.729968
O O10 0.709699 0.036685 0.625406
O O11 0.500102 0.258096 0.634026
O O12 0.000000 0.500000 0.500000
O O13 0.954477 0.174559 0.685933
O O14 0.503066 0.637027 0.112131
O O15 0.980126 0.575783 0.102999
O O16 0.000000 0.000000 0.000000
#
# Coordination Sequence:
#
# PCOD8028538 Si02
#       7
#     2   2   2   2   2   2   2
#     4  11  27  46  70 105 149 192 230 299 361 435
#     4  10  25  47  73 104 143 186 242 297 353 414
#     4  11  26  44  70 103 146 186 239 289 364 430
#     4  12  25  45  72 105 140 183 243 293 347 430
#     4  11  26  47  71 106 140 184 238 299 353 422
#     4  11  25  45  73 101 139 188 234 292 360 418
#     4  12  27  45  72 106 140 192 239 294 358 422
#
# _framework density 23.249407000000001
#
# number of rings (size 3 to 8) (size 9 to 14) (size 15 to 20)
#    0.000    0.857    2.857    2.143   12.000    2.286 
#    0.000    0.000    0.000    0.000    0.000    0.000 
#    0.000    0.000    0.000    0.000    0.000    0.000 
#
# Total GULP energy -173521.353979 kJ/mol
# GULP energy per Si atom -12394.382427 kJ/mol
# Density = 2.319649 g / cm^3
# Si number density = 23.249407 Si / 1000 Ang^3
#
#
#
# Elastic Constant Matrix: (Units=GPa)
#
#
# Indices 1 2 3 4 5 6 
#
# 1 71.4565 10.8988 14.9896 0.1014 2.6548 5.3112
# 2 10.8988 114.6545 60.4762 -0.3913 5.3460 8.8318
# 3 14.9896 60.4762 150.0671 -8.3252 5.7295 9.1817
# 4 0.1014 -0.3913 -8.3252 42.3094 5.7209 0.3086
# 5 2.6548 5.3460 5.7295 5.7209 27.6640 -4.8273
# 6 5.3112 8.8318 9.1817 0.3086 -4.8273 33.2688
#
#
#
# Elastic Compliance Matrix: (Units=1/GPa)
#
#
# Indices 1 2 3 4 5 6 
#
# 1 0.014510 -0.000614 -0.001023 -0.000035 -0.001417 -0.002076
# 2 -0.000614 0.011284 -0.004344 -0.000540 -0.001442 -0.001903
# 3 -0.001023 -0.004344 0.008761 0.001899 -0.001503 -0.001337
# 4 -0.000035 -0.000540 0.001899 0.024780 -0.005659 -0.001426
# 5 -0.001417 -0.001442 -0.001503 -0.005659 0.039225 0.006768
# 6 -0.002076 -0.001903 -0.001337 -0.001426 0.006768 0.032259
#
#
# Mechanical properties :
#
#
# Convention : Reuss Voigt Hill
#
# Bulk Modulus (GPa) = 44.26246 56.54524 50.40385
# Shear Modulus (GPa) = 33.26423 37.30269 35.28346
#
# Velocity S-wave (km/s) = 3.78664 4.00991 3.89987
# Velocity P-wave (km/s) = 6.18042 6.76854 6.48116
#
# Compressibility (1/GPa) = 0.02259251
#
# Stress axis : x y z
#
# Youngs Moduli (GPa) = 68.91920 88.62330 114.14003
#
# Poissons Ratio (x) = 0.05441 0.11673
# Poissons Ratio (y) = 0.04231 0.49587
# Poissons Ratio (z) = 0.07048 0.38502
#
# Static dielectric constant tensor:
#      x y z
#    x 3.982160 0.139220 0.019550 
#    y 0.139220 4.287460 0.322630 
#    z 0.019550 0.322630 4.510890 
# 
# 
# High freq. dielectric constant tensor:
#      x y z
#    x 1.897980 0.003030 0.002670 
#    y 0.003030 1.929090 -0.000560 
#    z 0.002670 -0.000560 1.935730 
# 
# From -- ./inp_files/55451.got.cif
#   From: 2010.06.25/outbox.cif.g09.slc.cpg/sg2_28_cif.got.tgz:55451.got - 2010.06.27 13:26:56.
