data_PCOD8028642
_publ_section_title
;
Structure prediction by ZEFSAII (Michael W. Deem and Ramdas Pophale) SiO2 
 PCOD8028642
Probable space group: P -1
;
_chemical_formula_sum "Si O2"
_cell_formula_units_Z 14
_cell_length_a 5.227561
_cell_length_b 5.447507
_cell_length_c 21.786137
_cell_angle_alpha 69.146249
_cell_angle_beta 68.446763
_cell_angle_gamma 90.339536
_cell_volume 532.515432
_symmetry_space_group_name_H-M "P -1"
_symmetry_group_IT_number 2
_symmetry_cell_setting 'triclinic'
loop_
_space_group_symop_operation_xyz
x,y,z
-x,-y,-z
loop_
_atom_site_type_symbol
_atom_site_label
_atom_site_fract_x
_atom_site_fract_y
_atom_site_fract_z
Si Si1 0.160899 0.009138 0.921764
Si Si2 0.344858 0.439270 0.773958
Si Si3 0.796800 0.773265 0.318744
Si Si4 0.990240 0.363976 0.416523
Si Si5 0.342275 0.282222 0.078071
Si Si6 0.157663 0.281481 0.225836
Si Si7 0.710568 0.130602 0.578730
O O1 0.469390 0.949010 0.913349
O O2 0.970034 0.807539 0.911116
O O3 0.205028 0.293124 0.859869
O O4 0.000000 0.000000 0.000000
O O5 0.359015 0.242988 0.732346
O O6 0.656327 0.585588 0.746487
O O7 0.149989 0.647314 0.752445
O O8 0.837616 0.475817 0.362200
O O9 0.617370 0.904065 0.374096
O O10 0.099412 0.960438 0.267084
O O11 0.757380 0.209928 0.496313
O O12 0.151099 0.626703 0.412130
O O13 0.182699 0.152221 0.394317
O O14 0.318120 0.384670 0.140089
O O15 0.500000 0.500000 0.000000
#
# Coordination Sequence:
#
# PCOD8028642 Si02
#       7
#     2   2   2   2   2   2   2
#     4  12  24  46  74 107 151 203 266 336 402 484
#     4  12  29  49  75 114 158 208 266 336 409 496
#     4  12  29  46  78 114 166 206 274 330 426 484
#     4  10  25  49  80 117 160 214 276 339 415 504
#     4  12  24  46  74 107 151 203 266 336 402 484
#     4  12  29  49  75 114 158 208 266 336 409 496
#     4  10  25  49  80 117 160 214 276 339 415 504
#
# _framework density 26.290317999999999
#
# number of rings (size 3 to 8) (size 9 to 14) (size 15 to 20)
#    0.000    0.571    1.429    4.714    8.000    0.000 
#    0.000    4.286    0.000    2.571    0.000    0.000 
#    0.000    0.000    0.000    0.000    0.000    0.000 
#
# Total GULP energy -173609.189856 kJ/mol
# GULP energy per Si atom -12400.656418 kJ/mol
# Density = 2.623048 g / cm^3
# Si number density = 26.290318 Si / 1000 Ang^3
#
#
#
# Elastic Constant Matrix: (Units=GPa)
#
#
# Indices 1 2 3 4 5 6 
#
# 1 114.2759 47.4762 48.9545 -20.2282 7.9271 -3.4762
# 2 47.4762 135.9197 45.8624 -12.4027 6.3970 -0.4942
# 3 48.9545 45.8624 163.4443 -17.9545 5.4174 -5.9198
# 4 -20.2282 -12.4027 -17.9545 29.6346 -5.0279 -4.0788
# 5 7.9271 6.3970 5.4174 -5.0279 32.3511 4.2169
# 6 -3.4762 -0.4942 -5.9198 -4.0788 4.2169 55.9152
#
#
#
# Elastic Compliance Matrix: (Units=1/GPa)
#
#
# Indices 1 2 3 4 5 6 
#
# 1 0.011956 -0.002901 -0.002072 0.005615 -0.001267 0.001003
# 2 -0.002901 0.008993 -0.001561 0.000700 -0.000676 -0.000164
# 3 -0.002072 -0.001561 0.007494 0.002564 -0.000151 0.000849
# 4 0.005615 0.000700 0.002564 0.040543 0.003929 0.003288
# 5 -0.001267 -0.000676 -0.000151 0.003929 0.032284 -0.002249
# 6 0.001003 -0.000164 0.000849 0.003288 -0.002249 0.018445
#
#
# Mechanical properties :
#
#
# Convention : Reuss Voigt Hill
#
# Bulk Modulus (GPa) = 65.04287 77.58067 71.31177
# Shear Modulus (GPa) = 36.25632 41.66996 38.96314
#
# Velocity S-wave (km/s) = 3.71762 3.98552 3.85390
# Velocity P-wave (km/s) = 6.57431 7.12407 6.85470
#
# Compressibility (1/GPa) = 0.01537448
#
# Stress axis : x y z
#
# Youngs Moduli (GPa) = 83.64016 111.20332 133.43534
#
# Poissons Ratio (x) = 0.32266 0.27645
# Poissons Ratio (y) = 0.24268 0.20828
# Poissons Ratio (z) = 0.17328 0.17358
#
# Static dielectric constant tensor:
#      x y z
#    x 4.814340 -0.015030 0.041510 
#    y -0.015030 4.667140 0.061490 
#    z 0.041510 0.061490 5.187130 
# 
# 
# High freq. dielectric constant tensor:
#      x y z
#    x 2.049210 -0.000280 0.001760 
#    y -0.000280 2.046870 -0.001750 
#    z 0.001760 -0.001750 2.087700 
# 
# From -- ./inp_files/580962.got.cif
#   From: 2010.06.25/outbox.cif.g09.slc.cpg/sg2_291_cif.got.tgz:580962.got - 2010.06.27 13:26:56.
