data_PCOD8028564
_publ_section_title
;
Structure prediction by ZEFSAII (Michael W. Deem and Ramdas Pophale) SiO2 
 PCOD8028564
Probable space group: P -1
;
_chemical_formula_sum "Si O2"
_cell_formula_units_Z 16
_cell_length_a 14.632284
_cell_length_b 5.244006
_cell_length_c 17.276368
_cell_angle_alpha 99.644763
_cell_angle_beta 41.320445
_cell_angle_gamma 122.404228
_cell_volume 670.163602
_symmetry_space_group_name_H-M "P -1"
_symmetry_group_IT_number 2
_symmetry_cell_setting 'triclinic'
loop_
_space_group_symop_operation_xyz
x,y,z
-x,-y,-z
loop_
_atom_site_type_symbol
_atom_site_label
_atom_site_fract_x
_atom_site_fract_y
_atom_site_fract_z
Si Si1 0.189310 0.819408 0.553852
Si Si2 0.161728 0.699224 0.731892
Si Si3 0.559756 0.324929 0.402938
Si Si4 0.640634 0.565667 0.085467
Si Si5 0.782705 0.200444 0.934241
Si Si6 0.354684 0.211726 0.136534
Si Si7 0.806802 0.835398 0.148923
Si Si8 0.987773 0.937024 0.413812
O O1 0.136393 0.840068 0.676672
O O2 0.100781 0.445667 0.565284
O O3 0.405103 0.045431 0.429320
O O4 0.134031 0.982686 0.540340
O O5 0.351108 0.777150 0.599563
O O6 0.980654 0.318716 0.829660
O O7 0.180821 0.864191 0.809674
O O8 0.500000 0.500000 0.500000
O O9 0.738001 0.577591 0.249805
O O10 0.448306 0.236686 0.159430
O O11 0.652237 0.643859 0.172380
O O12 0.779413 0.495828 0.977898
O O13 0.663600 0.864594 0.042288
O O14 0.725923 0.129592 0.876044
O O15 0.500000 0.500000 0.000000
O O16 0.185947 0.194664 0.263611
O O17 0.000000 0.000000 0.000000
O O18 0.000000 0.000000 0.500000
#
# Coordination Sequence:
#
# PCOD8028564 Si02
#       8
#     2   2   2   2   2   2   2   2
#     4  12  28  50  80 105 155 205 258 311 383 464
#     4  12  26  45  80 109 154 203 262 307 382 460
#     4  12  28  48  76 112 152 208 266 313 379 469
#     4  11  26  44  69 114 150 198 242 322 381 451
#     4  11  24  45  74 106 152 196 254 305 387 455
#     4  10  25  47  79 106 148 194 259 308 381 454
#     4  12  27  46  75 111 160 194 252 317 393 449
#     4  12  29  51  77 113 151 200 253 323 389 449
#
# _framework density 23.874766000000001
#
# number of rings (size 3 to 8) (size 9 to 14) (size 15 to 20)
#    0.000    0.500    3.750    2.625    8.750    3.000 
#    2.250    0.000    0.000    0.000    0.000    0.000 
#    0.000    0.000    0.000    0.000    0.000    0.000 
#
# Total GULP energy -198211.200961 kJ/mol
# GULP energy per Si atom -12388.200060 kJ/mol
# Density = 2.382043 g / cm^3
# Si number density = 23.874766 Si / 1000 Ang^3
#
#
#
# Elastic Constant Matrix: (Units=GPa)
#
#
# Indices 1 2 3 4 5 6 
#
# 1 155.5481 67.4074 37.9434 16.8162 -11.2708 30.6720
# 2 67.4074 138.5037 48.8337 15.0872 -3.6958 30.2220
# 3 37.9434 48.8337 124.1055 -3.8217 -6.3706 17.9252
# 4 16.8162 15.0872 -3.8217 35.2793 13.3671 -0.4140
# 5 -11.2708 -3.6958 -6.3706 13.3671 39.6249 3.1820
# 6 30.6720 30.2220 17.9252 -0.4140 3.1820 53.3185
#
#
#
# Elastic Compliance Matrix: (Units=1/GPa)
#
#
# Indices 1 2 3 4 5 6 
#
# 1 0.009528 -0.002676 -0.001243 -0.005217 0.004329 -0.003845
# 2 -0.002676 0.010911 -0.002986 -0.004344 0.001544 -0.003768
# 3 -0.001243 -0.002986 0.009831 0.002910 0.000037 -0.000877
# 4 -0.005217 -0.004344 0.002910 0.038734 -0.014944 0.005678
# 5 0.004329 0.001544 0.000037 -0.014944 0.032094 -0.005410
# 6 -0.003845 -0.003768 -0.000877 0.005678 -0.005410 0.023765
#
#
# Mechanical properties :
#
#
# Convention : Reuss Voigt Hill
#
# Bulk Modulus (GPa) = 60.75076 80.72513 70.73794
# Shear Modulus (GPa) = 34.68419 43.24273 38.96346
#
# Velocity S-wave (km/s) = 3.81564 4.26047 4.04418
# Velocity P-wave (km/s) = 6.70171 7.62151 7.17637
#
# Compressibility (1/GPa) = 0.01646070
#
# Stress axis : x y z
#
# Youngs Moduli (GPa) = 104.95801 91.64652 101.72137
#
# Poissons Ratio (x) = 0.24522 0.12645
# Poissons Ratio (y) = 0.28084 0.30371
# Poissons Ratio (z) = 0.13047 0.27363
#
# Static dielectric constant tensor:
#      x y z
#    x 4.656310 0.636760 -0.099540 
#    y 0.636760 4.634880 -0.222380 
#    z -0.099540 -0.222380 4.414660 
# 
# 
# High freq. dielectric constant tensor:
#      x y z
#    x 1.954250 0.029820 -0.005460 
#    y 0.029820 1.955280 -0.010860 
#    z -0.005460 -0.010860 1.944700 
# 
# From -- ./inp_files/571755.got.cif
#   From: 2010.06.25/outbox.cif.g09.slc.cpg/sg2_286_cif.got.tgz:571755.got - 2010.06.27 13:26:56.
