data_PCOD8028508
_publ_section_title
;
Structure prediction by ZEFSAII (Michael W. Deem and Ramdas Pophale) SiO2 
 PCOD8028508
Probable space group: P -1
;
_chemical_formula_sum "Si O2"
_cell_formula_units_Z 12
_cell_length_a 5.045658
_cell_length_b 18.693400
_cell_length_c 7.511234
_cell_angle_alpha 133.512709
_cell_angle_beta 126.037526
_cell_angle_gamma 59.162638
_cell_volume 408.424147
_symmetry_space_group_name_H-M "P -1"
_symmetry_group_IT_number 2
_symmetry_cell_setting 'triclinic'
loop_
_space_group_symop_operation_xyz
x,y,z
-x,-y,-z
loop_
_atom_site_type_symbol
_atom_site_label
_atom_site_fract_x
_atom_site_fract_y
_atom_site_fract_z
Si Si1 0.726644 0.221259 0.462787
Si Si2 0.339590 0.967852 0.689277
Si Si3 0.399832 0.391512 0.391977
Si Si4 0.374060 0.567201 0.901391
Si Si5 0.840865 0.087068 0.932937
Si Si6 0.561178 0.743129 0.137248
O O1 0.457793 0.317179 0.460945
O O2 0.052602 0.255087 0.732219
O O3 0.583401 0.152152 0.437671
O O4 0.846922 0.156833 0.223486
O O5 0.646277 0.996948 0.749454
O O6 0.226271 0.036804 0.944618
O O7 0.000000 0.000000 0.500000
O O8 0.528675 0.496017 0.669851
O O9 0.015735 0.415967 0.237122
O O10 0.577521 0.328923 0.188023
O O11 0.500000 0.500000 0.000000
O O12 0.491504 0.676244 0.165872
O O13 0.661346 0.146278 0.789268
#
# Coordination Sequence:
#
# PCOD8028508 Si02
#       6
#     2   2   2   2   2   2
#     4  11  25  46  74 106 148 194 250 307 371 446
#     4  12  25  50  75 111 152 205 248 308 371 445
#     4  10  25  47  69 107 142 193 235 314 367 455
#     4  11  25  46  75 103 145 187 245 306 382 447
#     4  11  27  48  75 109 155 199 253 307 370 447
#     4  11  25  46  71 106 142 193 247 305 374 442
#
# _framework density 29.381219000000002
#
# number of rings (size 3 to 8) (size 9 to 14) (size 15 to 20)
#    0.000    1.000    1.667    3.000    4.667    9.333 
#    6.000    0.000    0.000    0.000    0.000    0.000 
#    0.000    0.000    0.000    0.000    0.000    0.000 
#
# Total GULP energy -148773.884843 kJ/mol
# GULP energy per Si atom -12397.823737 kJ/mol
# Density = 2.931435 g / cm^3
# Si number density = 29.381219 Si / 1000 Ang^3
#
#
#
# Elastic Constant Matrix: (Units=GPa)
#
#
# Indices 1 2 3 4 5 6 
#
# 1 110.5489 43.1262 6.4770 6.5295 40.8064 -3.2159
# 2 43.1262 264.4618 46.3642 9.7629 36.6933 -0.8970
# 3 6.4770 46.3642 94.1969 26.7289 26.0934 1.4697
# 4 6.5295 9.7629 26.7289 58.3447 9.9010 5.2941
# 5 40.8064 36.6933 26.0934 9.9010 34.1342 6.7602
# 6 -3.2159 -0.8970 1.4697 5.2941 6.7602 48.0251
#
#
#
# Elastic Compliance Matrix: (Units=1/GPa)
#
#
# Indices 1 2 3 4 5 6 
#
# 1 0.019998 -0.000331 0.007246 -0.000921 -0.029898 0.005421
# 2 -0.000331 0.004574 -0.001330 0.000465 -0.003755 0.000581
# 3 0.007246 -0.001330 0.017843 -0.005692 -0.019884 0.003341
# 4 -0.000921 0.000465 -0.005692 0.020034 -0.000459 -0.002023
# 5 -0.029898 -0.003755 -0.019884 -0.000459 0.087117 -0.013676
# 6 0.005421 0.000581 0.003341 -0.002023 -0.013676 0.023242
#
#
# Mechanical properties :
#
#
# Convention : Reuss Voigt Hill
#
# Bulk Modulus (GPa) = 18.66096 73.46027 46.06062
# Shear Modulus (GPa) = 27.85530 52.98348 40.41939
#
# Velocity S-wave (km/s) = 3.08241 4.25115 3.71305
# Velocity P-wave (km/s) = 4.36273 7.01093 5.83894
#
# Compressibility (1/GPa) = 0.05358780
#
# Stress axis : x y z
#
# Youngs Moduli (GPa) = 50.00379 218.62066 56.04346
#
# Poissons Ratio (x) = 0.07236 -0.40612
# Poissons Ratio (y) = 0.01655 0.07451
# Poissons Ratio (z) = -0.36235 0.29067
#
# Static dielectric constant tensor:
#      x y z
#    x 5.271040 0.165100 -0.866910 
#    y 0.165100 6.672450 0.025610 
#    z -0.866910 0.025610 6.746760 
# 
# 
# High freq. dielectric constant tensor:
#      x y z
#    x 2.180610 0.005530 -0.035430 
#    y 0.005530 2.243650 -0.004650 
#    z -0.035430 -0.004650 2.241060 
# 
# From -- ./inp_files/138290.got.cif
#   From: 2010.06.25/outbox.cif.g09.slc.cpg/sg2_70_cif.got.tgz:138290.got - 2010.06.27 13:26:56.
