data_PCOD8028890
_publ_section_title
;
Structure prediction by ZEFSAII (Michael W. Deem and Ramdas Pophale) SiO2 
 PCOD8028890
Probable space group: P -1
;
_chemical_formula_sum "Si O2"
_cell_formula_units_Z 16
_cell_length_a 15.574735
_cell_length_b 11.537808
_cell_length_c 10.185060
_cell_angle_alpha 116.142937
_cell_angle_beta 153.923076
_cell_angle_gamma 70.420499
_cell_volume 713.645769
_symmetry_space_group_name_H-M "P -1"
_symmetry_group_IT_number 2
_symmetry_cell_setting 'triclinic'
loop_
_space_group_symop_operation_xyz
x,y,z
-x,-y,-z
loop_
_atom_site_type_symbol
_atom_site_label
_atom_site_fract_x
_atom_site_fract_y
_atom_site_fract_z
Si Si1 0.823439 0.186804 0.591628
Si Si2 0.136602 0.058968 0.338601
Si Si3 0.723284 0.274889 0.226093
Si Si4 0.285719 0.206549 0.235222
Si Si5 0.997139 0.515417 0.656974
Si Si6 0.243057 0.904548 0.060582
Si Si7 0.327939 0.715519 0.311823
Si Si8 0.664792 0.682102 0.365562
O O1 0.703853 0.202308 0.302667
O O2 0.764255 0.285154 0.669533
O O3 0.752111 0.045937 0.487512
O O4 0.056845 0.205931 0.887360
O O5 0.301576 0.171428 0.572195
O O6 0.994691 0.110176 0.277758
O O7 0.000000 0.000000 0.000000
O O8 0.932039 0.372144 0.558966
O O9 0.692888 0.167575 0.015788
O O10 0.553520 0.369681 0.020159
O O11 0.431469 0.271800 0.350730
O O12 0.343571 0.306468 0.483971
O O13 0.332649 0.059925 0.260825
O O14 0.840672 0.608727 0.527817
O O15 0.000000 0.500000 0.500000
O O16 0.217507 0.577858 0.034301
O O17 0.292401 0.835815 0.229462
#
# Coordination Sequence:
#
# PCOD8028890 Si02
#       8
#     2   2   2   2   2   2   2   2
#     4  11  25  45  62 105 144 172 218 291 345 388
#     4  11  18  37  69  95 131 177 224 273 334 402
#     4  12  28  41  64 103 144 176 219 287 347 379
#     4  11  22  40  74 100 128 179 234 267 342 409
#     4  12  23  46  71  96 135 179 237 276 322 413
#     4  11  20  40  67  99 135 171 227 281 326 408
#     4  12  21  41  71  96 126 184 231 266 331 407
#     4  12  21  42  71 100 128 183 231 279 327 411
#
# _framework density 22.420086000000001
#
# number of rings (size 3 to 8) (size 9 to 14) (size 15 to 20)
#    0.000    0.500    8.750    0.750    1.750    3.000 
#    4.500    0.625    0.000    0.000    0.000    0.000 
#    0.000    0.000    0.000    0.000    0.000    0.000 
#
# Total GULP energy -198294.172996 kJ/mol
# GULP energy per Si atom -12393.385812 kJ/mol
# Density = 2.236906 g / cm^3
# Si number density = 22.420086 Si / 1000 Ang^3
#
#
#
# Elastic Constant Matrix: (Units=GPa)
#
#
# Indices 1 2 3 4 5 6 
#
# 1 118.8972 26.8991 27.7616 0.4097 -6.8158 -10.2294
# 2 26.8991 45.2829 7.4275 1.8202 -9.6205 1.7873
# 3 27.7616 7.4275 51.9985 3.0637 1.3036 -2.3565
# 4 0.4097 1.8202 3.0637 32.2327 12.8209 1.5608
# 5 -6.8158 -9.6205 1.3036 12.8209 41.0634 -0.7830
# 6 -10.2294 1.7873 -2.3565 1.5608 -0.7830 31.6986
#
#
#
# Elastic Compliance Matrix: (Units=1/GPa)
#
#
# Indices 1 2 3 4 5 6 
#
# 1 0.011263 -0.005878 -0.005041 0.000236 0.000647 0.003596
# 2 -0.005878 0.027402 -0.000857 -0.003872 0.006620 -0.003151
# 3 -0.005041 -0.000857 0.022170 -0.001494 -0.001273 0.000112
# 4 0.000236 -0.003872 -0.001494 0.036327 -0.012199 -0.001906
# 5 0.000647 0.006620 -0.001273 -0.012199 0.029881 0.001080
# 6 0.003596 -0.003151 0.000112 -0.001906 0.001080 0.033014
#
#
# Mechanical properties :
#
#
# Convention : Reuss Voigt Hill
#
# Bulk Modulus (GPa) = 26.82083 37.81722 32.31902
# Shear Modulus (GPa) = 25.50569 31.27165 28.38867
#
# Velocity S-wave (km/s) = 3.37653 3.73876 3.56225
# Velocity P-wave (km/s) = 5.21441 5.96171 5.60054
#
# Compressibility (1/GPa) = 0.03728446
#
# Stress axis : x y z
#
# Youngs Moduli (GPa) = 88.78619 36.49389 45.10605
#
# Poissons Ratio (x) = 0.21450 0.22737
# Poissons Ratio (y) = 0.52185 0.03864
# Poissons Ratio (z) = 0.44756 0.03127
#
# Static dielectric constant tensor:
#      x y z
#    x 4.489430 -0.099030 0.490700 
#    y -0.099030 4.303060 0.332170 
#    z 0.490700 0.332170 4.206300 
# 
# 
# High freq. dielectric constant tensor:
#      x y z
#    x 1.900320 -0.007310 0.021510 
#    y -0.007310 1.863710 0.016070 
#    z 0.021510 0.016070 1.867460 
# 
# From -- ./inp_files/308241.got.cif
#   From: 2010.06.25/outbox.cif.g09.slc.cpg/sg2_155_cif.got.tgz:308241.got - 2010.06.27 13:26:56.
