data_PCOD8028539
_publ_section_title
;
Structure prediction by ZEFSAII (Michael W. Deem and Ramdas Pophale) SiO2 
 PCOD8028539
Probable space group: P -1
;
_chemical_formula_sum "Si O2"
_cell_formula_units_Z 16
_cell_length_a 9.208097
_cell_length_b 16.724240
_cell_length_c 5.220771
_cell_angle_alpha 104.985273
_cell_angle_beta 99.913701
_cell_angle_gamma 56.737038
_cell_volume 648.945780
_symmetry_space_group_name_H-M "P -1"
_symmetry_group_IT_number 2
_symmetry_cell_setting 'triclinic'
loop_
_space_group_symop_operation_xyz
x,y,z
-x,-y,-z
loop_
_atom_site_type_symbol
_atom_site_label
_atom_site_fract_x
_atom_site_fract_y
_atom_site_fract_z
Si Si1 0.814519 0.785533 0.424937
Si Si2 0.124287 0.684979 0.052358
Si Si3 0.211215 0.942966 0.788615
Si Si4 0.036700 0.584595 0.552419
Si Si5 0.619839 0.536599 0.666536
Si Si6 0.524142 0.349876 0.762378
Si Si7 0.425748 0.855357 0.290257
Si Si8 0.005145 0.136030 0.159211
O O1 0.617310 0.836938 0.319245
O O2 0.834750 0.863935 0.657079
O O3 0.945613 0.752667 0.201813
O O4 0.864059 0.688191 0.520862
O O5 0.303144 0.644620 0.231518
O O6 0.123742 0.594842 0.845606
O O7 0.129427 0.754740 0.891930
O O8 0.341416 0.900942 0.032072
O O9 0.078560 0.058486 0.884528
O O10 0.314567 0.929140 0.546954
O O11 0.100051 0.890933 0.695254
O O12 0.177628 0.552470 0.337951
O O13 0.000000 0.500000 0.500000
O O14 0.500000 0.500000 0.500000
O O15 0.595844 0.613510 0.498952
O O16 0.575957 0.583348 0.969695
O O17 0.574755 0.241641 0.744521
#
# Coordination Sequence:
#
# PCOD8028539 Si02
#       8
#     2   2   2   2   2   2   2   2
#     4  11  27  45  71 100 148 187 232 289 363 419
#     4  11  24  44  70  98 140 188 231 287 358 418
#     4  11  26  47  77 106 141 183 243 287 346 429
#     4  11  26  44  65  97 138 188 234 288 350 420
#     4  12  25  43  68 100 132 178 239 293 345 406
#     4  12  25  44  70  99 140 179 235 294 344 413
#     4  12  27  46  72 108 142 189 231 294 352 414
#     4  10  25  47  73 105 139 186 231 293 352 423
#
# _framework density 24.655370999999999
#
# number of rings (size 3 to 8) (size 9 to 14) (size 15 to 20)
#    0.000    0.750    2.500    3.375   10.500    2.500 
#    0.000    0.000    0.000    0.000    0.000    0.000 
#    0.000    0.000    0.000    0.000    0.000    0.000 
#
# Total GULP energy -198447.930498 kJ/mol
# GULP energy per Si atom -12402.995656 kJ/mol
# Density = 2.459925 g / cm^3
# Si number density = 24.655371 Si / 1000 Ang^3
#
#
#
# Elastic Constant Matrix: (Units=GPa)
#
#
# Indices 1 2 3 4 5 6 
#
# 1 116.7403 10.6816 31.6991 19.1965 11.6302 -8.3161
# 2 10.6816 63.4254 12.5326 6.3986 20.3693 0.8854
# 3 31.6991 12.5326 86.8591 11.7563 -2.2453 5.0944
# 4 19.1965 6.3986 11.7563 37.4406 -6.1147 6.4931
# 5 11.6302 20.3693 -2.2453 -6.1147 45.4198 6.4312
# 6 -8.3161 0.8854 5.0944 6.4931 6.4312 40.4174
#
#
#
# Elastic Compliance Matrix: (Units=1/GPa)
#
#
# Indices 1 2 3 4 5 6 
#
# 1 0.011423 0.001074 -0.003853 -0.006478 -0.005130 0.004670
# 2 0.001074 0.020036 -0.003006 -0.005206 -0.010487 0.002666
# 3 -0.003853 -0.003006 0.013712 -0.000780 0.003312 -0.002857
# 4 -0.006478 -0.005206 -0.000780 0.034165 0.009709 -0.008154
# 5 -0.005130 -0.010487 0.003312 0.009709 0.030591 -0.007671
# 6 0.004670 0.002666 -0.002857 -0.008154 -0.007671 0.028535
#
#
# Mechanical properties :
#
#
# Convention : Reuss Voigt Hill
#
# Bulk Modulus (GPa) = 29.76231 41.87236 35.81734
# Shear Modulus (GPa) = 31.01144 38.79633 34.90389
#
# Velocity S-wave (km/s) = 3.55039 3.97110 3.76662
# Velocity P-wave (km/s) = 5.37630 6.16815 5.78579
#
# Compressibility (1/GPa) = 0.03359954
#
# Stress axis : x y z
#
# Youngs Moduli (GPa) = 87.54186 49.91119 72.93107
#
# Poissons Ratio (x) = -0.05358 0.28104
# Poissons Ratio (y) = -0.09398 0.21920
# Poissons Ratio (z) = 0.33734 0.15001
#
# Static dielectric constant tensor:
#      x y z
#    x 3.844680 -0.688160 1.740660 
#    y -0.688160 4.012830 1.690140 
#    z 1.740660 1.690140 0.090160 
# 
# 
# High freq. dielectric constant tensor:
#      x y z
#    x 1.980220 0.001920 0.001510 
#    y 0.001920 1.996470 0.002180 
#    z 0.001510 0.002180 1.983020 
# 
# From -- ./inp_files/49038.got.cif
#   From: 2010.06.25/outbox.cif.g09.slc.cpg/sg2_25_cif.got.tgz:49038.got - 2010.06.27 13:26:56.
