data_PCOD8028960
_publ_section_title
;
Structure prediction by ZEFSAII (Michael W. Deem and Ramdas Pophale) SiO2 
 PCOD8028960
Probable space group: P -1
;
_chemical_formula_sum "Si O2"
_cell_formula_units_Z 16
_cell_length_a 11.272332
_cell_length_b 14.099809
_cell_length_c 19.490270
_cell_angle_alpha 35.527151
_cell_angle_beta 139.910400
_cell_angle_gamma 149.082626
_cell_volume 901.401391
_symmetry_space_group_name_H-M "P -1"
_symmetry_group_IT_number 2
_symmetry_cell_setting 'triclinic'
loop_
_space_group_symop_operation_xyz
x,y,z
-x,-y,-z
loop_
_atom_site_type_symbol
_atom_site_label
_atom_site_fract_x
_atom_site_fract_y
_atom_site_fract_z
Si Si1 0.450045 0.243534 0.846358
Si Si2 0.765456 0.458746 0.075458
Si Si3 0.876805 0.173575 0.246568
Si Si4 0.708440 0.786822 0.058119
Si Si5 0.566294 0.284531 0.647081
Si Si6 0.868294 0.223531 0.057243
Si Si7 0.634601 0.576069 0.621524
Si Si8 0.044252 0.758607 0.144795
O O1 0.410318 0.302744 0.867879
O O2 0.472092 0.405052 0.708530
O O3 0.228187 0.009398 0.865344
O O4 0.684521 0.264129 0.934039
O O5 0.797733 0.282531 0.192743
O O6 0.851837 0.568370 0.122610
O O7 0.487975 0.343320 0.011635
O O8 0.901150 0.621481 0.977440
O O9 0.112576 0.227217 0.351991
O O10 0.936210 0.269865 0.139794
O O11 0.666162 0.925102 0.298170
O O12 0.912117 0.766195 0.146873
O O13 0.816524 0.028404 0.962688
O O14 0.676128 0.471400 0.640041
O O15 0.497364 0.336281 0.515684
O O16 0.766843 0.265055 0.728842
#
# Coordination Sequence:
#
# PCOD8028960 Si02
#       8
#     2   2   2   2   2   2   2   2
#     4  11  19  36  54  84 110 146 179 226 277 326
#     4  12  20  34  56  88 114 143 173 224 285 332
#     4  12  20  34  56  88 114 143 173 224 285 332
#     4  11  23  36  59  80 113 147 183 227 276 324
#     4  11  22  39  55  82 111 149 188 223 267 326
#     4  11  20  31  58  84 117 137 174 229 285 331
#     4  11  23  36  59  80 113 147 183 227 276 324
#     4  11  22  39  55  82 111 149 188 223 267 326
#
# _framework density 17.750139000000001
#
# number of rings (size 3 to 8) (size 9 to 14) (size 15 to 20)
#    0.000    0.750    7.500    1.875    0.000    0.000 
#    0.000    0.625    0.000    0.000    0.000    2.625 
#    0.000    0.000    0.000    0.000    0.000    0.000 
#
# Total GULP energy -198478.130786 kJ/mol
# GULP energy per Si atom -12404.883174 kJ/mol
# Density = 1.770974 g / cm^3
# Si number density = 17.750139 Si / 1000 Ang^3
#
#
#
# Elastic Constant Matrix: (Units=GPa)
#
#
# Indices 1 2 3 4 5 6 
#
# 1 50.4304 -1.2352 27.7436 0.8304 9.1655 1.3074
# 2 -1.2352 66.9673 8.8621 8.7027 8.2877 -6.6233
# 3 27.7436 8.8621 95.4815 6.6357 7.5485 -1.3704
# 4 0.8304 8.7027 6.6357 24.1238 1.9148 -2.3236
# 5 9.1655 8.2877 7.5485 1.9148 25.0565 1.0865
# 6 1.3074 -6.6233 -1.3704 -2.3236 1.0865 23.7514
#
#
#
# Elastic Compliance Matrix: (Units=1/GPa)
#
#
# Indices 1 2 3 4 5 6 
#
# 1 0.025141 0.002177 -0.006954 0.000814 -0.007852 -0.000739
# 2 0.002177 0.016937 -0.001340 -0.004941 -0.005804 0.004308
# 3 -0.006954 -0.001340 0.012870 -0.002711 -0.000706 0.000519
# 4 0.000814 -0.004941 -0.002711 0.044332 -0.001357 0.002820
# 5 -0.007852 -0.005804 -0.000706 -0.001357 0.045166 -0.003426
# 6 -0.000739 0.004308 0.000519 0.002820 -0.003426 0.043807
#
#
# Mechanical properties :
#
#
# Convention : Reuss Voigt Hill
#
# Bulk Modulus (GPa) = 23.41232 31.51334 27.46283
# Shear Modulus (GPa) = 23.28560 26.42025 24.85292
#
# Velocity S-wave (km/s) = 3.62588 3.86223 3.74592
# Velocity P-wave (km/s) = 5.54508 6.13853 5.84934
#
# Compressibility (1/GPa) = 0.04271256
#
# Stress axis : x y z
#
# Youngs Moduli (GPa) = 39.77598 59.04393 77.70165
#
# Poissons Ratio (x) = -0.12852 0.54030
# Poissons Ratio (y) = -0.08658 0.10415
# Poissons Ratio (z) = 0.27658 0.07914
#
# Static dielectric constant tensor:
#      x y z
#    x 3.048840 -0.052350 -0.025140 
#    y -0.052350 3.548470 0.019940 
#    z -0.025140 0.019940 3.196310 
# 
# 
# High freq. dielectric constant tensor:
#      x y z
#    x 1.667240 -0.004600 -0.004280 
#    y -0.004600 1.710480 0.002440 
#    z -0.004280 0.002440 1.667310 
# 
# From -- ./inp_files/283457.got.cif
#   From: 2010.06.25/outbox.cif.g09.slc.cpg/sg2_142_cif.got.tgz:283457.got - 2010.06.27 13:26:56.
