data_PCOD8028630
_publ_section_title
;
Structure prediction by ZEFSAII (Michael W. Deem and Ramdas Pophale) SiO2 
 PCOD8028630
Probable space group: P -1
;
_chemical_formula_sum "Si O2"
_cell_formula_units_Z 16
_cell_length_a 14.519873
_cell_length_b 12.191000
_cell_length_c 11.149957
_cell_angle_alpha 79.745026
_cell_angle_beta 122.049859
_cell_angle_gamma 148.093767
_cell_volume 701.838126
_symmetry_space_group_name_H-M "P -1"
_symmetry_group_IT_number 2
_symmetry_cell_setting 'triclinic'
loop_
_space_group_symop_operation_xyz
x,y,z
-x,-y,-z
loop_
_atom_site_type_symbol
_atom_site_label
_atom_site_fract_x
_atom_site_fract_y
_atom_site_fract_z
Si Si1 0.059057 0.835068 0.448916
Si Si2 0.675210 0.687090 0.473513
Si Si3 0.067295 0.380236 0.109945
Si Si4 0.795466 0.710548 0.915014
Si Si5 0.835378 0.299357 0.540466
Si Si6 0.901351 0.107790 0.267095
Si Si7 0.258697 0.779034 0.245015
Si Si8 0.598467 0.467716 0.061481
O O1 0.754114 0.567786 0.265412
O O2 0.167226 0.836018 0.443777
O O3 0.121715 0.860537 0.624047
O O4 0.212278 0.087052 0.471896
O O5 0.500000 0.500000 0.500000
O O6 0.492463 0.509363 0.264175
O O7 0.911663 0.823700 0.600355
O O8 0.164725 0.348441 0.144606
O O9 0.258258 0.663055 0.190317
O O10 0.999347 0.299374 0.217383
O O11 0.840493 0.207305 0.901265
O O12 0.806470 0.661848 0.060623
O O13 0.000000 0.000000 0.000000
O O14 0.911431 0.391406 0.715854
O O15 0.000000 0.500000 0.500000
O O16 0.552522 0.086721 0.394522
O O17 0.634742 0.827516 0.076518
O O18 0.500000 0.500000 0.000000
#
# Coordination Sequence:
#
# PCOD8028630 Si02
#       8
#     2   2   2   2   2   2   2   2
#     4  12  25  45  71 102 146 189 238 303 360 429
#     4  12  23  43  66 100 148 189 232 286 360 434
#     4  11  24  48  70 100 139 191 236 294 365 424
#     4  12  24  43  69 105 142 187 234 291 359 437
#     4  11  25  48  73 110 138 184 248 300 369 427
#     4  12  25  43  69 104 144 189 237 293 358 432
#     4  10  25  49  74  99 146 186 241 306 357 427
#     4  12  24  42  66 101 144 182 238 287 350 434
#
# _framework density 22.797280000000001
#
# number of rings (size 3 to 8) (size 9 to 14) (size 15 to 20)
#    0.000    0.500    3.750    4.875    1.750    0.000 
#    2.250    1.875    0.000    0.000    0.000    0.000 
#    0.000    0.000    0.000    0.000    0.000    0.000 
#
# Total GULP energy -198222.341725 kJ/mol
# GULP energy per Si atom -12388.896358 kJ/mol
# Density = 2.274539 g / cm^3
# Si number density = 22.797280 Si / 1000 Ang^3
#
#
#
# Elastic Constant Matrix: (Units=GPa)
#
#
# Indices 1 2 3 4 5 6 
#
# 1 94.8622 29.0877 24.3117 -0.4733 -9.4059 -4.0283
# 2 29.0877 95.9967 32.2859 -9.5655 6.0448 4.1017
# 3 24.3117 32.2859 139.1816 2.4038 2.4503 -9.8288
# 4 -0.4733 -9.5655 2.4038 40.4083 0.7521 -2.4967
# 5 -9.4059 6.0448 2.4503 0.7521 30.0506 -0.9138
# 6 -4.0283 4.1017 -9.8288 -2.4967 -0.9138 33.2432
#
#
#
# Elastic Compliance Matrix: (Units=1/GPa)
#
#
# Indices 1 2 3 4 5 6 
#
# 1 0.012597 -0.003840 -0.001263 -0.000672 0.004887 0.001711
# 2 -0.003840 0.013101 -0.002546 0.003111 -0.003790 -0.002705
# 3 -0.001263 -0.002546 0.008197 -0.000942 -0.000452 0.002501
# 4 -0.000672 0.003111 -0.000942 0.025628 -0.001366 0.001143
# 5 0.004887 -0.003790 -0.000452 -0.001366 0.035695 0.001805
# 6 0.001711 -0.002705 0.002501 0.001143 0.001805 0.031497
#
#
# Mechanical properties :
#
#
# Convention : Reuss Voigt Hill
#
# Bulk Modulus (GPa) = 53.77496 55.71237 54.74366
# Shear Modulus (GPa) = 33.73526 37.03077 35.38301
#
# Velocity S-wave (km/s) = 3.85098 4.03470 3.94391
# Velocity P-wave (km/s) = 6.58885 6.79678 6.69362
#
# Compressibility (1/GPa) = 0.01859602
#
# Stress axis : x y z
#
# Youngs Moduli (GPa) = 79.38662 76.32930 121.99450
#
# Poissons Ratio (x) = 0.29308 0.15411
# Poissons Ratio (y) = 0.30482 0.31065
# Poissons Ratio (z) = 0.10029 0.19437
#
# Static dielectric constant tensor:
#      x y z
#    x 4.254010 0.146310 -0.245420 
#    y 0.146310 3.997490 -0.138830 
#    z -0.245420 -0.138830 4.433020 
# 
# 
# High freq. dielectric constant tensor:
#      x y z
#    x 1.900010 -0.002680 -0.009120 
#    y -0.002680 1.896890 -0.011350 
#    z -0.009120 -0.011350 1.917110 
# 
# From -- ./inp_files/452298.got.cif
#   From: 2010.06.25/outbox.cif.g09.slc.cpg/sg2_227_cif.got.tgz:452298.got - 2010.06.27 13:26:56.
