data_PCOD8028881
_publ_section_title
;
Structure prediction by ZEFSAII (Michael W. Deem and Ramdas Pophale) SiO2 
 PCOD8028881
Probable space group: P -1
;
_chemical_formula_sum "Si O2"
_cell_formula_units_Z 16
_cell_length_a 12.070216
_cell_length_b 17.368043
_cell_length_c 5.503719
_cell_angle_alpha 74.984991
_cell_angle_beta 104.814667
_cell_angle_gamma 140.108965
_cell_volume 711.665049
_symmetry_space_group_name_H-M "P -1"
_symmetry_group_IT_number 2
_symmetry_cell_setting 'triclinic'
loop_
_space_group_symop_operation_xyz
x,y,z
-x,-y,-z
loop_
_atom_site_type_symbol
_atom_site_label
_atom_site_fract_x
_atom_site_fract_y
_atom_site_fract_z
Si Si1 0.046824 0.204615 0.542072
Si Si2 0.847194 0.952428 0.786958
Si Si3 0.811582 0.307606 0.998123
Si Si4 0.924935 0.518109 0.639519
Si Si5 0.501472 0.769982 0.020955
Si Si6 0.345268 0.265126 0.478177
Si Si7 0.042411 0.297616 0.967165
Si Si8 0.344008 0.554047 0.789403
O O1 0.244208 0.273407 0.589857
O O2 0.006667 0.229565 0.247983
O O3 0.030702 0.242594 0.756217
O O4 0.906275 0.060646 0.583680
O O5 0.682176 0.890532 0.906547
O O6 0.801092 0.857932 0.653320
O O7 0.000000 0.000000 0.000000
O O8 0.601863 0.200101 0.002704
O O9 0.923062 0.347617 0.270818
O O10 0.889561 0.285678 0.864356
O O11 0.837100 0.415267 0.872281
O O12 0.784974 0.504503 0.463025
O O13 0.000000 0.500000 0.500000
O O14 0.384216 0.658355 0.857984
O O15 0.536892 0.735712 0.307413
O O16 0.472418 0.381062 0.271395
O O17 0.237107 0.437135 0.997152
#
# Coordination Sequence:
#
# PCOD8028881 Si02
#       8
#     2   2   2   2   2   2   2   2
#     4  12  28  48  69 101 138 196 235 275 355 426
#     4  11  24  48  77 100 128 175 247 307 344 388
#     4  11  22  38  64 103 138 186 230 280 345 404
#     4  11  18  35  67  94 139 183 234 282 322 406
#     4  11  23  40  74 108 130 168 242 311 338 384
#     4  11  25  43  76 103 133 170 241 312 340 392
#     4  12  28  44  69  98 156 196 218 265 350 462
#     4  11  23  40  67 110 140 181 227 285 356 404
#
# _framework density 22.482486000000002
#
# number of rings (size 3 to 8) (size 9 to 14) (size 15 to 20)
#    0.000    0.750    5.000    2.625    5.250    1.000 
#    0.000    1.250    0.000    0.000    0.000    0.000 
#    0.000    0.000    0.000    0.000    0.000    0.000 
#
# Total GULP energy -198275.822873 kJ/mol
# GULP energy per Si atom -12392.238930 kJ/mol
# Density = 2.243131 g / cm^3
# Si number density = 22.482486 Si / 1000 Ang^3
#
#
#
# Elastic Constant Matrix: (Units=GPa)
#
#
# Indices 1 2 3 4 5 6 
#
# 1 150.1419 38.2879 41.2073 4.8796 -22.5044 24.0025
# 2 38.2879 69.6669 33.0491 -16.5005 4.7350 22.8642
# 3 41.2073 33.0491 115.8033 1.1830 0.8597 5.3748
# 4 4.8796 -16.5005 1.1830 47.9913 3.7529 -1.3823
# 5 -22.5044 4.7350 0.8597 3.7529 42.4037 -4.4065
# 6 24.0025 22.8642 5.3748 -1.3823 -4.4065 28.9940
#
#
#
# Elastic Compliance Matrix: (Units=1/GPa)
#
#
# Indices 1 2 3 4 5 6 
#
# 1 0.009870 -0.004300 -0.002126 -0.002976 0.005643 -0.003670
# 2 -0.004300 0.028695 -0.005836 0.010553 -0.008249 -0.018738
# 3 -0.002126 -0.005836 0.010881 -0.001930 -0.000086 0.004240
# 4 -0.002976 0.010553 -0.001930 0.025096 -0.005474 -0.005135
# 5 0.005643 -0.008249 -0.000086 -0.005474 0.028602 0.005935
# 6 -0.003670 -0.018738 0.004240 -0.005135 0.005935 0.052176
#
#
# Mechanical properties :
#
#
# Convention : Reuss Voigt Hill
#
# Bulk Modulus (GPa) = 40.12516 62.30006 51.21261
# Shear Modulus (GPa) = 26.57448 38.74899 32.66174
#
# Velocity S-wave (km/s) = 3.44176 4.15603 3.81565
# Velocity P-wave (km/s) = 5.80348 7.12747 6.49927
#
# Compressibility (1/GPa) = 0.02492202
#
# Stress axis : x y z
#
# Youngs Moduli (GPa) = 101.32077 34.84886 91.90325
#
# Poissons Ratio (x) = 0.14984 0.19539
# Poissons Ratio (y) = 0.43565 0.53637
# Poissons Ratio (z) = 0.21541 0.20339
#
# Static dielectric constant tensor:
#      x y z
#    x 4.321400 0.047960 -0.087990 
#    y 0.047960 4.506870 -0.296520 
#    z -0.087990 -0.296520 3.903410 
# 
# 
# High freq. dielectric constant tensor:
#      x y z
#    x 1.889320 0.021850 -0.016350 
#    y 0.021850 1.863840 -0.003580 
#    z -0.016350 -0.003580 1.897970 
# 
# From -- ./inp_files/80498.got.cif
#   From: 2010.06.25/outbox.cif.g09.slc.cpg/sg2_41_cif.got.tgz:80498.got - 2010.06.27 13:26:56.
