data_PCOD8028004
_publ_section_title
;
Structure prediction by ZEFSAII (Michael W. Deem and Ramdas Pophale) SiO2 
 PCOD8028004
Probable space group: P -1
;
_chemical_formula_sum "Si O2"
_cell_formula_units_Z 16
_cell_length_a 18.649983
_cell_length_b 11.845165
_cell_length_c 9.559139
_cell_angle_alpha 129.200040
_cell_angle_beta 47.137247
_cell_angle_gamma 154.683787
_cell_volume 660.901502
_symmetry_space_group_name_H-M "P -1"
_symmetry_group_IT_number 2
_symmetry_cell_setting 'triclinic'
loop_
_space_group_symop_operation_xyz
x,y,z
-x,-y,-z
loop_
_atom_site_type_symbol
_atom_site_label
_atom_site_fract_x
_atom_site_fract_y
_atom_site_fract_z
Si Si1 0.265899 0.857566 0.703148
Si Si2 0.676842 0.648372 0.325181
Si Si3 0.152311 0.029860 0.924489
Si Si4 0.759505 0.447956 0.978868
Si Si5 0.102538 0.649057 0.125406
Si Si6 0.427831 0.827032 0.280256
Si Si7 0.799989 0.696538 0.676677
Si Si8 0.843400 0.967492 0.612795
O O1 0.380609 0.928159 0.481889
O O2 0.067010 0.549445 0.701127
O O3 0.259106 0.023656 0.834898
O O4 0.358494 0.931599 0.790433
O O5 0.500000 0.500000 0.500000
O O6 0.723679 0.746310 0.181756
O O7 0.825837 0.899853 0.422815
O O8 0.664346 0.457409 0.200747
O O9 0.121553 0.111055 0.148885
O O10 0.957111 0.744032 0.900912
O O11 0.769215 0.322031 0.971773
O O12 0.636561 0.259147 0.860742
O O13 0.213348 0.936166 0.208244
O O14 0.000000 0.500000 0.000000
O O15 0.344875 0.596783 0.307339
O O16 0.944530 0.789755 0.462410
O O17 0.724975 0.722055 0.683855
#
# Coordination Sequence:
#
# PCOD8028004 Si02
#       8
#     2   2   2   2   2   2   2   2
#     4  10  25  41  69 101 139 181 232 286 349 412
#     4  12  27  43  67 109 144 175 232 299 356 406
#     4  11  23  45  72 101 137 187 237 284 345 431
#     4  11  24  45  76  99 136 189 236 285 345 425
#     4  11  25  46  70  99 141 185 235 282 343 423
#     4  11  23  44  68 103 137 181 235 290 347 415
#     4  11  22  42  76  96 138 183 234 284 347 416
#     4  11  24  42  69 108 134 183 232 290 343 416
#
# _framework density 24.209354999999999
#
# number of rings (size 3 to 8) (size 9 to 14) (size 15 to 20)
#    0.000    1.000    3.750    2.625    5.250    3.500 
#    2.250    1.250    0.000    0.000    0.000    0.000 
#    0.000    0.000    0.000    0.000    0.000    0.000 
#
# Total GULP energy -198319.025768 kJ/mol
# GULP energy per Si atom -12394.939111 kJ/mol
# Density = 2.415425 g / cm^3
# Si number density = 24.209355 Si / 1000 Ang^3
#
#
#
# Elastic Constant Matrix: (Units=GPa)
#
#
# Indices 1 2 3 4 5 6 
#
# 1 156.8793 35.1108 69.4492 7.4812 -18.7110 -4.2057
# 2 35.1108 39.4371 10.8012 10.2369 -11.2811 -2.6019
# 3 69.4492 10.8012 132.3515 23.2527 -15.6763 -0.0204
# 4 7.4812 10.2369 23.2527 36.3720 2.6192 2.2055
# 5 -18.7110 -11.2811 -15.6763 2.6192 44.6501 3.2899
# 6 -4.2057 -2.6019 -0.0204 2.2055 3.2899 43.8964
#
#
#
# Elastic Compliance Matrix: (Units=1/GPa)
#
#
# Indices 1 2 3 4 5 6 
#
# 1 0.010651 -0.008942 -0.005533 0.003844 0.000015 0.000294
# 2 -0.008942 0.037649 0.004766 -0.012470 0.008067 0.001399
# 3 -0.005533 0.004766 0.011907 -0.008065 0.003547 -0.000103
# 4 0.003844 -0.012470 -0.008065 0.035929 -0.006353 -0.001704
# 5 0.000015 0.008067 0.003547 -0.006353 0.026144 -0.001159
# 6 0.000294 0.001399 -0.000103 -0.001704 -0.001159 0.023064
#
#
# Mechanical properties :
#
#
# Convention : Reuss Voigt Hill
#
# Bulk Modulus (GPa) = 24.51596 62.15449 43.33523
# Shear Modulus (GPa) = 28.03345 39.20416 33.61880
#
# Velocity S-wave (km/s) = 3.40657 4.02852 3.73053
# Velocity P-wave (km/s) = 5.06178 6.88245 6.04110
#
# Compressibility (1/GPa) = 0.04078975
#
# Stress axis : x y z
#
# Youngs Moduli (GPa) = 93.88593 26.56114 83.98486
#
# Poissons Ratio (x) = 0.23750 0.46468
# Poissons Ratio (y) = 0.83950 -0.40027
# Poissons Ratio (z) = 0.51946 -0.12659
#
# Static dielectric constant tensor:
#      x y z
#    x 4.506600 0.025370 -0.265460 
#    y 0.025370 4.463430 -0.027170 
#    z -0.265460 -0.027170 4.276150 
# 
# 
# High freq. dielectric constant tensor:
#      x y z
#    x 1.969840 0.000060 -0.013820 
#    y 0.000060 1.947420 0.003200 
#    z -0.013820 0.003200 1.969020 
# 
# From -- ./inp_files/333717.got.cif
#   From: 2010.06.25/outbox.cif.g09.slc.cpg/sg2_167_cif.got.tgz:333717.got - 2010.06.27 13:26:56.
