data_PCOD8028891
_publ_section_title
;
Structure prediction by ZEFSAII (Michael W. Deem and Ramdas Pophale) SiO2 
 PCOD8028891
Probable space group: P -1
;
_chemical_formula_sum "Si O2"
_cell_formula_units_Z 14
_cell_length_a 8.859892
_cell_length_b 11.095368
_cell_length_c 9.446711
_cell_angle_alpha 88.231711
_cell_angle_beta 88.145152
_cell_angle_gamma 39.415660
_cell_volume 589.302840
_symmetry_space_group_name_H-M "P -1"
_symmetry_group_IT_number 2
_symmetry_cell_setting 'triclinic'
loop_
_space_group_symop_operation_xyz
x,y,z
-x,-y,-z
loop_
_atom_site_type_symbol
_atom_site_label
_atom_site_fract_x
_atom_site_fract_y
_atom_site_fract_z
Si Si1 0.381505 0.454084 0.944584
Si Si2 0.689274 0.283276 0.542326
Si Si3 0.034639 0.280962 0.252489
Si Si4 0.213906 0.426290 0.200861
Si Si5 0.747179 0.086965 0.286426
Si Si6 0.212731 0.913924 0.195935
Si Si7 0.946887 0.750605 0.411914
O O1 0.602689 0.225045 0.931284
O O2 0.239899 0.563324 0.796431
O O3 0.500000 0.500000 0.000000
O O4 0.181436 0.522995 0.054581
O O5 0.500000 0.500000 0.500000
O O6 0.798067 0.148720 0.410232
O O7 0.628499 0.221555 0.665017
O O8 0.886990 0.237028 0.619027
O O9 0.154594 0.324251 0.178589
O O10 0.058742 0.280127 0.421956
O O11 0.175428 0.079393 0.198329
O O12 0.488846 0.280217 0.231948
O O13 0.037585 0.581095 0.325041
O O14 0.719371 0.960900 0.341814
O O15 0.964795 0.990832 0.177371
#
# Coordination Sequence:
#
# PCOD8028891 Si02
#       7
#     2   2   2   2   2   2   2
#     4  12  28  48  72  99 135 186 238 287 340 409
#     4  11  18  37  70 101 134 174 226 293 331 389
#     4  12  26  47  71 101 142 183 232 281 347 414
#     4  12  28  44  68 104 145 187 222 282 348 419
#     4  11  22  40  70 103 137 169 235 283 344 395
#     4  11  24  42  72 101 133 181 231 285 342 397
#     4  11  22  42  71 103 138 180 229 286 341 404
#
# _framework density 23.756886999999999
#
# number of rings (size 3 to 8) (size 9 to 14) (size 15 to 20)
#    0.000    0.571    4.286    5.143    0.000    5.714 
#    0.000    0.000    0.000    0.000    0.000    0.000 
#    0.000    0.000    0.000    0.000    0.000    0.000 
#
# Total GULP energy -173434.001476 kJ/mol
# GULP energy per Si atom -12388.142963 kJ/mol
# Density = 2.370282 g / cm^3
# Si number density = 23.756887 Si / 1000 Ang^3
#
#
#
# Elastic Constant Matrix: (Units=GPa)
#
#
# Indices 1 2 3 4 5 6 
#
# 1 98.1984 30.5125 18.5023 6.6557 -4.2205 36.5312
# 2 30.5125 137.3305 22.6406 13.8647 5.3755 29.3331
# 3 18.5023 22.6406 56.6168 11.9246 -9.8557 10.9957
# 4 6.6557 13.8647 11.9246 35.7476 1.7868 -2.0163
# 5 -4.2205 5.3755 -9.8557 1.7868 27.0761 -6.8088
# 6 36.5312 29.3331 10.9957 -2.0163 -6.8088 33.3076
#
#
#
# Elastic Compliance Matrix: (Units=1/GPa)
#
#
# Indices 1 2 3 4 5 6 
#
# 1 0.018319 0.001459 -0.002027 -0.004355 -0.003329 -0.021652
# 2 0.001459 0.010367 -0.002576 -0.003798 -0.005334 -0.011200
# 3 -0.002027 -0.002576 0.022541 -0.006656 0.008430 -0.001629
# 4 -0.004355 -0.003798 -0.006656 0.033232 -0.001518 0.012020
# 5 -0.003329 -0.005334 0.008430 -0.001518 0.044295 0.014529
# 6 -0.021652 -0.011200 -0.001629 0.012020 0.014529 0.067869
#
#
# Mechanical properties :
#
#
# Convention : Reuss Voigt Hill
#
# Bulk Modulus (GPa) = 22.25295 48.38406 35.31850
# Shear Modulus (GPa) = 22.94732 33.92561 28.43646
#
# Velocity S-wave (km/s) = 3.11130 3.78303 3.46349
# Velocity P-wave (km/s) = 4.72168 6.28429 5.55817
#
# Compressibility (1/GPa) = 0.04493786
#
# Stress axis : x y z
#
# Youngs Moduli (GPa) = 54.58827 96.46319 44.36396
#
# Poissons Ratio (x) = -0.14071 0.08994
# Poissons Ratio (y) = -0.07963 0.11427
# Poissons Ratio (z) = 0.11067 0.24846
#
# Static dielectric constant tensor:
#      x y z
#    x 3.890010 0.395190 -0.075140 
#    y 0.395190 3.467610 0.139080 
#    z -0.075140 0.139080 4.219580 
# 
# 
# High freq. dielectric constant tensor:
#      x y z
#    x 1.915490 0.015520 -0.003200 
#    y 0.015520 1.963960 -0.013250 
#    z -0.003200 -0.013250 1.941850 
# 
# From -- ./inp_files/187573.got.cif
#   From: 2010.06.25/outbox.cif.g09.slc.cpg/sg2_94_cif.got.tgz:187573.got - 2010.06.27 13:26:56.
