data_PCOD8028918
_publ_section_title
;
Structure prediction by ZEFSAII (Michael W. Deem and Ramdas Pophale) SiO2 
 PCOD8028918
Probable space group: P -1
;
_chemical_formula_sum "Si O2"
_cell_formula_units_Z 16
_cell_length_a 14.468044
_cell_length_b 14.044840
_cell_length_c 11.701821
_cell_angle_alpha 31.368266
_cell_angle_beta 130.002540
_cell_angle_gamma 139.110594
_cell_volume 810.205107
_symmetry_space_group_name_H-M "P -1"
_symmetry_group_IT_number 2
_symmetry_cell_setting 'triclinic'
loop_
_space_group_symop_operation_xyz
x,y,z
-x,-y,-z
loop_
_atom_site_type_symbol
_atom_site_label
_atom_site_fract_x
_atom_site_fract_y
_atom_site_fract_z
Si Si1 0.292772 0.491646 0.375436
Si Si2 0.629313 0.732219 0.165436
Si Si3 0.941069 0.927819 0.152053
Si Si4 0.164966 0.953277 0.678773
Si Si5 0.674422 0.571613 0.770660
Si Si6 0.991858 0.316353 0.374285
Si Si7 0.039963 0.281010 0.056586
Si Si8 0.362153 0.916364 0.048387
O O1 0.364820 0.362705 0.609474
O O2 0.345914 0.581827 0.196794
O O3 0.323981 0.679093 0.299141
O O4 0.124788 0.335164 0.394369
O O5 0.483288 0.550124 0.172970
O O6 0.769354 0.783427 0.154238
O O7 0.626830 0.947570 0.970051
O O8 0.983381 0.134916 0.049807
O O9 0.012999 0.799060 0.391461
O O10 0.000000 0.000000 0.000000
O O11 0.138838 0.831566 0.661761
O O12 0.018251 0.870621 0.719656
O O13 0.270350 0.201693 0.480558
O O14 0.238960 0.878758 0.903741
O O15 0.788714 0.595257 0.929738
O O16 0.003029 0.541388 0.172435
O O17 0.500000 0.000000 0.000000
#
# Coordination Sequence:
#
# PCOD8028918 Si02
#       8
#     2   2   2   2   2   2   2   2
#     4  11  19  33  53  84 125 161 193 228 291 370
#     4  11  23  38  55  87 122 161 203 245 299 355
#     4  11  25  46  67  83 112 161 220 264 293 342
#     4  12  20  35  57  94 132 161 191 236 300 386
#     4  12  21  33  56  88 128 160 186 241 305 365
#     4  11  22  37  63  91 118 159 204 246 304 358
#     4  12  22  39  61  92 124 158 200 247 300 368
#     4  12  21  31  53  87 130 165 188 228 299 372
#
# _framework density 19.748083999999999
#
# number of rings (size 3 to 8) (size 9 to 14) (size 15 to 20)
#    0.000    0.500    7.500    3.375    0.000    0.500 
#    0.000    0.625    0.000    0.750    0.000    0.000 
#    0.000    0.000    0.000    0.000    0.000    0.000 
#
# Total GULP energy -198234.721105 kJ/mol
# GULP energy per Si atom -12389.670069 kJ/mol
# Density = 1.970314 g / cm^3
# Si number density = 19.748084 Si / 1000 Ang^3
#
#
#
# Elastic Constant Matrix: (Units=GPa)
#
#
# Indices 1 2 3 4 5 6 
#
# 1 62.9042 42.6787 34.3077 -1.8950 -12.4914 4.5894
# 2 42.6787 104.9519 36.1255 -10.9856 -4.1221 16.9104
# 3 34.3077 36.1255 76.8396 -14.5813 -2.2099 -13.5563
# 4 -1.8950 -10.9856 -14.5813 26.5642 -6.2024 7.1489
# 5 -12.4914 -4.1221 -2.2099 -6.2024 29.5920 -2.3716
# 6 4.5894 16.9104 -13.5563 7.1489 -2.3716 34.5359
#
#
#
# Elastic Compliance Matrix: (Units=1/GPa)
#
#
# Indices 1 2 3 4 5 6 
#
# 1 0.028523 -0.007822 -0.009955 -0.003860 0.009203 -0.002437
# 2 -0.007822 0.016773 -0.005097 0.006204 -0.000889 -0.010520
# 3 -0.009955 -0.005097 0.023099 0.006567 -0.000892 0.011465
# 4 -0.003860 0.006204 0.006567 0.048159 0.009074 -0.009293
# 5 0.009203 -0.000889 -0.000892 0.009074 0.039364 -0.000313
# 6 -0.002437 -0.010520 0.011465 -0.009293 -0.000313 0.040833
#
#
# Mechanical properties :
#
#
# Convention : Reuss Voigt Hill
#
# Bulk Modulus (GPa) = 44.15983 52.32439 48.24211
# Shear Modulus (GPa) = 19.99613 26.91065 23.45339
#
# Velocity S-wave (km/s) = 3.18553 3.69548 3.44994
# Velocity P-wave (km/s) = 5.99502 6.69045 6.35226
#
# Compressibility (1/GPa) = 0.02264502
#
# Stress axis : x y z
#
# Youngs Moduli (GPa) = 35.05979 59.61952 43.29229
#
# Poissons Ratio (x) = 0.46634 0.43099
# Poissons Ratio (y) = 0.27424 0.22068
# Poissons Ratio (z) = 0.34903 0.30391
#
# Static dielectric constant tensor:
#      x y z
#    x 3.275090 0.372260 0.168000 
#    y 0.372260 4.033180 -0.287940 
#    z 0.168000 -0.287940 3.535300 
# 
# 
# High freq. dielectric constant tensor:
#      x y z
#    x 1.731310 0.028110 0.037280 
#    y 0.028110 1.783930 -0.023260 
#    z 0.037280 -0.023260 1.753090 
# 
# From -- ./inp_files/417165.got.cif
#   From: 2010.06.25/outbox.cif.g09.slc.cpg/sg2_209_cif.got.tgz:417165.got - 2010.06.27 13:26:56.
