data_PCOD8028921
_publ_section_title
;
Structure prediction by ZEFSAII (Michael W. Deem and Ramdas Pophale) SiO2 
 PCOD8028921
Probable space group: P -1
;
_chemical_formula_sum "Si O2"
_cell_formula_units_Z 16
_cell_length_a 17.329608
_cell_length_b 12.704805
_cell_length_c 20.486271
_cell_angle_alpha 32.740024
_cell_angle_beta 19.418590
_cell_angle_gamma 40.314976
_cell_volume 799.036752
_symmetry_space_group_name_H-M "P -1"
_symmetry_group_IT_number 2
_symmetry_cell_setting 'triclinic'
loop_
_space_group_symop_operation_xyz
x,y,z
-x,-y,-z
loop_
_atom_site_type_symbol
_atom_site_label
_atom_site_fract_x
_atom_site_fract_y
_atom_site_fract_z
Si Si1 0.378806 0.848415 0.122413
Si Si2 0.254237 0.856375 0.703361
Si Si3 0.144495 0.112322 0.086967
Si Si4 0.167480 0.210820 0.250552
Si Si5 0.083141 0.395428 0.094061
Si Si6 0.213750 0.109848 0.730512
Si Si7 0.420194 0.648976 0.434782
Si Si8 0.818301 0.454012 0.458769
O O1 0.281629 0.649715 0.341322
O O2 0.166459 0.934455 0.211597
O O3 0.565167 0.817311 0.931650
O O4 0.500000 0.000000 0.000000
O O5 0.524506 0.868576 0.457050
O O6 0.103413 0.941925 0.723433
O O7 0.232010 0.996359 0.708506
O O8 0.138395 0.632256 0.931426
O O9 0.148661 0.324642 0.007913
O O10 0.373254 0.159090 0.832804
O O11 0.222137 0.292402 0.090801
O O12 0.063316 0.376547 0.287890
O O13 0.000000 0.000000 0.500000
O O14 0.813822 0.297885 0.374833
O O15 0.138538 0.321117 0.670466
O O16 0.000000 0.000000 0.000000
O O17 0.500000 0.500000 0.500000
O O18 0.356114 0.572858 0.450987
#
# Coordination Sequence:
#
# PCOD8028921 Si02
#       8
#     2   2   2   2   2   2   2   2
#     4  12  20  38  61  91 129 165 195 243 309 379
#     4  11  25  40  61  91 120 160 215 256 307 368
#     4  12  23  37  60  95 134 161 195 255 314 374
#     4  11  19  33  56  89 123 157 201 235 294 368
#     4  11  21  35  60  91 129 160 194 250 315 373
#     4  11  25  45  64  84 119 166 217 261 305 361
#     4  11  21  32  56  93 129 159 190 242 315 374
#     4  11  23  39  63  89 123 166 206 250 307 367
#
# _framework density 20.024108999999999
#
# number of rings (size 3 to 8) (size 9 to 14) (size 15 to 20)
#    0.000    0.750    5.000    4.125    1.750    1.000 
#    0.000    0.625    0.000    1.500    0.000    0.000 
#    0.000    0.000    0.000    0.000    0.000    0.000 
#
# Total GULP energy -198242.722766 kJ/mol
# GULP energy per Si atom -12390.170173 kJ/mol
# Density = 1.997853 g / cm^3
# Si number density = 20.024109 Si / 1000 Ang^3
#
#
#
# Elastic Constant Matrix: (Units=GPa)
#
#
# Indices 1 2 3 4 5 6 
#
# 1 87.1087 39.9867 42.6245 -3.7187 6.1272 -25.1897
# 2 39.9867 142.8523 62.4354 5.4021 -4.7034 -6.4228
# 3 42.6245 62.4354 128.7580 11.9184 9.8466 -9.1314
# 4 -3.7187 5.4021 11.9184 38.1910 -6.3278 7.8714
# 5 6.1272 -4.7034 9.8466 -6.3278 26.8450 -3.2289
# 6 -25.1897 -6.4228 -9.1314 7.8714 -3.2289 27.8891
#
#
#
# Elastic Compliance Matrix: (Units=1/GPa)
#
#
# Indices 1 2 3 4 5 6 
#
# 1 0.019246 -0.003183 -0.003610 0.000009 -0.001789 0.015258
# 2 -0.003183 0.009728 -0.004137 0.000601 0.003884 -0.001709
# 3 -0.003610 -0.004137 0.011791 -0.004368 -0.005222 0.000275
# 4 0.000009 0.000601 -0.004368 0.030621 0.007838 -0.009018
# 5 -0.001789 0.003884 -0.005222 0.007838 0.042131 0.000234
# 6 0.015258 -0.001709 0.000275 -0.009018 0.000234 0.051907
#
#
# Mechanical properties :
#
#
# Convention : Reuss Voigt Hill
#
# Bulk Modulus (GPa) = 52.89675 72.09026 62.49351
# Shear Modulus (GPa) = 25.82854 32.82986 29.32920
#
# Velocity S-wave (km/s) = 3.59537 4.05349 3.83128
# Velocity P-wave (km/s) = 6.61132 7.61496 7.13082
#
# Compressibility (1/GPa) = 0.01890475
#
# Stress axis : x y z
#
# Youngs Moduli (GPa) = 51.95913 102.79903 84.81076
#
# Poissons Ratio (x) = 0.32718 0.30616
# Poissons Ratio (y) = 0.16537 0.35089
# Poissons Ratio (z) = 0.18757 0.42531
#
# Static dielectric constant tensor:
#      x y z
#    x -7.140740 -4.203500 -12.024060 
#    y -4.203500 2.739920 -4.053880 
#    z -12.024060 -4.053880 -10.236770 
# 
# 
# High freq. dielectric constant tensor:
#      x y z
#    x 1.756540 -0.022970 0.022390 
#    y -0.022970 1.797410 0.024390 
#    z 0.022390 0.024390 1.779520 
# 
# From -- ./inp_files/579777.got.cif
#   From: 2010.06.25/outbox.cif.g09.slc.cpg/sg2_290_cif.got.tgz:579777.got - 2010.06.27 13:26:56.
