data_PCOD8028958
_publ_section_title
;
Structure prediction by ZEFSAII (Michael W. Deem and Ramdas Pophale) SiO2 
 PCOD8028958
Probable space group: P -1
;
_chemical_formula_sum "Si O2"
_cell_formula_units_Z 14
_cell_length_a 14.528165
_cell_length_b 28.231278
_cell_length_c 11.783964
_cell_angle_alpha 18.815459
_cell_angle_beta 28.682909
_cell_angle_gamma 22.331513
_cell_volume 592.231769
_symmetry_space_group_name_H-M "P -1"
_symmetry_group_IT_number 2
_symmetry_cell_setting 'triclinic'
loop_
_space_group_symop_operation_xyz
x,y,z
-x,-y,-z
loop_
_atom_site_type_symbol
_atom_site_label
_atom_site_fract_x
_atom_site_fract_y
_atom_site_fract_z
Si Si1 0.285618 0.216611 0.757473
Si Si2 0.464150 0.826131 0.197565
Si Si3 0.772241 0.826674 0.685453
Si Si4 0.018183 0.891537 0.615748
Si Si5 0.878440 0.802476 0.378664
Si Si6 0.200564 0.427930 0.146052
Si Si7 0.728041 0.140741 0.162771
O O1 0.345870 0.271115 0.685720
O O2 0.250279 0.353059 0.389761
O O3 0.028197 0.254079 0.966195
O O4 0.500000 0.000000 0.000000
O O5 0.275560 0.778815 0.525094
O O6 0.611986 0.771742 0.043086
O O7 0.285130 0.052442 0.875480
O O8 0.709970 0.859316 0.544217
O O9 0.746531 0.001160 0.368594
O O10 0.053857 0.648409 0.802697
O O11 0.000000 0.000000 0.500000
O O12 0.795298 0.042577 0.434527
O O13 0.960361 0.611041 0.667983
O O14 0.097937 0.803197 0.179669
O O15 0.456997 0.330309 0.027850
#
# Coordination Sequence:
#
# PCOD8028958 Si02
#       7
#     2   2   2   2   2   2   2
#     4  12  18  39  65  92 128 168 216 267 324 387
#     4  11  22  39  66  95 125 174 216 263 327 384
#     4  12  25  45  65 100 137 170 221 274 324 391
#     4  11  19  35  69  94 123 171 221 259 320 396
#     4  11  23  45  70  93 133 179 219 269 328 388
#     4  12  25  43  69  98 133 174 220 274 326 388
#     4  11  23  44  66  97 128 178 220 265 335 382
#
# _framework density 23.639395
#
# number of rings (size 3 to 8) (size 9 to 14) (size 15 to 20)
#    0.000    0.571    7.143    2.143    0.000    1.143 
#    5.143    0.714    0.000    0.000    0.000    0.000 
#    0.000    0.000    0.000    0.000    0.000    0.000 
#
# Total GULP energy -173521.348519 kJ/mol
# GULP energy per Si atom -12394.382037 kJ/mol
# Density = 2.358559 g / cm^3
# Si number density = 23.639395 Si / 1000 Ang^3
#
#
#
# Elastic Constant Matrix: (Units=GPa)
#
#
# Indices 1 2 3 4 5 6 
#
# 1 104.3220 29.3032 28.5957 14.8221 13.7302 -10.8930
# 2 29.3032 125.0228 35.8835 22.7528 -19.0071 -1.5865
# 3 28.5957 35.8835 41.6183 22.6462 4.4798 -1.8799
# 4 14.8221 22.7528 22.6462 37.9484 -0.4153 0.0414
# 5 13.7302 -19.0071 4.4798 -0.4153 26.3405 12.7470
# 6 -10.8930 -1.5865 -1.8799 0.0414 12.7470 26.5403
#
#
#
# Elastic Compliance Matrix: (Units=1/GPa)
#
#
# Indices 1 2 3 4 5 6 
#
# 1 0.016334 -0.005522 -0.002741 -0.001665 -0.019609 0.015600
# 2 -0.005522 0.016741 -0.014409 0.000997 0.024144 -0.013884
# 3 -0.002741 -0.014409 0.054161 -0.022904 -0.025345 0.014059
# 4 -0.001665 0.000997 -0.022904 0.040183 0.009425 -0.006835
# 5 -0.019609 0.024144 -0.025345 0.009425 0.096588 -0.054805
# 6 0.015600 -0.013884 0.014059 -0.006835 -0.054805 0.070580
#
#
# Mechanical properties :
#
#
# Convention : Reuss Voigt Hill
#
# Bulk Modulus (GPa) = 23.87029 50.94755 37.40892
# Shear Modulus (GPa) = 14.12844 29.97787 22.05315
#
# Velocity S-wave (km/s) = 2.44737 3.56495 3.05765
# Velocity P-wave (km/s) = 4.25509 6.20837 5.32211
#
# Compressibility (1/GPa) = 0.04189309
#
# Stress axis : x y z
#
# Youngs Moduli (GPa) = 61.22082 59.73267 18.46350
#
# Poissons Ratio (x) = 0.32984 0.05060
# Poissons Ratio (y) = 0.33805 0.26604
# Poissons Ratio (z) = 0.16779 0.86069
#
# Static dielectric constant tensor:
#      x y z
#    x 4.287110 -0.244070 0.179800 
#    y -0.244070 4.536640 0.352730 
#    z 0.179800 0.352730 4.122650 
# 
# 
# High freq. dielectric constant tensor:
#      x y z
#    x 1.937450 -0.008140 0.022310 
#    y -0.008140 1.938350 0.023530 
#    z 0.022310 0.023530 1.917520 
# 
# From -- ./inp_files/399575.got.cif
#   From: 2010.06.25/outbox.cif.g09.slc.cpg/sg2_200_cif.got.tgz:399575.got - 2010.06.27 13:26:56.
