data_PCOD8028313
_publ_section_title
;
Structure prediction by ZEFSAII (Michael W. Deem and Ramdas Pophale) SiO2 
 PCOD8028313
Probable space group: P -1
;
_chemical_formula_sum "Si O2"
_cell_formula_units_Z 12
_cell_length_a 14.621401
_cell_length_b 7.857382
_cell_length_c 14.643601
_cell_angle_alpha 102.736910
_cell_angle_beta 160.483424
_cell_angle_gamma 86.757954
_cell_volume 485.572501
_symmetry_space_group_name_H-M "P -1"
_symmetry_group_IT_number 2
_symmetry_cell_setting 'triclinic'
loop_
_space_group_symop_operation_xyz
x,y,z
-x,-y,-z
loop_
_atom_site_type_symbol
_atom_site_label
_atom_site_fract_x
_atom_site_fract_y
_atom_site_fract_z
Si Si1 0.047753 0.809474 0.891777
Si Si2 0.640039 0.389907 0.723060
Si Si3 0.141787 0.371376 0.657481
Si Si4 0.123394 0.924433 0.782633
Si Si5 0.503067 0.267839 0.382590
Si Si6 0.810209 0.182845 0.500858
O O1 0.143355 0.658297 0.012848
O O2 0.278432 0.037080 0.157240
O O3 0.047451 0.772432 0.777765
O O4 0.713988 0.766089 0.608087
O O5 0.707216 0.358521 0.676857
O O6 0.688105 0.612568 0.808171
O O7 0.000000 0.500000 0.500000
O O8 0.021713 0.173440 0.461734
O O9 0.057238 0.327710 0.678415
O O10 0.500000 0.500000 0.000000
O O11 0.964462 0.059452 0.677696
O O12 0.491746 0.047147 0.131651
O O13 0.745090 0.303989 0.533078
#
# Coordination Sequence:
#
# PCOD8028313 Si02
#       6
#     2   2   2   2   2   2
#     4  11  24  44  70 102 145 189 239 287 358 419
#     4  11  25  43  72 103 147 189 237 300 341 426
#     4  12  26  45  71 107 139 176 233 297 360 425
#     4  11  24  46  71 102 138 189 235 284 362 427
#     4  10  25  45  70 107 142 191 243 285 363 409
#     4  11  24  46  72  98 141 188 235 292 350 435
#
# _framework density 24.713096
#
# number of rings (size 3 to 8) (size 9 to 14) (size 15 to 20)
#    0.000    1.000    0.000    6.000    2.333    9.333 
#    0.000    0.000    0.000    0.000    0.000    0.000 
#    0.000    0.000    0.000    0.000    0.000    0.000 
#
# Total GULP energy -148860.086047 kJ/mol
# GULP energy per Si atom -12405.007171 kJ/mol
# Density = 2.465685 g / cm^3
# Si number density = 24.713096 Si / 1000 Ang^3
#
#
#
# Elastic Constant Matrix: (Units=GPa)
#
#
# Indices 1 2 3 4 5 6 
#
# 1 175.3665 51.3391 35.6387 -2.4907 18.6849 19.0936
# 2 51.3391 110.4754 16.8219 -8.1382 4.4156 10.6250
# 3 35.6387 16.8219 107.0513 -7.2786 18.9248 14.9609
# 4 -2.4907 -8.1382 -7.2786 38.2346 -3.4190 -2.7544
# 5 18.6849 4.4156 18.9248 -3.4190 30.9950 -0.0465
# 6 19.0936 10.6250 14.9609 -2.7544 -0.0465 31.1939
#
#
#
# Elastic Compliance Matrix: (Units=1/GPa)
#
#
# Indices 1 2 3 4 5 6 
#
# 1 0.007483 -0.002940 -0.001013 -0.000880 -0.003576 -0.003176
# 2 -0.002940 0.010748 -0.000511 0.001964 0.000767 -0.001442
# 3 -0.001013 -0.000511 0.011600 0.001135 -0.006281 -0.004679
# 4 -0.000880 0.001964 0.001135 0.027083 0.002548 0.001720
# 5 -0.003576 0.000767 -0.006281 0.002548 0.038433 0.005222
# 6 -0.003176 -0.001442 -0.004679 0.001720 0.005222 0.036896
#
#
# Mechanical properties :
#
#
# Convention : Reuss Voigt Hill
#
# Bulk Modulus (GPa) = 47.83683 66.72141 57.27912
# Shear Modulus (GPa) = 33.75189 39.35761 36.55475
#
# Velocity S-wave (km/s) = 3.69961 3.99504 3.85016
# Velocity P-wave (km/s) = 6.13583 6.95252 6.55690
#
# Compressibility (1/GPa) = 0.02090440
#
# Stress axis : x y z
#
# Youngs Moduli (GPa) = 133.63428 93.03749 86.20464
#
# Poissons Ratio (x) = 0.27350 0.08734
# Poissons Ratio (y) = 0.39284 0.04404
# Poissons Ratio (z) = 0.13539 0.04754
#
# Static dielectric constant tensor:
#      x y z
#    x 4.433170 0.024410 0.072590 
#    y 0.024410 4.510310 -0.028450 
#    z 0.072590 -0.028450 4.482810 
# 
# 
# High freq. dielectric constant tensor:
#      x y z
#    x 1.995520 0.006130 0.006940 
#    y 0.006130 1.992130 -0.003930 
#    z 0.006940 -0.003930 1.995550 
# 
# From -- ./inp_files/526594.got.cif
#   From: 2010.06.25/outbox.cif.g09.slc.cpg/sg2_264_cif.got.tgz:526594.got - 2010.06.27 13:26:56.
