data_PCOD8028740
_publ_section_title
;
Structure prediction by ZEFSAII (Michael W. Deem and Ramdas Pophale) SiO2 
 PCOD8028740
Probable space group: P -1
;
_chemical_formula_sum "Si O2"
_cell_formula_units_Z 14
_cell_length_a 19.318940
_cell_length_b 9.015839
_cell_length_c 13.077297
_cell_angle_alpha 47.448759
_cell_angle_beta 143.684733
_cell_angle_gamma 103.992233
_cell_volume 714.730201
_symmetry_space_group_name_H-M "P -1"
_symmetry_group_IT_number 2
_symmetry_cell_setting 'triclinic'
loop_
_space_group_symop_operation_xyz
x,y,z
-x,-y,-z
loop_
_atom_site_type_symbol
_atom_site_label
_atom_site_fract_x
_atom_site_fract_y
_atom_site_fract_z
Si Si1 0.811801 0.299090 0.361099
Si Si2 0.048230 0.287311 0.740223
Si Si3 0.691650 0.776770 0.839143
Si Si4 0.338350 0.574458 0.663725
Si Si5 0.301340 0.988508 0.676346
Si Si6 0.213459 0.153624 0.276833
Si Si7 0.126193 0.504243 0.357689
O O1 0.683476 0.469470 0.223360
O O2 0.817413 0.064026 0.437428
O O3 0.992180 0.137484 0.697592
O O4 0.757963 0.506870 0.106896
O O5 0.000000 0.500000 0.500000
O O6 0.941185 0.479400 0.620421
O O7 0.238864 0.097087 0.084440
O O8 0.757735 0.696516 0.837807
O O9 0.500000 0.000000 0.500000
O O10 0.208757 0.624812 0.409712
O O11 0.317397 0.838419 0.507200
O O12 0.514686 0.304144 0.959372
O O13 0.272383 0.146472 0.462883
O O14 0.260108 0.181419 0.632094
O O15 0.024571 0.311465 0.986452
#
# Coordination Sequence:
#
# PCOD8028740 Si02
#       7
#     2   2   2   2   2   2   2
#     4   9  18  33  52  73 102 137 172 205 248 308
#     4   8  17  33  50  71  98 134 170 202 246 304
#     4  10  17  30  52  77  97 126 172 216 245 289
#     4  10  19  34  54  76 102 138 176 209 248 305
#     4  11  20  33  52  80 107 134 168 214 259 299
#     4  10  20  34  52  76 104 138 172 206 254 309
#     4  10  20  33  53  79 105 133 170 216 258 298
#
# _framework density 19.587809
#
# number of rings (size 3 to 8) (size 9 to 14) (size 15 to 20)
#    0.000    2.286    0.000    4.714    0.000    1.143 
#    0.000    6.429    0.000    3.429    0.000   33.000 
#    0.000    0.000    0.000    0.000    0.000    0.000 
#
# Total GULP energy -173446.640832 kJ/mol
# GULP energy per Si atom -12389.045774 kJ/mol
# Density = 1.954323 g / cm^3
# Si number density = 19.587809 Si / 1000 Ang^3
#
#
#
# Elastic Constant Matrix: (Units=GPa)
#
#
# Indices 1 2 3 4 5 6 
#
# 1 73.0745 19.1610 21.4541 4.0880 -8.5563 9.0385
# 2 19.1610 64.5121 4.4953 7.0665 6.9569 -4.0577
# 3 21.4541 4.4953 76.4932 11.9223 7.8646 -5.0597
# 4 4.0880 7.0665 11.9223 29.3347 5.3374 7.4548
# 5 -8.5563 6.9569 7.8646 5.3374 31.0776 0.2510
# 6 9.0385 -4.0577 -5.0597 7.4548 0.2510 19.9423
#
#
#
# Elastic Compliance Matrix: (Units=1/GPa)
#
#
# Indices 1 2 3 4 5 6 
#
# 1 0.020715 -0.007966 -0.007913 0.004391 0.008854 -0.014770
# 2 -0.007966 0.019753 0.003521 -0.006734 -0.006439 0.011121
# 3 -0.007913 0.003521 0.017935 -0.009064 -0.006048 0.012318
# 4 0.004391 -0.006734 -0.009064 0.044943 -0.002527 -0.022429
# 5 0.008854 -0.006439 -0.006048 -0.002527 0.038073 -0.006392
# 6 -0.014770 0.011121 0.012318 -0.022429 -0.006392 0.070692
#
#
# Mechanical properties :
#
#
# Convention : Reuss Voigt Hill
#
# Bulk Modulus (GPa) = 29.68654 33.81119 31.74887
# Shear Modulus (GPa) = 20.15666 27.33552 23.74609
#
# Velocity S-wave (km/s) = 3.21135 3.73974 3.48557
# Velocity P-wave (km/s) = 5.37948 5.99553 5.69584
#
# Compressibility (1/GPa) = 0.03368530
#
# Stress axis : x y z
#
# Youngs Moduli (GPa) = 48.27483 50.62490 55.75675
#
# Poissons Ratio (x) = 0.40327 0.44123
# Poissons Ratio (y) = 0.38455 -0.19629
# Poissons Ratio (z) = 0.38202 -0.17823
#
# Static dielectric constant tensor:
#      x y z
#    x 3.675990 0.217990 0.120030 
#    y 0.217990 3.784710 0.637450 
#    z 0.120030 0.637450 3.657900 
# 
# 
# High freq. dielectric constant tensor:
#      x y z
#    x 1.764050 0.012850 -0.005130 
#    y 0.012850 1.738020 0.036060 
#    z -0.005130 0.036060 1.761020 
# 
# From -- ./inp_files/167456.got.cif
#   From: 2010.06.25/outbox.cif.g09.slc.cpg/sg2_84_cif.got.tgz:167456.got - 2010.06.27 13:26:56.
