data_PCOD8028821
_publ_section_title
;
Structure prediction by ZEFSAII (Michael W. Deem and Ramdas Pophale) SiO2 
 PCOD8028821
Probable space group: P -1
;
_chemical_formula_sum "Si O2"
_cell_formula_units_Z 12
_cell_length_a 6.497828
_cell_length_b 15.805516
_cell_length_c 7.151145
_cell_angle_alpha 134.954054
_cell_angle_beta 115.916341
_cell_angle_gamma 59.445069
_cell_volume 443.899563
_symmetry_space_group_name_H-M "P -1"
_symmetry_group_IT_number 2
_symmetry_cell_setting 'triclinic'
loop_
_space_group_symop_operation_xyz
x,y,z
-x,-y,-z
loop_
_atom_site_type_symbol
_atom_site_label
_atom_site_fract_x
_atom_site_fract_y
_atom_site_fract_z
Si Si1 0.946146 0.286605 0.385803
Si Si2 0.563161 0.762253 0.285250
Si Si3 0.927489 0.254392 0.911670
Si Si4 0.354227 0.030233 0.705674
Si Si5 0.140980 0.445750 0.156618
Si Si6 0.778352 0.086267 0.164258
O O1 0.222301 0.266430 0.524612
O O2 0.951172 0.216548 0.081330
O O3 0.803182 0.436649 0.539158
O O4 0.811064 0.226224 0.391612
O O5 0.484710 0.912745 0.429057
O O6 0.622794 0.671500 0.985150
O O7 0.336070 0.735990 0.254188
O O8 0.968863 0.389553 0.123538
O O9 0.132936 0.144217 0.707419
O O10 0.235475 0.959629 0.701910
O O11 0.533290 0.092605 0.971610
O O12 0.000000 0.500000 0.000000
O O13 0.000000 0.000000 0.000000
#
# Coordination Sequence:
#
# PCOD8028821 Si02
#       6
#     2   2   2   2   2   2
#     4  11  24  50  74 101 144 188 238 289 346 424
#     4  11  26  47  70 108 144 185 225 299 354 412
#     4  12  26  46  73 109 139 186 241 287 350 424
#     4  11  24  42  72 110 141 182 234 291 355 420
#     4  10  27  49  69 106 141 190 238 287 354 413
#     4  11  21  44  73 106 143 185 232 291 356 408
#
# _framework density 27.033144
#
# number of rings (size 3 to 8) (size 9 to 14) (size 15 to 20)
#    0.000    1.000    3.333    2.000    7.000    4.000 
#    3.000    0.000    0.000    0.000    0.000    0.000 
#    0.000    0.000    0.000    0.000    0.000    0.000 
#
# Total GULP energy -148783.801021 kJ/mol
# GULP energy per Si atom -12398.650085 kJ/mol
# Density = 2.697162 g / cm^3
# Si number density = 27.033144 Si / 1000 Ang^3
#
#
#
# Elastic Constant Matrix: (Units=GPa)
#
#
# Indices 1 2 3 4 5 6 
#
# 1 118.1611 42.5873 42.8972 22.2144 29.0777 -19.9812
# 2 42.5873 93.6873 33.1625 36.7602 10.7101 1.9998
# 3 42.8972 33.1625 116.2090 50.1703 9.2151 -12.8211
# 4 22.2144 36.7602 50.1703 58.7209 8.2299 2.6015
# 5 29.0777 10.7101 9.2151 8.2299 50.6157 10.7851
# 6 -19.9812 1.9998 -12.8211 2.6015 10.7851 36.7590
#
#
#
# Elastic Compliance Matrix: (Units=1/GPa)
#
#
# Indices 1 2 3 4 5 6 
#
# 1 0.015347 -0.005472 -0.002423 0.000562 -0.009559 0.010560
# 2 -0.005472 0.016234 0.000616 -0.008710 0.001768 -0.003545
# 3 -0.002423 0.000616 0.015477 -0.012840 -0.000559 0.005120
# 4 0.000562 -0.008710 -0.012840 0.033551 -0.000323 -0.005979
# 5 -0.009559 0.001768 -0.000559 -0.000323 0.027940 -0.013662
# 6 0.010560 -0.003545 0.005120 -0.005979 -0.013662 0.039354
#
#
# Mechanical properties :
#
#
# Convention : Reuss Voigt Hill
#
# Bulk Modulus (GPa) = 30.76885 62.81681 46.79283
# Shear Modulus (GPa) = 28.85275 43.17981 36.01628
#
# Velocity S-wave (km/s) = 3.27052 4.00095 3.65403
# Velocity P-wave (km/s) = 5.06639 6.68063 5.92871
#
# Compressibility (1/GPa) = 0.03250040
#
# Stress axis : x y z
#
# Youngs Moduli (GPa) = 65.15832 61.59875 64.61337
#
# Poissons Ratio (x) = 0.33705 0.15658
# Poissons Ratio (y) = 0.35652 -0.03981
# Poissons Ratio (z) = 0.15790 -0.03795
#
# Static dielectric constant tensor:
#      x y z
#    x 5.483210 0.153050 -0.023010 
#    y 0.153050 5.473210 1.268750 
#    z -0.023010 1.268750 5.931560 
# 
# 
# High freq. dielectric constant tensor:
#      x y z
#    x 2.107910 0.010420 0.004170 
#    y 0.010420 2.077640 0.021190 
#    z 0.004170 0.021190 2.095590 
# 
# From -- ./inp_files/61200.got.cif
#   From: 2010.06.25/outbox.cif.g09.slc.cpg/sg2_31_cif.got.tgz:61200.got - 2010.06.27 13:26:56.
