data_PCOD8028892
_publ_section_title
;
Structure prediction by ZEFSAII (Michael W. Deem and Ramdas Pophale) SiO2 
 PCOD8028892
Probable space group: P -1
;
_chemical_formula_sum "Si O2"
_cell_formula_units_Z 14
_cell_length_a 10.478761
_cell_length_b 11.773986
_cell_length_c 9.498803
_cell_angle_alpha 110.911275
_cell_angle_beta 62.226213
_cell_angle_gamma 63.002753
_cell_volume 640.178210
_symmetry_space_group_name_H-M "P -1"
_symmetry_group_IT_number 2
_symmetry_cell_setting 'triclinic'
loop_
_space_group_symop_operation_xyz
x,y,z
-x,-y,-z
loop_
_atom_site_type_symbol
_atom_site_label
_atom_site_fract_x
_atom_site_fract_y
_atom_site_fract_z
Si Si1 0.723334 0.835278 0.890186
Si Si2 0.921583 0.717252 0.454162
Si Si3 0.776079 0.074684 0.619668
Si Si4 0.322183 0.374905 0.493221
Si Si5 0.758187 0.123540 0.332639
Si Si6 0.032560 0.785587 0.869113
Si Si7 0.633813 0.632582 0.868650
O O1 0.915872 0.705314 0.620191
O O2 0.792143 0.900071 0.986096
O O3 0.705765 0.719581 0.928155
O O4 0.500000 0.000000 0.000000
O O5 0.802825 0.673046 0.431478
O O6 0.184266 0.565280 0.232480
O O7 0.797101 0.915954 0.554729
O O8 0.690241 0.154864 0.543044
O O9 0.606574 0.240937 0.891511
O O10 0.000000 0.000000 0.500000
O O11 0.551535 0.225687 0.387710
O O12 0.367398 0.370807 0.302448
O O13 0.178318 0.573740 0.725570
O O14 0.838336 0.210179 0.303533
O O15 0.965063 0.902615 0.096188
#
# Coordination Sequence:
#
# PCOD8028892 Si02
#       7
#     2   2   2   2   2   2   2
#     4  11  18  37  72 103 127 168 225 281 318 382
#     4  11  22  42  71 104 130 175 226 271 337 390
#     4  12  29  47  64  97 143 178 218 271 345 412
#     4  11  23  43  75 101 128 171 233 282 322 390
#     4  11  28  42  66  98 136 185 215 271 344 398
#     4  11  22  45  68  96 137 169 229 279 326 389
#     4  11  23  41  74 101 128 174 226 280 327 389
#
# _framework density 21.86891
#
# number of rings (size 3 to 8) (size 9 to 14) (size 15 to 20)
#    0.000    0.857    4.286    3.857    4.000    2.286 
#    0.000    1.429    0.000    0.000    0.000    0.000 
#    0.000    0.000    0.000    0.000    0.000    0.000 
#
# Total GULP energy -173496.251968 kJ/mol
# GULP energy per Si atom -12392.589426 kJ/mol
# Density = 2.181914 g / cm^3
# Si number density = 21.868910 Si / 1000 Ang^3
#
#
#
# Elastic Constant Matrix: (Units=GPa)
#
#
# Indices 1 2 3 4 5 6 
#
# 1 94.9890 16.1384 33.5596 1.9437 -9.7942 -7.1232
# 2 16.1384 62.7384 39.2925 9.8892 1.0473 -7.4440
# 3 33.5596 39.2925 100.8048 16.1406 -16.2268 -10.1431
# 4 1.9437 9.8892 16.1406 36.1876 0.0092 3.6036
# 5 -9.7942 1.0473 -16.2268 0.0092 33.5015 7.2911
# 6 -7.1232 -7.4440 -10.1431 3.6036 7.2911 37.5210
#
#
#
# Elastic Compliance Matrix: (Units=1/GPa)
#
#
# Indices 1 2 3 4 5 6 
#
# 1 0.012140 -0.001088 -0.003440 0.001108 0.001762 0.000710
# 2 -0.001088 0.022518 -0.008620 -0.002581 -0.005921 0.003329
# 3 -0.003440 -0.008620 0.016457 -0.004921 0.006975 0.001203
# 4 0.001108 -0.002581 -0.004921 0.030913 -0.001030 -0.004401
# 5 0.001762 -0.005921 0.006975 -0.001030 0.035166 -0.005689
# 6 0.000710 0.003329 0.001203 -0.004401 -0.005689 0.029300
#
#
# Mechanical properties :
#
#
# Convention : Reuss Voigt Hill
#
# Bulk Modulus (GPa) = 40.29155 48.50147 44.39651
# Shear Modulus (GPa) = 27.61446 32.74481 30.17963
#
# Velocity S-wave (km/s) = 3.55734 3.87372 3.71890
# Velocity P-wave (km/s) = 5.94450 6.49877 6.22780
#
# Compressibility (1/GPa) = 0.02481910
#
# Stress axis : x y z
#
# Youngs Moduli (GPa) = 82.37252 44.40812 60.76430
#
# Poissons Ratio (x) = 0.04834 0.20901
# Poissons Ratio (y) = 0.08966 0.52379
# Poissons Ratio (z) = 0.28334 0.38280
#
# Static dielectric constant tensor:
#      x y z
#    x 4.083470 0.206120 -0.037800 
#    y 0.206120 4.165210 0.766610 
#    z -0.037800 0.766610 5.076170 
# 
# 
# High freq. dielectric constant tensor:
#      x y z
#    x 1.869560 0.007900 -0.012080 
#    y 0.007900 1.844420 0.029740 
#    z -0.012080 0.029740 1.859830 
# 
# From -- ./inp_files/189853.got.cif
#   From: 2010.06.25/outbox.cif.g09.slc.cpg/sg2_95_cif.got.tgz:189853.got - 2010.06.27 13:26:56.
