data_PCOD8028679
_publ_section_title
;
Structure prediction by ZEFSAII (Michael W. Deem and Ramdas Pophale) SiO2 
 PCOD8028679
Probable space group: P -1
;
_chemical_formula_sum "Si O2"
_cell_formula_units_Z 14
_cell_length_a 11.745957
_cell_length_b 8.562788
_cell_length_c 15.874272
_cell_angle_alpha 123.220396
_cell_angle_beta 29.505539
_cell_angle_gamma 133.712823
_cell_volume 561.906639
_symmetry_space_group_name_H-M "P -1"
_symmetry_group_IT_number 2
_symmetry_cell_setting 'triclinic'
loop_
_space_group_symop_operation_xyz
x,y,z
-x,-y,-z
loop_
_atom_site_type_symbol
_atom_site_label
_atom_site_fract_x
_atom_site_fract_y
_atom_site_fract_z
Si Si1 0.863076 0.101205 0.173999
Si Si2 0.929395 0.507878 0.726590
Si Si3 0.842635 0.751190 0.719892
Si Si4 0.552449 0.946415 0.041083
Si Si5 0.381934 0.125220 0.434294
Si Si6 0.502174 0.310185 0.240228
Si Si7 0.559440 0.709369 0.376434
O O1 0.662992 0.130172 0.250072
O O2 0.072607 0.337120 0.150839
O O3 0.689301 0.942157 0.315898
O O4 0.000000 0.000000 0.000000
O O5 0.800684 0.539538 0.733098
O O6 0.732292 0.254232 0.800665
O O7 0.234067 0.567638 0.529412
O O8 0.649845 0.701063 0.750492
O O9 0.788343 0.890575 0.867286
O O10 0.144334 0.877711 0.527915
O O11 0.649767 0.170187 0.097179
O O12 0.500000 0.000000 0.000000
O O13 0.322496 0.215857 0.413799
O O14 0.381479 0.265846 0.555111
O O15 0.688744 0.570769 0.214707
#
# Coordination Sequence:
#
# PCOD8028679 Si02
#       7
#     2   2   2   2   2   2   2
#     4  11  25  45  76 104 137 184 245 295 351 420
#     4  11  23  46  73 100 141 191 232 301 348 410
#     4  11  23  45  72  99 148 181 240 289 350 419
#     4  10  26  44  66 104 149 182 231 290 357 415
#     4  11  23  47  70 105 140 188 237 292 354 416
#     4  11  27  42  68 108 142 190 231 286 354 428
#     4  11  24  47  72 102 143 182 241 292 352 420
#
# _framework density 24.915171000000001
#
# number of rings (size 3 to 8) (size 9 to 14) (size 15 to 20)
#    0.000    1.143    2.857    2.143   12.000    1.714 
#    0.000    1.429    0.000    0.000    0.000    0.000 
#    0.000    0.000    0.000    0.000    0.000    0.000 
#
# Total GULP energy -173466.493825 kJ/mol
# GULP energy per Si atom -12390.463845 kJ/mol
# Density = 2.485846 g / cm^3
# Si number density = 24.915171 Si / 1000 Ang^3
#
#
#
# Elastic Constant Matrix: (Units=GPa)
#
#
# Indices 1 2 3 4 5 6 
#
# 1 101.7392 18.6369 14.7251 -3.0333 21.8028 -25.2526
# 2 18.6369 90.1574 8.6926 25.4645 5.5247 -15.6472
# 3 14.7251 8.6926 56.2869 4.0800 8.2592 2.6110
# 4 -3.0333 25.4645 4.0800 35.7064 10.7819 18.9281
# 5 21.8028 5.5247 8.2592 10.7819 21.8144 1.5525
# 6 -25.2526 -15.6472 2.6110 18.9281 1.5525 32.8617
#
#
#
# Elastic Compliance Matrix: (Units=1/GPa)
#
#
# Indices 1 2 3 4 5 6 
#
# 1 0.017739 0.001832 -0.003064 -0.003943 -0.016351 0.017791
# 2 0.001832 0.033530 -0.006196 -0.052660 0.014670 0.047504
# 3 -0.003064 -0.006196 0.020444 0.010941 -0.007601 -0.012872
# 4 -0.003943 -0.052660 0.010941 0.132072 -0.044817 -0.102929
# 5 -0.016351 0.014670 -0.007601 -0.044817 0.082290 0.016951
# 6 0.017791 0.047504 -0.012872 -0.102929 0.016951 0.126230
#
#
# Mechanical properties :
#
#
# Convention : Reuss Voigt Hill
#
# Bulk Modulus (GPa) = 17.58831 36.92139 27.25485
# Shear Modulus (GPa) = 11.20790 31.81846 21.51318
#
# Velocity S-wave (km/s) = 2.12325 3.57749 2.94165
# Velocity P-wave (km/s) = 3.61739 5.64939 4.74348
#
# Compressibility (1/GPa) = 0.05685595
#
# Stress axis : x y z
#
# Youngs Moduli (GPa) = 56.37197 29.82436 48.91449
#
# Poissons Ratio (x) = -0.05463 0.14987
# Poissons Ratio (y) = -0.10326 0.30309
# Poissons Ratio (z) = 0.17271 0.18480
#
# Static dielectric constant tensor:
#      x y z
#    x 4.584490 0.049210 0.254290 
#    y 0.049210 5.038340 0.732930 
#    z 0.254290 0.732930 5.037220 
# 
# 
# High freq. dielectric constant tensor:
#      x y z
#    x 2.004970 -0.011150 0.017820 
#    y -0.011150 1.996570 0.017750 
#    z 0.017820 0.017750 1.975170 
# 
# From -- ./inp_files/566838.got.cif
#   From: 2010.06.25/outbox.cif.g09.slc.cpg/sg2_284_cif.got.tgz:566838.got - 2010.06.27 13:26:56.
