data_PCOD8028693
_publ_section_title
;
Structure prediction by ZEFSAII (Michael W. Deem and Ramdas Pophale) SiO2 
 PCOD8028693
Probable space group: P -1
;
_chemical_formula_sum "Si O2"
_cell_formula_units_Z 16
_cell_length_a 9.306405
_cell_length_b 14.540505
_cell_length_c 14.627616
_cell_angle_alpha 127.711167
_cell_angle_beta 141.436414
_cell_angle_gamma 81.984909
_cell_volume 709.247387
_symmetry_space_group_name_H-M "P -1"
_symmetry_group_IT_number 2
_symmetry_cell_setting 'triclinic'
loop_
_space_group_symop_operation_xyz
x,y,z
-x,-y,-z
loop_
_atom_site_type_symbol
_atom_site_label
_atom_site_fract_x
_atom_site_fract_y
_atom_site_fract_z
Si Si1 0.186045 0.308309 0.104469
Si Si2 0.178111 0.057970 0.026582
Si Si3 0.782393 0.312851 0.777452
Si Si4 0.753888 0.233536 0.996062
Si Si5 0.160310 0.159272 0.623203
Si Si6 0.122538 0.423386 0.469268
Si Si7 0.856158 0.801945 0.562007
Si Si8 0.322831 0.855055 0.556894
O O1 0.123752 0.152534 0.997417
O O2 0.552390 0.453247 0.351099
O O3 0.960092 0.265210 0.881856
O O4 0.069704 0.342001 0.155493
O O5 0.547326 0.166059 0.300891
O O6 0.000000 0.000000 0.000000
O O7 0.069627 0.915323 0.821920
O O8 0.471631 0.241877 0.633613
O O9 0.666775 0.234835 0.572879
O O10 0.000000 0.500000 0.000000
O O11 0.539016 0.270930 0.882191
O O12 0.554809 0.045758 0.768697
O O13 0.854383 0.285429 0.182271
O O14 0.004321 0.119796 0.420721
O O15 0.043649 0.234565 0.664538
O O16 0.000000 0.000000 0.500000
O O17 0.182376 0.350170 0.535041
O O18 0.000000 0.500000 0.500000
#
# Coordination Sequence:
#
# PCOD8028693 Si02
#       8
#     2   2   2   2   2   2   2   2
#     4  12  26  44  75 106 143 193 238 296 359 428
#     4  12  24  44  76 111 144 185 246 302 349 431
#     4  12  26  45  73 106 144 189 243 299 356 430
#     4  11  23  48  72 102 144 189 240 296 346 436
#     4  10  26  44  71 108 142 185 238 302 358 415
#     4  12  29  47  71 108 148 189 238 295 366 426
#     4  12  24  49  74 103 146 195 241 294 361 428
#     4  11  25  46  71 106 147 184 242 297 358 420
#
# _framework density 22.559125000000002
#
# number of rings (size 3 to 8) (size 9 to 14) (size 15 to 20)
#    0.000    0.500    6.250    0.375    7.000    3.500 
#    0.000    1.250    0.000    0.000    0.000    0.000 
#    0.000    0.000    0.000    0.000    0.000    0.000 
#
# Total GULP energy -198323.507937 kJ/mol
# GULP energy per Si atom -12395.219246 kJ/mol
# Density = 2.250778 g / cm^3
# Si number density = 22.559125 Si / 1000 Ang^3
#
#
#
# Elastic Constant Matrix: (Units=GPa)
#
#
# Indices 1 2 3 4 5 6 
#
# 1 122.7797 54.0976 41.7163 -0.6407 9.1439 -2.8004
# 2 54.0976 155.3855 48.6098 -14.6198 4.8902 -2.8891
# 3 41.7163 48.6098 95.8369 -9.0239 -4.6802 -4.7958
# 4 -0.6407 -14.6198 -9.0239 34.7105 -6.9192 4.3262
# 5 9.1439 4.8902 -4.6802 -6.9192 35.7053 -13.8101
# 6 -2.8004 -2.8891 -4.7958 4.3262 -13.8101 40.7017
#
#
#
# Elastic Compliance Matrix: (Units=1/GPa)
#
#
# Indices 1 2 3 4 5 6 
#
# 1 0.010898 -0.002738 -0.003827 -0.002586 -0.003766 -0.000899
# 2 -0.002738 0.008575 -0.002941 0.002750 -0.000472 -0.000379
# 3 -0.003827 -0.002941 0.014239 0.003038 0.004811 0.002515
# 4 -0.002586 0.002750 0.003038 0.032125 0.006600 -0.000800
# 5 -0.003766 -0.000472 0.004811 0.006600 0.035430 0.011594
# 6 -0.000899 -0.000379 0.002515 -0.000800 0.011594 0.028796
#
#
# Mechanical properties :
#
#
# Convention : Reuss Voigt Hill
#
# Bulk Modulus (GPa) = 68.02858 73.64993 70.83925
# Shear Modulus (GPa) = 32.47265 37.52874 35.00069
#
# Velocity S-wave (km/s) = 3.79812 4.08312 3.94319
# Velocity P-wave (km/s) = 7.03246 7.41266 7.22506
#
# Compressibility (1/GPa) = 0.01469971
#
# Stress axis : x y z
#
# Youngs Moduli (GPa) = 91.75947 116.61147 70.23095
#
# Poissons Ratio (x) = 0.31933 0.26879
# Poissons Ratio (y) = 0.25127 0.20653
# Poissons Ratio (z) = 0.35118 0.34292
#
# Static dielectric constant tensor:
#      x y z
#    x 4.310200 -0.303850 0.334600 
#    y -0.303850 4.403840 -0.448980 
#    z 0.334600 -0.448980 4.071250 
# 
# 
# High freq. dielectric constant tensor:
#      x y z
#    x 1.898640 -0.008090 0.008210 
#    y -0.008090 1.901990 -0.027650 
#    z 0.008210 -0.027650 1.875790 
# 
# From -- ./inp_files/505519.got.cif
#   From: 2010.06.25/outbox.cif.g09.slc.cpg/sg2_253_cif.got.tgz:505519.got - 2010.06.27 13:26:56.
