data_PCOD8028450
_publ_section_title
;
Structure prediction by ZEFSAII (Michael W. Deem and Ramdas Pophale) SiO2 
 PCOD8028450
Probable space group: P -1
;
_chemical_formula_sum "Si O2"
_cell_formula_units_Z 16
_cell_length_a 5.622874
_cell_length_b 11.322079
_cell_length_c 12.414780
_cell_angle_alpha 104.827592
_cell_angle_beta 72.562791
_cell_angle_gamma 118.975088
_cell_volume 653.821824
_symmetry_space_group_name_H-M "P -1"
_symmetry_group_IT_number 2
_symmetry_cell_setting 'triclinic'
loop_
_space_group_symop_operation_xyz
x,y,z
-x,-y,-z
loop_
_atom_site_type_symbol
_atom_site_label
_atom_site_fract_x
_atom_site_fract_y
_atom_site_fract_z
Si Si1 0.440275 0.669647 0.974567
Si Si2 0.405641 0.032051 0.694271
Si Si3 0.755155 0.559400 0.638854
Si Si4 0.363375 0.629280 0.584507
Si Si5 0.898039 0.931710 0.884146
Si Si6 0.695541 0.891868 0.489326
Si Si7 0.608738 0.600090 0.164314
Si Si8 0.174628 0.830150 0.152820
O O1 0.697600 0.772265 0.890465
O O2 0.304126 0.523144 0.900233
O O3 0.525084 0.648969 0.077752
O O4 0.242633 0.745157 0.030589
O O5 0.327591 0.118950 0.639002
O O6 0.644989 0.145421 0.759006
O O7 0.482990 0.933087 0.589878
O O8 0.150449 0.936086 0.780573
O O9 0.529539 0.623358 0.670232
O O10 0.752744 0.504823 0.505402
O O11 0.637876 0.449522 0.725954
O O12 0.083438 0.652954 0.648657
O O13 0.614428 0.742995 0.509247
O O14 0.764041 0.020027 0.863653
O O15 0.000000 0.000000 0.000000
O O16 0.000000 0.000000 0.500000
O O17 0.861407 0.734217 0.208511
#
# Coordination Sequence:
#
# PCOD8028450 Si02
#       8
#     2   2   2   2   2   2   2   2
#     4  11  26  45  69 104 149 187 252 300 373 443
#     4  11  27  43  73 107 141 192 240 307 374 449
#     4  10  25  46  71 106 139 196 242 302 368 449
#     4  10  25  46  73 103 146 187 245 301 374 445
#     4  12  24  46  70 109 145 197 247 302 374 454
#     4  11  27  47  72 108 146 184 245 308 376 448
#     4  11  26  44  72 104 146 192 246 310 367 441
#     4  12  24  45  73 105 140 200 245 303 373 443
#
# _framework density 24.471498
#
# number of rings (size 3 to 8) (size 9 to 14) (size 15 to 20)
#    0.000    1.000    2.500    1.500   12.250    2.000 
#    0.000    0.000    0.000    0.000    0.000    0.000 
#    0.000    0.000    0.000    0.000    0.000    0.000 
#
# Total GULP energy -198252.605723 kJ/mol
# GULP energy per Si atom -12390.787858 kJ/mol
# Density = 2.441580 g / cm^3
# Si number density = 24.471498 Si / 1000 Ang^3
#
#
#
# Elastic Constant Matrix: (Units=GPa)
#
#
# Indices 1 2 3 4 5 6 
#
# 1 135.3105 32.2199 36.6776 -23.8674 16.3575 12.7936
# 2 32.2199 114.2772 26.2659 -36.7564 15.5548 3.7250
# 3 36.6776 26.2659 111.1384 -30.2946 0.9500 6.6272
# 4 -23.8674 -36.7564 -30.2946 45.3617 -1.0091 -13.1097
# 5 16.3575 15.5548 0.9500 -1.0091 31.8560 -5.0037
# 6 12.7936 3.7250 6.6272 -13.1097 -5.0037 28.8415
#
#
#
# Elastic Compliance Matrix: (Units=1/GPa)
#
#
# Indices 1 2 3 4 5 6 
#
# 1 0.009412 -0.000838 -0.002202 0.001635 -0.004882 -0.003665
# 2 -0.000838 0.013089 0.000023 0.010847 -0.005193 0.002705
# 3 -0.002202 0.000023 0.011540 0.007108 0.001280 0.001775
# 4 0.001635 0.010847 0.007108 0.040465 -0.002845 0.014140
# 5 -0.004882 -0.005193 0.001280 -0.002845 0.037524 0.007759
# 6 -0.003665 0.002705 0.001775 0.014140 0.007759 0.043314
#
#
# Mechanical properties :
#
#
# Convention : Reuss Voigt Hill
#
# Bulk Modulus (GPa) = 35.70556 61.22810 48.46683
# Shear Modulus (GPa) = 29.28883 38.91601 34.10242
#
# Velocity S-wave (km/s) = 3.46331 3.99213 3.73709
# Velocity P-wave (km/s) = 5.53309 6.80617 6.20238
#
# Compressibility (1/GPa) = 0.02800685
#
# Stress axis : x y z
#
# Youngs Moduli (GPa) = 106.24906 76.39951 86.65543
#
# Poissons Ratio (x) = 0.06399 0.19083
# Poissons Ratio (y) = 0.08900 -0.00197
# Poissons Ratio (z) = 0.23398 -0.00174
#
# Static dielectric constant tensor:
#      x y z
#    x 5.473730 -0.589140 -0.558220 
#    y -0.589140 4.916500 -0.035650 
#    z -0.558220 -0.035650 4.883200 
# 
# 
# High freq. dielectric constant tensor:
#      x y z
#    x 1.969020 -0.001450 -0.005210 
#    y -0.001450 1.974090 -0.008930 
#    z -0.005210 -0.008930 1.981860 
# 
# From -- ./inp_files/364757.got.cif
#   From: 2010.06.25/outbox.cif.g09.slc.cpg/sg2_183_cif.got.tgz:364757.got - 2010.06.27 13:26:56.
