data_PCOD8028932
_publ_section_title
;
Structure prediction by ZEFSAII (Michael W. Deem and Ramdas Pophale) SiO2 
 PCOD8028932
Probable space group: P -1
;
_chemical_formula_sum "Si O2"
_cell_formula_units_Z 16
_cell_length_a 11.991561
_cell_length_b 11.782795
_cell_length_c 18.324880
_cell_angle_alpha 47.770343
_cell_angle_beta 148.303362
_cell_angle_gamma 109.828743
_cell_volume 807.390248
_symmetry_space_group_name_H-M "P -1"
_symmetry_group_IT_number 2
_symmetry_cell_setting 'triclinic'
loop_
_space_group_symop_operation_xyz
x,y,z
-x,-y,-z
loop_
_atom_site_type_symbol
_atom_site_label
_atom_site_fract_x
_atom_site_fract_y
_atom_site_fract_z
Si Si1 0.899169 0.130349 0.040379
Si Si2 0.641344 0.481379 0.991779
Si Si3 0.565013 0.246172 0.527232
Si Si4 0.108847 0.739251 0.175867
Si Si5 0.822036 0.639313 0.622193
Si Si6 0.592708 0.027079 0.844620
Si Si7 0.310285 0.825902 0.764027
Si Si8 0.771302 0.475695 0.901287
O O1 0.805899 0.253758 0.860911
O O2 0.857399 0.262766 0.027110
O O3 0.726139 0.045163 0.984784
O O4 0.212130 0.966033 0.284142
O O5 0.415442 0.687968 0.811116
O O6 0.671202 0.524861 0.906903
O O7 0.605584 0.314103 0.057889
O O8 0.917933 0.372680 0.235615
O O9 0.662136 0.316019 0.615835
O O10 0.317636 0.263437 0.419044
O O11 0.478919 0.379965 0.351262
O O12 0.068867 0.577634 0.227975
O O13 0.827330 0.938430 0.952975
O O14 0.638294 0.759718 0.400131
O O15 0.478237 0.906645 0.840325
O O16 0.000000 0.000000 0.500000
O O17 0.000000 0.500000 0.000000
#
# Coordination Sequence:
#
# PCOD8028932 Si02
#       8
#     2   2   2   2   2   2   2   2
#     4  11  22  37  59  92 129 166 203 248 305 370
#     4  11  25  42  61  94 123 161 210 251 309 373
#     4  11  21  34  57  93 125 172 195 240 310 367
#     4  11  19  34  58  92 131 155 208 252 298 367
#     4  12  18  33  61  90 125 157 196 252 310 359
#     4  11  21  36  63  95 117 156 213 268 301 346
#     4  11  24  44  69  88 116 160 218 270 303 345
#     4  12  25  40  59  90 138 169 192 244 313 388
#
# _framework density 19.816935000000001
#
# number of rings (size 3 to 8) (size 9 to 14) (size 15 to 20)
#    0.000    0.750    7.500    1.875    0.000    1.500 
#    0.000    0.625    0.000    3.750    0.000    0.000 
#    0.000    0.000    0.000    0.000    0.000    0.000 
#
# Total GULP energy -198278.406138 kJ/mol
# GULP energy per Si atom -12392.400384 kJ/mol
# Density = 1.977183 g / cm^3
# Si number density = 19.816935 Si / 1000 Ang^3
#
#
#
# Elastic Constant Matrix: (Units=GPa)
#
#
# Indices 1 2 3 4 5 6 
#
# 1 88.7459 27.3042 25.0990 1.7009 1.3986 -4.1533
# 2 27.3042 107.8780 18.9537 -4.9540 9.2703 3.6412
# 3 25.0990 18.9537 85.7011 -8.3384 9.8369 -11.9319
# 4 1.7009 -4.9540 -8.3384 27.9682 3.5605 6.0378
# 5 1.3986 9.2703 9.8369 3.5605 29.5532 -0.3696
# 6 -4.1533 3.6412 -11.9319 6.0378 -0.3696 29.7570
#
#
#
# Elastic Compliance Matrix: (Units=1/GPa)
#
#
# Indices 1 2 3 4 5 6 
#
# 1 0.013311 -0.003098 -0.003515 -0.002960 0.001887 0.001451
# 2 -0.003098 0.010767 -0.001237 0.002746 -0.003185 -0.002843
# 3 -0.003515 -0.001237 0.014538 0.003927 -0.004700 0.004635
# 4 -0.002960 0.002746 0.003927 0.040072 -0.006949 -0.007392
# 5 0.001887 -0.003185 -0.004700 -0.006949 0.037157 0.000640
# 6 0.001451 -0.002843 0.004635 -0.007392 0.000640 0.037522
#
#
# Mechanical properties :
#
#
# Convention : Reuss Voigt Hill
#
# Bulk Modulus (GPa) = 43.64001 47.22653 45.43327
# Shear Modulus (GPa) = 28.29544 31.52022 29.90783
#
# Velocity S-wave (km/s) = 3.78278 3.99252 3.88906
# Velocity P-wave (km/s) = 6.41472 6.71839 6.56831
#
# Compressibility (1/GPa) = 0.02291475
#
# Stress axis : x y z
#
# Youngs Moduli (GPa) = 75.12843 92.87619 68.78324
#
# Poissons Ratio (x) = 0.28776 0.24181
# Poissons Ratio (y) = 0.23277 0.08507
# Poissons Ratio (z) = 0.26411 0.11487
#
# Static dielectric constant tensor:
#      x y z
#    x 3.457630 0.167160 0.179000 
#    y 0.167160 3.803140 -0.013580 
#    z 0.179000 -0.013580 3.770600 
# 
# 
# High freq. dielectric constant tensor:
#      x y z
#    x 1.738780 0.012250 0.013050 
#    y 0.012250 1.779930 -0.011890 
#    z 0.013050 -0.011890 1.787690 
# 
# From -- ./inp_files/433137.got.cif
#   From: 2010.06.25/outbox.cif.g09.slc.cpg/sg2_217_cif.got.tgz:433137.got - 2010.06.27 13:26:56.
