data_PCOD8028080
_publ_section_title
;
Structure prediction by ZEFSAII (Michael W. Deem and Ramdas Pophale) SiO2 
 PCOD8028080
Probable space group: P -1
;
_chemical_formula_sum "Si O2"
_cell_formula_units_Z 16
_cell_length_a 8.841248
_cell_length_b 7.133244
_cell_length_c 19.434707
_cell_angle_alpha 56.273130
_cell_angle_beta 129.034171
_cell_angle_gamma 126.556964
_cell_volume 732.209795
_symmetry_space_group_name_H-M "P -1"
_symmetry_group_IT_number 2
_symmetry_cell_setting 'triclinic'
loop_
_space_group_symop_operation_xyz
x,y,z
-x,-y,-z
loop_
_atom_site_type_symbol
_atom_site_label
_atom_site_fract_x
_atom_site_fract_y
_atom_site_fract_z
Si Si1 0.336973 0.263968 0.288730
Si Si2 0.553581 0.446646 0.448297
Si Si3 0.440962 0.465850 0.894497
Si Si4 0.759639 0.369429 0.310590
Si Si5 0.890652 0.945204 0.407433
Si Si6 0.246398 0.101585 0.033071
Si Si7 0.869736 0.203782 0.608750
Si Si8 0.225405 0.600536 0.080948
O O1 0.358540 0.348885 0.358359
O O2 0.558459 0.268746 0.323034
O O3 0.238285 0.414902 0.181535
O O4 0.178536 0.979860 0.302170
O O5 0.500000 0.500000 0.500000
O O6 0.695703 0.693799 0.401994
O O7 0.659975 0.247325 0.519585
O O8 0.272788 0.451397 0.791405
O O9 0.590963 0.753363 0.890234
O O10 0.601822 0.347206 0.939526
O O11 0.301441 0.310555 0.948124
O O12 0.958646 0.529825 0.380321
O O13 0.805762 0.159571 0.325237
O O14 0.059701 0.931995 0.404074
O O15 0.000000 0.000000 0.500000
O O16 0.293140 0.865936 0.078174
O O17 0.000000 0.000000 0.000000
O O18 0.000000 0.500000 0.000000
#
# Coordination Sequence:
#
# PCOD8028080 Si02
#       8
#     2   2   2   2   2   2   2   2
#     4  11  26  45  68 101 137 176 232 280 337 410
#     4  12  24  45  69  99 138 182 224 282 340 402
#     4  10  25  43  68 101 133 180 226 277 341 408
#     4  11  25  44  67 101 135 178 226 278 337 406
#     4  12  23  42  68  96 133 176 221 274 339 396
#     4  11  23  44  68  98 135 176 225 282 339 402
#     4  12  25  45  68  98 139 177 225 279 338 404
#     4  11  24  46  69 100 138 180 224 283 343 398
#
# _framework density 21.851661
#
# number of rings (size 3 to 8) (size 9 to 14) (size 15 to 20)
#    0.000    0.750    3.750    3.375    3.500    1.000 
#    0.000    0.000    0.000    0.000    0.000    0.000 
#    0.000    0.000    0.000    0.000    0.000    0.000 
#
# Total GULP energy -198326.328526 kJ/mol
# GULP energy per Si atom -12395.395533 kJ/mol
# Density = 2.180193 g / cm^3
# Si number density = 21.851661 Si / 1000 Ang^3
#
#
#
# Elastic Constant Matrix: (Units=GPa)
#
#
# Indices 1 2 3 4 5 6 
#
# 1 125.1095 56.4558 43.8442 -7.1500 0.3278 -4.7405
# 2 56.4558 123.3406 31.0560 -23.0417 6.8538 -3.8143
# 3 43.8442 31.0560 101.5090 0.8186 6.3248 -1.1692
# 4 -7.1500 -23.0417 0.8186 29.6233 -1.3489 -2.3898
# 5 0.3278 6.8538 6.3248 -1.3489 29.5820 -6.4531
# 6 -4.7405 -3.8143 -1.1692 -2.3898 -6.4531 46.4669
#
#
#
# Elastic Compliance Matrix: (Units=1/GPa)
#
#
# Indices 1 2 3 4 5 6 
#
# 1 0.011248 -0.004396 -0.003614 -0.000445 0.001849 0.000930
# 2 -0.004396 0.012292 -0.001806 0.008520 -0.001873 0.000693
# 3 -0.003614 -0.001806 0.012130 -0.002778 -0.002412 -0.000690
# 4 -0.000445 0.008520 -0.002778 0.040632 0.001094 0.002826
# 5 0.001849 -0.001873 -0.002412 0.001094 0.035877 0.005013
# 6 0.000930 0.000693 -0.000690 0.002826 0.005013 0.022497
#
#
# Mechanical properties :
#
#
# Convention : Reuss Voigt Hill
#
# Bulk Modulus (GPa) = 62.35402 68.07456 65.21429
# Shear Modulus (GPa) = 31.31803 35.70797 33.51300
#
# Velocity S-wave (km/s) = 3.78988 4.04680 3.92044
# Velocity P-wave (km/s) = 6.91000 7.28396 7.09944
#
# Compressibility (1/GPa) = 0.01603746
#
# Stress axis : x y z
#
# Youngs Moduli (GPa) = 88.90367 81.35670 82.44165
#
# Poissons Ratio (x) = 0.35761 0.29798
# Poissons Ratio (y) = 0.39078 0.14889
# Poissons Ratio (z) = 0.32134 0.14693
#
# Static dielectric constant tensor:
#      x y z
#    x 4.228540 -0.161120 0.062660 
#    y -0.161120 4.054540 -0.077350 
#    z 0.062660 -0.077350 3.892230 
# 
# 
# High freq. dielectric constant tensor:
#      x y z
#    x 1.867680 0.001970 -0.000860 
#    y 0.001970 1.876530 -0.003460 
#    z -0.000860 -0.003460 1.854390 
# 
# From -- ./inp_files/348500.got.cif
#   From: 2010.06.25/outbox.cif.g09.slc.cpg/sg2_175_cif.got.tgz:348500.got - 2010.06.27 13:26:56.
