data_PCOD8028513
_publ_section_title
;
Structure prediction by ZEFSAII (Michael W. Deem and Ramdas Pophale) SiO2 
 PCOD8028513
Probable space group: P -1
;
_chemical_formula_sum "Si O2"
_cell_formula_units_Z 16
_cell_length_a 14.937012
_cell_length_b 6.366513
_cell_length_c 7.678082
_cell_angle_alpha 83.478968
_cell_angle_beta 75.918761
_cell_angle_gamma 108.186910
_cell_volume 658.458294
_symmetry_space_group_name_H-M "P -1"
_symmetry_group_IT_number 2
_symmetry_cell_setting 'triclinic'
loop_
_space_group_symop_operation_xyz
x,y,z
-x,-y,-z
loop_
_atom_site_type_symbol
_atom_site_label
_atom_site_fract_x
_atom_site_fract_y
_atom_site_fract_z
Si Si1 0.115255 0.131712 0.143982
Si Si2 0.679886 0.953628 0.618718
Si Si3 0.201798 0.605396 0.663111
Si Si4 0.398254 0.810275 0.110523
Si Si5 0.482616 0.492387 0.307010
Si Si6 0.931186 0.174510 0.121461
Si Si7 0.312141 0.461323 0.909946
Si Si8 0.144118 0.190306 0.507914
O O1 0.081660 0.093522 0.367897
O O2 0.050934 0.269626 0.072134
O O3 0.231994 0.269852 0.077418
O O4 0.097533 0.904855 0.057790
O O5 0.568396 0.777136 0.672474
O O6 0.748236 0.805307 0.595891
O O7 0.718946 0.146768 0.435089
O O8 0.679945 0.087765 0.783156
O O9 0.113569 0.637606 0.816555
O O10 0.261974 0.474418 0.748889
O O11 0.154786 0.448824 0.530457
O O12 0.416457 0.631549 0.254528
O O13 0.343191 0.697480 0.972606
O O14 0.500000 0.000000 0.000000
O O15 0.500000 0.500000 0.500000
O O16 0.588710 0.596848 0.151979
O O17 0.899539 0.962689 0.289740
#
# Coordination Sequence:
#
# PCOD8028513 Si02
#       8
#     2   2   2   2   2   2   2   2
#     4  11  24  45  74 102 143 186 231 298 362 417
#     4  11  24  44  68  97 140 183 237 288 348 424
#     4  11  25  45  72 103 139 185 240 293 352 430
#     4  12  27  44  67 105 138 182 241 290 353 421
#     4  12  27  44  68  97 144 189 234 294 349 422
#     4  10  25  47  70 107 141 182 238 294 358 429
#     4  12  25  43  71 101 142 184 235 296 353 420
#     4  11  23  47  72 103 142 184 238 292 357 422
#
# _framework density 24.299185999999999
#
# number of rings (size 3 to 8) (size 9 to 14) (size 15 to 20)
#    0.000    0.750    2.500    4.500    7.000    2.000 
#    0.000    0.000    0.000    0.000    0.000    0.000 
#    0.000    0.000    0.000    0.000    0.000    0.000 
#
# Total GULP energy -198271.721096 kJ/mol
# GULP energy per Si atom -12391.982568 kJ/mol
# Density = 2.424388 g / cm^3
# Si number density = 24.299186 Si / 1000 Ang^3
#
#
#
# Elastic Constant Matrix: (Units=GPa)
#
#
# Indices 1 2 3 4 5 6 
#
# 1 79.1530 28.5766 13.9814 23.6299 -14.4189 -6.9318
# 2 28.5766 120.7588 48.6544 31.9295 2.2552 -5.6461
# 3 13.9814 48.6544 100.1259 26.6621 8.9166 2.9966
# 4 23.6299 31.9295 26.6621 54.7015 -2.1717 0.2767
# 5 -14.4189 2.2552 8.9166 -2.1717 44.3778 12.6190
# 6 -6.9318 -5.6461 2.9966 0.2767 12.6190 32.8112
#
#
#
# Elastic Compliance Matrix: (Units=1/GPa)
#
#
# Indices 1 2 3 4 5 6 
#
# 1 0.016075 -0.002378 -0.000137 -0.005306 0.004767 0.001210
# 2 -0.002378 0.011721 -0.004306 -0.003783 -0.001392 0.002475
# 3 -0.000137 -0.004306 0.013428 -0.004064 -0.002430 -0.001027
# 4 -0.005306 -0.003783 -0.004064 0.024815 0.001075 -0.002023
# 5 0.004767 -0.001392 -0.002430 0.001075 0.027414 -0.009563
# 6 0.001210 0.002475 -0.001027 -0.002023 -0.009563 0.034948
#
#
# Mechanical properties :
#
#
# Convention : Reuss Voigt Hill
#
# Bulk Modulus (GPa) = 36.25629 53.60693 44.93161
# Shear Modulus (GPa) = 33.06072 40.29978 36.68025
#
# Velocity S-wave (km/s) = 3.69259 4.07687 3.88948
# Velocity P-wave (km/s) = 5.75617 6.65359 6.22108
#
# Compressibility (1/GPa) = 0.02758142
#
# Stress axis : x y z
#
# Youngs Moduli (GPa) = 62.20800 85.31904 74.46949
#
# Poissons Ratio (x) = 0.20292 0.01019
# Poissons Ratio (y) = 0.14796 0.32067
# Poissons Ratio (z) = 0.00851 0.36739
#
# Static dielectric constant tensor:
#      x y z
#    x 4.734920 0.219810 -0.526040 
#    y 0.219810 4.449260 0.139080 
#    z -0.526040 0.139080 4.774570 
# 
# 
# High freq. dielectric constant tensor:
#      x y z
#    x 1.962660 0.009780 -0.021170 
#    y 0.009780 1.961820 0.011900 
#    z -0.021170 0.011900 1.978550 
# 
# From -- ./inp_files/288639.got.cif
#   From: 2010.06.25/outbox.cif.g09.slc.cpg/sg2_145_cif.got.tgz:288639.got - 2010.06.27 13:26:56.
