data_PCOD8028186
_publ_section_title
;
Structure prediction by ZEFSAII (Michael W. Deem and Ramdas Pophale) SiO2 
 PCOD8028186
Probable space group: P -1
;
_chemical_formula_sum "Si O2"
_cell_formula_units_Z 16
_cell_length_a 12.231783
_cell_length_b 9.207385
_cell_length_c 14.848783
_cell_angle_alpha 133.933679
_cell_angle_beta 39.282454
_cell_angle_gamma 133.047556
_cell_volume 722.597765
_symmetry_space_group_name_H-M "P -1"
_symmetry_group_IT_number 2
_symmetry_cell_setting 'triclinic'
loop_
_space_group_symop_operation_xyz
x,y,z
-x,-y,-z
loop_
_atom_site_type_symbol
_atom_site_label
_atom_site_fract_x
_atom_site_fract_y
_atom_site_fract_z
Si Si1 0.681251 0.695908 0.447397
Si Si2 0.619109 0.135958 0.063036
Si Si3 0.547031 0.048124 0.593333
Si Si4 0.013835 0.322283 0.174227
Si Si5 0.750834 0.966056 0.078713
Si Si6 0.838096 0.431599 0.506988
Si Si7 0.065711 0.714966 0.195619
Si Si8 0.738956 0.813243 0.653901
O O1 0.500000 0.500000 0.500000
O O2 0.793211 0.801707 0.510986
O O3 0.851729 0.641424 0.267896
O O4 0.624369 0.865736 0.499849
O O5 0.482758 0.252019 0.239814
O O6 0.659302 0.987857 0.051677
O O7 0.809291 0.300296 0.976593
O O8 0.500000 0.000000 0.000000
O O9 0.387836 0.073933 0.767621
O O10 0.693878 0.277113 0.598529
O O11 0.500000 0.000000 0.500000
O O12 0.096572 0.563765 0.190248
O O13 0.877343 0.316719 0.341986
O O14 0.174389 0.233414 0.065763
O O15 0.910947 0.181969 0.094878
O O16 0.778325 0.633795 0.610298
O O17 0.000000 0.500000 0.500000
O O18 0.147892 0.959471 0.280521
#
# Coordination Sequence:
#
# PCOD8028186 Si02
#       8
#     2   2   2   2   2   2   2   2
#     4  12  24  43  73 101 136 183 241 301 348 422
#     4  10  25  44  70 101 142 189 237 291 357 432
#     4  12  25  45  72 102 138 188 236 290 365 420
#     4  11  26  45  70 105 145 190 237 297 365 427
#     4  11  25  49  69 103 152 181 238 306 353 437
#     4  12  27  43  71 108 144 187 241 296 356 431
#     4  11  25  45  71 101 138 188 237 289 363 424
#     4  11  24  47  68 100 146 184 241 298 352 426
#
# _framework density 22.142332
#
# number of rings (size 3 to 8) (size 9 to 14) (size 15 to 20)
#    0.000    0.750    3.750    2.625    8.750    0.500 
#    0.000    3.125    0.000    0.000    0.000    0.000 
#    0.000    0.000    0.000    0.000    0.000    0.000 
#
# Total GULP energy -198320.935906 kJ/mol
# GULP energy per Si atom -12395.058494 kJ/mol
# Density = 2.209194 g / cm^3
# Si number density = 22.142332 Si / 1000 Ang^3
#
#
#
# Elastic Constant Matrix: (Units=GPa)
#
#
# Indices 1 2 3 4 5 6 
#
# 1 137.8574 69.8464 33.3123 5.5165 -23.8213 -24.7749
# 2 69.8464 142.6260 58.8949 -7.7770 -21.7093 -29.0380
# 3 33.3123 58.8949 106.5843 -13.2548 -32.2938 -14.1867
# 4 5.5165 -7.7770 -13.2548 45.9554 -2.0973 -9.6615
# 5 -23.8213 -21.7093 -32.2938 -2.0973 47.1691 4.4191
# 6 -24.7749 -29.0380 -14.1867 -9.6615 4.4191 45.1914
#
#
#
# Elastic Compliance Matrix: (Units=1/GPa)
#
#
# Indices 1 2 3 4 5 6 
#
# 1 0.010401 -0.004282 0.000246 -0.001242 0.003166 0.002453
# 2 -0.004282 0.011944 -0.004399 0.002195 0.000007 0.004415
# 3 0.000246 -0.004399 0.015142 0.004438 0.008459 0.002183
# 4 -0.001242 0.002195 0.004438 0.025239 0.003875 0.007140
# 5 0.003166 0.000007 0.008459 0.003875 0.028538 0.002434
# 6 0.002453 0.004415 0.002183 0.007140 0.002434 0.028284
#
#
# Mechanical properties :
#
#
# Convention : Reuss Voigt Hill
#
# Bulk Modulus (GPa) = 48.50007 79.01941 63.75974
# Shear Modulus (GPa) = 34.89426 42.66412 38.77919
#
# Velocity S-wave (km/s) = 3.97408 4.39431 4.18947
# Velocity P-wave (km/s) = 6.55813 7.84290 7.22911
#
# Compressibility (1/GPa) = 0.02061853
#
# Stress axis : x y z
#
# Youngs Moduli (GPa) = 96.14108 83.72099 66.04341
#
# Poissons Ratio (x) = 0.35848 -0.01628
# Poissons Ratio (y) = 0.41166 0.29052
# Poissons Ratio (z) = -0.02369 0.36829
#
# Static dielectric constant tensor:
#      x y z
#    x 3.993450 -0.039770 -0.083530 
#    y -0.039770 3.985500 -0.128090 
#    z -0.083530 -0.128090 4.135910 
# 
# 
# High freq. dielectric constant tensor:
#      x y z
#    x 1.880680 -0.005610 -0.008330 
#    y -0.005610 1.872270 -0.010220 
#    z -0.008330 -0.010220 1.887560 
# 
# From -- ./inp_files/244575.got.cif
#   From: 2010.06.25/outbox.cif.g09.slc.cpg/sg2_123_cif.got.tgz:244575.got - 2010.06.27 13:26:56.
