data_PCOD8028943
_publ_section_title
;
Structure prediction by ZEFSAII (Michael W. Deem and Ramdas Pophale) SiO2 
 PCOD8028943
Probable space group: P -1
;
_chemical_formula_sum "Si O2"
_cell_formula_units_Z 16
_cell_length_a 9.125760
_cell_length_b 9.020491
_cell_length_c 17.522066
_cell_angle_alpha 75.011419
_cell_angle_beta 138.847774
_cell_angle_gamma 116.331459
_cell_volume 843.727942
_symmetry_space_group_name_H-M "P -1"
_symmetry_group_IT_number 2
_symmetry_cell_setting 'triclinic'
loop_
_space_group_symop_operation_xyz
x,y,z
-x,-y,-z
loop_
_atom_site_type_symbol
_atom_site_label
_atom_site_fract_x
_atom_site_fract_y
_atom_site_fract_z
Si Si1 0.658199 0.499494 0.990134
Si Si2 0.042985 0.852616 0.075398
Si Si3 0.091748 0.449863 0.234330
Si Si4 0.534859 0.217346 0.736118
Si Si5 0.548159 0.682513 0.652348
Si Si6 0.843443 0.370985 0.609900
Si Si7 0.342077 0.410070 0.732578
Si Si8 0.351371 0.943863 0.323888
O O1 0.487059 0.403989 0.866495
O O2 0.500000 0.500000 0.000000
O O3 0.804005 0.687775 0.994833
O O4 0.839591 0.409810 0.096393
O O5 0.277351 0.831686 0.131169
O O6 0.103428 0.892767 0.183805
O O7 0.000000 0.000000 0.000000
O O8 0.304277 0.608839 0.262883
O O9 0.188374 0.302328 0.278084
O O10 0.063167 0.487489 0.306930
O O11 0.328833 0.246995 0.699893
O O12 0.444807 0.083595 0.648252
O O13 0.342981 0.586716 0.522257
O O14 0.479767 0.583530 0.718721
O O15 0.551749 0.866341 0.637993
O O16 0.711675 0.180882 0.612796
O O17 0.070982 0.385602 0.646050
#
# Coordination Sequence:
#
# PCOD8028943 Si02
#       8
#     2   2   2   2   2   2   2   2
#     4  11  19  35  58  80 112 143 175 229 278 329
#     4   9  17  32  55  76 107 142 181 221 267 316
#     4   9  19  37  56  82 108 146 187 221 273 323
#     4   7  18  34  52  76 113 141 179 220 268 332
#     4  11  22  35  60  85 106 145 193 227 261 327
#     4  11  20  39  56  80 117 147 178 229 276 321
#     4  11  21  35  58  85 111 141 187 224 278 322
#     4   9  19  38  53  78 112 146 187 217 273 330
#
# _framework density 18.963457999999999
#
# number of rings (size 3 to 8) (size 9 to 14) (size 15 to 20)
#    0.750    1.500    2.500    1.875    0.000    5.500 
#    0.000    3.125    0.000    3.000    0.000    0.000 
#    0.000    0.000    0.000    0.000    0.000    0.000 
#
# Total GULP energy -198218.072372 kJ/mol
# GULP energy per Si atom -12388.629523 kJ/mol
# Density = 1.892030 g / cm^3
# Si number density = 18.963458 Si / 1000 Ang^3
#
#
#
# Elastic Constant Matrix: (Units=GPa)
#
#
# Indices 1 2 3 4 5 6 
#
# 1 123.1301 36.5760 28.7708 -14.7498 11.6325 -18.6883
# 2 36.5760 60.0015 8.9554 -5.7126 0.3159 -16.6721
# 3 28.7708 8.9554 88.5207 -15.8279 3.0865 -3.0108
# 4 -14.7498 -5.7126 -15.8279 20.6326 -2.2596 -0.2029
# 5 11.6325 0.3159 3.0865 -2.2596 28.0166 -2.0853
# 6 -18.6883 -16.6721 -3.0108 -0.2029 -2.0853 20.5598
#
#
#
# Elastic Compliance Matrix: (Units=1/GPa)
#
#
# Indices 1 2 3 4 5 6 
#
# 1 0.011974 -0.004664 -0.002123 0.005290 -0.003778 0.006460
# 2 -0.004664 0.024237 0.000214 0.004040 0.003142 0.015805
# 3 -0.002123 0.000214 0.013576 0.008975 0.000132 0.000334
# 4 0.005290 0.004040 0.008975 0.060618 0.002421 0.010243
# 5 -0.003778 0.003142 0.000132 0.002421 0.037628 0.002973
# 6 0.006460 0.015805 0.000334 0.010243 0.002973 0.067779
#
#
# Mechanical properties :
#
#
# Convention : Reuss Voigt Hill
#
# Bulk Modulus (GPa) = 27.29022 46.69519 36.99271
# Shear Modulus (GPa) = 20.73222 26.99845 23.86534
#
# Velocity S-wave (km/s) = 3.31005 3.77730 3.55137
# Velocity P-wave (km/s) = 5.38802 6.61069 6.03042
#
# Compressibility (1/GPa) = 0.03664316
#
# Stress axis : x y z
#
# Youngs Moduli (GPa) = 83.51471 41.25965 73.65681
#
# Poissons Ratio (x) = 0.19242 0.15634
# Poissons Ratio (y) = 0.38949 -0.01578
# Poissons Ratio (z) = 0.17727 -0.00884
#
# Static dielectric constant tensor:
#      x y z
#    x 3.692940 -0.428470 0.084700 
#    y -0.428470 3.390440 -0.301680 
#    z 0.084700 -0.301680 3.633200 
# 
# 
# High freq. dielectric constant tensor:
#      x y z
#    x 1.730300 -0.019680 -0.007720 
#    y -0.019680 1.713490 -0.018170 
#    z -0.007720 -0.018170 1.736610 
# 
# From -- ./inp_files/347227.got.cif
#   From: 2010.06.25/outbox.cif.g09.slc.cpg/sg2_174_cif.got.tgz:347227.got - 2010.06.27 13:26:56.
