data_PCOD8028530
_publ_section_title
;
Structure prediction by ZEFSAII (Michael W. Deem and Ramdas Pophale) SiO2 
 PCOD8028530
Probable space group: P -1
;
_chemical_formula_sum "Si O2"
_cell_formula_units_Z 14
_cell_length_a 11.467990
_cell_length_b 11.574603
_cell_length_c 11.775145
_cell_angle_alpha 96.182051
_cell_angle_beta 38.146272
_cell_angle_gamma 67.253975
_cell_volume 615.225868
_symmetry_space_group_name_H-M "P -1"
_symmetry_group_IT_number 2
_symmetry_cell_setting 'triclinic'
loop_
_space_group_symop_operation_xyz
x,y,z
-x,-y,-z
loop_
_atom_site_type_symbol
_atom_site_label
_atom_site_fract_x
_atom_site_fract_y
_atom_site_fract_z
Si Si1 0.760283 0.137953 0.933852
Si Si2 0.319136 0.691326 0.211744
Si Si3 0.206262 0.442396 0.009266
Si Si4 0.181685 0.003780 0.780325
Si Si5 0.117442 0.485348 0.529265
Si Si6 0.834957 0.859064 0.760682
Si Si7 0.793144 0.744230 0.186414
O O1 0.721681 0.189803 0.837581
O O2 0.020409 0.085279 0.790423
O O3 0.842373 0.962533 0.855094
O O4 0.468500 0.310287 0.245141
O O5 0.998523 0.804310 0.509958
O O6 0.500000 0.500000 0.000000
O O7 0.473879 0.667621 0.204728
O O8 0.998038 0.547599 0.290152
O O9 0.089783 0.580949 0.013376
O O10 0.211162 0.310580 0.940536
O O11 0.207101 0.119575 0.826430
O O12 0.523086 0.813217 0.472467
O O13 0.000000 0.000000 0.000000
O O14 0.000000 0.500000 0.500000
O O15 0.992556 0.672236 0.674997
O O16 0.500000 0.000000 0.000000
#
# Coordination Sequence:
#
# PCOD8028530 Si02
#       7
#     2   2   2   2   2   2   2
#     4  12  25  44  70 104 143 184 244 296 368 435
#     4  12  23  43  71 104 148 190 233 304 370 435
#     4  11  23  46  71 102 144 188 243 294 366 440
#     4  11  25  48  70 104 142 189 249 301 361 434
#     4  12  23  44  67 106 145 185 236 297 368 430
#     4  12  25  40  66 105 144 188 233 290 366 439
#     4  10  25  47  72 102 143 197 239 299 362 435
#
# _framework density 22.755870000000002
#
# number of rings (size 3 to 8) (size 9 to 14) (size 15 to 20)
#    0.000    0.571    4.286    3.000    2.000    1.143 
#    2.571    2.143    0.000    0.000    0.000    0.000 
#    0.000    0.000    0.000    0.000    0.000    0.000 
#
# Total GULP energy -173577.760022 kJ/mol
# GULP energy per Si atom -12398.411430 kJ/mol
# Density = 2.270408 g / cm^3
# Si number density = 22.755870 Si / 1000 Ang^3
#
#
#
# Elastic Constant Matrix: (Units=GPa)
#
#
# Indices 1 2 3 4 5 6 
#
# 1 138.0437 27.7915 30.3035 7.3872 0.4293 -0.8421
# 2 27.7915 82.9676 35.3266 6.6570 3.5762 11.1873
# 3 30.3035 35.3266 130.3876 -3.5408 -5.8891 8.0431
# 4 7.3872 6.6570 -3.5408 48.0714 2.9464 3.6048
# 5 0.4293 3.5762 -5.8891 2.9464 33.6121 -0.6256
# 6 -0.8421 11.1873 8.0431 3.6048 -0.6256 27.3467
#
#
#
# Elastic Compliance Matrix: (Units=1/GPa)
#
#
# Indices 1 2 3 4 5 6 
#
# 1 0.008078 -0.002249 -0.001406 -0.001165 0.000024 0.001736
# 2 -0.002249 0.015159 -0.003406 -0.001489 -0.002146 -0.005122
# 3 -0.001406 -0.003406 0.009129 0.001358 0.001833 -0.001472
# 4 -0.001165 -0.001489 0.001358 0.021584 -0.001531 -0.002706
# 5 0.000024 -0.002146 0.001833 -0.001531 0.030458 0.001238
# 6 0.001736 -0.005122 -0.001472 -0.002706 0.001238 0.039534
#
#
# Mechanical properties :
#
#
# Convention : Reuss Voigt Hill
#
# Bulk Modulus (GPa) = 54.80844 59.80467 57.30655
# Shear Modulus (GPa) = 34.68696 39.00453 36.84575
#
# Velocity S-wave (km/s) = 3.90847 4.14459 4.02826
# Velocity P-wave (km/s) = 6.67128 7.01723 6.84644
#
# Compressibility (1/GPa) = 0.01824536
#
# Stress axis : x y z
#
# Youngs Moduli (GPa) = 123.78757 65.96743 109.53609
#
# Poissons Ratio (x) = 0.14837 0.15399
# Poissons Ratio (y) = 0.27841 0.37306
# Poissons Ratio (z) = 0.17402 0.22467
#
# Static dielectric constant tensor:
#      x y z
#    x 4.237920 0.150060 0.077280 
#    y 0.150060 4.057990 0.171190 
#    z 0.077280 0.171190 4.532070 
# 
# 
# High freq. dielectric constant tensor:
#      x y z
#    x 1.903030 0.009100 -0.001230 
#    y 0.009100 1.889420 0.007920 
#    z -0.001230 0.007920 1.911300 
# 
# From -- ./inp_files/426126.got.cif
#   From: 2010.06.25/outbox.cif.g09.slc.cpg/sg2_214_cif.got.tgz:426126.got - 2010.06.27 13:26:56.
