data_PCOD8028600
_publ_section_title
;
Structure prediction by ZEFSAII (Michael W. Deem and Ramdas Pophale) SiO2 
 PCOD8028600
Probable space group: P -1
;
_chemical_formula_sum "Si O2"
_cell_formula_units_Z 12
_cell_length_a 10.810438
_cell_length_b 8.611444
_cell_length_c 10.328638
_cell_angle_alpha 124.327950
_cell_angle_beta 63.906273
_cell_angle_gamma 72.308781
_cell_volume 476.345251
_symmetry_space_group_name_H-M "P -1"
_symmetry_group_IT_number 2
_symmetry_cell_setting 'triclinic'
loop_
_space_group_symop_operation_xyz
x,y,z
-x,-y,-z
loop_
_atom_site_type_symbol
_atom_site_label
_atom_site_fract_x
_atom_site_fract_y
_atom_site_fract_z
Si Si1 0.852807 0.825519 0.240622
Si Si2 0.469807 0.754056 0.631768
Si Si3 0.835082 0.214653 0.840118
Si Si4 0.440640 0.804544 0.951558
Si Si5 0.863494 0.407405 0.677910
Si Si6 0.770809 0.761448 0.518686
O O1 0.749074 0.917684 0.474532
O O2 0.999532 0.859545 0.174390
O O3 0.675112 0.022824 0.309546
O O4 0.000000 0.500000 0.000000
O O5 0.500000 0.500000 0.500000
O O6 0.370283 0.924307 0.894211
O O7 0.691828 0.633110 0.457035
O O8 0.760308 0.446573 0.879314
O O9 0.629079 0.342026 0.062336
O O10 0.942084 0.925353 0.591846
O O11 0.691013 0.569027 0.723227
O O12 0.363108 0.029966 0.199521
O O13 0.983017 0.488143 0.672688
#
# Coordination Sequence:
#
# PCOD8028600 Si02
#       6
#     2   2   2   2   2   2
#     4  11  26  49  74 102 147 198 243 286 362 439
#     4  12  28  47  71 112 150 185 237 305 369 419
#     4   9  20  39  66 106 136 186 238 293 343 435
#     4  11  23  43  75 104 145 183 237 303 364 415
#     4   9  19  40  70 105 137 182 245 291 352 420
#     4  10  25  48  74 103 142 196 246 289 349 447
#
# _framework density 25.191813
#
# number of rings (size 3 to 8) (size 9 to 14) (size 15 to 20)
#    0.000    1.667    0.000    3.500    7.000    2.667 
#    6.000    0.000    0.000    0.000    0.000    0.000 
#    0.000    0.000    0.000    0.000    0.000    0.000 
#
# Total GULP energy -148691.053947 kJ/mol
# GULP energy per Si atom -12390.921162 kJ/mol
# Density = 2.513448 g / cm^3
# Si number density = 25.191813 Si / 1000 Ang^3
#
#
#
# Elastic Constant Matrix: (Units=GPa)
#
#
# Indices 1 2 3 4 5 6 
#
# 1 225.3179 73.8762 46.0497 -13.5341 -42.8082 18.8608
# 2 73.8762 100.5384 42.4806 -7.7502 -3.4208 -18.2778
# 3 46.0497 42.4806 67.8061 -7.5998 -7.0683 -11.9033
# 4 -13.5341 -7.7502 -7.5998 21.3835 -3.6290 6.2455
# 5 -42.8082 -3.4208 -7.0683 -3.6290 40.4870 -12.3343
# 6 18.8608 -18.2778 -11.9033 6.2455 -12.3343 57.5862
#
#
#
# Elastic Compliance Matrix: (Units=1/GPa)
#
#
# Indices 1 2 3 4 5 6 
#
# 1 0.008832 -0.005852 -0.001612 0.005390 0.007830 -0.003991
# 2 -0.005852 0.017864 -0.006954 -0.002036 -0.004423 0.005423
# 3 -0.001612 -0.006954 0.021400 0.003665 0.002661 0.002917
# 4 0.005390 -0.002036 0.003665 0.053932 0.009324 -0.005506
# 5 0.007830 -0.004423 0.002661 0.009324 0.034827 0.003030
# 6 -0.003991 0.005423 0.002917 -0.005506 0.003030 0.022243
#
#
# Mechanical properties :
#
#
# Convention : Reuss Voigt Hill
#
# Bulk Modulus (GPa) = 51.92610 79.83058 65.87834
# Shear Modulus (GPa) = 25.72639 39.30841 32.51740
#
# Velocity S-wave (km/s) = 3.19912 3.95443 3.59666
# Velocity P-wave (km/s) = 5.85686 7.25313 6.59207
#
# Compressibility (1/GPa) = 0.01925814
#
# Stress axis : x y z
#
# Youngs Moduli (GPa) = 113.22754 55.98004 46.72974
#
# Poissons Ratio (x) = 0.32761 0.07532
# Poissons Ratio (y) = 0.66263 0.32497
# Poissons Ratio (z) = 0.18251 0.38930
#
# Static dielectric constant tensor:
#      x y z
#    x 5.190540 0.156080 -0.219790 
#    y 0.156080 4.653050 -0.444650 
#    z -0.219790 -0.444650 4.235040 
# 
# 
# High freq. dielectric constant tensor:
#      x y z
#    x 2.039380 0.005150 -0.014600 
#    y 0.005150 1.999210 -0.023670 
#    z -0.014600 -0.023670 1.970820 
# 
# From -- ./inp_files/413378.got.cif
#   From: 2010.06.25/outbox.cif.g09.slc.cpg/sg2_207_cif.got.tgz:413378.got - 2010.06.27 13:26:56.
