data_PCOD8028873
_publ_section_title
;
Structure prediction by ZEFSAII (Michael W. Deem and Ramdas Pophale) SiO2 
 PCOD8028873
Probable space group: P -1
;
_chemical_formula_sum "Si O2"
_cell_formula_units_Z 16
_cell_length_a 11.452417
_cell_length_b 18.588812
_cell_length_c 11.811866
_cell_angle_alpha 151.158164
_cell_angle_beta 56.781986
_cell_angle_gamma 131.007841
_cell_volume 912.859822
_symmetry_space_group_name_H-M "P -1"
_symmetry_group_IT_number 2
_symmetry_cell_setting 'triclinic'
loop_
_space_group_symop_operation_xyz
x,y,z
-x,-y,-z
loop_
_atom_site_type_symbol
_atom_site_label
_atom_site_fract_x
_atom_site_fract_y
_atom_site_fract_z
Si Si1 0.179369 0.916088 0.491108
Si Si2 0.186475 0.702673 0.391560
Si Si3 0.982440 0.113887 0.835794
Si Si4 0.940257 0.660983 0.107276
Si Si5 0.291040 0.218140 0.556240
Si Si6 0.530338 0.849849 0.458306
Si Si7 0.544239 0.154632 0.266891
Si Si8 0.886784 0.314141 0.334056
O O1 0.166174 0.841740 0.520518
O O2 0.095662 0.768220 0.241861
O O3 0.104479 0.044624 0.711457
O O4 0.362355 0.007682 0.488768
O O5 0.365051 0.726732 0.322164
O O6 0.124865 0.714889 0.565428
O O7 0.078278 0.523846 0.149340
O O8 0.058297 0.263488 0.913111
O O9 0.837169 0.971753 0.653242
O O10 0.936832 0.182383 0.067751
O O11 0.789441 0.659768 0.251457
O O12 0.364882 0.240805 0.675815
O O13 0.431504 0.246936 0.432856
O O14 0.484474 0.921703 0.695143
O O15 0.720231 0.286722 0.335360
O O16 0.500000 0.000000 0.000000
O O17 0.000000 0.500000 0.500000
#
# Coordination Sequence:
#
# PCOD8028873 Si02
#       8
#     2   2   2   2   2   2   2   2
#     4  11  21  38  55  79 107 146 178 215 264 318
#     4  11  24  34  53  82 114 139 172 219 275 316
#     4  11  18  34  61  77 106 139 185 218 253 319
#     4  11  19  36  56  81 105 138 182 225 256 309
#     4   9  17  32  57  84  96 136 185 220 256 301
#     4   9  18  34  53  78 107 136 176 214 268 313
#     4   9  16  31  53  80 102 132 177 221 253 310
#     4  11  21  34  52  82 109 139 172 219 271 308
#
# _framework density 17.527335999999998
#
# number of rings (size 3 to 8) (size 9 to 14) (size 15 to 20)
#    0.750    1.000    5.000    1.500    0.000    1.000 
#    2.250    0.000    0.000    0.000    0.000    2.625 
#    0.000    0.000    0.000    0.000    0.000    0.000 
#
# Total GULP energy -198219.834615 kJ/mol
# GULP energy per Si atom -12388.739663 kJ/mol
# Density = 1.748744 g / cm^3
# Si number density = 17.527336 Si / 1000 Ang^3
#
#
#
# Elastic Constant Matrix: (Units=GPa)
#
#
# Indices 1 2 3 4 5 6 
#
# 1 58.0456 37.7881 13.3255 3.8452 3.0096 10.1653
# 2 37.7881 96.4935 28.0417 -0.1318 0.9417 9.5848
# 3 13.3255 28.0417 53.1291 -10.0547 1.8945 9.8535
# 4 3.8452 -0.1318 -10.0547 22.9954 1.7469 -2.3600
# 5 3.0096 0.9417 1.8945 1.7469 18.9434 0.7222
# 6 10.1653 9.5848 9.8535 -2.3600 0.7222 31.7079
#
#
#
# Elastic Compliance Matrix: (Units=1/GPa)
#
#
# Indices 1 2 3 4 5 6 
#
# 1 0.024590 -0.008658 -0.001530 -0.005154 -0.002653 -0.005114
# 2 -0.008658 0.015592 -0.006344 -0.001350 0.001363 -0.000098
# 3 -0.001530 -0.006344 0.025634 0.011166 -0.002857 -0.004662
# 4 -0.005154 -0.001350 0.011166 0.049845 -0.004919 0.002412
# 5 -0.002653 0.001363 -0.002857 -0.004919 0.053892 -0.000267
# 6 -0.005114 -0.000098 -0.004662 0.002412 -0.000267 0.034841
#
#
# Mechanical properties :
#
#
# Convention : Reuss Voigt Hill
#
# Bulk Modulus (GPa) = 30.53282 40.66429 35.59855
# Shear Modulus (GPa) = 20.13071 23.29688 21.71380
#
# Velocity S-wave (km/s) = 3.39268 3.64974 3.52355
# Velocity P-wave (km/s) = 5.72756 6.40403 6.07522
#
# Compressibility (1/GPa) = 0.03275164
#
# Stress axis : x y z
#
# Youngs Moduli (GPa) = 40.66639 64.13413 39.01083
#
# Poissons Ratio (x) = 0.55530 0.05968
# Poissons Ratio (y) = 0.35211 0.24749
# Poissons Ratio (z) = 0.06222 0.40687
#
# Static dielectric constant tensor:
#      x y z
#    x 3.220470 0.179030 0.094390 
#    y 0.179030 3.131390 -0.133410 
#    z 0.094390 -0.133410 3.119440 
# 
# 
# High freq. dielectric constant tensor:
#      x y z
#    x 1.672960 0.024740 0.012390 
#    y 0.024740 1.667550 -0.010990 
#    z 0.012390 -0.010990 1.662500 
# 
# From -- ./inp_files/271194.got.cif
#   From: 2010.06.25/outbox.cif.g09.slc.cpg/sg2_136_cif.got.tgz:271194.got - 2010.06.27 13:26:56.
