data_PCOD8028500
_publ_section_title
;
Structure prediction by ZEFSAII (Michael W. Deem and Ramdas Pophale) SiO2 
 PCOD8028500
Probable space group: P -1
;
_chemical_formula_sum "Si O2"
_cell_formula_units_Z 16
_cell_length_a 10.707979
_cell_length_b 8.840385
_cell_length_c 12.100393
_cell_angle_alpha 125.542600
_cell_angle_beta 66.180946
_cell_angle_gamma 131.146292
_cell_volume 701.428058
_symmetry_space_group_name_H-M "P -1"
_symmetry_group_IT_number 2
_symmetry_cell_setting 'triclinic'
loop_
_space_group_symop_operation_xyz
x,y,z
-x,-y,-z
loop_
_atom_site_type_symbol
_atom_site_label
_atom_site_fract_x
_atom_site_fract_y
_atom_site_fract_z
Si Si1 0.991683 0.321503 0.010140
Si Si2 0.652897 0.995557 0.905928
Si Si3 0.815130 0.846610 0.247536
Si Si4 0.463795 0.082335 0.661586
Si Si5 0.643905 0.376854 0.441863
Si Si6 0.006913 0.689637 0.501479
Si Si7 0.464922 0.522374 0.689765
Si Si8 0.215572 0.717572 0.243352
O O1 0.093255 0.214694 0.897411
O O2 0.797112 0.116515 0.999588
O O3 0.074471 0.455643 0.151730
O O4 0.000000 0.500000 0.000000
O O5 0.730273 0.118242 0.812135
O O6 0.582698 0.731785 0.817827
O O7 0.500000 0.000000 0.000000
O O8 0.650278 0.823853 0.253554
O O9 0.729962 0.640217 0.277985
O O10 0.947527 0.094554 0.351735
O O11 0.627381 0.262744 0.749094
O O12 0.500000 0.000000 0.500000
O O13 0.356997 0.844851 0.664351
O O14 0.549647 0.382583 0.588851
O O15 0.532594 0.367529 0.379195
O O16 0.830895 0.595088 0.469033
O O17 0.140681 0.786827 0.396713
O O18 0.000000 0.500000 0.500000
#
# Coordination Sequence:
#
# PCOD8028500 Si02
#       8
#     2   2   2   2   2   2   2   2
#     4  10  25  47  68 106 143 182 239 296 353 422
#     4  11  24  45  72 100 141 185 236 299 356 420
#     4  12  25  44  74 103 146 191 235 298 358 422
#     4  12  21  45  68 103 147 186 238 289 353 430
#     4  11  23  38  65 100 140 179 235 290 356 422
#     4  12  25  43  71 104 146 190 234 299 357 419
#     4  11  23  39  67 103 133 184 237 289 355 418
#     4  11  24  44  75 100 143 193 233 291 360 420
#
# _framework density 22.810607999999998
#
# number of rings (size 3 to 8) (size 9 to 14) (size 15 to 20)
#    0.000    0.750    5.000    2.250    7.000    1.000 
#    0.000    0.625    0.000    0.000    0.000    0.000 
#    0.000    0.000    0.000    0.000    0.000    0.000 
#
# Total GULP energy -198274.575010 kJ/mol
# GULP energy per Si atom -12392.160938 kJ/mol
# Density = 2.275869 g / cm^3
# Si number density = 22.810608 Si / 1000 Ang^3
#
#
#
# Elastic Constant Matrix: (Units=GPa)
#
#
# Indices 1 2 3 4 5 6 
#
# 1 125.3763 10.8319 38.0369 17.9935 5.2121 27.5512
# 2 10.8319 75.3685 24.6466 15.4187 2.4158 18.0460
# 3 38.0369 24.6466 87.5374 27.3676 3.8606 1.6256
# 4 17.9935 15.4187 27.3676 43.5384 13.4087 3.6942
# 5 5.2121 2.4158 3.8606 13.4087 49.3904 10.7476
# 6 27.5512 18.0460 1.6256 3.6942 10.7476 39.4076
#
#
#
# Elastic Compliance Matrix: (Units=1/GPa)
#
#
# Indices 1 2 3 4 5 6 
#
# 1 0.011557 0.002603 -0.004927 -0.002334 0.001698 -0.009313
# 2 0.002603 0.017615 -0.004666 -0.004327 0.002577 -0.009991
# 3 -0.004927 -0.004666 0.017155 -0.007650 0.000284 0.005513
# 4 -0.002334 -0.004327 -0.007650 0.032619 -0.008493 0.003187
# 5 0.001698 0.002577 0.000284 -0.008493 0.023994 -0.008127
# 6 -0.009313 -0.009991 0.005513 0.003187 -0.008127 0.038152
#
#
# Mechanical properties :
#
#
# Convention : Reuss Voigt Hill
#
# Bulk Modulus (GPa) = 30.91471 48.36809 39.64140
# Shear Modulus (GPa) = 30.14718 40.78509 35.46614
#
# Velocity S-wave (km/s) = 3.63937 4.23305 3.94738
# Velocity P-wave (km/s) = 5.58947 6.71877 6.17997
#
# Compressibility (1/GPa) = 0.03234706
#
# Stress axis : x y z
#
# Youngs Moduli (GPa) = 86.53048 56.77080 58.29182
#
# Poissons Ratio (x) = -0.14778 0.28719
# Poissons Ratio (y) = -0.22525 0.27199
# Poissons Ratio (z) = 0.42632 0.26489
#
# Static dielectric constant tensor:
#      x y z
#    x 4.580590 -0.543520 -0.515690 
#    y -0.543520 5.705100 1.631150 
#    z -0.515690 1.631150 5.430440 
# 
# 
# High freq. dielectric constant tensor:
#      x y z
#    x 1.905780 0.017910 -0.000440 
#    y 0.017910 1.900920 0.020110 
#    z -0.000440 0.020110 1.894710 
# 
# From -- ./inp_files/419997.got.cif
#   From: 2010.06.25/outbox.cif.g09.slc.cpg/sg2_210_cif.got.tgz:419997.got - 2010.06.27 13:26:56.
