data_PCOD8028310
_publ_section_title
;
Structure prediction by ZEFSAII (Michael W. Deem and Ramdas Pophale) SiO2 
 PCOD8028310
Probable space group: P -1
;
_chemical_formula_sum "Si O2"
_cell_formula_units_Z 14
_cell_length_a 13.420596
_cell_length_b 5.708537
_cell_length_c 11.010311
_cell_angle_alpha 56.082112
_cell_angle_beta 63.294727
_cell_angle_gamma 96.331317
_cell_volume 546.143971
_symmetry_space_group_name_H-M "P -1"
_symmetry_group_IT_number 2
_symmetry_cell_setting 'triclinic'
loop_
_space_group_symop_operation_xyz
x,y,z
-x,-y,-z
loop_
_atom_site_type_symbol
_atom_site_label
_atom_site_fract_x
_atom_site_fract_y
_atom_site_fract_z
Si Si1 0.505268 0.363666 0.665953
Si Si2 0.109761 0.164174 0.797885
Si Si3 0.556343 0.256482 0.009655
Si Si4 0.293629 0.488763 0.817072
Si Si5 0.920119 0.294967 0.426750
Si Si6 0.262965 0.024244 0.591457
Si Si7 0.835345 0.714114 0.799633
O O1 0.500000 0.500000 0.500000
O O2 0.406743 0.403392 0.799269
O O3 0.645425 0.589550 0.581120
O O4 0.476392 0.991235 0.786253
O O5 0.234159 0.368682 0.751751
O O6 0.073493 0.360393 0.661494
O O7 0.137306 0.923538 0.772809
O O8 0.000000 0.000000 0.000000
O O9 0.500000 0.500000 0.000000
O O10 0.709861 0.476478 0.857874
O O11 0.500000 0.000000 0.000000
O O12 0.340404 0.870463 0.663897
O O13 0.194089 0.329999 0.028213
O O14 0.052415 0.364458 0.271798
O O15 0.792335 0.099653 0.473706
O O16 0.889374 0.093395 0.626729
#
# Coordination Sequence:
#
# PCOD8028310 Si02
#       7
#     2   2   2   2   2   2   2
#     4  12  25  45  77 110 144 197 256 317 377 453
#     4  11  23  41  71 104 148 186 244 307 378 435
#     4  12  29  51  77 110 156 205 252 320 391 462
#     4  11  24  44  72 108 145 193 245 319 372 452
#     4  10  25  45  70 103 144 199 242 311 369 461
#     4  11  23  45  71 106 148 189 253 305 384 444
#     4  11  24  48  72 103 146 192 257 298 384 453
#
# _framework density 25.634266
#
# number of rings (size 3 to 8) (size 9 to 14) (size 15 to 20)
#    0.000    0.857    1.429    4.714    4.000    3.429 
#    5.143    2.143    0.000    0.000    0.000    0.000 
#    0.000    0.000    0.000    0.000    0.000    0.000 
#
# Total GULP energy -173438.170116 kJ/mol
# GULP energy per Si atom -12388.440723 kJ/mol
# Density = 2.557592 g / cm^3
# Si number density = 25.634266 Si / 1000 Ang^3
#
#
#
# Elastic Constant Matrix: (Units=GPa)
#
#
# Indices 1 2 3 4 5 6 
#
# 1 108.6580 29.1444 29.7378 -8.1828 4.2579 -16.5554
# 2 29.1444 82.7787 27.9082 -11.9264 17.1617 -30.0804
# 3 29.7378 27.9082 118.1211 -11.3860 7.3955 -20.9949
# 4 -8.1828 -11.9264 -11.3860 37.5552 0.5543 8.6354
# 5 4.2579 17.1617 7.3955 0.5543 45.1191 1.8676
# 6 -16.5554 -30.0804 -20.9949 8.6354 1.8676 39.0230
#
#
#
# Elastic Compliance Matrix: (Units=1/GPa)
#
#
# Indices 1 2 3 4 5 6 
#
# 1 0.010636 -0.002584 -0.001766 0.000632 0.000202 0.001421
# 2 -0.002584 0.020388 -0.000947 0.002539 -0.007963 0.013929
# 3 -0.001766 -0.000947 0.010007 0.001533 -0.001282 0.003626
# 4 0.000632 0.002539 0.001533 0.028806 -0.001496 -0.003253
# 5 0.000202 -0.007963 -0.001282 -0.001496 0.025718 -0.007642
# 6 0.001421 0.013929 0.003626 -0.003253 -0.007642 0.040002
#
#
# Mechanical properties :
#
#
# Convention : Reuss Voigt Hill
#
# Bulk Modulus (GPa) = 32.85614 53.68208 43.26911
# Shear Modulus (GPa) = 31.99018 39.19062 35.59040
#
# Velocity S-wave (km/s) = 3.53646 3.91428 3.73016
# Velocity P-wave (km/s) = 5.43328 6.43551 5.95551
#
# Compressibility (1/GPa) = 0.03043571
#
# Stress axis : x y z
#
# Youngs Moduli (GPa) = 94.02254 49.04876 99.92960
#
# Poissons Ratio (x) = 0.12672 0.17652
# Poissons Ratio (y) = 0.24292 0.09468
# Poissons Ratio (z) = 0.16608 0.04647
#
# Static dielectric constant tensor:
#      x y z
#    x -6.061700 -2.884100 3.254730 
#    y -2.884100 4.093650 0.486100 
#    z 3.254730 0.486100 3.989180 
# 
# 
# High freq. dielectric constant tensor:
#      x y z
#    x 2.041020 -0.004400 0.002930 
#    y -0.004400 2.013510 -0.006230 
#    z 0.002930 -0.006230 2.034190 
# 
# From -- ./inp_files/441560.got.cif
#   From: 2010.06.25/outbox.cif.g09.slc.cpg/sg2_221_cif.got.tgz:441560.got - 2010.06.27 13:26:56.
