data_PCOD8028213
_publ_section_title
;
Structure prediction by ZEFSAII (Michael W. Deem and Ramdas Pophale) SiO2 
 PCOD8028213
Probable space group: P -1
;
_chemical_formula_sum "Si O2"
_cell_formula_units_Z 14
_cell_length_a 9.108882
_cell_length_b 8.077926
_cell_length_c 9.597548
_cell_angle_alpha 61.589312
_cell_angle_beta 63.152286
_cell_angle_gamma 67.714641
_cell_volume 541.899915
_symmetry_space_group_name_H-M "P -1"
_symmetry_group_IT_number 2
_symmetry_cell_setting 'triclinic'
loop_
_space_group_symop_operation_xyz
x,y,z
-x,-y,-z
loop_
_atom_site_type_symbol
_atom_site_label
_atom_site_fract_x
_atom_site_fract_y
_atom_site_fract_z
Si Si1 0.457706 0.416144 0.272578
Si Si2 0.045562 0.611453 0.571406
Si Si3 0.375783 0.714995 0.483862
Si Si4 0.406683 0.059244 0.876802
Si Si5 0.704894 0.300229 0.990388
Si Si6 0.760909 0.893253 0.473879
Si Si7 0.921320 0.763517 0.158946
O O1 0.514228 0.456851 0.393289
O O2 0.313054 0.580977 0.196692
O O3 0.392883 0.215906 0.392154
O O4 0.625785 0.427569 0.105424
O O5 0.235075 0.648478 0.474338
O O6 0.035183 0.470350 0.761969
O O7 0.000000 0.500000 0.500000
O O8 0.908045 0.810019 0.557247
O O9 0.497487 0.806455 0.301354
O O10 0.290919 0.878845 0.567072
O O11 0.210632 0.168823 0.936832
O O12 0.500000 0.000000 0.000000
O O13 0.411130 0.855770 0.884433
O O14 0.898239 0.183471 0.970217
O O15 0.831503 0.858936 0.300521
#
# Coordination Sequence:
#
# PCOD8028213 Si02
#       7
#     2   2   2   2   2   2   2
#     4  11  23  45  79 105 148 191 239 296 369 435
#     4  10  25  44  72 104 140 189 245 303 355 431
#     4  12  25  46  74 108 142 194 249 296 359 440
#     4  12  28  42  69 107 149 186 244 302 359 425
#     4  11  25  47  71 110 150 188 231 305 370 430
#     4  11  21  45  75 106 142 189 246 296 358 437
#     4  11  24  46  73 102 147 192 240 295 368 429
#
# _framework density 25.835028999999999
#
# number of rings (size 3 to 8) (size 9 to 14) (size 15 to 20)
#    0.000    0.857    4.286    2.143    6.000    0.571 
#    2.571    0.714    0.000    0.000    0.000    0.000 
#    0.000    0.000    0.000    0.000    0.000    0.000 
#
# Total GULP energy -173497.778559 kJ/mol
# GULP energy per Si atom -12392.698469 kJ/mol
# Density = 2.577623 g / cm^3
# Si number density = 25.835029 Si / 1000 Ang^3
#
#
#
# Elastic Constant Matrix: (Units=GPa)
#
#
# Indices 1 2 3 4 5 6 
#
# 1 226.8290 45.9235 85.3820 6.4335 12.8809 -8.1978
# 2 45.9235 53.4881 23.1797 -14.3705 -1.2404 2.2279
# 3 85.3820 23.1797 136.4203 -4.1747 6.6310 -3.3180
# 4 6.4335 -14.3705 -4.1747 29.6012 -9.5554 -12.0006
# 5 12.8809 -1.2404 6.6310 -9.5554 54.0164 -13.2708
# 6 -8.1978 2.2279 -3.3180 -12.0006 -13.2708 47.8932
#
#
#
# Elastic Compliance Matrix: (Units=1/GPa)
#
#
# Indices 1 2 3 4 5 6 
#
# 1 0.007439 -0.006671 -0.003615 -0.006816 -0.002984 -0.001201
# 2 -0.006671 0.029995 -0.000543 0.019936 0.006940 0.004344
# 3 -0.003615 -0.000543 0.009761 0.002260 0.000226 0.000712
# 4 -0.006816 0.019936 0.002260 0.057296 0.016088 0.016877
# 5 -0.002984 0.006940 0.000226 0.016088 0.024671 0.010049
# 6 -0.001201 0.004344 0.000712 0.016877 0.010049 0.027535
#
#
# Mechanical properties :
#
#
# Convention : Reuss Voigt Hill
#
# Bulk Modulus (GPa) = 39.15982 80.63420 59.89701
# Shear Modulus (GPa) = 26.75695 43.78564 35.27129
#
# Velocity S-wave (km/s) = 3.22170 4.12128 3.69894
# Velocity P-wave (km/s) = 5.38792 7.34340 6.44031
#
# Compressibility (1/GPa) = 0.02553638
#
# Stress axis : x y z
#
# Youngs Moduli (GPa) = 134.41880 33.33929 102.45024
#
# Poissons Ratio (x) = 0.22240 0.37040
# Poissons Ratio (y) = 0.89669 0.05563
# Poissons Ratio (z) = 0.48598 0.01810
#
# Static dielectric constant tensor:
#      x y z
#    x 4.685160 -1.466040 -1.596490 
#    y -1.466040 3.685100 -3.072790 
#    z -1.596490 -3.072790 -0.796070 
# 
# 
# High freq. dielectric constant tensor:
#      x y z
#    x 2.054370 -0.022270 0.001910 
#    y -0.022270 2.035040 -0.024610 
#    z 0.001910 -0.024610 2.026410 
# 
# From -- ./inp_files/157172.got.cif
#   From: 2010.06.25/outbox.cif.g09.slc.cpg/sg2_79_cif.got.tgz:157172.got - 2010.06.27 13:26:56.
