data_PCOD8028723
_publ_section_title
;
Structure prediction by ZEFSAII (Michael W. Deem and Ramdas Pophale) SiO2 
 PCOD8028723
Probable space group: P -1
;
_chemical_formula_sum "Si O2"
_cell_formula_units_Z 14
_cell_length_a 5.756099
_cell_length_b 8.643840
_cell_length_c 17.433952
_cell_angle_alpha 116.161444
_cell_angle_beta 106.942112
_cell_angle_gamma 115.032379
_cell_volume 570.735494
_symmetry_space_group_name_H-M "P -1"
_symmetry_group_IT_number 2
_symmetry_cell_setting 'triclinic'
loop_
_space_group_symop_operation_xyz
x,y,z
-x,-y,-z
loop_
_atom_site_type_symbol
_atom_site_label
_atom_site_fract_x
_atom_site_fract_y
_atom_site_fract_z
Si Si1 0.258363 0.241834 0.116046
Si Si2 0.778798 0.617179 0.699009
Si Si3 0.381989 0.668868 0.569019
Si Si4 0.694705 0.059572 0.287734
Si Si5 0.103254 0.021038 0.426595
Si Si6 0.185600 0.580208 0.112812
Si Si7 0.026843 0.411090 0.748609
O O1 0.182791 0.227100 0.195318
O O2 0.238386 0.411103 0.106483
O O3 0.622248 0.343489 0.169837
O O4 0.000000 0.000000 0.000000
O O5 0.504651 0.548384 0.596241
O O6 0.105644 0.752198 0.715481
O O7 0.749416 0.411127 0.687481
O O8 0.519004 0.891825 0.680616
O O9 0.526389 0.770227 0.518552
O O10 0.000000 0.500000 0.500000
O O11 0.917915 0.082573 0.378339
O O12 0.512877 0.822630 0.176995
O O13 0.000000 0.000000 0.500000
O O14 0.992867 0.779403 0.338649
O O15 0.032086 0.629627 0.175053
O O16 0.000000 0.500000 0.000000
#
# Coordination Sequence:
#
# PCOD8028723 Si02
#       7
#     2   2   2   2   2   2   2
#     4  11  26  44  72 113 146 196 246 303 378 443
#     4  10  26  45  77 102 155 190 244 310 373 442
#     4  11  26  51  75 110 146 199 257 311 378 443
#     4  11  24  48  71 108 148 193 250 302 374 447
#     4  11  26  49  79 107 149 200 252 312 381 445
#     4  11  26  43  76 109 147 194 244 302 375 443
#     4  11  24  50  73 111 152 192 250 307 373 451
#
# _framework density 24.52975
#
# number of rings (size 3 to 8) (size 9 to 14) (size 15 to 20)
#    0.000    1.143    2.857    0.857    6.000    8.000 
#    2.571    2.857    0.000    0.000    0.000    0.000 
#    0.000    0.000    0.000    0.000    0.000    0.000 
#
# Total GULP energy -173447.337232 kJ/mol
# GULP energy per Si atom -12389.095517 kJ/mol
# Density = 2.447392 g / cm^3
# Si number density = 24.529750 Si / 1000 Ang^3
#
#
#
# Elastic Constant Matrix: (Units=GPa)
#
#
# Indices 1 2 3 4 5 6 
#
# 1 109.2640 47.3803 46.3553 -4.4165 -2.2179 13.2062
# 2 47.3803 101.2397 54.5776 -9.0840 -0.9752 10.5672
# 3 46.3553 54.5776 133.4668 -5.9979 -7.3421 11.5398
# 4 -4.4165 -9.0840 -5.9979 54.2409 4.8751 -10.2940
# 5 -2.2179 -0.9752 -7.3421 4.8751 43.3820 1.9455
# 6 13.2062 10.5672 11.5398 -10.2940 1.9455 36.1792
#
#
#
# Elastic Compliance Matrix: (Units=1/GPa)
#
#
# Indices 1 2 3 4 5 6 
#
# 1 0.012289 -0.004279 -0.002293 -0.000504 0.000320 -0.002665
# 2 -0.004279 0.014417 -0.004314 0.001505 -0.000758 -0.000804
# 3 -0.002293 -0.004314 0.010246 -0.000167 0.001597 -0.001305
# 4 -0.000504 0.001505 -0.000167 0.019917 -0.002510 0.005600
# 5 0.000320 -0.000758 0.001597 -0.002510 0.023710 -0.002394
# 6 -0.002665 -0.000804 -0.001305 0.005600 -0.002394 0.030986
#
#
# Mechanical properties :
#
#
# Convention : Reuss Voigt Hill
#
# Bulk Modulus (GPa) = 65.87428 71.17743 68.52586
# Shear Modulus (GPa) = 36.12791 39.80425 37.96608
#
# Velocity S-wave (km/s) = 3.84190 4.03264 3.93842
# Velocity P-wave (km/s) = 6.82593 7.12479 6.97696
#
# Compressibility (1/GPa) = 0.01518043
#
# Stress axis : x y z
#
# Youngs Moduli (GPa) = 81.37587 69.36063 97.59834
#
# Poissons Ratio (x) = 0.29679 0.22378
# Poissons Ratio (y) = 0.34821 0.42104
# Poissons Ratio (z) = 0.18659 0.29922
#
# Static dielectric constant tensor:
#      x y z
#    x 4.851840 0.182180 -0.164080 
#    y 0.182180 4.761210 -0.048260 
#    z -0.164080 -0.048260 4.488460 
# 
# 
# High freq. dielectric constant tensor:
#      x y z
#    x 1.986150 -0.000740 -0.013510 
#    y -0.000740 1.991260 -0.000550 
#    z -0.013510 -0.000550 1.975520 
# 
# From -- ./inp_files/548344.got.cif
#   From: 2010.06.25/outbox.cif.g09.slc.cpg/sg2_275_cif.got.tgz:548344.got - 2010.06.27 13:26:56.
