data_PCOD8028123
_publ_section_title
;
Structure prediction by ZEFSAII (Michael W. Deem and Ramdas Pophale) SiO2 
 PCOD8028123
Probable space group: P -1
;
_chemical_formula_sum "Si O2"
_cell_formula_units_Z 14
_cell_length_a 8.053618
_cell_length_b 9.502078
_cell_length_c 15.474292
_cell_angle_alpha 143.995896
_cell_angle_beta 98.950054
_cell_angle_gamma 65.972163
_cell_volume 601.553179
_symmetry_space_group_name_H-M "P -1"
_symmetry_group_IT_number 2
_symmetry_cell_setting 'triclinic'
loop_
_space_group_symop_operation_xyz
x,y,z
-x,-y,-z
loop_
_atom_site_type_symbol
_atom_site_label
_atom_site_fract_x
_atom_site_fract_y
_atom_site_fract_z
Si Si1 0.175305 0.215105 0.842307
Si Si2 0.438255 0.589738 0.295227
Si Si3 0.203122 0.897921 0.845809
Si Si4 0.844137 0.642924 0.804119
Si Si5 0.887277 0.763554 0.681504
Si Si6 0.522735 0.263623 0.822533
Si Si7 0.134817 0.090605 0.602487
O O1 0.332830 0.239107 0.808600
O O2 0.099365 0.077984 0.696600
O O3 0.274736 0.021277 0.835505
O O4 0.000000 0.500000 0.000000
O O5 0.636857 0.405398 0.268809
O O6 0.309729 0.436498 0.207760
O O7 0.473539 0.644285 0.228126
O O8 0.349470 0.876069 0.482931
O O9 0.015428 0.893126 0.792981
O O10 0.167785 0.085943 0.020318
O O11 0.803950 0.684316 0.719162
O O12 0.062690 0.403667 0.722152
O O13 0.000000 0.500000 0.500000
O O14 0.714719 0.985185 0.720678
O O15 0.500000 0.500000 0.000000
O O16 0.000000 0.000000 0.500000
#
# Coordination Sequence:
#
# PCOD8028123 Si02
#       7
#     2   2   2   2   2   2   2
#     4  12  26  47  77 107 144 194 246 297 359 433
#     4  11  26  46  75 110 144 190 241 300 366 425
#     4  12  26  44  75 105 146 188 247 291 360 432
#     4  11  23  48  73 101 146 195 240 295 359 432
#     4  12  29  46  72 110 151 188 241 302 366 426
#     4  12  27  47  75 109 148 190 244 297 359 437
#     4  10  25  43  76 103 148 184 242 297 370 418
#
# _framework density 23.273084999999998
#
# number of rings (size 3 to 8) (size 9 to 14) (size 15 to 20)
#    0.000    0.571    1.429    5.143   14.000    1.143 
#    0.000    0.000    0.000    0.000    0.000    0.000 
#    0.000    0.000    0.000    0.000    0.000    0.000 
#
# Total GULP energy -173606.260226 kJ/mol
# GULP energy per Si atom -12400.447159 kJ/mol
# Density = 2.322011 g / cm^3
# Si number density = 23.273085 Si / 1000 Ang^3
#
#
#
# Elastic Constant Matrix: (Units=GPa)
#
#
# Indices 1 2 3 4 5 6 
#
# 1 114.6024 52.2920 35.8053 1.5872 -13.5880 6.3950
# 2 52.2920 201.8755 59.0358 -4.6237 -31.9606 7.6662
# 3 35.8053 59.0358 144.8035 -14.1978 -27.2217 -2.8417
# 4 1.5872 -4.6237 -14.1978 52.8639 -6.7240 -11.2702
# 5 -13.5880 -31.9606 -27.2217 -6.7240 32.3102 -0.8442
# 6 6.3950 7.6662 -2.8417 -11.2702 -0.8442 43.5665
#
#
#
# Elastic Compliance Matrix: (Units=1/GPa)
#
#
# Indices 1 2 3 4 5 6 
#
# 1 0.010389 -0.002053 -0.001784 -0.001242 0.000535 -0.001591
# 2 -0.002053 0.006653 -0.001233 0.000787 0.004825 -0.000653
# 3 -0.001784 -0.001233 0.009586 0.003886 0.006973 0.002244
# 4 -0.001242 0.000787 0.003886 0.022468 0.008369 0.006272
# 5 0.000535 0.004825 0.006973 0.008369 0.043631 0.002538
# 6 -0.001591 -0.000653 0.002244 0.006272 0.002538 0.025120
#
#
# Mechanical properties :
#
#
# Convention : Reuss Voigt Hill
#
# Bulk Modulus (GPa) = 60.65337 83.94974 72.30156
# Shear Modulus (GPa) = 37.45806 46.69135 42.07470
#
# Velocity S-wave (km/s) = 4.01621 4.48396 4.25652
# Velocity P-wave (km/s) = 6.90107 7.93460 7.43581
#
# Compressibility (1/GPa) = 0.01648713
#
# Stress axis : x y z
#
# Youngs Moduli (GPa) = 96.25212 150.31736 104.32025
#
# Poissons Ratio (x) = 0.30854 0.18616
# Poissons Ratio (y) = 0.19757 0.12866
# Poissons Ratio (z) = 0.17176 0.18539
#
# Static dielectric constant tensor:
#      x y z
#    x 4.426910 -0.234660 -0.545080 
#    y -0.234660 4.669870 0.660110 
#    z -0.545080 0.660110 5.257350 
# 
# 
# High freq. dielectric constant tensor:
#      x y z
#    x 1.913160 -0.003720 -0.003940 
#    y -0.003720 1.942030 -0.004600 
#    z -0.003940 -0.004600 1.940200 
# 
# From -- ./inp_files/245253.got.cif
#   From: 2010.06.25/outbox.cif.g09.slc.cpg/sg2_123_cif.got.tgz:245253.got - 2010.06.27 13:26:56.
