data_PCOD8028451
_publ_section_title
;
Structure prediction by ZEFSAII (Michael W. Deem and Ramdas Pophale) SiO2 
 PCOD8028451
Probable space group: P -1
;
_chemical_formula_sum "Si O2"
_cell_formula_units_Z 16
_cell_length_a 5.385892
_cell_length_b 23.168601
_cell_length_c 8.202419
_cell_angle_alpha 44.397386
_cell_angle_beta 79.834028
_cell_angle_gamma 67.767487
_cell_volume 655.857843
_symmetry_space_group_name_H-M "P -1"
_symmetry_group_IT_number 2
_symmetry_cell_setting 'triclinic'
loop_
_space_group_symop_operation_xyz
x,y,z
-x,-y,-z
loop_
_atom_site_type_symbol
_atom_site_label
_atom_site_fract_x
_atom_site_fract_y
_atom_site_fract_z
Si Si1 0.685846 0.967863 0.868812
Si Si2 0.404240 0.841107 0.557952
Si Si3 0.668226 0.375897 0.611179
Si Si4 0.851303 0.664448 0.792367
Si Si5 0.774342 0.102630 0.878862
Si Si6 0.549154 0.399174 0.240739
Si Si7 0.815310 0.532148 0.305664
Si Si8 0.133328 0.820296 0.966470
O O1 0.565153 0.064475 0.606068
O O2 0.915584 0.966019 0.983357
O O3 0.448564 0.943341 0.028446
O O4 0.830752 0.894835 0.859849
O O5 0.701228 0.764247 0.673555
O O6 0.247285 0.842834 0.398947
O O7 0.249673 0.825251 0.765158
O O8 0.466375 0.384550 0.464412
O O9 0.820159 0.441848 0.402121
O O10 0.494778 0.408073 0.730993
O O11 0.880695 0.276873 0.816736
O O12 0.633301 0.637972 0.770905
O O13 0.127999 0.660910 0.683874
O O14 0.945746 0.590443 0.071398
O O15 0.695365 0.164927 0.925995
O O16 0.500000 0.500000 0.000000
O O17 0.000000 0.500000 0.500000
#
# Coordination Sequence:
#
# PCOD8028451 Si02
#       8
#     2   2   2   2   2   2   2   2
#     4  10  25  49  73 107 147 193 240 300 364 425
#     4  12  24  49  74 107 152 190 242 305 353 441
#     4  11  24  45  69 100 145 180 237 298 351 430
#     4  12  28  45  72 110 136 190 243 283 369 423
#     4  10  25  47  72 106 145 189 247 293 368 424
#     4  12  26  48  74 103 142 186 241 301 355 426
#     4  11  25  44  69 102 140 190 229 293 362 427
#     4  10  25  46  71 110 139 196 239 296 362 428
#
# _framework density 24.395529
#
# number of rings (size 3 to 8) (size 9 to 14) (size 15 to 20)
#    0.750    0.250    2.500    3.000    5.250    2.500 
#    4.500    0.000    0.000    0.000    0.000    0.000 
#    0.000    0.000    0.000    0.000    0.000    0.000 
#
# Total GULP energy -198272.455562 kJ/mol
# GULP energy per Si atom -12392.028473 kJ/mol
# Density = 2.434000 g / cm^3
# Si number density = 24.395529 Si / 1000 Ang^3
#
#
#
# Elastic Constant Matrix: (Units=GPa)
#
#
# Indices 1 2 3 4 5 6 
#
# 1 113.1793 49.0038 20.0329 -3.7927 0.9575 -6.6735
# 2 49.0038 135.9307 60.0935 -15.8931 2.1147 -11.4245
# 3 20.0329 60.0935 142.2390 -5.6638 11.4314 6.6972
# 4 -3.7927 -15.8931 -5.6638 58.6457 5.1107 0.0306
# 5 0.9575 2.1147 11.4314 5.1107 22.1429 5.5105
# 6 -6.6735 -11.4245 6.6972 0.0306 5.5105 27.9988
#
#
#
# Elastic Compliance Matrix: (Units=1/GPa)
#
#
# Indices 1 2 3 4 5 6 
#
# 1 0.010505 -0.003768 0.000078 -0.000307 -0.000315 0.001010
# 2 -0.003768 0.011342 -0.004357 0.002445 -0.000444 0.004857
# 3 0.000078 -0.004357 0.009304 0.000037 -0.003583 -0.003280
# 4 -0.000307 0.002445 0.000037 0.018123 -0.004884 0.001857
# 5 -0.000315 -0.000444 -0.003583 -0.004884 0.050518 -0.009336
# 6 0.001010 0.004857 -0.003280 0.001857 -0.009336 0.040558
#
#
# Mechanical properties :
#
#
# Convention : Reuss Voigt Hill
#
# Bulk Modulus (GPa) = 66.41109 72.17881 69.29495
# Shear Modulus (GPa) = 30.96702 39.23874 35.10288
#
# Velocity S-wave (km/s) = 3.56669 4.01489 3.79741
# Velocity P-wave (km/s) = 6.65158 7.15147 6.90605
#
# Compressibility (1/GPa) = 0.01505773
#
# Stress axis : x y z
#
# Youngs Moduli (GPa) = 95.19290 88.16747 107.48097
#
# Poissons Ratio (x) = 0.33218 -0.00836
# Poissons Ratio (y) = 0.35865 0.46827
# Poissons Ratio (z) = -0.00740 0.38413
#
# Static dielectric constant tensor:
#      x y z
#    x 3.864080 -0.376210 0.248840 
#    y -0.376210 4.825500 0.397350 
#    z 0.248840 0.397350 4.638030 
# 
# 
# High freq. dielectric constant tensor:
#      x y z
#    x 1.947850 -0.002190 0.004620 
#    y -0.002190 2.000440 -0.003490 
#    z 0.004620 -0.003490 1.972620 
# 
# From -- ./inp_files/142231.got.cif
#   From: 2010.06.25/outbox.cif.g09.slc.cpg/sg2_72_cif.got.tgz:142231.got - 2010.06.27 13:26:56.
