data_PCOD8028022
_publ_section_title
;
Structure prediction by ZEFSAII (Michael W. Deem and Ramdas Pophale) SiO2 
 PCOD8028022
Probable space group: P -1
;
_chemical_formula_sum "Si O2"
_cell_formula_units_Z 14
_cell_length_a 17.773233
_cell_length_b 6.206176
_cell_length_c 8.321688
_cell_angle_alpha 123.449502
_cell_angle_beta 66.527781
_cell_angle_gamma 124.983333
_cell_volume 622.939600
_symmetry_space_group_name_H-M "P -1"
_symmetry_group_IT_number 2
_symmetry_cell_setting 'triclinic'
loop_
_space_group_symop_operation_xyz
x,y,z
-x,-y,-z
loop_
_atom_site_type_symbol
_atom_site_label
_atom_site_fract_x
_atom_site_fract_y
_atom_site_fract_z
Si Si1 0.896269 0.340084 0.077834
Si Si2 0.761730 0.363711 0.967675
Si Si3 0.894644 0.852264 0.469005
Si Si4 0.560454 0.859338 0.954018
Si Si5 0.249308 0.582921 0.366836
Si Si6 0.542068 0.277420 0.692958
Si Si7 0.182850 0.020596 0.710551
O O1 0.870165 0.553668 0.283030
O O2 0.877900 0.081830 0.114465
O O3 0.834541 0.261226 0.936501
O O4 0.000000 0.500000 0.000000
O O5 0.786843 0.444868 0.794833
O O6 0.757331 0.631561 0.176781
O O7 0.665827 0.085832 0.954457
O O8 0.818316 0.736843 0.630246
O O9 0.879855 0.053924 0.429992
O O10 0.000000 0.000000 0.500000
O O11 0.531803 0.782947 0.130053
O O12 0.549259 0.580672 0.740661
O O13 0.500000 0.000000 0.000000
O O14 0.356142 0.653716 0.305188
O O15 0.245759 0.857316 0.571135
O O16 0.500000 0.000000 0.500000
#
# Coordination Sequence:
#
# PCOD8028022 Si02
#       7
#     2   2   2   2   2   2   2
#     4  10  25  42  68  99 134 186 231 289 353 412
#     4  11  26  43  71  98 141 183 231 294 345 424
#     4  10  25  42  66 100 139 177 233 288 342 429
#     4  11  26  47  68 108 136 184 238 289 354 419
#     4  11  26  43  69 104 131 191 228 282 363 413
#     4  11  28  44  73 102 144 181 236 292 351 429
#     4  10  26  44  66 100 140 180 233 289 349 410
#
# _framework density 22.474087999999998
#
# number of rings (size 3 to 8) (size 9 to 14) (size 15 to 20)
#    0.000    1.429    1.429    0.000   18.000    2.857 
#    0.000    0.000    0.000    0.000    0.000    0.000 
#    0.000    0.000    0.000    0.000    0.000    0.000 
#
# Total GULP energy -173458.523016 kJ/mol
# GULP energy per Si atom -12389.894501 kJ/mol
# Density = 2.242294 g / cm^3
# Si number density = 22.474088 Si / 1000 Ang^3
#
#
#
# Elastic Constant Matrix: (Units=GPa)
#
#
# Indices 1 2 3 4 5 6 
#
# 1 131.1446 71.9922 39.7012 -5.1992 18.3216 -5.8372
# 2 71.9922 143.4701 54.1670 -6.4681 8.5314 -0.3512
# 3 39.7012 54.1670 103.8937 4.9677 7.5762 -6.9758
# 4 -5.1992 -6.4681 4.9677 52.7430 -10.0557 -3.9946
# 5 18.3216 8.5314 7.5762 -10.0557 37.7862 -1.2052
# 6 -5.8372 -0.3512 -6.9758 -3.9946 -1.2052 39.4467
#
#
#
# Elastic Compliance Matrix: (Units=1/GPa)
#
#
# Indices 1 2 3 4 5 6 
#
# 1 0.011387 -0.004945 -0.001388 -0.000038 -0.004096 0.001267
# 2 -0.004945 0.010978 -0.004055 0.001352 0.001054 -0.001182
# 3 -0.001388 -0.004055 0.012582 -0.001954 -0.001399 0.001743
# 4 -0.000038 0.001352 -0.001954 0.020524 0.005628 0.001911
# 5 -0.004096 0.001054 -0.001399 0.005628 0.030011 0.000643
# 6 0.001267 -0.001182 0.001743 0.001911 0.000643 0.026049
#
#
# Mechanical properties :
#
#
# Convention : Reuss Voigt Hill
#
# Bulk Modulus (GPa) = 70.56161 78.91434 74.73798
# Shear Modulus (GPa) = 36.48860 40.17172 38.33016
#
# Velocity S-wave (km/s) = 4.03375 4.23243 4.13428
# Velocity P-wave (km/s) = 7.29108 7.68598 7.49113
#
# Compressibility (1/GPa) = 0.01417201
#
# Stress axis : x y z
#
# Youngs Moduli (GPa) = 87.81974 91.09380 79.47948
#
# Poissons Ratio (x) = 0.45046 0.11028
# Poissons Ratio (y) = 0.43427 0.32226
# Poissons Ratio (z) = 0.12185 0.36935
#
# Static dielectric constant tensor:
#      x y z
#    x 4.702630 -1.929420 0.728390 
#    y -1.929420 7.239020 -0.999880 
#    z 0.728390 -0.999880 4.613400 
# 
# 
# High freq. dielectric constant tensor:
#      x y z
#    x 1.883680 -0.008540 -0.004950 
#    y -0.008540 1.900410 0.000630 
#    z -0.004950 0.000630 1.892630 
# 
# From -- ./inp_files/49108.got.cif
#   From: 2010.06.25/outbox.cif.g09.slc.cpg/sg2_25_cif.got.tgz:49108.got - 2010.06.27 13:26:56.
