data_PCOD8028878
_publ_section_title
;
Structure prediction by ZEFSAII (Michael W. Deem and Ramdas Pophale) SiO2 
 PCOD8028878
Probable space group: P -1
;
_chemical_formula_sum "Si O2"
_cell_formula_units_Z 16
_cell_length_a 7.091696
_cell_length_b 16.202559
_cell_length_c 8.829430
_cell_angle_alpha 82.713030
_cell_angle_beta 93.996390
_cell_angle_gamma 140.855632
_cell_volume 634.611925
_symmetry_space_group_name_H-M "P -1"
_symmetry_group_IT_number 2
_symmetry_cell_setting 'triclinic'
loop_
_space_group_symop_operation_xyz
x,y,z
-x,-y,-z
loop_
_atom_site_type_symbol
_atom_site_label
_atom_site_fract_x
_atom_site_fract_y
_atom_site_fract_z
Si Si1 0.101180 0.985690 0.657043
Si Si2 0.632734 0.632259 0.925221
Si Si3 0.315459 0.342703 0.572348
Si Si4 0.762172 0.513424 0.324732
Si Si5 0.622014 0.884431 0.858172
Si Si6 0.125114 0.803566 0.683120
Si Si7 0.017196 0.173431 0.853653
Si Si8 0.344484 0.779640 0.179486
O O1 0.199048 0.925958 0.635327
O O2 0.831059 0.887263 0.788150
O O3 0.376505 0.127183 0.715119
O O4 0.000000 0.000000 0.500000
O O5 0.400662 0.589860 0.799064
O O6 0.953181 0.725838 0.846323
O O7 0.500000 0.500000 0.000000
O O8 0.698266 0.719605 0.043009
O O9 0.633961 0.425011 0.491935
O O10 0.361148 0.433459 0.674278
O O11 0.071263 0.293426 0.448056
O O12 0.171192 0.216700 0.685573
O O13 0.113229 0.634550 0.277191
O O14 0.429920 0.856498 0.713307
O O15 0.829238 0.027158 0.911890
O O16 0.438474 0.783483 0.013174
O O17 0.799509 0.178353 0.848881
#
# Coordination Sequence:
#
# PCOD8028878 Si02
#       8
#     2   2   2   2   2   2   2   2
#     4  12  28  43  63  98 139 179 225 272 331 400
#     4  11  18  35  65 102 127 166 226 274 328 393
#     4   9  19  33  60  94 128 168 212 265 326 387
#     4   9  19  35  59  96 128 168 217 268 322 396
#     4  12  24  42  69  97 134 179 217 276 344 389
#     4  11  23  41  67  99 134 172 225 273 328 407
#     4  11  20  35  66  97 134 166 219 275 329 396
#     4  11  21  41  63  94 132 171 219 275 329 393
#
# _framework density 25.212257999999999
#
# number of rings (size 3 to 8) (size 9 to 14) (size 15 to 20)
#    0.000    1.250    5.000    2.250    3.500    1.000 
#    0.000    0.000    0.000   20.250    0.000    0.000 
#    0.000    0.000    0.000    0.000    0.000    0.000 
#
# Total GULP energy -198272.380589 kJ/mol
# GULP energy per Si atom -12392.023787 kJ/mol
# Density = 2.515487 g / cm^3
# Si number density = 25.212258 Si / 1000 Ang^3
#
#
#
# Elastic Constant Matrix: (Units=GPa)
#
#
# Indices 1 2 3 4 5 6 
#
# 1 54.5809 12.6810 13.7661 3.9469 -3.4882 18.5683
# 2 12.6810 108.7515 48.5492 0.0988 0.8087 31.0483
# 3 13.7661 48.5492 136.3109 -5.1960 -6.3779 22.4587
# 4 3.9469 0.0988 -5.1960 53.1629 12.5971 -7.5734
# 5 -3.4882 0.8087 -6.3779 12.5971 24.5716 -7.7797
# 6 18.5683 31.0483 22.4587 -7.5734 -7.7797 28.4004
#
#
#
# Elastic Compliance Matrix: (Units=1/GPa)
#
#
# Indices 1 2 3 4 5 6 
#
# 1 0.025183 0.003362 -0.000456 -0.004724 -0.000978 -0.021307
# 2 0.003362 0.015662 -0.003143 -0.001891 -0.005885 -0.018952
# 3 -0.000456 -0.003143 0.009069 0.000177 0.001345 -0.003022
# 4 -0.004724 -0.001891 0.000177 0.022634 -0.009490 0.008452
# 5 -0.000978 -0.005885 0.001345 -0.009490 0.051538 0.017596
# 6 -0.021307 -0.018952 -0.003022 0.008452 0.017596 0.079324
#
#
# Mechanical properties :
#
#
# Convention : Reuss Voigt Hill
#
# Bulk Modulus (GPa) = 20.22622 49.95954 35.09288
# Shear Modulus (GPa) = 22.68955 36.20344 29.44649
#
# Velocity S-wave (km/s) = 3.00316 3.79350 3.42123
# Velocity P-wave (km/s) = 4.47940 6.24869 5.43650
#
# Compressibility (1/GPa) = 0.04944077
#
# Stress axis : x y z
#
# Youngs Moduli (GPa) = 39.70920 63.84685 110.26310
#
# Poissons Ratio (x) = -0.21464 0.05026
# Poissons Ratio (y) = -0.13349 0.34654
# Poissons Ratio (z) = 0.01810 0.20066
#
# Static dielectric constant tensor:
#      x y z
#    x 4.003700 0.254340 -0.212710 
#    y 0.254340 4.850500 -0.057980 
#    z -0.212710 -0.057980 5.064860 
# 
# 
# High freq. dielectric constant tensor:
#      x y z
#    x 1.958460 0.009640 -0.007520 
#    y 0.009640 2.017910 -0.005880 
#    z -0.007520 -0.005880 2.025000 
# 
# From -- ./inp_files/223613.got.cif
#   From: 2010.06.25/outbox.cif.g09.slc.cpg/sg2_112_cif.got.tgz:223613.got - 2010.06.27 13:26:56.
