data_PCOD8028425
_publ_section_title
;
Structure prediction by ZEFSAII (Michael W. Deem and Ramdas Pophale) SiO2 
 PCOD8028425
Probable space group: P -1
;
_chemical_formula_sum "Si O2"
_cell_formula_units_Z 16
_cell_length_a 15.006889
_cell_length_b 11.196306
_cell_length_c 8.982603
_cell_angle_alpha 108.136147
_cell_angle_beta 57.067032
_cell_angle_gamma 61.741427
_cell_volume 712.954204
_symmetry_space_group_name_H-M "P -1"
_symmetry_group_IT_number 2
_symmetry_cell_setting 'triclinic'
loop_
_space_group_symop_operation_xyz
x,y,z
-x,-y,-z
loop_
_atom_site_type_symbol
_atom_site_label
_atom_site_fract_x
_atom_site_fract_y
_atom_site_fract_z
Si Si1 0.897749 0.870843 0.486814
Si Si2 0.812494 0.681724 0.550725
Si Si3 0.796340 0.216823 0.245943
Si Si4 0.786576 0.753796 0.926424
Si Si5 0.695090 0.588607 0.098194
Si Si6 0.725268 0.077562 0.029061
Si Si7 0.654126 0.611428 0.485198
Si Si8 0.599153 0.299338 0.738204
O O1 0.830333 0.794192 0.488022
O O2 0.112750 0.668970 0.183408
O O3 0.776657 0.076720 0.574285
O O4 0.871352 0.931059 0.708090
O O5 0.710293 0.798487 0.846023
O O6 0.713353 0.684652 0.530633
O O7 0.000904 0.445260 0.335420
O O8 0.739574 0.197563 0.141962
O O9 0.796650 0.365934 0.282583
O O10 0.668205 0.296216 0.524582
O O11 0.000000 0.000000 0.000000
O O12 0.709196 0.722411 0.094113
O O13 0.736210 0.947206 0.082859
O O14 0.619778 0.661759 0.361021
O O15 0.550178 0.663297 0.149246
O O16 0.524661 0.263611 0.218078
O O17 0.500000 0.500000 0.000000
#
# Coordination Sequence:
#
# PCOD8028425 Si02
#       8
#     2   2   2   2   2   2   2   2
#     4  10  25  46  70 100 133 179 221 279 334 396
#     4   9  21  42  69  97 133 176 223 268 335 401
#     4  12  27  46  68  95 135 182 223 272 337 405
#     4   9  21  41  68 100 129 176 223 271 332 400
#     4  11  26  45  68 101 139 172 223 283 335 395
#     4  11  24  43  68  99 135 174 223 274 333 404
#     4  12  25  42  67  98 136 176 216 285 334 394
#     4  12  28  45  69 103 133 178 229 277 331 405
#
# _framework density 22.441832999999999
#
# number of rings (size 3 to 8) (size 9 to 14) (size 15 to 20)
#    0.000    1.250    1.250    3.375    8.750    5.000 
#    0.000    0.000    0.000    0.000    0.000    0.000 
#    0.000    0.000    0.000    0.000    0.000    0.000 
#
# Total GULP energy -198327.891801 kJ/mol
# GULP energy per Si atom -12395.493238 kJ/mol
# Density = 2.239075 g / cm^3
# Si number density = 22.441833 Si / 1000 Ang^3
#
#
#
# Elastic Constant Matrix: (Units=GPa)
#
#
# Indices 1 2 3 4 5 6 
#
# 1 94.2247 -4.3507 20.6441 -2.6633 4.3593 -4.9782
# 2 -4.3507 70.2465 -4.2029 10.3680 0.3775 -2.4313
# 3 20.6441 -4.2029 77.3700 -1.4753 1.0457 -5.4775
# 4 -2.6633 10.3680 -1.4753 35.0729 1.2107 1.0056
# 5 4.3593 0.3775 1.0457 1.2107 31.4032 2.0808
# 6 -4.9782 -2.4313 -5.4775 1.0056 2.0808 26.4456
#
#
#
# Elastic Compliance Matrix: (Units=1/GPa)
#
#
# Indices 1 2 3 4 5 6 
#
# 1 0.011449 0.000516 -0.002872 0.000603 -0.001637 0.001714
# 2 0.000516 0.015027 0.000726 -0.004417 -0.000226 0.001815
# 3 -0.002872 0.000726 0.013907 0.000091 -0.000237 0.002422
# 4 0.000603 -0.004417 0.000091 0.029943 -0.001100 -0.001326
# 5 -0.001637 -0.000226 -0.000237 -0.001100 0.032315 -0.002879
# 6 0.001714 0.001815 0.002422 -0.001326 -0.002879 0.039081
#
#
# Mechanical properties :
#
#
# Convention : Reuss Voigt Hill
#
# Bulk Modulus (GPa) = 26.93699 29.55805 28.24752
# Shear Modulus (GPa) = 31.77491 33.90106 32.83799
#
# Velocity S-wave (km/s) = 3.76690 3.89089 3.82939
# Velocity P-wave (km/s) = 5.56313 5.77796 5.67157
#
# Compressibility (1/GPa) = 0.03712367
#
# Stress axis : x y z
#
# Youngs Moduli (GPa) = 87.34146 66.54744 71.90609
#
# Poissons Ratio (x) = -0.03436 0.20651
# Poissons Ratio (y) = -0.04510 -0.05219
# Poissons Ratio (z) = 0.25084 -0.04830
#
# Static dielectric constant tensor:
#      x y z
#    x 4.284000 0.274430 -0.163430 
#    y 0.274430 4.163150 0.028300 
#    z -0.163430 0.028300 4.320040 
# 
# 
# High freq. dielectric constant tensor:
#      x y z
#    x 1.883280 0.008180 0.000350 
#    y 0.008180 1.889630 0.011790 
#    z 0.000350 0.011790 1.895080 
# 
# From -- ./inp_files/279823.got.cif
#   From: 2010.06.25/outbox.cif.g09.slc.cpg/sg2_140_cif.got.tgz:279823.got - 2010.06.27 13:26:56.
