data_PCOD8028751
_publ_section_title
;
Structure prediction by ZEFSAII (Michael W. Deem and Ramdas Pophale) SiO2 
 PCOD8028751
Probable space group: P -1
;
_chemical_formula_sum "Si O2"
_cell_formula_units_Z 16
_cell_length_a 17.565411
_cell_length_b 11.661273
_cell_length_c 20.878687
_cell_angle_alpha 41.012955
_cell_angle_beta 161.747716
_cell_angle_gamma 147.986575
_cell_volume 676.158432
_symmetry_space_group_name_H-M "P -1"
_symmetry_group_IT_number 2
_symmetry_cell_setting 'triclinic'
loop_
_space_group_symop_operation_xyz
x,y,z
-x,-y,-z
loop_
_atom_site_type_symbol
_atom_site_label
_atom_site_fract_x
_atom_site_fract_y
_atom_site_fract_z
Si Si1 0.758258 0.053788 0.135426
Si Si2 0.299909 0.210652 0.309147
Si Si3 0.627105 0.454841 0.338458
Si Si4 0.533667 0.630800 0.067934
Si Si5 0.888174 0.043450 0.455685
Si Si6 0.214290 0.752315 0.089619
Si Si7 0.292577 0.549729 0.345648
Si Si8 0.980277 0.279487 0.679740
O O1 0.587322 0.863782 0.022846
O O2 0.020755 0.042586 0.377591
O O3 0.935430 0.314142 0.148163
O O4 0.500000 0.000000 0.000000
O O5 0.383328 0.318580 0.259744
O O6 0.601049 0.378727 0.525707
O O7 0.213533 0.967972 0.339553
O O8 0.985788 0.161816 0.105198
O O9 0.466074 0.500097 0.136119
O O10 0.940765 0.692740 0.514488
O O11 0.727146 0.314707 0.447660
O O12 0.847071 0.693740 0.259254
O O13 0.228732 0.466019 0.850666
O O14 0.513060 0.908228 0.214900
O O15 0.000000 0.000000 0.500000
O O16 0.327205 0.751935 0.251977
O O17 0.000000 0.500000 0.000000
O O18 0.500000 0.500000 0.500000
#
# Coordination Sequence:
#
# PCOD8028751 Si02
#       8
#     2   2   2   2   2   2   2   2
#     4  11  25  42  72 105 143 185 231 300 357 429
#     4  12  28  46  73 110 143 193 244 299 371 429
#     4  11  26  47  71 104 145 183 247 308 356 428
#     4  10  26  46  72 110 139 194 248 289 369 430
#     4  11  25  42  67 106 142 186 238 295 363 430
#     4  12  26  42  70 103 148 192 237 300 362 438
#     4  12  24  45  69 103 149 188 239 288 369 432
#     4  11  26  47  76 100 146 197 245 294 359 441
#
# _framework density 23.663093
#
# number of rings (size 3 to 8) (size 9 to 14) (size 15 to 20)
#    0.000    0.750    2.500    3.000   14.000    1.500 
#    0.000    0.000    0.000    0.000    0.000    0.000 
#    0.000    0.000    0.000    0.000    0.000    0.000 
#
# Total GULP energy -198422.050271 kJ/mol
# GULP energy per Si atom -12401.378142 kJ/mol
# Density = 2.360924 g / cm^3
# Si number density = 23.663093 Si / 1000 Ang^3
#
#
#
# Elastic Constant Matrix: (Units=GPa)
#
#
# Indices 1 2 3 4 5 6 
#
# 1 127.1341 42.1005 23.0907 9.9118 5.4171 3.1587
# 2 42.1005 120.1839 31.9062 8.1495 10.4819 -1.0643
# 3 23.0907 31.9062 73.0156 5.2865 11.9292 -3.8614
# 4 9.9118 8.1495 5.2865 42.0164 4.1867 -0.0882
# 5 5.4171 10.4819 11.9292 4.1867 44.4763 -1.8229
# 6 3.1587 -1.0643 -3.8614 -0.0882 -1.8229 47.6128
#
#
#
# Elastic Compliance Matrix: (Units=1/GPa)
#
#
# Indices 1 2 3 4 5 6 
#
# 1 0.009191 -0.002689 -0.001681 -0.001444 0.000068 -0.000806
# 2 -0.002689 0.010322 -0.003415 -0.000828 -0.001108 0.000088
# 3 -0.001681 -0.003415 0.016367 -0.000672 -0.003266 0.001236
# 4 -0.001444 -0.000828 -0.000672 0.024561 -0.001761 0.000001
# 5 0.000068 -0.001108 -0.003266 -0.001761 0.023804 0.000614
# 6 -0.000806 0.000088 0.001236 0.000001 0.000614 0.021182
#
#
# Mechanical properties :
#
#
# Convention : Reuss Voigt Hill
#
# Bulk Modulus (GPa) = 49.23199 57.16980 53.20090
# Shear Modulus (GPa) = 39.13366 41.70352 40.41859
#
# Velocity S-wave (km/s) = 4.07109 4.20263 4.13738
# Velocity P-wave (km/s) = 6.55354 6.91100 6.73464
#
# Compressibility (1/GPa) = 0.02031199
#
# Stress axis : x y z
#
# Youngs Moduli (GPa) = 108.80189 96.87598 61.09762
#
# Poissons Ratio (x) = 0.26045 0.10270
# Poissons Ratio (y) = 0.29252 0.20864
# Poissons Ratio (z) = 0.18289 0.33082
#
# Static dielectric constant tensor:
#      x y z
#    x 3.954280 -0.281870 -1.028800 
#    y -0.281870 4.191170 -0.896650 
#    z -1.028800 -0.896650 3.618060 
# 
# 
# High freq. dielectric constant tensor:
#      x y z
#    x 1.940760 0.006840 -0.000740 
#    y 0.006840 1.950180 -0.005240 
#    z -0.000740 -0.005240 1.939100 
# 
# From -- ./inp_files/600070.got.cif
#   From: 2010.06.25/outbox.cif.g09.slc.cpg/sg2_301_cif.got.tgz:600070.got - 2010.06.27 13:26:56.
