data_PCOD8028466
_publ_section_title
;
Structure prediction by ZEFSAII (Michael W. Deem and Ramdas Pophale) SiO2 
 PCOD8028466
Probable space group: P -1
;
_chemical_formula_sum "Si O2"
_cell_formula_units_Z 16
_cell_length_a 11.892188
_cell_length_b 19.273140
_cell_length_c 8.816718
_cell_angle_alpha 135.837493
_cell_angle_beta 106.129688
_cell_angle_gamma 40.170100
_cell_volume 725.459839
_symmetry_space_group_name_H-M "P -1"
_symmetry_group_IT_number 2
_symmetry_cell_setting 'triclinic'
loop_
_space_group_symop_operation_xyz
x,y,z
-x,-y,-z
loop_
_atom_site_type_symbol
_atom_site_label
_atom_site_fract_x
_atom_site_fract_y
_atom_site_fract_z
Si Si1 0.375162 0.090782 0.936082
Si Si2 0.563595 0.652783 0.437710
Si Si3 0.009353 0.765848 0.039520
Si Si4 0.866284 0.462993 0.774370
Si Si5 0.935027 0.869062 0.520747
Si Si6 0.272825 0.299117 0.631713
Si Si7 0.488379 0.219890 0.072948
Si Si8 0.890143 0.058304 0.389918
O O1 0.129361 0.225342 0.069948
O O2 0.506865 0.922693 0.608346
O O3 0.359998 0.210594 0.047410
O O4 0.500000 0.000000 0.000000
O O5 0.699690 0.648815 0.420353
O O6 0.444702 0.770192 0.733349
O O7 0.374755 0.753046 0.407706
O O8 0.733687 0.441213 0.192967
O O9 0.926933 0.845315 0.304151
O O10 0.971587 0.889121 0.109943
O O11 0.678634 0.587091 0.773307
O O12 0.917194 0.317121 0.628132
O O13 0.080262 0.359285 0.619312
O O14 0.771563 0.603489 0.086301
O O15 0.037118 0.906161 0.641105
O O16 0.694793 0.043930 0.773348
O O17 0.000000 0.000000 0.500000
#
# Coordination Sequence:
#
# PCOD8028466 Si02
#       8
#     2   2   2   2   2   2   2   2
#     4  12  23  40  69  98 140 178 217 272 338 402
#     4  12  25  45  69 104 134 174 231 278 329 405
#     4  11  24  43  73  98 132 179 228 276 333 401
#     4  11  25  41  66 103 139 176 218 278 336 401
#     4  11  25  45  67  95 136 178 226 281 333 396
#     4  11  22  42  67  96 141 175 221 269 327 407
#     4  12  27  40  69 103 140 176 216 276 349 395
#     4  10  25  46  72  98 128 179 233 281 330 395
#
# _framework density 22.054976
#
# number of rings (size 3 to 8) (size 9 to 14) (size 15 to 20)
#    0.000    0.750    5.000    1.500    5.250    6.500 
#    0.000    1.250    0.000    0.000    0.000    0.000 
#    0.000    0.000    0.000    0.000    0.000    0.000 
#
# Total GULP energy -198408.271666 kJ/mol
# GULP energy per Si atom -12400.516979 kJ/mol
# Density = 2.200478 g / cm^3
# Si number density = 22.054976 Si / 1000 Ang^3
#
#
#
# Elastic Constant Matrix: (Units=GPa)
#
#
# Indices 1 2 3 4 5 6 
#
# 1 140.3047 54.7871 35.2224 16.0680 19.7042 9.6964
# 2 54.7871 114.2053 35.1595 25.7929 6.6665 -2.7676
# 3 35.2224 35.1595 77.2567 15.9689 4.4210 -10.5676
# 4 16.0680 25.7929 15.9689 42.4472 4.9741 -1.2671
# 5 19.7042 6.6665 4.4210 4.9741 17.6507 5.5066
# 6 9.6964 -2.7676 -10.5676 -1.2671 5.5066 32.1478
#
#
#
# Elastic Compliance Matrix: (Units=1/GPa)
#
#
# Indices 1 2 3 4 5 6 
#
# 1 0.010876 -0.003876 -0.003185 0.000402 -0.009026 -0.003099
# 2 -0.003876 0.012619 -0.002854 -0.005277 0.001497 0.000853
# 3 -0.003185 -0.002854 0.017294 -0.003285 -0.000770 0.006402
# 4 0.000402 -0.005277 -0.003285 0.028545 -0.005822 0.000467
# 5 -0.009026 0.001497 -0.000770 -0.005822 0.071058 -0.009803
# 6 -0.003099 0.000853 0.006402 0.000467 -0.009803 0.035917
#
#
# Mechanical properties :
#
#
# Convention : Reuss Voigt Hill
#
# Bulk Modulus (GPa) = 47.71270 64.67830 56.19550
# Shear Modulus (GPa) = 24.61529 32.22230 28.41879
#
# Velocity S-wave (km/s) = 3.34441 3.82645 3.59352
# Velocity P-wave (km/s) = 6.04929 6.99370 6.53857
#
# Compressibility (1/GPa) = 0.02095878
#
# Stress axis : x y z
#
# Youngs Moduli (GPa) = 91.94314 79.24324 57.82481
#
# Poissons Ratio (x) = 0.30714 0.18418
# Poissons Ratio (y) = 0.35637 0.16504
# Poissons Ratio (z) = 0.29285 0.22617
#
# Static dielectric constant tensor:
#      x y z
#    x 4.305260 0.170910 0.156080 
#    y 0.170910 3.914430 0.162340 
#    z 0.156080 0.162340 4.126570 
# 
# 
# High freq. dielectric constant tensor:
#      x y z
#    x 1.866490 0.004550 0.006820 
#    y 0.004550 1.865270 0.015750 
#    z 0.006820 0.015750 1.869770 
# 
# From -- ./inp_files/279910.got.cif
#   From: 2010.06.25/outbox.cif.g09.slc.cpg/sg2_140_cif.got.tgz:279910.got - 2010.06.27 13:26:56.
