data_PCOD8028195
_publ_section_title
;
Structure prediction by ZEFSAII (Michael W. Deem and Ramdas Pophale) SiO2 
 PCOD8028195
Probable space group: P -1
;
_chemical_formula_sum "Si O2"
_cell_formula_units_Z 16
_cell_length_a 15.196132
_cell_length_b 9.332020
_cell_length_c 8.806873
_cell_angle_alpha 105.903010
_cell_angle_beta 38.678970
_cell_angle_gamma 112.787066
_cell_volume 718.722889
_symmetry_space_group_name_H-M "P -1"
_symmetry_group_IT_number 2
_symmetry_cell_setting 'triclinic'
loop_
_space_group_symop_operation_xyz
x,y,z
-x,-y,-z
loop_
_atom_site_type_symbol
_atom_site_label
_atom_site_fract_x
_atom_site_fract_y
_atom_site_fract_z
Si Si1 0.332479 0.444129 0.770227
Si Si2 0.059864 0.556467 0.099074
Si Si3 0.582518 0.441192 0.007773
Si Si4 0.797879 0.296344 0.500029
Si Si5 0.341217 0.208068 0.463819
Si Si6 0.351308 0.951046 0.593938
Si Si7 0.857184 0.026967 0.532870
Si Si8 0.129083 0.914562 0.142377
O O1 0.500000 0.500000 0.500000
O O2 0.332547 0.421506 0.948424
O O3 0.265539 0.283819 0.721274
O O4 0.228563 0.553717 0.899335
O O5 0.049846 0.730179 0.186572
O O6 0.943852 0.440164 0.331360
O O7 0.000000 0.500000 0.000000
O O8 0.479140 0.324358 0.231152
O O9 0.500000 0.500000 0.000000
O O10 0.689797 0.353154 0.769411
O O11 0.709435 0.226945 0.441989
O O12 0.850014 0.159982 0.464809
O O13 0.384988 0.065246 0.438201
O O14 0.226384 0.143763 0.466281
O O15 0.500000 0.000000 0.500000
O O16 0.231865 0.975853 0.878872
O O17 0.788810 0.054735 0.795672
O O18 0.024162 0.025624 0.319223
#
# Coordination Sequence:
#
# PCOD8028195 Si02
#       8
#     2   2   2   2   2   2   2   2
#     4  10  25  44  72 102 144 191 238 294 362 424
#     4  12  25  45  77 105 148 187 243 303 353 442
#     4  11  27  44  71 105 146 187 248 299 360 429
#     4  11  27  46  70 104 142 188 240 293 367 417
#     4  10  25  44  70  97 142 183 233 299 355 424
#     4  11  27  42  73 100 140 189 237 289 360 435
#     4  10  25  46  68 102 140 183 234 296 358 429
#     4  11  25  44  72 102 139 183 240 286 364 427
#
# _framework density 22.261710000000001
#
# number of rings (size 3 to 8) (size 9 to 14) (size 15 to 20)
#    0.000    1.250    1.250    1.500   15.750    4.000 
#    0.000    0.000    0.000    0.000    0.000    0.000 
#    0.000    0.000    0.000    0.000    0.000    0.000 
#
# Total GULP energy -198254.932226 kJ/mol
# GULP energy per Si atom -12390.933264 kJ/mol
# Density = 2.221104 g / cm^3
# Si number density = 22.261710 Si / 1000 Ang^3
#
#
#
# Elastic Constant Matrix: (Units=GPa)
#
#
# Indices 1 2 3 4 5 6 
#
# 1 144.8957 41.5133 54.3241 10.7345 18.9709 12.8814
# 2 41.5133 97.7881 45.8140 7.0116 6.0466 3.2356
# 3 54.3241 45.8140 128.9290 8.6867 16.6345 2.8352
# 4 10.7345 7.0116 8.6867 38.0247 5.3497 7.9922
# 5 18.9709 6.0466 16.6345 5.3497 44.1227 14.1379
# 6 12.8814 3.2356 2.8352 7.9922 14.1379 36.8925
#
#
#
# Elastic Compliance Matrix: (Units=1/GPa)
#
#
# Indices 1 2 3 4 5 6 
#
# 1 0.009038 -0.002368 -0.002626 -0.000864 -0.001877 -0.001840
# 2 -0.002368 0.012963 -0.003640 -0.000975 0.000768 -0.000114
# 3 -0.002626 -0.003640 0.010541 -0.000962 -0.002774 0.001697
# 4 -0.000864 -0.000975 -0.000962 0.028179 -0.000844 -0.005320
# 5 -0.001877 0.000768 -0.002774 -0.000844 0.027586 -0.009587
# 6 -0.001840 -0.000114 0.001697 -0.005320 -0.009587 0.032454
#
#
# Mechanical properties :
#
#
# Convention : Reuss Voigt Hill
#
# Bulk Modulus (GPa) = 65.46410 72.76841 69.11626
# Shear Modulus (GPa) = 34.93613 39.13874 37.03744
#
# Velocity S-wave (km/s) = 3.96578 4.19754 4.08331
# Velocity P-wave (km/s) = 7.10214 7.50008 7.30382
#
# Compressibility (1/GPa) = 0.01527555
#
# Stress axis : x y z
#
# Youngs Moduli (GPa) = 110.64823 77.14533 94.86554
#
# Poissons Ratio (x) = 0.18265 0.24910
# Poissons Ratio (y) = 0.26197 0.34527
# Poissons Ratio (z) = 0.29054 0.28077
#
# Static dielectric constant tensor:
#      x y z
#    x 5.609590 1.207520 0.329900 
#    y 1.207520 4.973770 -0.015380 
#    z 0.329900 -0.015380 4.329120 
# 
# 
# High freq. dielectric constant tensor:
#      x y z
#    x 1.895180 0.012510 0.016070 
#    y 0.012510 1.873500 0.011990 
#    z 0.016070 0.011990 1.879910 
# 
# From -- ./inp_files/205030.got.cif
#   From: 2010.06.25/outbox.cif.g09.slc.cpg/sg2_103_cif.got.tgz:205030.got - 2010.06.27 13:26:56.
