data_PCOD8028504
_publ_section_title
;
Structure prediction by ZEFSAII (Michael W. Deem and Ramdas Pophale) SiO2 
 PCOD8028504
Probable space group: P -1
;
_chemical_formula_sum "Si O2"
_cell_formula_units_Z 14
_cell_length_a 16.645290
_cell_length_b 6.786878
_cell_length_c 7.672128
_cell_angle_alpha 89.864031
_cell_angle_beta 46.406555
_cell_angle_gamma 99.106371
_cell_volume 612.227866
_symmetry_space_group_name_H-M "P -1"
_symmetry_group_IT_number 2
_symmetry_cell_setting 'triclinic'
loop_
_space_group_symop_operation_xyz
x,y,z
-x,-y,-z
loop_
_atom_site_type_symbol
_atom_site_label
_atom_site_fract_x
_atom_site_fract_y
_atom_site_fract_z
Si Si1 0.098290 0.092857 0.562041
Si Si2 0.568174 0.225362 0.906997
Si Si3 0.940087 0.366017 0.934935
Si Si4 0.532559 0.536011 0.201261
Si Si5 0.743111 0.083692 0.427125
Si Si6 0.104037 0.275325 0.192230
Si Si7 0.666800 0.727583 0.314837
O O1 0.150440 0.218714 0.310717
O O2 0.023227 0.223587 0.767674
O O3 0.199052 0.057494 0.534766
O O4 0.018265 0.874203 0.646962
O O5 0.480676 0.338838 0.948245
O O6 0.686582 0.230411 0.631509
O O7 0.587792 0.341791 0.066180
O O8 0.500000 0.000000 0.000000
O O9 0.918077 0.498429 0.799114
O O10 0.823024 0.228034 0.173661
O O11 0.000000 0.500000 0.000000
O O12 0.614001 0.699528 0.201035
O O13 0.406076 0.464827 0.472827
O O14 0.653517 0.929909 0.437952
O O15 0.197600 0.260172 0.903777
#
# Coordination Sequence:
#
# PCOD8028504 Si02
#       7
#     2   2   2   2   2   2   2
#     4  11  25  44  67 101 142 176 230 286 337 412
#     4  11  24  46  71 100 136 178 229 285 346 407
#     4  12  23  43  69  98 135 184 230 277 337 410
#     4  10  25  47  69 101 136 177 231 283 340 417
#     4  12  24  44  75 102 138 185 228 286 349 404
#     4  11  24  44  67 101 140 181 227 282 343 408
#     4  11  23  45  71  99 138 179 225 287 341 403
#
# _framework density 22.867305000000002
#
# number of rings (size 3 to 8) (size 9 to 14) (size 15 to 20)
#    0.000    0.857    4.286    2.571    2.000    1.714 
#    7.714    0.000    0.000    0.000    0.000    0.000 
#    0.000    0.000    0.000    0.000    0.000    0.000 
#
# Total GULP energy -173475.707196 kJ/mol
# GULP energy per Si atom -12391.121943 kJ/mol
# Density = 2.281526 g / cm^3
# Si number density = 22.867305 Si / 1000 Ang^3
#
#
#
# Elastic Constant Matrix: (Units=GPa)
#
#
# Indices 1 2 3 4 5 6 
#
# 1 97.8257 62.6226 33.8022 -3.7826 13.3724 6.3809
# 2 62.6226 116.3776 39.8503 -5.4498 6.9829 -13.2616
# 3 33.8022 39.8503 107.5326 19.0548 3.7865 0.7638
# 4 -3.7826 -5.4498 19.0548 31.7254 -2.5770 -3.0284
# 5 13.3724 6.9829 3.7865 -2.5770 28.3702 -1.8411
# 6 6.3809 -13.2616 0.7638 -3.0284 -1.8411 38.0221
#
#
#
# Elastic Compliance Matrix: (Units=1/GPa)
#
#
# Indices 1 2 3 4 5 6 
#
# 1 0.018360 -0.009499 -0.002096 0.000665 -0.006405 -0.006609
# 2 -0.009499 0.016054 -0.003958 0.004906 0.002004 0.007761
# 3 -0.002096 -0.003958 0.013066 -0.009033 -0.000735 -0.002046
# 4 0.000665 0.004906 -0.009033 0.038634 0.003520 0.005029
# 5 -0.006405 0.002004 -0.000735 0.003520 0.038447 0.003931
# 6 -0.006609 0.007761 -0.002046 0.005029 0.003931 0.030748
#
#
# Mechanical properties :
#
#
# Convention : Reuss Voigt Hill
#
# Bulk Modulus (GPa) = 61.08011 66.03180 63.55596
# Shear Modulus (GPa) = 26.05878 31.98759 29.02318
#
# Velocity S-wave (km/s) = 3.37941 3.74416 3.56645
# Velocity P-wave (km/s) = 6.48042 6.90148 6.69426
#
# Compressibility (1/GPa) = 0.01637194
#
# Stress axis : x y z
#
# Youngs Moduli (GPa) = 54.46664 62.29164 76.53213
#
# Poissons Ratio (x) = 0.59172 0.16044
# Poissons Ratio (y) = 0.51739 0.30293
# Poissons Ratio (z) = 0.11418 0.24657
#
# Static dielectric constant tensor:
#      x y z
#    x 4.025460 0.118330 0.230450 
#    y 0.118330 4.740850 0.298820 
#    z 0.230450 0.298820 4.782720 
# 
# 
# High freq. dielectric constant tensor:
#      x y z
#    x 1.885240 0.009660 0.008510 
#    y 0.009660 1.911030 -0.004060 
#    z 0.008510 -0.004060 1.918270 
# 
# From -- ./inp_files/52331.got.cif
#   From: 2010.06.25/outbox.cif.g09.slc.cpg/sg2_27_cif.got.tgz:52331.got - 2010.06.27 13:26:56.
