data_PCOD8028826
_publ_section_title
;
Structure prediction by ZEFSAII (Michael W. Deem and Ramdas Pophale) SiO2 
 PCOD8028826
Probable space group: P -1
;
_chemical_formula_sum "Si O2"
_cell_formula_units_Z 16
_cell_length_a 9.039725
_cell_length_b 24.788328
_cell_length_c 15.994657
_cell_angle_alpha 161.379856
_cell_angle_beta 45.463716
_cell_angle_gamma 133.412439
_cell_volume 811.683346
_symmetry_space_group_name_H-M "P -1"
_symmetry_group_IT_number 2
_symmetry_cell_setting 'triclinic'
loop_
_space_group_symop_operation_xyz
x,y,z
-x,-y,-z
loop_
_atom_site_type_symbol
_atom_site_label
_atom_site_fract_x
_atom_site_fract_y
_atom_site_fract_z
Si Si1 0.087920 0.762602 0.148862
Si Si2 0.596998 0.552910 0.910039
Si Si3 0.318987 0.097110 0.548631
Si Si4 0.213214 0.609772 0.559378
Si Si5 0.816775 0.471667 0.873874
Si Si6 0.766086 0.107369 0.321301
Si Si7 0.718852 0.456902 0.385350
Si Si8 0.994728 0.193076 0.189661
O O1 0.874982 0.849772 0.349318
O O2 0.256648 0.908074 0.334444
O O3 0.183734 0.691150 0.921646
O O4 0.025564 0.601091 0.997888
O O5 0.645778 0.478919 0.692865
O O6 0.747981 0.495360 0.838726
O O7 0.623009 0.759059 0.193001
O O8 0.361506 0.484218 0.926708
O O9 0.515313 0.093134 0.402685
O O10 0.331502 0.625618 0.624165
O O11 0.000000 0.500000 0.500000
O O12 0.150357 0.786089 0.803774
O O13 0.864767 0.277065 0.579752
O O14 0.837603 0.116544 0.210736
O O15 0.843939 0.943838 0.096115
O O16 0.500000 0.500000 0.500000
O O17 0.880132 0.626607 0.570282
#
# Coordination Sequence:
#
# PCOD8028826 Si02
#       8
#     2   2   2   2   2   2   2   2
#     4  10  18  32  51  84 110 150 191 222 294 332
#     4   9  16  29  52  85 104 143 192 229 283 311
#     4   9  18  29  52  81 115 145 188 239 267 341
#     4  10  19  34  56  86 117 143 192 243 274 336
#     4   9  15  28  52  81 110 142 188 234 264 351
#     4  10  17  30  52  85 114 142 193 230 270 333
#     4  11  22  37  58  83 117 152 186 236 295 344
#     4  10  19  31  54  85 112 150 191 233 274 335
#
# _framework density 19.712119999999999
#
# number of rings (size 3 to 8) (size 9 to 14) (size 15 to 20)
#    0.000    2.250    2.500    3.750    0.000    0.000 
#    0.000    0.000    0.000   39.000   19.500    0.000 
#    0.000    0.000    0.000    0.000    0.000    0.250 
#
# Total GULP energy -198216.374060 kJ/mol
# GULP energy per Si atom -12388.523379 kJ/mol
# Density = 1.966725 g / cm^3
# Si number density = 19.712120 Si / 1000 Ang^3
#
#
#
# Elastic Constant Matrix: (Units=GPa)
#
#
# Indices 1 2 3 4 5 6 
#
# 1 78.6718 40.7692 37.2242 -5.8269 -15.9636 -7.9351
# 2 40.7692 111.3213 59.3041 -3.2423 -2.4529 8.8727
# 3 37.2242 59.3041 127.6360 4.1546 -19.4997 2.7711
# 4 -5.8269 -3.2423 4.1546 44.4250 7.0008 2.1611
# 5 -15.9636 -2.4529 -19.4997 7.0008 23.3867 2.7988
# 6 -7.9351 8.8727 2.7711 2.1611 2.7988 26.1984
#
#
#
# Elastic Compliance Matrix: (Units=1/GPa)
#
#
# Indices 1 2 3 4 5 6 
#
# 1 0.019834 -0.007092 -0.000954 0.000067 0.011103 0.007319
# 2 -0.007092 0.015281 -0.006275 0.002397 -0.008476 -0.005952
# 3 -0.000954 -0.006275 0.012729 -0.003390 0.010359 -0.000337
# 4 0.000067 0.002397 -0.003390 0.024613 -0.009726 -0.001424
# 5 0.011103 -0.008476 0.010359 -0.009726 0.061068 -0.000584
# 6 0.007319 -0.005952 -0.000337 -0.001424 -0.000584 0.042618
#
#
# Mechanical properties :
#
#
# Convention : Reuss Voigt Hill
#
# Bulk Modulus (GPa) = 52.08131 65.80267 58.94199
# Shear Modulus (GPa) = 23.67577 30.82411 27.24994
#
# Velocity S-wave (km/s) = 3.46942 3.95867 3.72209
# Velocity P-wave (km/s) = 6.52131 7.37218 6.95976
#
# Compressibility (1/GPa) = 0.01920075
#
# Stress axis : x y z
#
# Youngs Moduli (GPa) = 50.41870 65.44096 78.56080
#
# Poissons Ratio (x) = 0.46413 0.07493
# Poissons Ratio (y) = 0.35759 0.49300
# Poissons Ratio (z) = 0.04809 0.41067
#
# Static dielectric constant tensor:
#      x y z
#    x 3.222620 0.200860 -0.315500 
#    y 0.200860 3.899320 0.423490 
#    z -0.315500 0.423490 3.971640 
# 
# 
# High freq. dielectric constant tensor:
#      x y z
#    x 1.707900 0.023020 -0.027750 
#    y 0.023020 1.779630 0.001470 
#    z -0.027750 0.001470 1.777570 
# 
# From -- ./inp_files/508752.got.cif
#   From: 2010.06.25/outbox.cif.g09.slc.cpg/sg2_255_cif.got.tgz:508752.got - 2010.06.27 13:26:56.
