data_PCOD8028120
_publ_section_title
;
Structure prediction by ZEFSAII (Michael W. Deem and Ramdas Pophale) SiO2 
 PCOD8028120
Probable space group: P -1
;
_chemical_formula_sum "Si O2"
_cell_formula_units_Z 14
_cell_length_a 13.170792
_cell_length_b 9.246322
_cell_length_c 8.682583
_cell_angle_alpha 70.366627
_cell_angle_beta 52.995736
_cell_angle_gamma 106.976446
_cell_volume 599.548494
_symmetry_space_group_name_H-M "P -1"
_symmetry_group_IT_number 2
_symmetry_cell_setting 'triclinic'
loop_
_space_group_symop_operation_xyz
x,y,z
-x,-y,-z
loop_
_atom_site_type_symbol
_atom_site_label
_atom_site_fract_x
_atom_site_fract_y
_atom_site_fract_z
Si Si1 0.678245 0.584657 0.151365
Si Si2 0.137061 0.519470 0.773866
Si Si3 0.640205 0.837404 0.547710
Si Si4 0.272792 0.049269 0.893408
Si Si5 0.040088 0.369028 0.588209
Si Si6 0.549381 0.045084 0.759862
Si Si7 0.296684 0.355247 0.226608
O O1 0.780257 0.541196 0.170232
O O2 0.498752 0.374603 0.339557
O O3 0.663495 0.727577 0.212361
O O4 0.771346 0.708085 0.862994
O O5 0.046386 0.373230 0.764205
O O6 0.264005 0.742744 0.504732
O O7 0.000000 0.500000 0.000000
O O8 0.758395 0.998515 0.246130
O O9 0.765841 0.835173 0.541105
O O10 0.543104 0.878439 0.734512
O O11 0.426046 0.059751 0.781593
O O12 0.114548 0.873990 0.207940
O O13 0.218860 0.451240 0.330361
O O14 0.000000 0.500000 0.500000
O O15 0.500000 0.000000 0.000000
O O16 0.500000 0.500000 0.000000
#
# Coordination Sequence:
#
# PCOD8028120 Si02
#       7
#     2   2   2   2   2   2   2
#     4  11  25  45  74 105 150 190 246 302 375 436
#     4  12  27  45  74 109 152 195 254 311 375 442
#     4  11  24  45  75 106 151 190 248 305 373 442
#     4  12  26  45  75 107 146 195 249 302 377 447
#     4  12  28  47  74 108 154 194 248 312 373 438
#     4  12  27  44  75 109 146 200 255 303 375 451
#     4  10  25  43  74 103 147 196 242 297 376 437
#
# _framework density 23.350905999999998
#
# number of rings (size 3 to 8) (size 9 to 14) (size 15 to 20)
#    0.000    0.571    1.429    5.143   14.000    4.000 
#    0.000    0.000    0.000    0.000    0.000    0.000 
#    0.000    0.000    0.000    0.000    0.000    0.000 
#
# Total GULP energy -173508.623896 kJ/mol
# GULP energy per Si atom -12393.473135 kJ/mol
# Density = 2.329776 g / cm^3
# Si number density = 23.350906 Si / 1000 Ang^3
#
#
#
# Elastic Constant Matrix: (Units=GPa)
#
#
# Indices 1 2 3 4 5 6 
#
# 1 161.5293 52.5945 59.4829 22.7377 31.1876 -25.0209
# 2 52.5945 132.7906 59.0686 25.3594 2.5120 -14.9150
# 3 59.4829 59.0686 138.0394 19.9769 15.6414 -11.3169
# 4 22.7377 25.3594 19.9769 52.8254 5.2496 -1.2905
# 5 31.1876 2.5120 15.6414 5.2496 49.4723 10.3966
# 6 -25.0209 -14.9150 -11.3169 -1.2905 10.3966 40.8461
#
#
#
# Elastic Compliance Matrix: (Units=1/GPa)
#
#
# Indices 1 2 3 4 5 6 
#
# 1 0.010167 -0.001917 -0.001961 -0.001865 -0.006898 0.006681
# 2 -0.001917 0.010448 -0.003306 -0.003091 0.001806 0.001167
# 3 -0.001961 -0.003306 0.009931 -0.001129 -0.001775 0.000759
# 4 -0.001865 -0.003091 -0.001129 0.021621 -0.000216 -0.001846
# 5 -0.006898 0.001806 -0.001775 -0.000216 0.027372 -0.011032
# 6 0.006681 0.001167 0.000759 -0.001846 -0.011032 0.031961
#
#
# Mechanical properties :
#
#
# Convention : Reuss Voigt Hill
#
# Bulk Modulus (GPa) = 61.81953 86.07236 73.94594
# Shear Modulus (GPa) = 38.09212 46.04296 42.06754
#
# Velocity S-wave (km/s) = 4.04331 4.44530 4.24906
# Velocity P-wave (km/s) = 6.95193 7.95537 7.47052
#
# Compressibility (1/GPa) = 0.01617612
#
# Stress axis : x y z
#
# Youngs Moduli (GPa) = 98.36209 95.71245 100.69431
#
# Poissons Ratio (x) = 0.18349 0.19749
# Poissons Ratio (y) = 0.18857 0.33293
# Poissons Ratio (z) = 0.19291 0.31645
#
# Static dielectric constant tensor:
#      x y z
#    x 4.772060 -0.036750 0.590770 
#    y -0.036750 4.176690 0.056600 
#    z 0.590770 0.056600 4.564310 
# 
# 
# High freq. dielectric constant tensor:
#      x y z
#    x 1.940530 -0.007150 0.022020 
#    y -0.007150 1.920120 0.011390 
#    z 0.022020 0.011390 1.939080 
# 
# From -- ./inp_files/237436.got.cif
#   From: 2010.06.25/outbox.cif.g09.slc.cpg/sg2_119_cif.got.tgz:237436.got - 2010.06.27 13:26:56.
