data_PCOD8028627
_publ_section_title
;
Structure prediction by ZEFSAII (Michael W. Deem and Ramdas Pophale) SiO2 
 PCOD8028627
Probable space group: P -1
;
_chemical_formula_sum "Si O2"
_cell_formula_units_Z 16
_cell_length_a 18.310549
_cell_length_b 9.042454
_cell_length_c 6.940112
_cell_angle_alpha 126.655545
_cell_angle_beta 52.203188
_cell_angle_gamma 118.056430
_cell_volume 718.474111
_symmetry_space_group_name_H-M "P -1"
_symmetry_group_IT_number 2
_symmetry_cell_setting 'triclinic'
loop_
_space_group_symop_operation_xyz
x,y,z
-x,-y,-z
loop_
_atom_site_type_symbol
_atom_site_label
_atom_site_fract_x
_atom_site_fract_y
_atom_site_fract_z
Si Si1 0.478798 0.201575 0.816630
Si Si2 0.283559 0.357993 0.795190
Si Si3 0.776233 0.359100 0.607316
Si Si4 0.441356 0.510099 0.408293
Si Si5 0.361916 0.009782 0.559603
Si Si6 0.050269 0.756083 0.602513
Si Si7 0.085729 0.185139 0.817064
Si Si8 0.068837 0.415889 0.685701
O O1 0.532201 0.303460 0.618410
O O2 0.541365 0.063482 0.710052
O O3 0.380350 0.081428 0.807035
O O4 0.456441 0.339693 0.119706
O O5 0.332660 0.478148 0.628569
O O6 0.177287 0.270710 0.855434
O O7 0.340967 0.187959 0.610788
O O8 0.286830 0.499613 0.084265
O O9 0.719698 0.165788 0.469092
O O10 0.851136 0.317185 0.613208
O O11 0.831941 0.451885 0.403983
O O12 0.500000 0.500000 0.500000
O O13 0.978115 0.632634 0.482132
O O14 0.070379 0.965265 0.661417
O O15 0.003297 0.744124 0.881786
O O16 0.093567 0.237672 0.620891
O O17 0.000000 0.500000 0.000000
#
# Coordination Sequence:
#
# PCOD8028627 Si02
#       8
#     2   2   2   2   2   2   2   2
#     4  10  25  49  74 102 145 181 231 287 351 427
#     4  12  25  45  71 105 141 183 236 289 351 411
#     4  12  25  46  72 100 147 185 232 294 346 410
#     4  11  23  47  78 103 138 184 230 287 358 416
#     4  11  25  48  69 107 140 185 229 291 349 414
#     4  11  23  48  69  96 144 188 231 286 352 412
#     4  11  24  44  70 102 137 187 234 289 346 414
#     4  12  24  42  69  98 136 189 238 279 348 413
#
# _framework density 22.269418999999999
#
# number of rings (size 3 to 8) (size 9 to 14) (size 15 to 20)
#    0.000    0.750    5.000    2.250    3.500    0.500 
#    9.000    0.000    0.000    0.000    0.000    0.000 
#    0.000    0.000    0.000    0.000    0.000    0.000 
#
# Total GULP energy -198303.120905 kJ/mol
# GULP energy per Si atom -12393.945057 kJ/mol
# Density = 2.221873 g / cm^3
# Si number density = 22.269419 Si / 1000 Ang^3
#
#
#
# Elastic Constant Matrix: (Units=GPa)
#
#
# Indices 1 2 3 4 5 6 
#
# 1 100.5023 41.4804 19.6548 2.7452 3.6595 4.5460
# 2 41.4804 114.5540 65.9748 4.7341 3.8269 14.7476
# 3 19.6548 65.9748 107.3303 -0.6908 -5.1307 -0.7983
# 4 2.7452 4.7341 -0.6908 38.7723 1.1568 3.2241
# 5 3.6595 3.8269 -5.1307 1.1568 29.8186 3.0386
# 6 4.5460 14.7476 -0.7983 3.2241 3.0386 38.9217
#
#
#
# Elastic Compliance Matrix: (Units=1/GPa)
#
#
# Indices 1 2 3 4 5 6 
#
# 1 0.011761 -0.004684 0.000691 -0.000267 -0.000764 0.000497
# 2 -0.004684 0.016898 -0.009706 -0.001349 -0.002627 -0.005738
# 3 0.000691 -0.009706 0.015352 0.001012 0.003400 0.003563
# 4 -0.000267 -0.001349 0.001012 0.026138 -0.000474 -0.001565
# 5 -0.000764 -0.002627 0.003400 -0.000474 0.034725 -0.001517
# 6 0.000497 -0.005738 0.003563 -0.001565 -0.001517 0.028130
#
#
# Mechanical properties :
#
#
# Convention : Reuss Voigt Hill
#
# Bulk Modulus (GPa) = 60.19511 64.06738 62.13125
# Shear Modulus (GPa) = 30.13161 34.52098 32.32630
#
# Velocity S-wave (km/s) = 3.68237 3.94147 3.81412
# Velocity P-wave (km/s) = 6.72078 7.03884 6.88165
#
# Compressibility (1/GPa) = 0.01661265
#
# Stress axis : x y z
#
# Youngs Moduli (GPa) = 85.02868 59.17945 65.13712
#
# Poissons Ratio (x) = 0.27720 -0.04501
# Poissons Ratio (y) = 0.39828 0.63222
# Poissons Ratio (z) = -0.05876 0.57440
#
# Static dielectric constant tensor:
#      x y z
#    x 4.181250 -0.044830 -0.024830 
#    y -0.044830 4.510530 -0.009900 
#    z -0.024830 -0.009900 3.684830 
# 
# 
# High freq. dielectric constant tensor:
#      x y z
#    x 1.885100 0.002090 0.000720 
#    y 0.002090 1.897040 0.016540 
#    z 0.000720 0.016540 1.865910 
# 
# From -- ./inp_files/107502.got.cif
#   From: 2010.06.25/outbox.cif.g09.slc.cpg/sg2_54_cif.got.tgz:107502.got - 2010.06.27 13:26:56.
