data_PCOD8028348
_publ_section_title
;
Structure prediction by ZEFSAII (Michael W. Deem and Ramdas Pophale) SiO2 
 PCOD8028348
Probable space group: P -1
;
_chemical_formula_sum "Si O2"
_cell_formula_units_Z 16
_cell_length_a 8.907452
_cell_length_b 5.448524
_cell_length_c 16.965722
_cell_angle_alpha 110.183546
_cell_angle_beta 117.249130
_cell_angle_gamma 87.480065
_cell_volume 680.617654
_symmetry_space_group_name_H-M "P -1"
_symmetry_group_IT_number 2
_symmetry_cell_setting 'triclinic'
loop_
_space_group_symop_operation_xyz
x,y,z
-x,-y,-z
loop_
_atom_site_type_symbol
_atom_site_label
_atom_site_fract_x
_atom_site_fract_y
_atom_site_fract_z
Si Si1 0.281339 0.542224 0.759619
Si Si2 0.390392 0.223447 0.466730
Si Si3 0.128486 0.354825 0.856505
Si Si4 0.188698 0.030593 0.242104
Si Si5 0.090981 0.264187 0.088209
Si Si6 0.557159 0.912904 0.087703
Si Si7 0.891593 0.714953 0.464417
Si Si8 0.630320 0.355803 0.858039
O O1 0.142528 0.495158 0.790554
O O2 0.193124 0.432860 0.647654
O O3 0.437194 0.379628 0.792652
O O4 0.349863 0.853503 0.808701
O O5 0.500000 0.500000 0.500000
O O6 0.291689 0.150683 0.354432
O O7 0.255115 0.249377 0.505177
O O8 0.500000 0.000000 0.500000
O O9 0.316242 0.302290 0.922265
O O10 0.051126 0.538298 0.922315
O O11 0.001293 0.082768 0.788148
O O12 0.170805 0.240755 0.191813
O O13 0.290035 0.803942 0.208606
O O14 0.246726 0.365505 0.077612
O O15 0.000000 0.000000 0.000000
O O16 0.382938 0.788661 0.076289
O O17 0.500000 0.000000 0.000000
O O18 0.000000 0.500000 0.500000
O O19 0.000000 0.000000 0.500000
#
# Coordination Sequence:
#
# PCOD8028348 Si02
#       8
#     2   2   2   2   2   2   2   2
#     4  11  25  44  75 102 148 193 247 310 379 454
#     4  12  29  49  79 116 158 206 268 328 401 472
#     4  10  25  45  73 102 149 187 247 306 375 445
#     4  11  25  44  75 102 148 193 247 310 379 454
#     4  11  26  46  73 109 145 197 249 307 380 457
#     4  11  26  46  73 109 145 197 249 307 380 457
#     4  12  29  49  79 116 158 206 268 328 401 472
#     4  10  25  45  73 102 149 187 247 306 375 445
#
# _framework density 23.508058999999999
#
# number of rings (size 3 to 8) (size 9 to 14) (size 15 to 20)
#    0.000    1.000    0.000    3.750   14.000   10.000 
#    0.000    3.750    0.000    0.000    0.000    0.000 
#    0.000    0.000    0.000    0.000    0.000    0.000 
#
# Total GULP energy -198398.597010 kJ/mol
# GULP energy per Si atom -12399.912313 kJ/mol
# Density = 2.345455 g / cm^3
# Si number density = 23.508059 Si / 1000 Ang^3
#
#
#
# Elastic Constant Matrix: (Units=GPa)
#
#
# Indices 1 2 3 4 5 6 
#
# 1 176.6171 65.7624 56.6034 2.1806 -0.9654 37.2985
# 2 65.7624 149.0328 58.9385 -0.3323 4.9644 27.3516
# 3 56.6034 58.9385 166.7927 -1.2150 0.5764 21.3261
# 4 2.1806 -0.3323 -1.2150 39.8577 3.3069 4.8956
# 5 -0.9654 4.9644 0.5764 3.3069 27.9165 3.3618
# 6 37.2985 27.3516 21.3261 4.8956 3.3618 56.6654
#
#
#
# Elastic Compliance Matrix: (Units=1/GPa)
#
#
# Indices 1 2 3 4 5 6 
#
# 1 0.007687 -0.002242 -0.001372 -0.000143 0.001133 -0.003516
# 2 -0.002242 0.008963 -0.002142 0.000498 -0.001445 -0.002002
# 3 -0.001372 -0.002142 0.007331 0.000367 0.000243 -0.000868
# 4 -0.000143 0.000498 0.000367 0.025636 -0.002857 -0.002330
# 5 0.001133 -0.001445 0.000243 -0.002857 0.036700 -0.002070
# 6 -0.003516 -0.002002 -0.000868 -0.002330 -0.002070 0.021579
#
#
# Mechanical properties :
#
#
# Convention : Reuss Voigt Hill
#
# Bulk Modulus (GPa) = 80.19782 95.00571 87.60176
# Shear Modulus (GPa) = 40.46524 45.63048 43.04786
#
# Velocity S-wave (km/s) = 4.15340 4.41052 4.28389
# Velocity P-wave (km/s) = 7.56241 8.15100 7.86221
#
# Compressibility (1/GPa) = 0.01246917
#
# Stress axis : x y z
#
# Youngs Moduli (GPa) = 130.09022 111.57062 136.41369
#
# Poissons Ratio (x) = 0.25017 0.18713
# Poissons Ratio (y) = 0.29170 0.29216
# Poissons Ratio (z) = 0.17845 0.23895
#
# Static dielectric constant tensor:
#      x y z
#    x 6.111740 10.105580 1.601570 
#    y 10.105580 79.894520 12.451690 
#    z 1.601570 12.451690 6.276150 
# 
# 
# High freq. dielectric constant tensor:
#      x y z
#    x 1.960250 0.003390 -0.000780 
#    y 0.003390 1.948700 -0.000150 
#    z -0.000780 -0.000150 1.929320 
# 
# From -- ./inp_files/553883.got.cif
#   From: 2010.06.25/outbox.cif.g09.slc.cpg/sg2_277_cif.got.tgz:553883.got - 2010.06.27 13:26:56.
