data_PCOD8028983
_publ_section_title
;
Structure prediction by ZEFSAII (Michael W. Deem and Ramdas Pophale) SiO2 
 PCOD8028983
Probable space group: P -1
;
_chemical_formula_sum "Si O2"
_cell_formula_units_Z 12
_cell_length_a 9.764099
_cell_length_b 16.213446
_cell_length_c 20.380103
_cell_angle_alpha 17.548965
_cell_angle_beta 143.838198
_cell_angle_gamma 145.480289
_cell_volume 546.793092
_symmetry_space_group_name_H-M "P -1"
_symmetry_group_IT_number 2
_symmetry_cell_setting 'triclinic'
loop_
_space_group_symop_operation_xyz
x,y,z
-x,-y,-z
loop_
_atom_site_type_symbol
_atom_site_label
_atom_site_fract_x
_atom_site_fract_y
_atom_site_fract_z
Si Si1 0.738565 0.030730 0.367122
Si Si2 0.567494 0.031708 0.825879
Si Si3 0.339639 0.095426 0.812656
Si Si4 0.519047 0.372035 0.313368
Si Si5 0.953639 0.499680 0.559823
Si Si6 0.099918 0.378507 0.065857
O O1 0.640706 0.938760 0.326442
O O2 0.551722 0.832437 0.495947
O O3 0.771602 0.370869 0.126945
O O4 0.000000 0.000000 0.500000
O O5 0.528540 0.209980 0.739136
O O6 0.831533 0.176756 0.784886
O O7 0.536845 0.703380 0.083939
O O8 0.237843 0.332118 0.625934
O O9 0.113338 0.842873 0.887984
O O10 0.500000 0.000000 0.000000
O O11 0.316363 0.249316 0.271330
O O12 0.790469 0.365890 0.404609
O O13 0.000000 0.500000 0.500000
O O14 0.000000 0.500000 0.000000
#
# Coordination Sequence:
#
# PCOD8028983 Si02
#       6
#     2   2   2   2   2   2
#     4  11  19  36  74  98 134 181 232 274 346 407
#     4  11  23  45  71 102 136 185 236 278 342 418
#     4  12  26  46  72 107 138 181 239 283 338 422
#     4  11  22  43  72  99 141 182 229 284 349 408
#     4  12  26  43  71 102 146 184 222 287 362 398
#     4  11  22  43  70 102 134 184 232 284 342 409
#
# _framework density 21.946145999999999
#
# number of rings (size 3 to 8) (size 9 to 14) (size 15 to 20)
#    0.000    0.667    6.667    2.000    2.333    0.667 
#    3.000    0.833    0.000    0.000    0.000    0.000 
#    0.000    0.000    0.000    0.000    0.000    0.000 
#
# Total GULP energy -148689.537916 kJ/mol
# GULP energy per Si atom -12390.794826 kJ/mol
# Density = 2.189620 g / cm^3
# Si number density = 21.946146 Si / 1000 Ang^3
#
#
#
# Elastic Constant Matrix: (Units=GPa)
#
#
# Indices 1 2 3 4 5 6 
#
# 1 108.1411 32.0603 44.8557 -4.8262 -22.2833 13.5416
# 2 32.0603 118.2763 24.2716 17.4009 -12.4473 12.9784
# 3 44.8557 24.2716 108.1241 8.4879 -23.5135 4.1444
# 4 -4.8262 17.4009 8.4879 47.6969 10.9599 2.6706
# 5 -22.2833 -12.4473 -23.5135 10.9599 41.6975 -0.7870
# 6 13.5416 12.9784 4.1444 2.6706 -0.7870 38.2207
#
#
#
# Elastic Compliance Matrix: (Units=1/GPa)
#
#
# Indices 1 2 3 4 5 6 
#
# 1 0.012834 -0.002256 -0.004185 0.002335 0.003146 -0.003425
# 2 -0.002256 0.010341 -0.000333 -0.004461 0.002823 -0.002306
# 3 -0.004185 -0.000333 0.012608 -0.003917 0.005815 0.000622
# 4 0.002335 -0.004461 -0.003917 0.025655 -0.009052 -0.000867
# 5 0.003146 0.002823 0.005815 -0.009052 0.032138 -0.001409
# 6 -0.003425 -0.002306 0.000622 -0.000867 -0.001409 0.028125
#
#
# Mechanical properties :
#
#
# Convention : Reuss Voigt Hill
#
# Bulk Modulus (GPa) = 44.97799 59.65741 52.31770
# Shear Modulus (GPa) = 35.04822 41.07995 38.06409
#
# Velocity S-wave (km/s) = 4.00060 4.33119 4.16917
# Velocity P-wave (km/s) = 6.47139 7.22875 6.86053
#
# Compressibility (1/GPa) = 0.02223310
#
# Stress axis : x y z
#
# Youngs Moduli (GPa) = 77.92022 96.70096 79.31576
#
# Poissons Ratio (x) = 0.21820 0.33197
# Poissons Ratio (y) = 0.17583 0.02640
# Poissons Ratio (z) = 0.32613 0.03219
#
# Static dielectric constant tensor:
#      x y z
#    x 4.192770 0.443180 -0.869710 
#    y 0.443180 4.418700 -0.050770 
#    z -0.869710 -0.050770 5.861370 
# 
# 
# High freq. dielectric constant tensor:
#      x y z
#    x 1.841700 0.029660 -0.023150 
#    y 0.029660 1.878920 0.015200 
#    z -0.023150 0.015200 1.871590 
# 
# From -- ./inp_files/331076.got.cif
#   From: 2010.06.25/outbox.cif.g09.slc.cpg/sg2_166_cif.got.tgz:331076.got - 2010.06.27 13:26:56.
