data_PCOD8028973
_publ_section_title
;
Structure prediction by ZEFSAII (Michael W. Deem and Ramdas Pophale) SiO2 
 PCOD8028973
Probable space group: P -1
;
_chemical_formula_sum "Si O2"
_cell_formula_units_Z 16
_cell_length_a 12.976879
_cell_length_b 8.625004
_cell_length_c 17.792388
_cell_angle_alpha 50.243837
_cell_angle_beta 33.868528
_cell_angle_gamma 50.864641
_cell_volume 829.546366
_symmetry_space_group_name_H-M "P -1"
_symmetry_group_IT_number 2
_symmetry_cell_setting 'triclinic'
loop_
_space_group_symop_operation_xyz
x,y,z
-x,-y,-z
loop_
_atom_site_type_symbol
_atom_site_label
_atom_site_fract_x
_atom_site_fract_y
_atom_site_fract_z
Si Si1 0.497448 0.146274 0.327693
Si Si2 0.186018 0.532377 0.164779
Si Si3 0.538132 0.486521 0.865665
Si Si4 0.577970 0.429412 0.694861
Si Si5 0.110604 0.150869 0.847956
Si Si6 0.932383 0.231935 0.444268
Si Si7 0.678566 0.210753 0.468346
Si Si8 0.331207 0.400093 0.723783
O O1 0.477712 0.269123 0.220980
O O2 0.472532 0.318142 0.355478
O O3 0.700720 0.986619 0.261853
O O4 0.327803 0.024275 0.477163
O O5 0.292938 0.602534 0.150259
O O6 0.013564 0.717019 0.184071
O O7 0.109484 0.336543 0.298602
O O8 0.337764 0.463026 0.027616
O O9 0.578516 0.352777 0.805045
O O10 0.783354 0.354251 0.556963
O O11 0.419262 0.342260 0.771417
O O12 0.151625 0.303293 0.843180
O O13 0.000000 0.000000 0.000000
O O14 0.848957 0.226253 0.414372
O O15 0.000000 0.000000 0.500000
O O16 0.478923 0.304312 0.599638
O O17 0.710769 0.349422 0.334524
#
# Coordination Sequence:
#
# PCOD8028973 Si02
#       8
#     2   2   2   2   2   2   2   2
#     4   9  19  36  61  87 122 161 201 245 313 361
#     4  11  21  39  65  87 123 162 210 249 294 376
#     4   9  21  41  59  84 123 168 198 247 308 361
#     4   9  21  41  59  90 124 161 197 259 311 357
#     4  11  19  36  63  94 116 160 211 248 296 367
#     4  11  22  38  63  89 119 163 208 255 302 360
#     4   9  17  33  55  88 115 158 200 240 304 364
#     4   9  18  33  58  83 122 154 196 250 302 358
#
# _framework density 19.287649999999999
#
# number of rings (size 3 to 8) (size 9 to 14) (size 15 to 20)
#    0.750    1.500    2.500    0.750    1.750    1.000 
#    0.000    3.125    0.000    0.000    0.000    0.000 
#    0.000    0.000    0.000    0.000    0.000    0.000 
#
# Total GULP energy -198257.131557 kJ/mol
# GULP energy per Si atom -12391.070722 kJ/mol
# Density = 1.924375 g / cm^3
# Si number density = 19.287650 Si / 1000 Ang^3
#
#
#
# Elastic Constant Matrix: (Units=GPa)
#
#
# Indices 1 2 3 4 5 6 
#
# 1 119.4824 42.1056 53.0055 2.8107 -3.7074 0.8832
# 2 42.1056 93.3722 39.7099 -3.8502 -3.8594 1.3756
# 3 53.0055 39.7099 102.0753 -12.6767 -6.3527 4.8687
# 4 2.8107 -3.8502 -12.6767 18.9820 -7.8663 -1.0927
# 5 -3.7074 -3.8594 -6.3527 -7.8663 20.7498 -3.5473
# 6 0.8832 1.3756 4.8687 -1.0927 -3.5473 27.2384
#
#
#
# Elastic Compliance Matrix: (Units=1/GPa)
#
#
# Indices 1 2 3 4 5 6 
#
# 1 0.012497 -0.003392 -0.006417 -0.008254 -0.003470 0.000130
# 2 -0.003392 0.013775 -0.003279 0.001825 0.001694 0.000294
# 3 -0.006417 -0.003279 0.016908 0.015286 0.009069 -0.000854
# 4 -0.008254 0.001825 0.015286 0.079019 0.034371 0.005089
# 5 -0.003470 0.001694 0.009069 0.034371 0.065108 0.008264
# 6 0.000130 0.000294 -0.000854 0.005089 0.008264 0.038127
#
#
# Mechanical properties :
#
#
# Convention : Reuss Voigt Hill
#
# Bulk Modulus (GPa) = 58.81197 64.95243 61.88220
# Shear Modulus (GPa) = 19.43418 25.40131 22.41774
#
# Velocity S-wave (km/s) = 3.17771 3.63295 3.41293
# Velocity P-wave (km/s) = 6.63491 7.16565 6.90538
#
# Compressibility (1/GPa) = 0.01700334
#
# Stress axis : x y z
#
# Youngs Moduli (GPa) = 80.01803 72.59481 59.14286
#
# Poissons Ratio (x) = 0.24625 0.37953
# Poissons Ratio (y) = 0.27143 0.19395
# Poissons Ratio (z) = 0.51349 0.23806
#
# Static dielectric constant tensor:
#      x y z
#    x 3.548840 -0.057340 -0.124380 
#    y -0.057340 3.450400 -0.192520 
#    z -0.124380 -0.192520 3.512620 
# 
# 
# High freq. dielectric constant tensor:
#      x y z
#    x 1.757850 -0.007410 -0.009060 
#    y -0.007410 1.728840 -0.014430 
#    z -0.009060 -0.014430 1.739790 
# 
# From -- ./inp_files/565727.got.cif
#   From: 2010.06.25/outbox.cif.g09.slc.cpg/sg2_283_cif.got.tgz:565727.got - 2010.06.27 13:26:56.
