data_PCOD8028053
_publ_section_title
;
Structure prediction by ZEFSAII (Michael W. Deem and Ramdas Pophale) SiO2 
 PCOD8028053
Probable space group: P -1
;
_chemical_formula_sum "Si O2"
_cell_formula_units_Z 16
_cell_length_a 8.594054
_cell_length_b 8.067434
_cell_length_c 14.142601
_cell_angle_alpha 60.882337
_cell_angle_beta 89.677668
_cell_angle_gamma 118.447507
_cell_volume 716.302676
_symmetry_space_group_name_H-M "P -1"
_symmetry_group_IT_number 2
_symmetry_cell_setting 'triclinic'
loop_
_space_group_symop_operation_xyz
x,y,z
-x,-y,-z
loop_
_atom_site_type_symbol
_atom_site_label
_atom_site_fract_x
_atom_site_fract_y
_atom_site_fract_z
Si Si1 0.842354 0.790554 0.501684
Si Si2 0.915611 0.587029 0.402684
Si Si3 0.515164 0.373362 0.202007
Si Si4 0.229677 0.486670 0.095302
Si Si5 0.495465 0.774423 0.551112
Si Si6 0.833339 0.797804 0.997842
Si Si7 0.180862 0.587669 0.263212
Si Si8 0.451532 0.089612 0.113108
O O1 0.928390 0.801100 0.394217
O O2 0.666503 0.810706 0.477739
O O3 0.787704 0.563417 0.622339
O O4 0.000000 0.000000 0.500000
O O5 0.698190 0.406608 0.443697
O O6 0.000000 0.500000 0.500000
O O7 0.029296 0.639335 0.289794
O O8 0.380468 0.440620 0.143450
O O9 0.473004 0.309686 0.327605
O O10 0.479599 0.156025 0.205068
O O11 0.725069 0.587666 0.128622
O O12 0.107963 0.299862 0.065293
O O13 0.108486 0.470575 0.191827
O O14 0.347481 0.746876 0.983260
O O15 0.500000 0.000000 0.500000
O O16 0.704477 0.881166 0.939978
O O17 0.000000 0.000000 0.000000
O O18 0.380497 0.824899 0.181739
#
# Coordination Sequence:
#
# PCOD8028053 Si02
#       8
#     2   2   2   2   2   2   2   2
#     4  11  25  45  67  93 130 171 225 277 333 397
#     4  10  25  43  64  95 129 174 221 266 336 388
#     4   9  20  38  62  95 123 171 220 261 330 385
#     4   9  18  40  64  94 126 173 219 260 325 394
#     4  12  24  42  69  94 132 166 224 280 327 397
#     4   9  19  37  62  92 135 171 210 270 322 390
#     4  11  21  38  69  94 130 169 221 272 328 392
#     4   9  20  35  66  93 127 169 217 266 328 393
#
# _framework density 22.336926999999999
#
# number of rings (size 3 to 8) (size 9 to 14) (size 15 to 20)
#    0.000    2.000    1.250    3.750    7.000    0.000 
#    0.000    0.625    5.500    0.000    0.000    0.000 
#    0.000    0.000    0.000    0.000    0.000    0.000 
#
# Total GULP energy -198268.228644 kJ/mol
# GULP energy per Si atom -12391.764290 kJ/mol
# Density = 2.228609 g / cm^3
# Si number density = 22.336927 Si / 1000 Ang^3
#
#
#
# Elastic Constant Matrix: (Units=GPa)
#
#
# Indices 1 2 3 4 5 6 
#
# 1 94.7935 48.6519 20.4832 15.3504 -21.3840 -6.1983
# 2 48.6519 169.0725 37.3432 11.9989 -18.2968 -1.7684
# 3 20.4832 37.3432 63.9116 8.9689 -12.6867 -14.4828
# 4 15.3504 11.9989 8.9689 41.0818 -18.5797 -3.9171
# 5 -21.3840 -18.2968 -12.6867 -18.5797 29.5758 9.8812
# 6 -6.1983 -1.7684 -14.4828 -3.9171 9.8812 44.9990
#
#
#
# Elastic Compliance Matrix: (Units=1/GPa)
#
#
# Indices 1 2 3 4 5 6 
#
# 1 0.014115 -0.002917 -0.001296 -0.000803 0.007438 -0.000291
# 2 -0.002917 0.007715 -0.003621 0.000309 0.001854 -0.001644
# 3 -0.001296 -0.003621 0.020144 -0.000959 0.003054 0.005408
# 4 -0.000803 0.000309 -0.000959 0.034248 0.021425 -0.002131
# 5 0.007438 0.001854 0.003054 0.021425 0.058046 -0.008801
# 6 -0.000291 -0.001644 0.005408 -0.002131 -0.008801 0.025606
#
#
# Mechanical properties :
#
#
# Convention : Reuss Voigt Hill
#
# Bulk Modulus (GPa) = 38.01335 60.08158 49.04747
# Shear Modulus (GPa) = 27.12802 37.88459 32.50630
#
# Velocity S-wave (km/s) = 3.48874 4.12278 3.81894
# Velocity P-wave (km/s) = 5.76918 7.04410 6.43828
#
# Compressibility (1/GPa) = 0.02630654
#
# Stress axis : x y z
#
# Youngs Moduli (GPa) = 70.84562 129.61383 49.64186
#
# Poissons Ratio (x) = 0.37802 0.06436
# Poissons Ratio (y) = 0.20662 0.17976
# Poissons Ratio (z) = 0.09185 0.46934
#
# Static dielectric constant tensor:
#      x y z
#    x 3.993220 -0.331750 -0.358650 
#    y -0.331750 4.439070 0.177930 
#    z -0.358650 0.177930 3.749610 
# 
# 
# High freq. dielectric constant tensor:
#      x y z
#    x 1.856290 -0.012180 -0.009810 
#    y -0.012180 1.895890 0.008910 
#    z -0.009810 0.008910 1.874170 
# 
# From -- ./inp_files/492307.got.cif
#   From: 2010.06.25/outbox.cif.g09.slc.cpg/sg2_247_cif.got.tgz:492307.got - 2010.06.27 13:26:56.
