data_PCOD8028869
_publ_section_title
;
Structure prediction by ZEFSAII (Michael W. Deem and Ramdas Pophale) SiO2 
 PCOD8028869
Probable space group: P -1
;
_chemical_formula_sum "Si O2"
_cell_formula_units_Z 16
_cell_length_a 11.972249
_cell_length_b 8.994784
_cell_length_c 16.836968
_cell_angle_alpha 126.921572
_cell_angle_beta 141.724453
_cell_angle_gamma 40.937075
_cell_volume 735.780626
_symmetry_space_group_name_H-M "P -1"
_symmetry_group_IT_number 2
_symmetry_cell_setting 'triclinic'
loop_
_space_group_symop_operation_xyz
x,y,z
-x,-y,-z
loop_
_atom_site_type_symbol
_atom_site_label
_atom_site_fract_x
_atom_site_fract_y
_atom_site_fract_z
Si Si1 0.650468 0.414208 0.765315
Si Si2 0.929709 0.928714 0.731961
Si Si3 0.157026 0.068858 0.638874
Si Si4 0.320508 0.522317 0.027110
Si Si5 0.823679 0.049150 0.984592
Si Si6 0.364263 0.240531 0.247117
Si Si7 0.728974 0.213673 0.243938
Si Si8 0.950512 0.559414 0.727019
O O1 0.705548 0.183054 0.680986
O O2 0.784658 0.363334 0.907498
O O3 0.709610 0.550650 0.785261
O O4 0.388502 0.569946 0.691295
O O5 0.885663 0.758640 0.693154
O O6 0.045277 0.834858 0.680543
O O7 0.090977 0.965794 0.884240
O O8 0.024922 0.339456 0.646272
O O9 0.372297 0.941728 0.662104
O O10 0.221789 0.000311 0.745988
O O11 0.000000 0.000000 0.500000
O O12 0.369821 0.684153 0.057080
O O13 0.552029 0.277860 0.094349
O O14 0.150047 0.494904 0.876155
O O15 0.738787 0.891713 0.880967
O O16 0.000000 0.000000 0.000000
O O17 0.270482 0.349436 0.316531
#
# Coordination Sequence:
#
# PCOD8028869 Si02
#       8
#     2   2   2   2   2   2   2   2
#     4   9  19  35  53  89 130 163 198 236 299 376
#     4  11  20  35  62  92 135 161 192 247 300 385
#     4  11  27  47  63  85 119 165 223 265 298 354
#     4   9  19  36  54  94 134 153 194 242 301 392
#     4  11  18  34  56  97 137 163 191 232 311 389
#     4  11  22  38  66  89 124 173 194 252 312 356
#     4   9  22  39  59  89 124 164 198 256 309 353
#     4  11  23  37  62  97 121 163 205 241 320 372
#
# _framework density 21.745612000000001
#
# number of rings (size 3 to 8) (size 9 to 14) (size 15 to 20)
#    0.750    1.000    3.750    0.750    3.500    5.000 
#    0.000    0.625    0.000    3.750    0.000    0.000 
#    0.000    0.000    0.000    0.000    0.000    0.000 
#
# Total GULP energy -198241.372877 kJ/mol
# GULP energy per Si atom -12390.085805 kJ/mol
# Density = 2.169612 g / cm^3
# Si number density = 21.745612 Si / 1000 Ang^3
#
#
#
# Elastic Constant Matrix: (Units=GPa)
#
#
# Indices 1 2 3 4 5 6 
#
# 1 124.6113 71.4244 1.7549 7.5659 8.7947 -10.4650
# 2 71.4244 157.0315 35.5770 26.5823 14.6578 2.2934
# 3 1.7549 35.5770 34.4376 13.4566 11.3544 2.0495
# 4 7.5659 26.5823 13.4566 18.4826 3.3126 3.1440
# 5 8.7947 14.6578 11.3544 3.3126 12.4766 -0.1783
# 6 -10.4650 2.2934 2.0495 3.1440 -0.1783 39.4549
#
#
#
# Elastic Compliance Matrix: (Units=1/GPa)
#
#
# Indices 1 2 3 4 5 6 
#
# 1 0.013048 -0.007180 0.010271 -0.001333 -0.009707 0.003407
# 2 -0.007180 0.013369 -0.010275 -0.008742 0.001006 -0.001447
# 3 0.010271 -0.010275 0.066196 -0.029439 -0.047565 0.002014
# 4 -0.001333 -0.008742 -0.029439 0.086873 0.014861 -0.005171
# 5 -0.009707 0.001006 -0.047565 0.014861 0.125140 -0.000781
# 6 0.003407 -0.001447 0.002014 -0.005171 -0.000781 0.026637
#
#
# Mechanical properties :
#
#
# Convention : Reuss Voigt Hill
#
# Bulk Modulus (GPa) = 12.78052 59.28813 36.03433
# Shear Modulus (GPa) = 13.45134 27.90444 20.67789
#
# Velocity S-wave (km/s) = 2.48982 3.58609 3.08701
# Velocity P-wave (km/s) = 3.76240 6.66861 5.41415
#
# Compressibility (1/GPa) = 0.07824407
#
# Stress axis : x y z
#
# Youngs Moduli (GPa) = 76.64246 74.80214 15.10677
#
# Poissons Ratio (x) = 0.53705 -0.15516
# Poissons Ratio (y) = 0.55026 0.15522
# Poissons Ratio (z) = -0.78717 0.76858
#
# Static dielectric constant tensor:
#      x y z
#    x 4.154500 0.099790 -0.011330 
#    y 0.099790 4.655800 0.009520 
#    z -0.011330 0.009520 3.312110 
# 
# 
# High freq. dielectric constant tensor:
#      x y z
#    x 1.861370 -0.002260 -0.006920 
#    y -0.002260 1.878860 -0.007010 
#    z -0.006920 -0.007010 1.790910 
# 
# From -- ./inp_files/565545.got.cif
#   From: 2010.06.25/outbox.cif.g09.slc.cpg/sg2_283_cif.got.tgz:565545.got - 2010.06.27 13:26:56.
