data_PCOD8028638
_publ_section_title
;
Structure prediction by ZEFSAII (Michael W. Deem and Ramdas Pophale) SiO2 
 PCOD8028638
Probable space group: P -1
;
_chemical_formula_sum "Si O2"
_cell_formula_units_Z 10
_cell_length_a 16.077524
_cell_length_b 5.247672
_cell_length_c 5.245571
_cell_angle_alpha 91.379427
_cell_angle_beta 60.905165
_cell_angle_gamma 79.492242
_cell_volume 376.948051
_symmetry_space_group_name_H-M "P -1"
_symmetry_group_IT_number 2
_symmetry_cell_setting 'triclinic'
loop_
_space_group_symop_operation_xyz
x,y,z
-x,-y,-z
loop_
_atom_site_type_symbol
_atom_site_label
_atom_site_fract_x
_atom_site_fract_y
_atom_site_fract_z
Si Si1 0.109979 0.529589 0.852165
Si Si2 0.109825 0.843472 0.357009
Si Si3 0.604729 0.204617 0.525218
Si Si4 0.385169 0.324681 0.809614
Si Si5 0.747403 0.874404 0.654029
O O1 0.133634 0.626654 0.096903
O O2 0.185290 0.253397 0.687212
O O3 0.873819 0.275642 0.388880
O O4 0.000000 0.500000 0.000000
O O5 0.183644 0.038592 0.230477
O O6 0.000000 0.000000 0.500000
O O7 0.491732 0.321624 0.769416
O O8 0.647562 0.423886 0.317361
O O9 0.613940 0.943998 0.341881
O O10 0.666925 0.129133 0.687956
O O11 0.307204 0.341560 0.154205
#
# Coordination Sequence:
#
# PCOD8028638 Si02
#       5
#     2   2   2   2   2
#     4  12  29  51  78 115 162 218 275 343 414 488
#     4  12  29  51  78 115 162 218 275 343 414 488
#     4  10  25  49  78 116 164 214 273 343 416 492
#     4  10  25  49  78 116 164 214 273 343 416 492
#     4  12  29  44  82 114 164 212 285 328 420 492
#
# _framework density 26.528855
#
# number of rings (size 3 to 8) (size 9 to 14) (size 15 to 20)
#    0.000    0.800    2.000    1.800   11.200    0.000 
#    0.000    6.000    0.000    3.600    0.000    0.000 
#    0.000    0.000    0.000    0.000    0.000    0.000 
#
# Total GULP energy -124069.375378 kJ/mol
# GULP energy per Si atom -12406.937538 kJ/mol
# Density = 2.646847 g / cm^3
# Si number density = 26.528855 Si / 1000 Ang^3
#
#
#
# Elastic Constant Matrix: (Units=GPa)
#
#
# Indices 1 2 3 4 5 6 
#
# 1 136.9165 42.7142 66.7882 -12.7945 -21.3305 0.3914
# 2 42.7142 134.3686 44.7450 -29.2185 -10.9717 12.5256
# 3 66.7882 44.7450 124.1872 -17.6325 -16.6667 23.1337
# 4 -12.7945 -29.2185 -17.6325 48.5848 6.7512 12.0472
# 5 -21.3305 -10.9717 -16.6667 6.7512 43.9690 4.2729
# 6 0.3914 12.5256 23.1337 12.0472 4.2729 39.4410
#
#
#
# Elastic Compliance Matrix: (Units=1/GPa)
#
#
# Indices 1 2 3 4 5 6 
#
# 1 0.011065 -0.002183 -0.005939 -0.001988 0.002449 0.004409
# 2 -0.002183 0.010272 -0.000569 0.006525 0.000771 -0.004983
# 3 -0.005939 -0.000569 0.014494 0.005528 0.002616 -0.010233
# 4 -0.001988 0.006525 0.005528 0.029587 -0.000395 -0.014289
# 5 0.002449 0.000771 0.002616 -0.000395 0.025609 -0.004457
# 6 0.004409 -0.004983 -0.010233 -0.014289 -0.004457 0.037743
#
#
# Mechanical properties :
#
#
# Convention : Reuss Voigt Hill
#
# Bulk Modulus (GPa) = 54.20457 78.21854 66.21156
# Shear Modulus (GPa) = 32.82960 42.48063 37.65511
#
# Velocity S-wave (km/s) = 3.52164 4.00596 3.77158
# Velocity P-wave (km/s) = 6.08379 7.13760 6.63166
#
# Compressibility (1/GPa) = 0.01844863
#
# Stress axis : x y z
#
# Youngs Moduli (GPa) = 90.37489 97.35345 68.99539
#
# Poissons Ratio (x) = 0.21252 0.40978
# Poissons Ratio (y) = 0.19729 0.03924
# Poissons Ratio (z) = 0.53675 0.05537
#
# Static dielectric constant tensor:
#      x y z
#    x 5.114020 -0.027290 -0.411540 
#    y -0.027290 4.864990 0.005560 
#    z -0.411540 0.005560 5.014010 
# 
# 
# High freq. dielectric constant tensor:
#      x y z
#    x 2.083060 -0.001100 -0.019560 
#    y -0.001100 2.072070 0.000330 
#    z -0.019560 0.000330 2.063700 
# 
# From -- ./inp_files/85822.got.cif
#   From: 2010.06.25/outbox.cif.g09.slc.cpg/sg2_43_cif.got.tgz:85822.got - 2010.06.27 13:26:56.
