data_PCOD8028839
_publ_section_title
;
Structure prediction by ZEFSAII (Michael W. Deem and Ramdas Pophale) SiO2 
 PCOD8028839
Probable space group: P -1
;
_chemical_formula_sum "Si O2"
_cell_formula_units_Z 12
_cell_length_a 7.542284
_cell_length_b 16.443036
_cell_length_c 11.973093
_cell_angle_alpha 25.649469
_cell_angle_beta 135.919172
_cell_angle_gamma 137.832945
_cell_volume 424.986285
_symmetry_space_group_name_H-M "P -1"
_symmetry_group_IT_number 2
_symmetry_cell_setting 'triclinic'
loop_
_space_group_symop_operation_xyz
x,y,z
-x,-y,-z
loop_
_atom_site_type_symbol
_atom_site_label
_atom_site_fract_x
_atom_site_fract_y
_atom_site_fract_z
Si Si1 0.923675 0.461703 0.284099
Si Si2 0.603889 0.591890 0.296905
Si Si3 0.804116 0.172370 0.158596
Si Si4 0.509992 0.233688 0.562729
Si Si5 0.200192 0.854537 0.555412
Si Si6 0.031675 0.913525 0.998876
O O1 0.695257 0.369556 0.383790
O O2 0.824112 0.351895 0.258705
O O3 0.215823 0.440581 0.477160
O O4 0.963198 0.693397 0.985048
O O5 0.419784 0.380536 0.424098
O O6 0.804788 0.699601 0.154297
O O7 0.443176 0.740232 0.076451
O O8 0.895882 0.192971 0.302789
O O9 0.736416 0.939975 0.386341
O O10 0.684457 0.121301 0.848917
O O11 0.500000 0.000000 0.500000
O O12 0.995395 0.946997 0.285985
O O13 0.000000 0.000000 0.000000
#
# Coordination Sequence:
#
# PCOD8028839 Si02
#       6
#     2   2   2   2   2   2
#     4  11  22  41  67  97 131 172 222 265 320 390
#     4  11  22  42  70  99 128 173 222 267 324 386
#     4  12  24  42  67 101 133 169 214 271 331 386
#     4  11  23  44  70  97 130 172 221 269 322 385
#     4  12  20  39  69  95 129 176 216 262 330 391
#     4  11  17  38  69  91 121 172 219 258 315 385
#
# _framework density 28.236204000000001
#
# number of rings (size 3 to 8) (size 9 to 14) (size 15 to 20)
#    0.000    0.667    8.333    3.000    0.000    0.667 
#    0.000    8.333    0.000    6.000    0.000    0.000 
#    0.000    0.000    0.000    0.000    0.000    0.000 
#
# Total GULP energy -148774.432120 kJ/mol
# GULP energy per Si atom -12397.869343 kJ/mol
# Density = 2.817194 g / cm^3
# Si number density = 28.236204 Si / 1000 Ang^3
#
#
#
# Elastic Constant Matrix: (Units=GPa)
#
#
# Indices 1 2 3 4 5 6 
#
# 1 63.9054 26.8400 42.5891 -3.7434 -9.4406 -2.7246
# 2 26.8400 162.6055 37.7168 -43.8314 -18.7590 -26.8799
# 3 42.5891 37.7168 122.1144 -14.3745 -48.9082 -4.4283
# 4 -3.7434 -43.8314 -14.3745 52.3146 -9.5624 4.6341
# 5 -9.4406 -18.7590 -48.9082 -9.5624 51.7485 -8.3702
# 6 -2.7246 -26.8799 -4.4283 4.6341 -8.3702 22.3811
#
#
#
# Elastic Compliance Matrix: (Units=1/GPa)
#
#
# Indices 1 2 3 4 5 6 
#
# 1 0.024723 -0.007222 -0.014070 -0.009852 -0.015181 -0.012086
# 2 -0.007222 0.015970 0.007863 0.016368 0.018724 0.023470
# 3 -0.014070 0.007863 0.025877 0.016527 0.031207 0.021100
# 4 -0.009852 0.016368 0.016527 0.040151 0.031234 0.025096
# 5 -0.015181 0.018724 0.031207 0.031234 0.065885 0.044987
# 6 -0.012086 0.023470 0.021100 0.025096 0.044987 0.087200
#
#
# Mechanical properties :
#
#
# Convention : Reuss Voigt Hill
#
# Bulk Modulus (GPa) = 25.18134 62.54635 43.86384
# Shear Modulus (GPa) = 16.67218 41.38748 29.02983
#
# Velocity S-wave (km/s) = 2.43256 3.83268 3.20989
# Velocity P-wave (km/s) = 4.10211 6.46414 5.41352
#
# Compressibility (1/GPa) = 0.03971195
#
# Stress axis : x y z
#
# Youngs Moduli (GPa) = 40.44770 62.61771 38.64462
#
# Poissons Ratio (x) = 0.45224 0.54373
# Poissons Ratio (y) = 0.29212 -0.30387
# Poissons Ratio (z) = 0.56910 -0.49238
#
# Static dielectric constant tensor:
#      x y z
#    x 4.909060 0.128600 -0.295470 
#    y 0.128600 5.583910 -0.335190 
#    z -0.295470 -0.335190 5.589980 
# 
# 
# High freq. dielectric constant tensor:
#      x y z
#    x 2.136100 0.001240 -0.016010 
#    y 0.001240 2.155450 -0.015790 
#    z -0.016010 -0.015790 2.151230 
# 
# From -- ./inp_files/524021.got.cif
#   From: 2010.06.25/outbox.cif.g09.slc.cpg/sg2_263_cif.got.tgz:524021.got - 2010.06.27 13:26:56.
