data_PCOD8028962
_publ_section_title
;
Structure prediction by ZEFSAII (Michael W. Deem and Ramdas Pophale) SiO2 
 PCOD8028962
Probable space group: P -1
;
_chemical_formula_sum "Si O2"
_cell_formula_units_Z 8
_cell_length_a 9.601207
_cell_length_b 9.110629
_cell_length_c 11.309805
_cell_angle_alpha 42.070079
_cell_angle_beta 42.863714
_cell_angle_gamma 45.040686
_cell_volume 421.292609
_symmetry_space_group_name_H-M "P -1"
_symmetry_group_IT_number 2
_symmetry_cell_setting 'triclinic'
loop_
_space_group_symop_operation_xyz
x,y,z
-x,-y,-z
loop_
_atom_site_type_symbol
_atom_site_label
_atom_site_fract_x
_atom_site_fract_y
_atom_site_fract_z
Si Si1 0.861141 0.233652 0.239633
Si Si2 0.987085 0.500217 0.202185
Si Si3 0.244495 0.199105 0.426538
Si Si4 0.600690 0.733107 0.470165
O O1 0.985253 0.298547 0.233034
O O2 0.597098 0.368326 0.335311
O O3 0.916897 0.952244 0.373072
O O4 0.943474 0.304234 0.023473
O O5 0.745899 0.623056 0.332367
O O6 0.166447 0.386709 0.258920
O O7 0.246296 0.332264 0.468945
O O8 0.492877 0.017803 0.353961
#
# Coordination Sequence:
#
# PCOD8028962 Si02
#       4
#     2   2   2   2
#     4   9  21  36  51  83 101 131 184 203 248 324
#     4  11  19  36  57  73 107 139 164 217 260 292
#     4   9  20  38  51  78 107 132 174 213 250 308
#     4   9  20  38  51  78 107 132 174 213 250 308
#
# _framework density 18.989177000000002
#
# number of rings (size 3 to 8) (size 9 to 14) (size 15 to 20)
#    1.500    1.000    0.000    2.250    0.000    2.000 
#    4.500    2.500    0.000    0.000    0.000    0.000 
#    0.000    0.000    0.000    0.000    0.000    0.000 
#
# Total GULP energy -99156.209581 kJ/mol
# GULP energy per Si atom -12394.526198 kJ/mol
# Density = 1.894596 g / cm^3
# Si number density = 18.989177 Si / 1000 Ang^3
#
#
#
# Elastic Constant Matrix: (Units=GPa)
#
#
# Indices 1 2 3 4 5 6 
#
# 1 61.9107 4.6293 34.6580 3.4773 13.1602 -3.8115
# 2 4.6293 17.4275 15.2704 1.8530 9.1385 -0.6882
# 3 34.6580 15.2704 108.2264 8.4973 11.2936 -5.5368
# 4 3.4773 1.8530 8.4973 19.9820 -5.1824 -2.3208
# 5 13.1602 9.1385 11.2936 -5.1824 28.0483 -0.5730
# 6 -3.8115 -0.6882 -5.5368 -2.3208 -0.5730 23.9940
#
#
#
# Elastic Compliance Matrix: (Units=1/GPa)
#
#
# Indices 1 2 3 4 5 6 
#
# 1 0.021751 0.005588 -0.006287 -0.004104 -0.010222 0.001524
# 2 0.005588 0.079321 -0.009323 -0.011408 -0.026834 -0.000733
# 3 -0.006287 -0.009323 0.012876 -0.003297 0.000222 0.001391
# 4 -0.004104 -0.011408 -0.003297 0.058349 0.017840 0.004330
# 5 -0.010222 -0.026834 0.000222 0.017840 0.052411 0.000635
# 6 0.001524 -0.000733 0.001391 0.004330 0.000635 0.042653
#
#
# Mechanical properties :
#
#
# Convention : Reuss Voigt Hill
#
# Bulk Modulus (GPa) = 10.64931 32.96444 21.80688
# Shear Modulus (GPa) = 15.68842 23.27198 19.48020
#
# Velocity S-wave (km/s) = 2.87745 3.50457 3.20638
# Velocity P-wave (km/s) = 4.08165 5.81148 5.02161
#
# Compressibility (1/GPa) = 0.09390279
#
# Stress axis : x y z
#
# Youngs Moduli (GPa) = 45.97459 12.60706 77.66658
#
# Poissons Ratio (x) = -0.07044 0.48830
# Poissons Ratio (y) = -0.25689 0.72407
# Poissons Ratio (z) = 0.28905 0.11753
#
# Static dielectric constant tensor:
#      x y z
#    x 3.402080 0.085130 0.034210 
#    y 0.085130 3.111780 0.042660 
#    z 0.034210 0.042660 3.283200 
# 
# 
# High freq. dielectric constant tensor:
#      x y z
#    x 1.746340 0.007700 0.009480 
#    y 0.007700 1.712590 0.005420 
#    z 0.009480 0.005420 1.724320 
# 
# From -- ./inp_files/1821.got.cif
#   From: 2010.06.25/outbox.cif.g09.slc.cpg/sg2_1_cif.got.tgz:1821.got - 2010.06.27 13:26:56.
