data_PCOD8028332
_publ_section_title
;
Structure prediction by ZEFSAII (Michael W. Deem and Ramdas Pophale) SiO2 
 PCOD8028332
Probable space group: P -1
;
_chemical_formula_sum "Si O2"
_cell_formula_units_Z 16
_cell_length_a 17.185074
_cell_length_b 14.449733
_cell_length_c 11.196522
_cell_angle_alpha 33.041223
_cell_angle_beta 45.092533
_cell_angle_gamma 26.162739
_cell_volume 655.831138
_symmetry_space_group_name_H-M "P -1"
_symmetry_group_IT_number 2
_symmetry_cell_setting 'triclinic'
loop_
_space_group_symop_operation_xyz
x,y,z
-x,-y,-z
loop_
_atom_site_type_symbol
_atom_site_label
_atom_site_fract_x
_atom_site_fract_y
_atom_site_fract_z
Si Si1 0.250623 0.347345 0.732892
Si Si2 0.604413 0.575495 0.926036
Si Si3 0.142215 0.628305 0.788688
Si Si4 0.133393 0.558476 0.372021
Si Si5 0.613181 0.386131 0.347420
Si Si6 0.254835 0.956275 0.221080
Si Si7 0.637256 0.852674 0.764051
Si Si8 0.250789 0.072652 0.648664
O O1 0.170200 0.560969 0.692103
O O2 0.150226 0.537587 0.518273
O O3 0.463292 0.119053 0.739694
O O4 0.213403 0.196577 0.965060
O O5 0.760466 0.415035 0.833024
O O6 0.583142 0.763120 0.832859
O O7 0.416628 0.766273 0.856687
O O8 0.653911 0.351214 0.198659
O O9 0.265852 0.631339 0.689967
O O10 0.201961 0.391142 0.057321
O O11 0.931221 0.921663 0.723315
O O12 0.219790 0.278132 0.537487
O O13 0.925702 0.829260 0.264609
O O14 0.402634 0.687269 0.267149
O O15 0.669859 0.139818 0.617379
O O16 0.702305 0.933927 0.530250
#
# Coordination Sequence:
#
# PCOD8028332 Si02
#       8
#     2   2   2   2   2   2   2   2
#     4  12  20  37  58  90 125 147 184 240 296 345
#     4  10  17  34  53  79 114 144 191 240 279 325
#     4  11  23  37  58  86 121 157 184 235 294 348
#     4  10  19  30  53  86 112 145 185 239 290 334
#     4  10  23  40  61  83 116 157 194 237 279 344
#     4  11  22  39  57  86 119 151 198 234 282 342
#     4  10  18  32  53  82 120 151 180 234 296 335
#     4  10  17  30  51  78 116 145 184 239 291 324
#
# _framework density 24.396522999999998
#
# number of rings (size 3 to 8) (size 9 to 14) (size 15 to 20)
#    0.000    1.500    5.000    2.625    0.000    4.000 
#    0.000    0.000    0.000    0.750    0.000   14.000 
#    0.000    0.000    0.000    0.000    0.000    0.000 
#
# Total GULP energy -198393.026788 kJ/mol
# GULP energy per Si atom -12399.564174 kJ/mol
# Density = 2.434100 g / cm^3
# Si number density = 24.396523 Si / 1000 Ang^3
#
#
#
# Elastic Constant Matrix: (Units=GPa)
#
#
# Indices 1 2 3 4 5 6 
#
# 1 43.6166 44.5539 34.4874 1.3880 29.6756 -10.1120
# 2 44.5539 142.5034 37.2257 9.9834 17.9867 -32.8673
# 3 34.4874 37.2257 122.8918 27.1724 49.6027 6.5147
# 4 1.3880 9.9834 27.1724 33.2550 4.8750 10.0886
# 5 29.6756 17.9867 49.6027 4.8750 40.0212 -3.4312
# 6 -10.1120 -32.8673 6.5147 10.0886 -3.4312 29.9355
#
#
#
# Elastic Compliance Matrix: (Units=1/GPa)
#
#
# Indices 1 2 3 4 5 6 
#
# 1 0.074272 -0.020168 0.006130 0.008332 -0.055268 -0.007531
# 2 -0.020168 0.017353 -0.005445 -0.007756 0.016385 0.017917
# 3 0.006130 -0.005445 0.022921 -0.010255 -0.030020 -0.008881
# 4 0.008332 -0.007756 -0.010255 0.045627 0.002872 -0.018517
# 5 -0.055268 0.016385 -0.030020 0.002872 0.096831 0.015985
# 6 -0.007531 0.017917 -0.008881 -0.018517 0.015985 0.060538
#
#
# Mechanical properties :
#
#
# Convention : Reuss Voigt Hill
#
# Bulk Modulus (GPa) = 13.23071 60.17176 36.70123
# Shear Modulus (GPa) = 13.09927 33.49199 23.29563
#
# Velocity S-wave (km/s) = 2.31969 3.70918 3.09346
# Velocity P-wave (km/s) = 3.55100 6.56213 5.27595
#
# Compressibility (1/GPa) = 0.07558173
#
# Stress axis : x y z
#
# Youngs Moduli (GPa) = 13.46398 57.62742 43.62751
#
# Poissons Ratio (x) = 1.16221 -0.26746
# Poissons Ratio (y) = 0.27154 0.23756
# Poissons Ratio (z) = -0.08254 0.31379
#
# Static dielectric constant tensor:
#      x y z
#    x 3.939140 -0.186230 0.349700 
#    y -0.186230 4.500030 0.317790 
#    z 0.349700 0.317790 4.789110 
# 
# 
# High freq. dielectric constant tensor:
#      x y z
#    x 1.940230 -0.015690 0.024110 
#    y -0.015690 1.975890 0.013130 
#    z 0.024110 0.013130 1.979110 
# 
# From -- ./inp_files/438014.got.cif
#   From: 2010.06.25/outbox.cif.g09.slc.cpg/sg2_220_cif.got.tgz:438014.got - 2010.06.27 13:26:56.
