data_PCOD8028143
_publ_section_title
;
Structure prediction by ZEFSAII (Michael W. Deem and Ramdas Pophale) SiO2 
 PCOD8028143
Probable space group: P -1
;
_chemical_formula_sum "Si O2"
_cell_formula_units_Z 14
_cell_length_a 12.043640
_cell_length_b 6.693551
_cell_length_c 11.344014
_cell_angle_alpha 67.053741
_cell_angle_beta 64.883281
_cell_angle_gamma 46.617404
_cell_volume 595.039920
_symmetry_space_group_name_H-M "P -1"
_symmetry_group_IT_number 2
_symmetry_cell_setting 'triclinic'
loop_
_space_group_symop_operation_xyz
x,y,z
-x,-y,-z
loop_
_atom_site_type_symbol
_atom_site_label
_atom_site_fract_x
_atom_site_fract_y
_atom_site_fract_z
Si Si1 0.371680 0.662891 0.261892
Si Si2 0.852477 0.310336 0.464617
Si Si3 0.677424 0.850479 0.935551
Si Si4 0.109727 0.241596 0.675541
Si Si5 0.122286 0.200280 0.957333
Si Si6 0.821336 0.315719 0.849385
Si Si7 0.359990 0.649405 0.622808
O O1 0.289823 0.608574 0.409096
O O2 0.338374 0.572925 0.174361
O O3 0.557160 0.485616 0.255240
O O4 0.296718 0.986439 0.210539
O O5 0.908734 0.491906 0.419754
O O6 0.776025 0.372142 0.352067
O O7 0.000000 0.000000 0.500000
O O8 0.778875 0.531751 0.922339
O O9 0.716673 0.893659 0.037739
O O10 0.500000 0.000000 0.000000
O O11 0.132818 0.202026 0.813490
O O12 0.949446 0.283935 0.709469
O O13 0.263893 0.980995 0.599427
O O14 0.000000 0.500000 0.000000
O O15 0.093163 0.984066 0.060535
O O16 0.500000 0.500000 0.500000
#
# Coordination Sequence:
#
# PCOD8028143 Si02
#       7
#     2   2   2   2   2   2   2
#     4  10  25  44  66 100 142 177 230 281 344 412
#     4  11  25  45  72 100 137 176 235 286 345 409
#     4  11  26  42  70 101 144 185 226 287 344 406
#     4  12  26  42  77 101 136 188 228 285 352 403
#     4  11  26  44  69 105 141 177 238 283 342 410
#     4  11  25  44  70 104 141 181 232 281 345 414
#     4  10  26  46  69 100 141 179 232 281 343 410
#
# _framework density 23.527833999999999
#
# number of rings (size 3 to 8) (size 9 to 14) (size 15 to 20)
#    0.000    1.143    1.429    2.143   10.000    8.000 
#    0.000    0.000    0.000    0.000    0.000    0.000 
#    0.000    0.000    0.000    0.000    0.000    0.000 
#
# Total GULP energy -173452.161119 kJ/mol
# GULP energy per Si atom -12389.440080 kJ/mol
# Density = 2.347428 g / cm^3
# Si number density = 23.527834 Si / 1000 Ang^3
#
#
#
# Elastic Constant Matrix: (Units=GPa)
#
#
# Indices 1 2 3 4 5 6 
#
# 1 128.6699 37.8681 17.3712 -9.9579 9.4533 0.1150
# 2 37.8681 158.8295 30.8100 -9.1381 -19.5071 13.3369
# 3 17.3712 30.8100 64.6236 -7.7058 -11.1611 8.0544
# 4 -9.9579 -9.1381 -7.7058 39.3953 0.4260 -5.9049
# 5 9.4533 -19.5071 -11.1611 0.4260 39.8411 -5.7621
# 6 0.1150 13.3369 8.0544 -5.9049 -5.7621 39.6461
#
#
#
# Elastic Compliance Matrix: (Units=1/GPa)
#
#
# Indices 1 2 3 4 5 6 
#
# 1 0.009077 -0.002219 -0.001932 0.001563 -0.003681 0.000811
# 2 -0.002219 0.007863 -0.002285 0.000540 0.003501 -0.001585
# 3 -0.001932 -0.002285 0.018316 0.002218 0.004156 -0.002012
# 4 0.001563 0.000540 0.002218 0.026850 0.000730 0.003468
# 5 -0.003681 0.003501 0.004156 0.000730 0.029182 0.002339
# 6 0.000811 -0.001585 -0.002012 0.003468 0.002339 0.027019
#
#
# Mechanical properties :
#
#
# Convention : Reuss Voigt Hill
#
# Bulk Modulus (GPa) = 44.67971 58.24685 51.46328
# Shear Modulus (GPa) = 36.06438 41.51475 38.78956
#
# Velocity S-wave (km/s) = 3.91940 4.20515 4.06478
# Velocity P-wave (km/s) = 6.28598 6.95615 6.62954
#
# Compressibility (1/GPa) = 0.02238152
#
# Stress axis : x y z
#
# Youngs Moduli (GPa) = 110.17404 127.18222 54.59658
#
# Poissons Ratio (x) = 0.28228 0.10549
# Poissons Ratio (y) = 0.24453 0.12477
# Poissons Ratio (z) = 0.21287 0.29066
#
# Static dielectric constant tensor:
#      x y z
#    x 4.824960 -1.313280 0.159050 
#    y -1.313280 2.353780 -1.478380 
#    z 0.159050 -1.478380 4.507050 
# 
# 
# High freq. dielectric constant tensor:
#      x y z
#    x 1.965010 0.001840 0.016840 
#    y 0.001840 1.927770 -0.009530 
#    z 0.016840 -0.009530 1.914440 
# 
# From -- ./inp_files/60363.got.cif
#   From: 2010.06.25/outbox.cif.g09.slc.cpg/sg2_31_cif.got.tgz:60363.got - 2010.06.27 13:26:56.
