data_PCOD8028467
_publ_section_title
;
Structure prediction by ZEFSAII (Michael W. Deem and Ramdas Pophale) SiO2 
 PCOD8028467
Probable space group: P -1
;
_chemical_formula_sum "Si O2"
_cell_formula_units_Z 14
_cell_length_a 5.606942
_cell_length_b 19.917638
_cell_length_c 8.922222
_cell_angle_alpha 136.255249
_cell_angle_beta 70.495075
_cell_angle_gamma 117.127417
_cell_volume 613.156944
_symmetry_space_group_name_H-M "P -1"
_symmetry_group_IT_number 2
_symmetry_cell_setting 'triclinic'
loop_
_space_group_symop_operation_xyz
x,y,z
-x,-y,-z
loop_
_atom_site_type_symbol
_atom_site_label
_atom_site_fract_x
_atom_site_fract_y
_atom_site_fract_z
Si Si1 0.902852 0.044559 0.371046
Si Si2 0.402275 0.602984 0.374993
Si Si3 0.701442 0.067198 0.773796
Si Si4 0.413659 0.421446 0.254671
Si Si5 0.960004 0.758546 0.518512
Si Si6 0.780386 0.390929 0.894661
Si Si7 0.910199 0.262747 0.224975
O O1 0.824798 0.078932 0.602152
O O2 0.074763 0.144382 0.402449
O O3 0.621001 0.990872 0.255007
O O4 0.112346 0.981504 0.242101
O O5 0.325246 0.482491 0.236966
O O6 0.689674 0.671105 0.485572
O O7 0.420973 0.620155 0.220402
O O8 0.189513 0.641138 0.569492
O O9 0.729255 0.178874 0.013143
O O10 0.500000 0.500000 0.500000
O O11 0.199364 0.313600 0.170996
O O12 0.654386 0.388225 0.081005
O O13 0.118099 0.706504 0.290598
O O14 0.101177 0.795559 0.708294
O O15 0.000000 0.500000 0.000000
#
# Coordination Sequence:
#
# PCOD8028467 Si02
#       7
#     2   2   2   2   2   2   2
#     4  10  25  46  73 101 141 181 232 298 351 422
#     4  11  24  44  63  98 140 178 230 276 345 423
#     4  10  25  47  71 105 136 180 241 290 356 415
#     4  12  23  43  67  98 142 177 225 287 338 413
#     4  11  25  44  68 100 136 181 229 282 351 416
#     4  11  24  42  66  97 135 181 231 277 344 416
#     4  11  26  42  68 102 135 184 228 287 349 412
#
# _framework density 22.832654999999999
#
# number of rings (size 3 to 8) (size 9 to 14) (size 15 to 20)
#    0.000    1.143    2.857    1.714    8.000    4.571 
#    0.000    0.000    0.000    0.000    0.000    0.000 
#    0.000    0.000    0.000    0.000    0.000    0.000 
#
# Total GULP energy -173529.324242 kJ/mol
# GULP energy per Si atom -12394.951732 kJ/mol
# Density = 2.278069 g / cm^3
# Si number density = 22.832655 Si / 1000 Ang^3
#
#
#
# Elastic Constant Matrix: (Units=GPa)
#
#
# Indices 1 2 3 4 5 6 
#
# 1 104.8272 31.1879 25.3443 1.2955 1.7001 5.1864
# 2 31.1879 113.7768 38.1959 5.4334 -10.6811 1.0078
# 3 25.3443 38.1959 114.5378 -6.6472 14.1816 19.1404
# 4 1.2955 5.4334 -6.6472 29.6244 10.1053 -13.4138
# 5 1.7001 -10.6811 14.1816 10.1053 23.8497 -0.4467
# 6 5.1864 1.0078 19.1404 -13.4138 -0.4467 21.1642
#
#
#
# Elastic Compliance Matrix: (Units=1/GPa)
#
#
# Indices 1 2 3 4 5 6 
#
# 1 0.010704 -0.002602 -0.001083 -0.000844 -0.000966 -0.002075
# 2 -0.002602 0.013056 -0.005946 -0.007599 0.012804 0.000848
# 3 -0.001083 -0.005946 0.014540 0.004334 -0.013258 -0.010133
# 4 -0.000844 -0.007599 0.004334 0.063541 -0.032164 0.036242
# 5 -0.000966 0.012804 -0.013258 -0.032164 0.069107 -0.007310
# 6 -0.002075 0.000848 -0.010133 0.036242 -0.007310 0.079698
#
#
# Mechanical properties :
#
#
# Convention : Reuss Voigt Hill
#
# Bulk Modulus (GPa) = 52.53097 58.06643 55.29870
# Shear Modulus (GPa) = 18.09927 30.82192 24.46059
#
# Velocity S-wave (km/s) = 2.81853 3.67809 3.27662
# Velocity P-wave (km/s) = 5.80078 6.59730 6.21182
#
# Compressibility (1/GPa) = 0.01903639
#
# Stress axis : x y z
#
# Youngs Moduli (GPa) = 93.41880 76.59341 68.77686
#
# Poissons Ratio (x) = 0.19933 0.07452
# Poissons Ratio (y) = 0.24312 0.40894
# Poissons Ratio (z) = 0.10122 0.45542
#
# Static dielectric constant tensor:
#      x y z
#    x 4.391250 -0.195140 0.151180 
#    y -0.195140 4.045670 -0.205740 
#    z 0.151180 -0.205740 4.284450 
# 
# 
# High freq. dielectric constant tensor:
#      x y z
#    x 1.899430 -0.002570 0.000830 
#    y -0.002570 1.897080 -0.009410 
#    z 0.000830 -0.009410 1.910840 
# 
# From -- ./inp_files/33232.got.cif
#   From: 2010.06.25/outbox.cif.g09.slc.cpg/sg2_17_cif.got.tgz:33232.got - 2010.06.27 13:26:56.
