data_PCOD8028659
_publ_section_title
;
Structure prediction by ZEFSAII (Michael W. Deem and Ramdas Pophale) SiO2 
 PCOD8028659
Probable space group: P -1
;
_chemical_formula_sum "Si O2"
_cell_formula_units_Z 12
_cell_length_a 6.197180
_cell_length_b 14.086961
_cell_length_c 11.710187
_cell_angle_alpha 30.849519
_cell_angle_beta 80.925313
_cell_angle_gamma 96.181444
_cell_volume 454.106738
_symmetry_space_group_name_H-M "P -1"
_symmetry_group_IT_number 2
_symmetry_cell_setting 'triclinic'
loop_
_space_group_symop_operation_xyz
x,y,z
-x,-y,-z
loop_
_atom_site_type_symbol
_atom_site_label
_atom_site_fract_x
_atom_site_fract_y
_atom_site_fract_z
Si Si1 0.192489 0.095681 0.229030
Si Si2 0.488253 0.711572 0.800298
Si Si3 0.610869 0.362655 0.762529
Si Si4 0.642204 0.229891 0.495336
Si Si5 0.718189 0.821529 0.230572
Si Si6 0.923795 0.323131 0.957747
O O1 0.252376 0.117225 0.338121
O O2 0.191296 0.890228 0.386317
O O3 0.417182 0.309587 0.936455
O O4 0.946837 0.111406 0.198910
O O5 0.466911 0.809039 0.582518
O O6 0.500000 0.500000 0.000000
O O7 0.250254 0.661373 0.947899
O O8 0.733220 0.607063 0.467720
O O9 0.466955 0.208653 0.828217
O O10 0.827267 0.315916 0.843564
O O11 0.402548 0.122820 0.708649
O O12 0.808558 0.471402 0.265123
O O13 0.000000 0.000000 0.000000
#
# Coordination Sequence:
#
# PCOD8028659 Si02
#       6
#     2   2   2   2   2   2
#     4  11  25  47  75 116 157 199 253 319 386 460
#     4  11  23  48  77 112 162 202 254 318 390 458
#     4  10  25  52  76 115 157 199 259 328 382 453
#     4  12  25  47  78 119 151 208 266 309 390 468
#     4  11  26  52  84 113 153 209 263 321 386 462
#     4  11  24  49  79 111 162 201 246 332 387 459
#
# _framework density 26.425508000000001
#
# number of rings (size 3 to 8) (size 9 to 14) (size 15 to 20)
#    0.000    1.000    3.333    2.000    2.333    4.667 
#    6.000    0.833    0.000    0.000    0.000    0.000 
#    0.000    0.000    0.000    0.000    0.000    0.000 
#
# Total GULP energy -148784.218210 kJ/mol
# GULP energy per Si atom -12398.684851 kJ/mol
# Density = 2.636536 g / cm^3
# Si number density = 26.425508 Si / 1000 Ang^3
#
#
#
# Elastic Constant Matrix: (Units=GPa)
#
#
# Indices 1 2 3 4 5 6 
#
# 1 150.3546 67.6265 65.2190 6.0396 30.8151 4.1391
# 2 67.6265 120.6418 51.7709 12.7727 20.1812 9.9194
# 3 65.2190 51.7709 95.9425 3.9874 21.3511 8.5921
# 4 6.0396 12.7727 3.9874 46.7340 4.7089 15.3069
# 5 30.8151 20.1812 21.3511 4.7089 48.0840 -8.6938
# 6 4.1391 9.9194 8.5921 15.3069 -8.6938 61.0171
#
#
#
# Elastic Compliance Matrix: (Units=1/GPa)
#
#
# Indices 1 2 3 4 5 6 
#
# 1 0.011051 -0.003574 -0.004814 0.000335 -0.003490 -0.000072
# 2 -0.003574 0.012447 -0.003862 -0.002217 -0.001154 -0.000845
# 3 -0.004814 -0.003862 0.016631 0.001290 -0.003197 -0.002167
# 4 0.000335 -0.002217 0.001290 0.024296 -0.003398 -0.006423
# 5 -0.003490 -0.001154 -0.003197 -0.003398 0.026259 0.005468
# 6 -0.000072 -0.000845 -0.002167 -0.006423 0.005468 0.019227
#
#
# Mechanical properties :
#
#
# Convention : Reuss Voigt Hill
#
# Bulk Modulus (GPa) = 63.98688 81.79684 72.89186
# Shear Modulus (GPa) = 35.81114 43.32187 39.56651
#
# Velocity S-wave (km/s) = 3.68526 4.05334 3.87367
# Velocity P-wave (km/s) = 6.50959 7.27510 6.90296
#
# Compressibility (1/GPa) = 0.01562820
#
# Stress axis : x y z
#
# Youngs Moduli (GPa) = 90.49342 80.33841 60.12815
#
# Poissons Ratio (x) = 0.28716 0.28945
# Poissons Ratio (y) = 0.32346 0.23222
# Poissons Ratio (z) = 0.43563 0.31028
#
# Static dielectric constant tensor:
#      x y z
#    x 5.089880 0.273280 0.337920 
#    y 0.273280 4.792370 0.298120 
#    z 0.337920 0.298120 4.888480 
# 
# 
# High freq. dielectric constant tensor:
#      x y z
#    x 2.069430 0.003750 0.012400 
#    y 0.003750 2.061390 0.004440 
#    z 0.012400 0.004440 2.070850 
# 
# From -- ./inp_files/367332.got.cif
#   From: 2010.06.25/outbox.cif.g09.slc.cpg/sg2_184_cif.got.tgz:367332.got - 2010.06.27 13:26:56.
