data_PCOD8028907
_publ_section_title
;
Structure prediction by ZEFSAII (Michael W. Deem and Ramdas Pophale) SiO2 
 PCOD8028907
Probable space group: P -1
;
_chemical_formula_sum "Si O2"
_cell_formula_units_Z 14
_cell_length_a 12.176765
_cell_length_b 6.608577
_cell_length_c 21.568119
_cell_angle_alpha 67.807453
_cell_angle_beta 26.942340
_cell_angle_gamma 69.333725
_cell_volume 727.594428
_symmetry_space_group_name_H-M "P -1"
_symmetry_group_IT_number 2
_symmetry_cell_setting 'triclinic'
loop_
_space_group_symop_operation_xyz
x,y,z
-x,-y,-z
loop_
_atom_site_type_symbol
_atom_site_label
_atom_site_fract_x
_atom_site_fract_y
_atom_site_fract_z
Si Si1 0.729488 0.569204 0.564755
Si Si2 0.669061 0.128521 0.322102
Si Si3 0.621764 0.262851 0.469688
Si Si4 0.026929 0.500101 0.299834
Si Si5 0.152027 0.960801 0.134519
Si Si6 0.681809 0.883479 0.834225
Si Si7 0.090674 0.841433 0.419417
O O1 0.459344 0.660377 0.671021
O O2 0.707926 0.331138 0.633557
O O3 0.921773 0.556647 0.413143
O O4 0.843627 0.727609 0.538671
O O5 0.651322 0.155930 0.401014
O O6 0.532910 0.910641 0.393511
O O7 0.960578 0.096709 0.170202
O O8 0.500000 0.500000 0.500000
O O9 0.875133 0.301690 0.370412
O O10 0.034497 0.724987 0.232374
O O11 0.286547 0.366619 0.180129
O O12 0.199268 0.082145 0.161722
O O13 0.395472 0.933067 0.976018
O O14 0.789355 0.050544 0.712285
O O15 0.000000 0.000000 0.500000
#
# Coordination Sequence:
#
# PCOD8028907 Si02
#       7
#     2   2   2   2   2   2   2
#     4  11  23  35  62  89 113 150 198 254 284 339
#     4  11  21  35  53  91 121 148 194 236 297 349
#     4  11  19  30  57  87 123 149 179 245 300 343
#     4  12  19  36  59  91 118 148 195 241 298 343
#     4  11  23  37  58  87 126 152 187 236 294 370
#     4  11  23  39  58  85 119 162 192 232 294 347
#     4  11  23  42  60  84 115 154 203 246 285 334
#
# _framework density 19.241489000000001
#
# number of rings (size 3 to 8) (size 9 to 14) (size 15 to 20)
#    0.000    0.857    7.143    2.143    0.000    0.000 
#    0.000    0.714    0.000    0.857    0.000    0.000 
#    0.000    0.000    0.000    0.000    0.000    0.000 
#
# Total GULP energy -173469.181762 kJ/mol
# GULP energy per Si atom -12390.655840 kJ/mol
# Density = 1.919769 g / cm^3
# Si number density = 19.241489 Si / 1000 Ang^3
#
#
#
# Elastic Constant Matrix: (Units=GPa)
#
#
# Indices 1 2 3 4 5 6 
#
# 1 78.1326 36.8397 27.9718 13.0900 -15.9404 -12.3779
# 2 36.8397 101.5687 30.1180 23.7954 -8.8913 -7.5589
# 3 27.9718 30.1180 67.3571 21.9289 -10.8167 -8.9822
# 4 13.0900 23.7954 21.9289 30.1291 -5.2584 -7.8725
# 5 -15.9404 -8.8913 -10.8167 -5.2584 28.3417 2.7292
# 6 -12.3779 -7.5589 -8.9822 -7.8725 2.7292 41.8164
#
#
#
# Elastic Compliance Matrix: (Units=1/GPa)
#
#
# Indices 1 2 3 4 5 6 
#
# 1 0.018380 -0.004770 -0.004230 0.000983 0.007082 0.003393
# 2 -0.004770 0.013857 -0.001842 -0.007797 -0.000414 -0.000744
# 3 -0.004230 -0.001842 0.021901 -0.011927 0.003124 0.000670
# 4 0.000983 -0.007797 -0.011927 0.049417 0.002196 0.005480
# 5 0.007082 -0.000414 0.003124 0.002196 0.040694 0.000450
# 6 0.003393 -0.000744 0.000670 0.005480 0.000450 0.025930
#
#
# Mechanical properties :
#
#
# Convention : Reuss Voigt Hill
#
# Bulk Modulus (GPa) = 30.81420 48.54637 39.68028
# Shear Modulus (GPa) = 24.66922 30.19934 27.43428
#
# Velocity S-wave (km/s) = 3.58451 3.96598 3.78006
# Velocity P-wave (km/s) = 5.76028 6.80123 6.30229
#
# Compressibility (1/GPa) = 0.03245258
#
# Stress axis : x y z
#
# Youngs Moduli (GPa) = 54.40710 72.16482 45.66070
#
# Poissons Ratio (x) = 0.34423 0.19316
# Poissons Ratio (y) = 0.25953 0.08412
# Poissons Ratio (z) = 0.23016 0.13295
#
# Static dielectric constant tensor:
#      x y z
#    x 3.715890 -0.069970 -0.354630 
#    y -0.069970 3.818410 0.239750 
#    z -0.354630 0.239750 3.748360 
# 
# 
# High freq. dielectric constant tensor:
#      x y z
#    x 1.736760 0.003120 -0.016290 
#    y 0.003120 1.774710 0.017840 
#    z -0.016290 0.017840 1.717540 
# 
# From -- ./inp_files/65800.got.cif
#   From: 2010.06.25/outbox.cif.g09.slc.cpg/sg2_33_cif.got.tgz:65800.got - 2010.06.27 13:26:56.
