data_PCOD8028561
_publ_section_title
;
Structure prediction by ZEFSAII (Michael W. Deem and Ramdas Pophale) SiO2 
 PCOD8028561
Probable space group: P -1
;
_chemical_formula_sum "Si O2"
_cell_formula_units_Z 12
_cell_length_a 9.902661
_cell_length_b 5.134237
_cell_length_c 16.629669
_cell_angle_alpha 56.140383
_cell_angle_beta 133.322841
_cell_angle_gamma 99.258565
_cell_volume 475.248332
_symmetry_space_group_name_H-M "P -1"
_symmetry_group_IT_number 2
_symmetry_cell_setting 'triclinic'
loop_
_space_group_symop_operation_xyz
x,y,z
-x,-y,-z
loop_
_atom_site_type_symbol
_atom_site_label
_atom_site_fract_x
_atom_site_fract_y
_atom_site_fract_z
Si Si1 0.300773 0.872208 0.021664
Si Si2 0.001363 0.129708 0.567494
Si Si3 0.670457 0.893793 0.521289
Si Si4 0.332832 0.195258 0.217710
Si Si5 0.633401 0.119095 0.130575
Si Si6 0.869179 0.314024 0.807085
O O1 0.267743 0.012201 0.893110
O O2 0.339609 0.473751 0.108358
O O3 0.102961 0.100941 0.948738
O O4 0.494433 0.911885 0.135355
O O5 0.443800 0.041345 0.622086
O O6 0.000000 0.500000 0.500000
O O7 0.000000 0.000000 0.500000
O O8 0.811916 0.113272 0.542398
O O9 0.808434 0.501745 0.662855
O O10 0.500000 0.000000 0.500000
O O11 0.797210 0.099071 0.266927
O O12 0.194322 0.397627 0.200329
O O13 0.242163 0.946685 0.181100
O O14 0.500000 0.500000 0.000000
#
# Coordination Sequence:
#
# PCOD8028561 Si02
#       6
#     2   2   2   2   2   2
#     4  11  26  45  73 108 150 192 252 305 375 447
#     4  12  30  51  80 112 153 199 257 314 377 452
#     4  10  25  47  76 107 150 197 250 308 375 444
#     4  11  25  44  72 110 144 192 245 307 369 448
#     4  11  28  47  76 105 150 203 246 311 376 447
#     4  11  25  44  73 107 148 192 243 305 377 438
#
# _framework density 25.249956999999998
#
# number of rings (size 3 to 8) (size 9 to 14) (size 15 to 20)
#    0.000    1.000    0.000    3.500   18.667    2.667 
#    0.000    0.000    0.000    0.000    0.000    0.000 
#    0.000    0.000    0.000    0.000    0.000    0.000 
#
# Total GULP energy -148818.845734 kJ/mol
# GULP energy per Si atom -12401.570478 kJ/mol
# Density = 2.519249 g / cm^3
# Si number density = 25.249957 Si / 1000 Ang^3
#
#
#
# Elastic Constant Matrix: (Units=GPa)
#
#
# Indices 1 2 3 4 5 6 
#
# 1 117.2776 52.9929 45.8158 8.0229 4.1858 53.1585
# 2 52.9929 109.2033 28.3841 -0.6298 -0.7543 26.9113
# 3 45.8158 28.3841 149.9810 11.9250 3.0836 22.8843
# 4 8.0229 -0.6298 11.9250 52.9214 11.3909 -4.6278
# 5 4.1858 -0.7543 3.0836 11.3909 30.6529 -2.6975
# 6 53.1585 26.9113 22.8843 -4.6278 -2.6975 44.4267
#
#
#
# Elastic Compliance Matrix: (Units=1/GPa)
#
#
# Indices 1 2 3 4 5 6 
#
# 1 0.022699 -0.004636 -0.001972 -0.004399 -0.003493 -0.024007
# 2 -0.004636 0.011892 -0.000731 0.000777 0.000608 -0.001162
# 3 -0.001972 -0.000731 0.007740 -0.001557 -0.000067 -0.001350
# 4 -0.004399 0.000777 -0.001557 0.022031 -0.006752 0.007481
# 5 -0.003493 0.000608 -0.000067 -0.006752 0.036101 0.005334
# 6 -0.024007 -0.001162 -0.001350 0.007481 0.005334 0.053737
#
#
# Mechanical properties :
#
#
# Convention : Reuss Voigt Hill
#
# Bulk Modulus (GPa) = 36.16384 70.09418 53.12901
# Shear Modulus (GPa) = 28.07482 42.21814 35.14648
#
# Velocity S-wave (km/s) = 3.33810 4.09346 3.73492
# Velocity P-wave (km/s) = 5.40469 7.08253 6.29972
#
# Compressibility (1/GPa) = 0.02765193
#
# Stress axis : x y z
#
# Youngs Moduli (GPa) = 44.05394 84.08989 129.20586
#
# Poissons Ratio (x) = 0.38985 0.25481
# Poissons Ratio (y) = 0.20424 0.09450
# Poissons Ratio (z) = 0.08688 0.06150
#
# Static dielectric constant tensor:
#      x y z
#    x 4.779680 0.353050 -0.123870 
#    y 0.353050 4.087560 -0.228450 
#    z -0.123870 -0.228450 5.111270 
# 
# 
# High freq. dielectric constant tensor:
#      x y z
#    x 2.013350 0.016560 -0.004270 
#    y 0.016560 1.998390 0.000080 
#    z -0.004270 0.000080 2.029610 
# 
# From -- ./inp_files/553187.got.cif
#   From: 2010.06.25/outbox.cif.g09.slc.cpg/sg2_277_cif.got.tgz:553187.got - 2010.06.27 13:26:56.
