data_PCOD8028131
_publ_section_title
;
Structure prediction by ZEFSAII (Michael W. Deem and Ramdas Pophale) SiO2 
 PCOD8028131
Probable space group: P -1
;
_chemical_formula_sum "Si O2"
_cell_formula_units_Z 16
_cell_length_a 18.608617
_cell_length_b 9.076242
_cell_length_c 15.549527
_cell_angle_alpha 152.126528
_cell_angle_beta 141.894134
_cell_angle_gamma 38.726263
_cell_volume 724.436851
_symmetry_space_group_name_H-M "P -1"
_symmetry_group_IT_number 2
_symmetry_cell_setting 'triclinic'
loop_
_space_group_symop_operation_xyz
x,y,z
-x,-y,-z
loop_
_atom_site_type_symbol
_atom_site_label
_atom_site_fract_x
_atom_site_fract_y
_atom_site_fract_z
Si Si1 0.330204 0.263699 0.150581
Si Si2 0.004018 0.596106 0.455208
Si Si3 0.909585 0.855066 0.117414
Si Si4 0.597594 0.147884 0.545378
Si Si5 0.190925 0.709850 0.919143
Si Si6 0.783579 0.781168 0.659590
Si Si7 0.669822 0.467816 0.524560
Si Si8 0.598893 0.877587 0.221267
O O1 0.349445 0.539242 0.246887
O O2 0.295408 0.419313 0.292207
O O3 0.453566 0.954457 0.109303
O O4 0.213135 0.157432 0.954445
O O5 0.116785 0.349338 0.386362
O O6 0.000000 0.500000 0.500000
O O7 0.881691 0.564104 0.277544
O O8 0.017667 0.964751 0.657389
O O9 0.867669 0.057292 0.095043
O O10 0.000000 0.500000 0.000000
O O11 0.454114 0.268869 0.486985
O O12 0.655779 0.922207 0.563480
O O13 0.628807 0.946834 0.382523
O O14 0.332961 0.506025 0.931933
O O15 0.181097 0.929784 0.107528
O O16 0.772279 0.492424 0.564978
O O17 0.651943 0.106887 0.326419
#
# Coordination Sequence:
#
# PCOD8028131 Si02
#       8
#     2   2   2   2   2   2   2   2
#     4   9  19  40  67  98 126 176 218 256 322 379
#     4  10  25  44  62  89 124 172 216 261 321 382
#     4  11  24  42  70  95 125 168 228 271 305 392
#     4   9  19  36  67  95 131 175 209 259 323 384
#     4  11  24  42  65  97 130 172 213 270 328 371
#     4  12  22  41  65  97 133 169 213 272 323 386
#     4   9  19  39  64  97 130 170 213 267 321 373
#     4   9  20  42  70  92 134 172 214 263 315 396
#
# _framework density 22.086120999999999
#
# number of rings (size 3 to 8) (size 9 to 14) (size 15 to 20)
#    0.000    2.000    1.250    3.750    7.000    0.500 
#    6.750    2.500    0.000    0.000    0.000    0.000 
#    0.000    0.000    0.000    0.000    0.000    0.000 
#
# Total GULP energy -198349.131635 kJ/mol
# GULP energy per Si atom -12396.820727 kJ/mol
# Density = 2.203585 g / cm^3
# Si number density = 22.086121 Si / 1000 Ang^3
#
#
#
# Elastic Constant Matrix: (Units=GPa)
#
#
# Indices 1 2 3 4 5 6 
#
# 1 105.7572 22.9984 36.6975 5.7364 1.0389 -7.4930
# 2 22.9984 93.6334 22.5537 16.7732 -6.4218 -13.2239
# 3 36.6975 22.5537 116.1974 12.1553 8.3224 -16.7981
# 4 5.7364 16.7732 12.1553 24.8912 -10.0168 -4.7468
# 5 1.0389 -6.4218 8.3224 -10.0168 35.7417 -0.3519
# 6 -7.4930 -13.2239 -16.7981 -4.7468 -0.3519 29.6408
#
#
#
# Elastic Compliance Matrix: (Units=1/GPa)
#
#
# Indices 1 2 3 4 5 6 
#
# 1 0.010952 -0.001980 -0.003104 0.000433 0.000172 0.000198
# 2 -0.001980 0.013193 -0.000677 -0.007111 0.000631 0.003870
# 3 -0.003104 -0.000677 0.011168 -0.005058 -0.004006 0.004385
# 4 0.000433 -0.007111 -0.005058 0.053937 0.015032 0.002886
# 5 0.000172 0.000631 -0.004006 0.015032 0.033241 0.000856
# 6 0.000198 0.003870 0.004385 0.002886 0.000856 0.038471
#
#
# Mechanical properties :
#
#
# Convention : Reuss Voigt Hill
#
# Bulk Modulus (GPa) = 42.03280 53.34301 47.68791
# Shear Modulus (GPa) = 27.71401 33.61062 30.66231
#
# Velocity S-wave (km/s) = 3.54618 3.90526 3.73004
# Velocity P-wave (km/s) = 5.98664 6.67378 6.33953
#
# Compressibility (1/GPa) = 0.02379094
#
# Stress axis : x y z
#
# Youngs Moduli (GPa) = 91.30729 75.79623 89.54516
#
# Poissons Ratio (x) = 0.15010 0.27790
# Poissons Ratio (y) = 0.18082 0.06063
# Poissons Ratio (z) = 0.28337 0.05132
#
# Static dielectric constant tensor:
#      x y z
#    x 3.907610 -0.097580 0.325160 
#    y -0.097580 3.804510 -0.062780 
#    z 0.325160 -0.062780 4.277480 
# 
# 
# High freq. dielectric constant tensor:
#      x y z
#    x 1.863420 -0.008760 0.015950 
#    y -0.008760 1.861150 -0.000440 
#    z 0.015950 -0.000440 1.863010 
# 
# From -- ./inp_files/186499.got.cif
#   From: 2010.06.25/outbox.cif.g09.slc.cpg/sg2_94_cif.got.tgz:186499.got - 2010.06.27 13:26:56.
