data_PCOD8028050
_publ_section_title
;
Structure prediction by ZEFSAII (Michael W. Deem and Ramdas Pophale) SiO2 
 PCOD8028050
Probable space group: P -1
;
_chemical_formula_sum "Si O2"
_cell_formula_units_Z 16
_cell_length_a 12.240277
_cell_length_b 11.272898
_cell_length_c 9.169739
_cell_angle_alpha 48.563664
_cell_angle_beta 52.720574
_cell_angle_gamma 68.554346
_cell_volume 753.446168
_symmetry_space_group_name_H-M "P -1"
_symmetry_group_IT_number 2
_symmetry_cell_setting 'triclinic'
loop_
_space_group_symop_operation_xyz
x,y,z
-x,-y,-z
loop_
_atom_site_type_symbol
_atom_site_label
_atom_site_fract_x
_atom_site_fract_y
_atom_site_fract_z
Si Si1 0.187300 0.561170 0.580272
Si Si2 0.021717 0.957166 0.183564
Si Si3 0.291247 0.773344 0.080614
Si Si4 0.431082 0.059947 0.865725
Si Si5 0.111107 0.308939 0.314602
Si Si6 0.837737 0.772991 0.994227
Si Si7 0.411489 0.619892 0.566639
Si Si8 0.639026 0.463910 0.001622
O O1 0.286801 0.620748 0.317697
O O2 0.260958 0.639539 0.600834
O O3 0.030652 0.602744 0.648833
O O4 0.187589 0.372519 0.755006
O O5 0.152710 0.854668 0.158220
O O6 0.901920 0.850535 0.447729
O O7 0.033079 0.117985 0.139237
O O8 0.000000 0.000000 0.000000
O O9 0.309622 0.703965 0.960702
O O10 0.415274 0.906940 0.896335
O O11 0.518512 0.205999 0.604813
O O12 0.286206 0.115044 0.988461
O O13 0.500000 0.000000 0.000000
O O14 0.145925 0.278200 0.143501
O O15 0.232438 0.407618 0.222107
O O16 0.500000 0.500000 0.500000
O O17 0.394307 0.539150 0.800540
O O18 0.500000 0.500000 0.000000
#
# Coordination Sequence:
#
# PCOD8028050 Si02
#       8
#     2   2   2   2   2   2   2   2
#     4  11  22  41  74  97 131 169 232 277 332 405
#     4  10  25  43  66  97 139 177 210 273 346 410
#     4  10  25  43  63 102 130 175 223 272 341 396
#     4  11  23  41  69  94 137 175 221 276 333 393
#     4  11  25  44  67 101 131 176 226 286 332 392
#     4  11  23  42  70 100 129 177 228 277 333 399
#     4  12  23  44  72 101 128 181 225 273 337 397
#     4  12  28  43  68  99 136 174 230 282 335 402
#
# _framework density 21.235758000000001
#
# number of rings (size 3 to 8) (size 9 to 14) (size 15 to 20)
#    0.000    1.000    3.750    1.500    5.250    2.500 
#    2.250    0.000    0.000    0.000    0.000    0.000 
#    0.000    0.000    0.000    0.000    0.000    0.000 
#
# Total GULP energy -198286.360892 kJ/mol
# GULP energy per Si atom -12392.897556 kJ/mol
# Density = 2.118742 g / cm^3
# Si number density = 21.235758 Si / 1000 Ang^3
#
#
#
# Elastic Constant Matrix: (Units=GPa)
#
#
# Indices 1 2 3 4 5 6 
#
# 1 122.3866 30.1981 47.2382 -12.9386 -12.8421 19.0000
# 2 30.1981 111.9487 47.5091 -17.4935 -10.3748 28.5980
# 3 47.2382 47.5091 122.9479 -31.9190 -4.0723 12.6458
# 4 -12.9386 -17.4935 -31.9190 38.5119 7.7284 -4.5636
# 5 -12.8421 -10.3748 -4.0723 7.7284 42.0290 -9.1005
# 6 19.0000 28.5980 12.6458 -4.5636 -9.1005 35.1035
#
#
#
# Elastic Compliance Matrix: (Units=1/GPa)
#
#
# Indices 1 2 3 4 5 6 
#
# 1 0.010334 -0.000223 -0.003548 -0.000413 0.002043 -0.003658
# 2 -0.000223 0.013116 -0.003600 0.001730 0.000577 -0.008894
# 3 -0.003548 -0.003600 0.012920 0.008391 -0.002103 0.000744
# 4 -0.000413 0.001730 0.008391 0.034533 -0.005483 -0.001141
# 5 0.002043 0.000577 -0.002103 -0.005483 0.026521 0.005344
# 6 -0.003658 -0.008894 0.000744 -0.001141 0.005344 0.038681
#
#
# Mechanical properties :
#
#
# Convention : Reuss Voigt Hill
#
# Bulk Modulus (GPa) = 46.23360 67.46377 56.84868
# Shear Modulus (GPa) = 31.63451 38.61809 35.12630
#
# Velocity S-wave (km/s) = 3.86383 4.26906 4.07149
# Velocity P-wave (km/s) = 6.45944 7.49251 6.99507
#
# Compressibility (1/GPa) = 0.02162929
#
# Stress axis : x y z
#
# Youngs Moduli (GPa) = 96.77171 76.24201 77.40048
#
# Poissons Ratio (x) = 0.01699 0.27458
# Poissons Ratio (y) = 0.02156 0.27862
# Poissons Ratio (z) = 0.34331 0.27445
#
# Static dielectric constant tensor:
#      x y z
#    x 7.909820 -0.826850 3.265440 
#    y -0.826850 4.095670 -0.981150 
#    z 3.265440 -0.981150 6.739300 
# 
# 
# High freq. dielectric constant tensor:
#      x y z
#    x 1.842300 0.007480 -0.004990 
#    y 0.007480 1.830560 -0.016590 
#    z -0.004990 -0.016590 1.840870 
# 
# From -- ./inp_files/261430.got.cif
#   From: 2010.06.25/outbox.cif.g09.slc.cpg/sg2_131_cif.got.tgz:261430.got - 2010.06.27 13:26:56.
