data_PCOD8028483
_publ_section_title
;
Structure prediction by ZEFSAII (Michael W. Deem and Ramdas Pophale) SiO2 
 PCOD8028483
Probable space group: P -1
;
_chemical_formula_sum "Si O2"
_cell_formula_units_Z 14
_cell_length_a 17.416114
_cell_length_b 7.809075
_cell_length_c 9.375652
_cell_angle_alpha 82.404525
_cell_angle_beta 128.756247
_cell_angle_gamma 57.684049
_cell_volume 593.158524
_symmetry_space_group_name_H-M "P -1"
_symmetry_group_IT_number 2
_symmetry_cell_setting 'triclinic'
loop_
_space_group_symop_operation_xyz
x,y,z
-x,-y,-z
loop_
_atom_site_type_symbol
_atom_site_label
_atom_site_fract_x
_atom_site_fract_y
_atom_site_fract_z
Si Si1 0.446811 0.281196 0.101069
Si Si2 0.316257 0.093985 0.052302
Si Si3 0.949600 0.625693 0.088273
Si Si4 0.559854 0.715648 0.594459
Si Si5 0.122735 0.882206 0.535456
Si Si6 0.224436 0.118273 0.638347
Si Si7 0.907193 0.068448 0.018879
O O1 0.484761 0.304959 0.300803
O O2 0.598471 0.099147 0.195814
O O3 0.393681 0.157460 0.069163
O O4 0.305083 0.578040 0.822684
O O5 0.177749 0.328064 0.986938
O O6 0.234715 0.106700 0.824006
O O7 0.458235 0.782275 0.333365
O O8 0.109710 0.422288 0.397075
O O9 0.855538 0.941464 0.949524
O O10 0.000000 0.500000 0.000000
O O11 0.500000 0.000000 0.500000
O O12 0.752133 0.410222 0.829822
O O13 0.133308 0.070193 0.493439
O O14 0.000000 0.000000 0.500000
O O15 0.051407 0.879599 0.321119
O O16 0.000000 0.000000 0.000000
#
# Coordination Sequence:
#
# PCOD8028483 Si02
#       7
#     2   2   2   2   2   2   2
#     4  11  24  45  74 104 149 196 244 303 378 435
#     4  11  25  46  75 103 152 191 247 303 377 435
#     4  12  27  48  74 110 150 195 252 307 370 444
#     4  10  25  46  75 104 149 196 245 302 378 437
#     4  12  24  47  73 104 150 189 247 306 366 440
#     4  12  26  44  75 111 145 195 245 305 376 444
#     4  12  28  45  76 111 147 197 250 305 373 441
#
# _framework density 23.602461000000002
#
# number of rings (size 3 to 8) (size 9 to 14) (size 15 to 20)
#    0.000    0.571    1.429    5.571   12.000    0.571 
#    2.571    0.000    0.000    0.000    0.000    0.000 
#    0.000    0.000    0.000    0.000    0.000    0.000 
#
# Total GULP energy -173463.595503 kJ/mol
# GULP energy per Si atom -12390.256822 kJ/mol
# Density = 2.354874 g / cm^3
# Si number density = 23.602461 Si / 1000 Ang^3
#
#
#
# Elastic Constant Matrix: (Units=GPa)
#
#
# Indices 1 2 3 4 5 6 
#
# 1 133.2410 53.5712 27.0445 -5.5538 15.4383 -27.2238
# 2 53.5712 111.9643 49.6059 1.6310 -6.1827 -13.6842
# 3 27.0445 49.6059 162.3260 1.2488 -20.7703 -15.9578
# 4 -5.5538 1.6310 1.2488 53.1119 -10.9990 -3.1040
# 5 15.4383 -6.1827 -20.7703 -10.9990 36.9941 4.4494
# 6 -27.2238 -13.6842 -15.9578 -3.1040 4.4494 49.4077
#
#
#
# Elastic Compliance Matrix: (Units=1/GPa)
#
#
# Indices 1 2 3 4 5 6 
#
# 1 0.011486 -0.004882 -0.000739 0.000320 -0.006573 0.005350
# 2 -0.004882 0.012584 -0.002737 -0.000325 0.002548 -0.000338
# 3 -0.000739 -0.002737 0.007766 0.000778 0.004322 0.001002
# 4 0.000320 -0.000325 0.000778 0.020183 0.006123 0.001054
# 5 -0.006573 0.002548 0.004322 0.006123 0.034962 -0.004284
# 6 0.005350 -0.000338 0.001002 0.001054 -0.004284 0.023870
#
#
# Mechanical properties :
#
#
# Convention : Reuss Voigt Hill
#
# Bulk Modulus (GPa) = 66.14095 74.21939 70.18017
# Shear Modulus (GPa) = 37.70559 46.39005 42.04782
#
# Velocity S-wave (km/s) = 4.00124 4.43818 4.22536
# Velocity P-wave (km/s) = 7.03067 7.60113 7.32146
#
# Compressibility (1/GPa) = 0.01511923
#
# Stress axis : x y z
#
# Youngs Moduli (GPa) = 87.06186 79.46648 128.77360
#
# Poissons Ratio (x) = 0.38795 0.09520
# Poissons Ratio (y) = 0.42503 0.35245
# Poissons Ratio (z) = 0.06436 0.21750
#
# Static dielectric constant tensor:
#      x y z
#    x 4.262550 -0.214800 -0.292060 
#    y -0.214800 4.091670 0.201300 
#    z -0.292060 0.201300 4.827700 
# 
# 
# High freq. dielectric constant tensor:
#      x y z
#    x 1.943260 -0.015080 -0.007450 
#    y -0.015080 1.921850 0.005030 
#    z -0.007450 0.005030 1.965720 
# 
# From -- ./inp_files/328901.got.cif
#   From: 2010.06.25/outbox.cif.g09.slc.cpg/sg2_165_cif.got.tgz:328901.got - 2010.06.27 13:26:56.
