data_PCOD8028386
_publ_section_title
;
Structure prediction by ZEFSAII (Michael W. Deem and Ramdas Pophale) SiO2 
 PCOD8028386
Probable space group: P -1
;
_chemical_formula_sum "Si O2"
_cell_formula_units_Z 16
_cell_length_a 11.906715
_cell_length_b 8.882577
_cell_length_c 14.068358
_cell_angle_alpha 110.208661
_cell_angle_beta 64.314638
_cell_angle_gamma 56.012077
_cell_volume 686.554813
_symmetry_space_group_name_H-M "P -1"
_symmetry_group_IT_number 2
_symmetry_cell_setting 'triclinic'
loop_
_space_group_symop_operation_xyz
x,y,z
-x,-y,-z
loop_
_atom_site_type_symbol
_atom_site_label
_atom_site_fract_x
_atom_site_fract_y
_atom_site_fract_z
Si Si1 0.202571 0.182511 0.753082
Si Si2 0.109114 0.070168 0.252648
Si Si3 0.833949 0.817182 0.448699
Si Si4 0.732507 0.206404 0.064441
Si Si5 0.935459 0.324436 0.041280
Si Si6 0.243154 0.795554 0.330540
Si Si7 0.311739 0.202491 0.194417
Si Si8 0.351141 0.288904 0.404398
O O1 0.218802 0.094139 0.622858
O O2 0.986800 0.333236 0.917961
O O3 0.420503 0.891742 0.670629
O O4 0.177423 0.403442 0.802553
O O5 0.224305 0.118795 0.226716
O O6 0.844623 0.363482 0.448118
O O7 0.240173 0.811593 0.220993
O O8 0.121922 0.981330 0.124716
O O9 0.741157 0.747861 0.500120
O O10 0.105880 0.536308 0.305913
O O11 0.706271 0.086986 0.616304
O O12 0.464139 0.449262 0.202577
O O13 0.830290 0.984360 0.060979
O O14 0.760602 0.364162 0.114169
O O15 0.000000 0.000000 0.500000
O O16 0.406853 0.167784 0.251387
O O17 0.500000 0.000000 0.000000
#
# Coordination Sequence:
#
# PCOD8028386 Si02
#       8
#     2   2   2   2   2   2   2   2
#     4  11  25  41  77 100 134 177 243 284 345 407
#     4  11  24  44  68 102 136 183 229 282 352 413
#     4  11  23  45  64 104 135 176 227 285 345 405
#     4  11  26  47  69  95 148 183 227 280 360 410
#     4  10  25  46  67 105 134 184 229 292 341 419
#     4  12  27  43  68  99 142 184 232 281 340 421
#     4  11  24  39  74  99 137 174 227 290 351 401
#     4  11  22  44  70 102 141 172 225 298 342 406
#
# _framework density 23.304766000000001
#
# number of rings (size 3 to 8) (size 9 to 14) (size 15 to 20)
#    0.000    1.000    2.500    3.750   10.500    2.000 
#    0.000    1.250    0.000    0.000    0.000    0.000 
#    0.000    0.000    0.000    0.000    0.000    0.000 
#
# Total GULP energy -198446.181771 kJ/mol
# GULP energy per Si atom -12402.886361 kJ/mol
# Density = 2.325172 g / cm^3
# Si number density = 23.304766 Si / 1000 Ang^3
#
#
#
# Elastic Constant Matrix: (Units=GPa)
#
#
# Indices 1 2 3 4 5 6 
#
# 1 50.5248 29.3955 3.0600 -0.4317 -1.4141 -20.0958
# 2 29.3955 104.3332 30.5100 -0.1405 0.3331 -27.7259
# 3 3.0600 30.5100 95.4267 -1.1193 -5.8539 -13.9926
# 4 -0.4317 -0.1405 -1.1193 43.3438 -12.0946 5.9465
# 5 -1.4141 0.3331 -5.8539 -12.0946 35.8353 2.2920
# 6 -20.0958 -27.7259 -13.9926 5.9465 2.2920 37.3077
#
#
#
# Elastic Compliance Matrix: (Units=1/GPa)
#
#
# Indices 1 2 3 4 5 6 
#
# 1 0.027505 -0.005319 0.002588 -0.001218 0.000379 0.012004
# 2 -0.005319 0.013805 -0.003425 -0.001489 -0.001813 0.006458
# 3 0.002588 -0.003425 0.012090 0.000466 0.002063 0.003182
# 4 -0.001218 -0.001489 0.000466 0.026573 0.009420 -0.006402
# 5 0.000379 -0.001813 0.002063 0.009420 0.031698 -0.003819
# 6 0.012004 0.006458 0.003182 -0.006402 -0.003819 0.040518
#
#
# Mechanical properties :
#
#
# Convention : Reuss Voigt Hill
#
# Bulk Modulus (GPa) = 24.33844 41.80173 33.07009
# Shear Modulus (GPa) = 28.05891 35.78531 31.92211
#
# Velocity S-wave (km/s) = 3.47363 3.92284 3.70505
# Velocity P-wave (km/s) = 5.15309 6.20437 5.70301
#
# Compressibility (1/GPa) = 0.04108727
#
# Stress axis : x y z
#
# Youngs Moduli (GPa) = 36.35736 72.43821 82.71404
#
# Poissons Ratio (x) = 0.38530 -0.21404
# Poissons Ratio (y) = 0.19338 0.28328
# Poissons Ratio (z) = -0.09408 0.24809
#
# Static dielectric constant tensor:
#      x y z
#    x 4.105160 -0.151810 0.076060 
#    y -0.151810 4.418660 0.069860 
#    z 0.076060 0.069860 4.540560 
# 
# 
# High freq. dielectric constant tensor:
#      x y z
#    x 1.912150 -0.009170 -0.000850 
#    y -0.009170 1.930720 -0.001290 
#    z -0.000850 -0.001290 1.924850 
# 
# From -- ./inp_files/242718.got.cif
#   From: 2010.06.25/outbox.cif.g09.slc.cpg/sg2_122_cif.got.tgz:242718.got - 2010.06.27 13:26:56.
