data_PCOD8028697
_publ_section_title
;
Structure prediction by ZEFSAII (Michael W. Deem and Ramdas Pophale) SiO2 
 PCOD8028697
Probable space group: P -1
;
_chemical_formula_sum "Si O2"
_cell_formula_units_Z 14
_cell_length_a 8.560943
_cell_length_b 8.240709
_cell_length_c 9.192769
_cell_angle_alpha 114.022568
_cell_angle_beta 84.504158
_cell_angle_gamma 98.219565
_cell_volume 585.769412
_symmetry_space_group_name_H-M "P -1"
_symmetry_group_IT_number 2
_symmetry_cell_setting 'triclinic'
loop_
_space_group_symop_operation_xyz
x,y,z
-x,-y,-z
loop_
_atom_site_type_symbol
_atom_site_label
_atom_site_fract_x
_atom_site_fract_y
_atom_site_fract_z
Si Si1 0.178196 0.577320 0.994174
Si Si2 0.356937 0.216548 0.195136
Si Si3 0.672565 0.780103 0.137381
Si Si4 0.817077 0.096515 0.405472
Si Si5 0.344331 0.875013 0.272211
Si Si6 0.112077 0.348152 0.457684
Si Si7 0.696088 0.370400 0.294538
O O1 0.218832 0.713337 0.171199
O O2 0.293146 0.422892 0.929840
O O3 0.207317 0.679732 0.875323
O O4 0.000000 0.500000 0.000000
O O5 0.202139 0.309975 0.286626
O O6 0.510663 0.353519 0.270224
O O7 0.361765 0.034916 0.215239
O O8 0.350306 0.167242 0.008784
O O9 0.513381 0.802395 0.248652
O O10 0.813402 0.914440 0.245658
O O11 0.717104 0.055640 0.545403
O O12 0.732569 0.240770 0.374175
O O13 0.000896 0.168128 0.450390
O O14 0.243141 0.421428 0.593165
O O15 0.000000 0.500000 0.500000
#
# Coordination Sequence:
#
# PCOD8028697 Si02
#       7
#     2   2   2   2   2   2   2
#     4  12  29  46  75 107 148 189 244 303 365 431
#     4  12  26  46  78 103 149 196 242 296 358 438
#     4  12  27  47  73 109 145 192 242 301 363 428
#     4  11  26  47  76 105 150 187 244 302 363 426
#     4  12  26  49  72 110 147 191 246 294 362 435
#     4  10  26  44  73 107 148 188 242 299 364 420
#     4  11  24  48  73 105 145 187 249 289 367 424
#
# _framework density 23.900193000000002
#
# number of rings (size 3 to 8) (size 9 to 14) (size 15 to 20)
#    0.000    0.571    2.857    3.429   12.000    1.143 
#    0.000    0.000    0.000    0.000    0.000    0.000 
#    0.000    0.000    0.000    0.000    0.000    0.000 
#
# Total GULP energy -173666.489990 kJ/mol
# GULP energy per Si atom -12404.749285 kJ/mol
# Density = 2.384579 g / cm^3
# Si number density = 23.900193 Si / 1000 Ang^3
#
#
#
# Elastic Constant Matrix: (Units=GPa)
#
#
# Indices 1 2 3 4 5 6 
#
# 1 122.0237 37.8789 48.2096 17.1750 -6.2227 30.5745
# 2 37.8789 80.7231 36.8460 4.5241 15.7795 17.7416
# 3 48.2096 36.8460 137.4694 5.6184 13.5526 18.5888
# 4 17.1750 4.5241 5.6184 43.5629 12.7514 3.9299
# 5 -6.2227 15.7795 13.5526 12.7514 44.7404 7.1557
# 6 30.5745 17.7416 18.5888 3.9299 7.1557 38.9800
#
#
#
# Elastic Compliance Matrix: (Units=1/GPa)
#
#
# Indices 1 2 3 4 5 6 
#
# 1 0.014195 -0.004540 -0.003131 -0.006200 0.007627 -0.008350
# 2 -0.004540 0.017106 -0.002159 0.002346 -0.006316 -0.002272
# 3 -0.003131 -0.002159 0.009251 0.001108 -0.002698 -0.000590
# 4 -0.006200 0.002346 0.001108 0.027825 -0.010333 0.002359
# 5 0.007627 -0.006316 -0.002698 -0.010333 0.030419 -0.006363
# 6 -0.008350 -0.002272 -0.000590 0.002359 -0.006363 0.034449
#
#
# Mechanical properties :
#
#
# Convention : Reuss Voigt Hill
#
# Bulk Modulus (GPa) = 47.86134 65.12058 56.49096
# Shear Modulus (GPa) = 31.27531 39.94212 35.60871
#
# Velocity S-wave (km/s) = 3.62135 4.09247 3.86410
# Velocity P-wave (km/s) = 6.12818 7.04536 6.60272
#
# Compressibility (1/GPa) = 0.02089369
#
# Stress axis : x y z
#
# Youngs Moduli (GPa) = 70.44664 58.45756 108.09261
#
# Poissons Ratio (x) = 0.26541 0.33840
# Poissons Ratio (y) = 0.31984 0.23335
# Poissons Ratio (z) = 0.22054 0.12620
#
# Static dielectric constant tensor:
#      x y z
#    x 4.558660 0.400460 0.232270 
#    y 0.400460 4.374040 0.211000 
#    z 0.232270 0.211000 4.652050 
# 
# 
# High freq. dielectric constant tensor:
#      x y z
#    x 1.952970 0.018620 0.005510 
#    y 0.018620 1.948140 0.005090 
#    z 0.005510 0.005090 1.961040 
# 
# From -- ./inp_files/156666.got.cif
#   From: 2010.06.25/outbox.cif.g09.slc.cpg/sg2_79_cif.got.tgz:156666.got - 2010.06.27 13:26:56.
