data_PCOD8028177
_publ_section_title
;
Structure prediction by ZEFSAII (Michael W. Deem and Ramdas Pophale) SiO2 
 PCOD8028177
Probable space group: P -1
;
_chemical_formula_sum "Si O2"
_cell_formula_units_Z 14
_cell_length_a 14.850744
_cell_length_b 26.145448
_cell_length_c 14.587647
_cell_angle_alpha 22.912262
_cell_angle_beta 160.392354
_cell_angle_gamma 160.715488
_cell_volume 601.092822
_symmetry_space_group_name_H-M "P -1"
_symmetry_group_IT_number 2
_symmetry_cell_setting 'triclinic'
loop_
_space_group_symop_operation_xyz
x,y,z
-x,-y,-z
loop_
_atom_site_type_symbol
_atom_site_label
_atom_site_fract_x
_atom_site_fract_y
_atom_site_fract_z
Si Si1 0.325947 0.144461 0.764069
Si Si2 0.449654 0.079916 0.622474
Si Si3 0.312756 0.182839 0.491993
Si Si4 0.392793 0.484589 0.027069
Si Si5 0.922577 0.343721 0.504121
Si Si6 0.706186 0.190708 0.354602
Si Si7 0.629077 0.684437 0.300510
O O1 0.484403 0.237904 0.665560
O O2 0.468624 0.273391 0.768463
O O3 0.934845 0.033669 0.575877
O O4 0.429132 0.027411 0.065177
O O5 0.546337 0.198507 0.607458
O O6 0.626750 0.179221 0.537687
O O7 0.196046 0.296675 0.172782
O O8 0.000000 0.000000 0.500000
O O9 0.719566 0.601441 0.209191
O O10 0.500000 0.500000 0.000000
O O11 0.127202 0.520372 0.736356
O O12 0.892434 0.308125 0.426147
O O13 0.980085 0.215582 0.505749
O O14 0.500000 0.000000 0.500000
O O15 0.512748 0.259591 0.008720
O O16 0.500000 0.500000 0.500000
#
# Coordination Sequence:
#
# PCOD8028177 Si02
#       7
#     2   2   2   2   2   2   2
#     4  11  24  42  71  97 142 184 230 284 355 415
#     4  11  23  44  68 106 136 181 230 286 346 430
#     4  10  25  44  69 101 139 182 232 276 352 428
#     4  12  26  46  69 105 145 183 227 293 350 425
#     4  12  26  43  77 101 144 182 236 289 362 407
#     4  12  27  50  77 108 144 195 252 303 358 438
#     4  12  27  48  72 107 148 188 246 309 366 425
#
# _framework density 23.290911000000001
#
# number of rings (size 3 to 8) (size 9 to 14) (size 15 to 20)
#    0.000    0.571    1.429    6.000    6.000    2.286 
#    0.000    0.000    0.000    0.000    0.000    0.000 
#    0.000    0.000    0.000    0.000    0.000    0.000 
#
# Total GULP energy -173503.026976 kJ/mol
# GULP energy per Si atom -12393.073355 kJ/mol
# Density = 2.323790 g / cm^3
# Si number density = 23.290911 Si / 1000 Ang^3
#
#
#
# Elastic Constant Matrix: (Units=GPa)
#
#
# Indices 1 2 3 4 5 6 
#
# 1 124.4415 20.3084 35.2434 -14.0118 1.0635 -36.1618
# 2 20.3084 89.2180 50.9608 -21.1583 1.5614 -8.5721
# 3 35.2434 50.9608 182.1047 -30.9643 10.1223 -7.5974
# 4 -14.0118 -21.1583 -30.9643 55.7967 -0.4689 3.0178
# 5 1.0635 1.5614 10.1223 -0.4689 51.4737 -4.9413
# 6 -36.1618 -8.5721 -7.5974 3.0178 -4.9413 46.4564
#
#
#
# Elastic Compliance Matrix: (Units=1/GPa)
#
#
# Indices 1 2 3 4 5 6 
#
# 1 0.011099 -0.000600 -0.001461 0.001308 0.000885 0.008299
# 2 -0.000600 0.014110 -0.003227 0.003335 0.000387 0.001433
# 3 -0.001461 -0.003227 0.007123 0.002398 -0.001334 -0.000865
# 4 0.001308 0.003335 0.002398 0.020808 -0.000349 0.000636
# 5 0.000885 0.000387 -0.001334 -0.000349 0.019914 0.002683
# 6 0.008299 0.001433 -0.000865 0.000636 0.002683 0.028352
#
#
# Mechanical properties :
#
#
# Convention : Reuss Voigt Hill
#
# Bulk Modulus (GPa) = 45.96430 67.64327 56.80378
# Shear Modulus (GPa) = 41.93408 50.02880 45.98144
#
# Velocity S-wave (km/s) = 4.24777 4.63968 4.44804
# Velocity P-wave (km/s) = 6.62086 7.60315 7.12895
#
# Compressibility (1/GPa) = 0.02175602
#
# Stress axis : x y z
#
# Youngs Moduli (GPa) = 90.10000 70.87048 140.39197
#
# Poissons Ratio (x) = 0.04253 0.20507
# Poissons Ratio (y) = 0.05407 0.45307
# Poissons Ratio (z) = 0.13161 0.22871
#
# Static dielectric constant tensor:
#      x y z
#    x 4.986680 -0.077300 -0.153900 
#    y -0.077300 3.995040 -0.197820 
#    z -0.153900 -0.197820 4.461680 
# 
# 
# High freq. dielectric constant tensor:
#      x y z
#    x 1.943680 -0.000430 -0.000950 
#    y -0.000430 1.918100 -0.012960 
#    z -0.000950 -0.012960 1.939950 
# 
# From -- ./inp_files/535721.got.cif
#   From: 2010.06.25/outbox.cif.g09.slc.cpg/sg2_268_cif.got.tgz:535721.got - 2010.06.27 13:26:56.
