data_PCOD8028057
_publ_section_title
;
Structure prediction by ZEFSAII (Michael W. Deem and Ramdas Pophale) SiO2 
 PCOD8028057
Probable space group: P -1
;
_chemical_formula_sum "Si O2"
_cell_formula_units_Z 14
_cell_length_a 9.452390
_cell_length_b 12.524921
_cell_length_c 12.495623
_cell_angle_alpha 145.614395
_cell_angle_beta 129.242618
_cell_angle_gamma 59.668406
_cell_volume 646.568667
_symmetry_space_group_name_H-M "P -1"
_symmetry_group_IT_number 2
_symmetry_cell_setting 'triclinic'
loop_
_space_group_symop_operation_xyz
x,y,z
-x,-y,-z
loop_
_atom_site_type_symbol
_atom_site_label
_atom_site_fract_x
_atom_site_fract_y
_atom_site_fract_z
Si Si1 0.836030 0.985056 0.782853
Si Si2 0.792252 0.435669 0.824144
Si Si3 0.253327 0.981192 0.990308
Si Si4 0.393213 0.200789 0.044263
Si Si5 0.675848 0.769512 0.332288
Si Si6 0.792072 0.035637 0.420087
Si Si7 0.275619 0.631370 0.026878
O O1 0.703742 0.862912 0.539294
O O2 0.042846 0.913621 0.810211
O O3 0.856636 0.208793 0.948134
O O4 0.744812 0.955964 0.832058
O O5 0.672757 0.595068 0.847703
O O6 0.769820 0.259717 0.588418
O O7 0.707490 0.367350 0.837468
O O8 0.000000 0.500000 0.000000
O O9 0.389109 0.809931 0.886618
O O10 0.334217 0.156520 0.102084
O O11 0.288852 0.041334 0.792314
O O12 0.476665 0.695433 0.139068
O O13 0.708520 0.934485 0.399830
O O14 0.793718 0.578535 0.221442
O O15 0.000000 0.000000 0.500000
#
# Coordination Sequence:
#
# PCOD8028057 Si02
#       7
#     2   2   2   2   2   2   2
#     4  11  22  44  66  93 134 176 224 262 330 388
#     4  12  23  39  67 101 130 163 209 279 337 392
#     4  10  25  43  65  88 133 192 217 263 308 396
#     4  11  23  45  63  94 137 169 225 266 323 391
#     4  11  23  39  66 104 130 165 209 282 344 389
#     4  12  22  39  68 101 130 166 211 274 347 389
#     4  11  23  39  68 104 129 158 216 282 344 384
#
# _framework density 21.652766
#
# number of rings (size 3 to 8) (size 9 to 14) (size 15 to 20)
#    0.000    0.857    4.286    3.000    4.000    0.000 
#    0.000    8.571    0.000    0.000    0.000    0.000 
#    0.000    0.000    0.000    0.000    0.000    0.000 
#
# Total GULP energy -173517.621766 kJ/mol
# GULP energy per Si atom -12394.115840 kJ/mol
# Density = 2.160348 g / cm^3
# Si number density = 21.652766 Si / 1000 Ang^3
#
#
#
# Elastic Constant Matrix: (Units=GPa)
#
#
# Indices 1 2 3 4 5 6 
#
# 1 109.1863 56.5314 8.1246 5.8135 3.7876 -1.1674
# 2 56.5314 160.5219 48.1390 15.7621 -6.8440 -9.9523
# 3 8.1246 48.1390 89.5770 25.5636 -9.1139 -4.2197
# 4 5.8135 15.7621 25.5636 35.3892 -3.1994 -7.6323
# 5 3.7876 -6.8440 -9.1139 -3.1994 29.6712 -4.0660
# 6 -1.1674 -9.9523 -4.2197 -7.6323 -4.0660 40.3217
#
#
#
# Elastic Compliance Matrix: (Units=1/GPa)
#
#
# Indices 1 2 3 4 5 6 
#
# 1 0.011549 -0.004552 0.001509 -0.001420 -0.002370 -0.001139
# 2 -0.004552 0.009320 -0.004441 0.000375 0.001673 0.001943
# 3 0.001509 -0.004441 0.016544 -0.010195 0.002630 -0.000986
# 4 -0.001420 0.000375 -0.010195 0.037213 0.002002 0.006230
# 5 -0.002370 0.001673 0.002630 0.002002 0.036050 0.004634
# 6 -0.001139 0.001943 -0.000986 0.006230 0.004634 0.026791
#
#
# Mechanical properties :
#
#
# Convention : Reuss Voigt Hill
#
# Bulk Modulus (GPa) = 44.55297 64.98614 54.76955
# Shear Modulus (GPa) = 31.26671 37.50911 34.38791
#
# Velocity S-wave (km/s) = 3.80413 4.16661 3.98949
# Velocity P-wave (km/s) = 6.31791 7.29558 6.82428
#
# Compressibility (1/GPa) = 0.02244519
#
# Stress axis : x y z
#
# Youngs Moduli (GPa) = 86.58916 107.30181 60.44521
#
# Poissons Ratio (x) = 0.48844 -0.09122
# Poissons Ratio (y) = 0.39415 0.26842
# Poissons Ratio (z) = -0.13068 0.47650
#
# Static dielectric constant tensor:
#      x y z
#    x 3.985230 0.000010 -0.165140 
#    y 0.000010 3.944130 0.042830 
#    z -0.165140 0.042830 3.785450 
# 
# 
# High freq. dielectric constant tensor:
#      x y z
#    x 1.868470 -0.001330 -0.004110 
#    y -0.001330 1.860220 0.002630 
#    z -0.004110 0.002630 1.830540 
# 
# From -- ./inp_files/263406.got.cif
#   From: 2010.06.25/outbox.cif.g09.slc.cpg/sg2_132_cif.got.tgz:263406.got - 2010.06.27 13:26:56.
