data_PCOD8028107
_publ_section_title
;
Structure prediction by ZEFSAII (Michael W. Deem and Ramdas Pophale) SiO2 
 PCOD8028107
Probable space group: P -1
;
_chemical_formula_sum "Si O2"
_cell_formula_units_Z 12
_cell_length_a 8.768909
_cell_length_b 12.584049
_cell_length_c 8.645620
_cell_angle_alpha 116.434337
_cell_angle_beta 49.679833
_cell_angle_gamma 133.321329
_cell_volume 529.188565
_symmetry_space_group_name_H-M "P -1"
_symmetry_group_IT_number 2
_symmetry_cell_setting 'triclinic'
loop_
_space_group_symop_operation_xyz
x,y,z
-x,-y,-z
loop_
_atom_site_type_symbol
_atom_site_label
_atom_site_fract_x
_atom_site_fract_y
_atom_site_fract_z
Si Si1 0.314021 0.404059 0.424494
Si Si2 0.205233 0.766980 0.432696
Si Si3 0.540537 0.672041 0.259586
Si Si4 0.552064 0.037771 0.165908
Si Si5 0.990802 0.855622 0.901282
Si Si6 0.746114 0.844294 0.537916
O O1 0.500000 0.500000 0.500000
O O2 0.417194 0.500644 0.262804
O O3 0.296351 0.254299 0.346584
O O4 0.030814 0.354344 0.595457
O O5 0.325248 0.695933 0.394771
O O6 0.099788 0.833167 0.660056
O O7 0.414409 0.895185 0.271674
O O8 0.731257 0.768304 0.336807
O O9 0.708494 0.717315 0.025229
O O10 0.477056 0.143742 0.325944
O O11 0.842326 0.131463 0.058837
O O12 0.500000 0.000000 0.000000
O O13 0.000000 0.000000 0.000000
O O14 0.000000 0.000000 0.500000
#
# Coordination Sequence:
#
# PCOD8028107 Si02
#       6
#     2   2   2   2   2   2
#     4  10  25  43  71 100 139 186 226 285 353 407
#     4  12  24  46  72  99 140 184 232 284 345 411
#     4  11  24  46  69 101 143 181 230 284 344 413
#     4  12  25  40  69 109 137 176 232 289 342 405
#     4  12  25  42  72 107 139 177 234 286 343 408
#     4  11  21  42  70 101 139 181 229 284 342 406
#
# _framework density 22.676227999999998
#
# number of rings (size 3 to 8) (size 9 to 14) (size 15 to 20)
#    0.000    0.667    5.000    3.000    4.667    0.667 
#    0.000    2.500    0.000    0.000    0.000    0.000 
#    0.000    0.000    0.000    0.000    0.000    0.000 
#
# Total GULP energy -148657.916691 kJ/mol
# GULP energy per Si atom -12388.159724 kJ/mol
# Density = 2.262462 g / cm^3
# Si number density = 22.676228 Si / 1000 Ang^3
#
#
#
# Elastic Constant Matrix: (Units=GPa)
#
#
# Indices 1 2 3 4 5 6 
#
# 1 153.0687 54.8586 25.4892 -4.4301 -20.0182 -3.7812
# 2 54.8586 141.4492 31.7945 -26.0128 -8.1730 -26.4581
# 3 25.4892 31.7945 87.5598 -10.0224 -7.4239 -7.6150
# 4 -4.4301 -26.0128 -10.0224 31.6416 4.3101 10.4204
# 5 -20.0182 -8.1730 -7.4239 4.3101 38.5512 -3.5491
# 6 -3.7812 -26.4581 -7.6150 10.4204 -3.5491 51.7948
#
#
#
# Elastic Compliance Matrix: (Units=1/GPa)
#
#
# Indices 1 2 3 4 5 6 
#
# 1 0.008289 -0.003237 -0.001233 -0.002200 0.003577 -0.000542
# 2 -0.003237 0.010602 -0.001866 0.006519 -0.000192 0.003580
# 3 -0.001233 -0.001866 0.012841 0.002016 0.001260 0.000525
# 4 -0.002200 0.006519 0.002016 0.039435 -0.004219 -0.004757
# 5 0.003577 -0.000192 0.001260 -0.004219 0.028762 0.003168
# 6 -0.000542 0.003580 0.000525 -0.004757 0.003168 0.022348
#
#
# Mechanical properties :
#
#
# Convention : Reuss Voigt Hill
#
# Bulk Modulus (GPa) = 52.46879 67.37356 59.92118
# Shear Modulus (GPa) = 35.38517 42.39323 38.88920
#
# Velocity S-wave (km/s) = 3.95454 4.32846 4.14572
# Velocity P-wave (km/s) = 6.63624 7.39976 7.02837
#
# Compressibility (1/GPa) = 0.01905895
#
# Stress axis : x y z
#
# Youngs Moduli (GPa) = 120.63977 94.32224 77.87752
#
# Poissons Ratio (x) = 0.30531 0.09605
# Poissons Ratio (y) = 0.39049 0.14533
# Poissons Ratio (z) = 0.14879 0.17602
#
# Static dielectric constant tensor:
#      x y z
#    x 4.654100 -0.080610 -0.068820 
#    y -0.080610 4.706770 -0.133650 
#    z -0.068820 -0.133650 4.019120 
# 
# 
# High freq. dielectric constant tensor:
#      x y z
#    x 1.929230 -0.001160 -0.005240 
#    y -0.001160 1.898120 -0.015130 
#    z -0.005240 -0.015130 1.868170 
# 
# From -- ./inp_files/162682.got.cif
#   From: 2010.06.25/outbox.cif.g09.slc.cpg/sg2_82_cif.got.tgz:162682.got - 2010.06.27 13:26:56.
