data_PCOD8028112
_publ_section_title
;
Structure prediction by ZEFSAII (Michael W. Deem and Ramdas Pophale) SiO2 
 PCOD8028112
Probable space group: P -1
;
_chemical_formula_sum "Si O2"
_cell_formula_units_Z 16
_cell_length_a 22.247270
_cell_length_b 5.137877
_cell_length_c 10.169214
_cell_angle_alpha 62.702507
_cell_angle_beta 133.652058
_cell_angle_gamma 96.980595
_cell_volume 712.160446
_symmetry_space_group_name_H-M "P -1"
_symmetry_group_IT_number 2
_symmetry_cell_setting 'triclinic'
loop_
_space_group_symop_operation_xyz
x,y,z
-x,-y,-z
loop_
_atom_site_type_symbol
_atom_site_label
_atom_site_fract_x
_atom_site_fract_y
_atom_site_fract_z
Si Si1 0.389191 0.716769 0.146739
Si Si2 0.439956 0.791605 0.481240
Si Si3 0.874994 0.925176 0.482036
Si Si4 0.304539 0.093250 0.689349
Si Si5 0.777035 0.390968 0.019930
Si Si6 0.017203 0.658700 0.355802
Si Si7 0.173049 0.010541 0.056439
Si Si8 0.685693 0.246546 0.478298
O O1 0.377472 0.844017 0.248337
O O2 0.491296 0.547021 0.317688
O O3 0.321585 0.514926 0.091360
O O4 0.358650 0.979132 0.930419
O O5 0.379572 0.867210 0.500466
O O6 0.500000 0.000000 0.500000
O O7 0.798675 0.839536 0.464319
O O8 0.950468 0.609360 0.641048
O O9 0.838170 0.084759 0.252156
O O10 0.911367 0.161728 0.563564
O O11 0.329708 0.392181 0.615762
O O12 0.333409 0.838032 0.678334
O O13 0.809368 0.678113 0.038155
O O14 0.784320 0.289622 0.901130
O O15 0.000000 0.500000 0.500000
O O16 0.930955 0.911597 0.112177
O O17 0.215807 0.929556 0.284405
#
# Coordination Sequence:
#
# PCOD8028112 Si02
#       8
#     2   2   2   2   2   2   2   2
#     4  10  25  43  71 106 134 181 225 280 347 400
#     4  11  25  45  76 106 139 168 230 292 349 394
#     4  11  22  41  64  98 139 176 226 282 342 405
#     4  11  28  48  70  97 143 193 228 267 345 420
#     4  11  20  38  65  97 134 171 217 282 335 400
#     4  12  21  37  65 107 135 171 228 298 344 389
#     4  12  23  37  65  99 134 171 230 280 342 381
#     4  12  27  48  68 100 140 187 230 278 337 422
#
# _framework density 22.466849
#
# number of rings (size 3 to 8) (size 9 to 14) (size 15 to 20)
#    0.000    0.750    3.750    3.375    5.250    3.000 
#    0.000    3.750    0.000    0.000    0.000    0.000 
#    0.000    0.000    0.000    0.000    0.000    0.000 
#
# Total GULP energy -198381.699892 kJ/mol
# GULP energy per Si atom -12398.856243 kJ/mol
# Density = 2.241571 g / cm^3
# Si number density = 22.466849 Si / 1000 Ang^3
#
#
#
# Elastic Constant Matrix: (Units=GPa)
#
#
# Indices 1 2 3 4 5 6 
#
# 1 94.0335 28.2078 41.3544 4.8683 -3.5514 -0.0067
# 2 28.2078 105.7585 11.0985 7.5014 -2.2659 7.2530
# 3 41.3544 11.0985 115.4605 4.6597 11.3817 4.2660
# 4 4.8683 7.5014 4.6597 16.8778 6.6148 1.8991
# 5 -3.5514 -2.2659 11.3817 6.6148 23.4773 -1.4782
# 6 -0.0067 7.2530 4.2660 1.8991 -1.4782 40.5291
#
#
#
# Elastic Compliance Matrix: (Units=1/GPa)
#
#
# Indices 1 2 3 4 5 6 
#
# 1 0.014241 -0.002966 -0.005268 -0.003674 0.005549 0.001462
# 2 -0.002966 0.010696 0.000109 -0.004394 0.001664 -0.001660
# 3 -0.005268 0.000109 0.011200 0.001147 -0.006634 -0.001495
# 4 -0.003674 -0.004394 0.001147 0.070843 -0.021713 -0.003446
# 5 0.005549 0.001664 -0.006634 -0.021713 0.053139 0.003357
# 6 0.001462 -0.001660 -0.001495 -0.003446 0.003357 0.025412
#
#
# Mechanical properties :
#
#
# Convention : Reuss Voigt Hill
#
# Bulk Modulus (GPa) = 50.28609 52.95266 51.61937
# Shear Modulus (GPa) = 23.99079 31.81629 27.90354
#
# Velocity S-wave (km/s) = 3.27131 3.76725 3.52801
# Velocity P-wave (km/s) = 6.05802 6.52252 6.29456
#
# Compressibility (1/GPa) = 0.01988622
#
# Stress axis : x y z
#
# Youngs Moduli (GPa) = 70.21880 93.48946 89.28285
#
# Poissons Ratio (x) = 0.27732 0.47038
# Poissons Ratio (y) = 0.20829 -0.00972
# Poissons Ratio (z) = 0.36994 -0.01018
#
# Static dielectric constant tensor:
#      x y z
#    x 2.674240 -0.355220 -1.317500 
#    y -0.355220 3.895080 -0.369650 
#    z -1.317500 -0.369650 2.403610 
# 
# 
# High freq. dielectric constant tensor:
#      x y z
#    x 1.877720 0.003820 0.015320 
#    y 0.003820 1.888360 0.006220 
#    z 0.015320 0.006220 1.887920 
# 
# From -- ./inp_files/340182.got.cif
#   From: 2010.06.25/outbox.cif.g09.slc.cpg/sg2_171_cif.got.tgz:340182.got - 2010.06.27 13:26:56.
