data_PCOD8028305
_publ_section_title
;
Structure prediction by ZEFSAII (Michael W. Deem and Ramdas Pophale) SiO2 
 PCOD8028305
Probable space group: P -1
;
_chemical_formula_sum "Si O2"
_cell_formula_units_Z 16
_cell_length_a 11.848488
_cell_length_b 8.448980
_cell_length_c 15.687191
_cell_angle_alpha 64.273778
_cell_angle_beta 148.787948
_cell_angle_gamma 104.782911
_cell_volume 710.104460
_symmetry_space_group_name_H-M "P -1"
_symmetry_group_IT_number 2
_symmetry_cell_setting 'triclinic'
loop_
_space_group_symop_operation_xyz
x,y,z
-x,-y,-z
loop_
_atom_site_type_symbol
_atom_site_label
_atom_site_fract_x
_atom_site_fract_y
_atom_site_fract_z
Si Si1 0.293365 0.497430 0.807665
Si Si2 0.028701 0.153418 0.545508
Si Si3 0.713805 0.839891 0.680295
Si Si4 0.473128 0.509403 0.350508
Si Si5 0.937288 0.996752 0.207341
Si Si6 0.537682 0.729386 0.187877
Si Si7 0.964421 0.366454 0.746514
Si Si8 0.009201 0.653265 0.042649
O O1 0.384632 0.330876 0.842828
O O2 0.191004 0.679436 0.645496
O O3 0.091279 0.464955 0.740427
O O4 0.500000 0.500000 0.000000
O O5 0.260363 0.200527 0.655994
O O6 0.041900 0.089218 0.666119
O O7 0.000000 0.000000 0.500000
O O8 0.626826 0.661263 0.653944
O O9 0.895662 0.867965 0.720624
O O10 0.500000 0.000000 0.500000
O O11 0.839228 0.834862 0.854497
O O12 0.505620 0.554811 0.261351
O O13 0.705086 0.483178 0.556764
O O14 0.267195 0.675873 0.211024
O O15 0.684724 0.107728 0.998247
O O16 0.016386 0.838635 0.224680
O O17 0.071182 0.377982 0.906457
O O18 0.000000 0.500000 0.000000
#
# Coordination Sequence:
#
# PCOD8028305 Si02
#       8
#     2   2   2   2   2   2   2   2
#     4  12  28  44  77 111 146 201 246 301 368 443
#     4  12  27  48  73 112 149 192 247 302 371 433
#     4  11  24  45  69 106 143 187 239 302 365 426
#     4  11  23  46  74 103 140 194 242 297 362 442
#     4  12  26  47  73 106 151 193 241 312 363 436
#     4  12  25  50  76 105 151 195 247 305 366 440
#     4  12  25  47  73 105 147 193 248 299 371 438
#     4  10  25  45  70 101 141 188 244 296 359 436
#
# _framework density 22.531896
#
# number of rings (size 3 to 8) (size 9 to 14) (size 15 to 20)
#    0.000    0.500    5.000    2.625    5.250    2.500 
#    2.250    0.000    0.000    0.000    0.000    0.000 
#    0.000    0.000    0.000    0.000    0.000    0.000 
#
# Total GULP energy -198281.172826 kJ/mol
# GULP energy per Si atom -12392.573302 kJ/mol
# Density = 2.248061 g / cm^3
# Si number density = 22.531896 Si / 1000 Ang^3
#
#
#
# Elastic Constant Matrix: (Units=GPa)
#
#
# Indices 1 2 3 4 5 6 
#
# 1 104.1316 38.8793 42.8590 1.5102 -13.1313 10.0375
# 2 38.8793 91.2856 48.2697 6.9688 -4.9929 5.9109
# 3 42.8590 48.2697 191.0388 -22.3665 9.8511 2.3584
# 4 1.5102 6.9688 -22.3665 35.3336 4.4714 0.9427
# 5 -13.1313 -4.9929 9.8511 4.4714 46.4428 2.4351
# 6 10.0375 5.9109 2.3584 0.9427 2.4351 45.7233
#
#
#
# Elastic Compliance Matrix: (Units=1/GPa)
#
#
# Indices 1 2 3 4 5 6 
#
# 1 0.012673 -0.003690 -0.002284 -0.001698 0.003958 -0.002363
# 2 -0.003690 0.015054 -0.003692 -0.005367 0.001924 -0.000937
# 3 -0.002284 -0.003692 0.007541 0.005994 -0.003253 0.000639
# 4 -0.001698 -0.005367 0.005994 0.033928 -0.005614 0.000357
# 5 0.003958 0.001924 -0.003253 -0.005614 0.024200 -0.002123
# 6 -0.002363 -0.000937 0.000639 0.000357 -0.002123 0.022583
#
#
# Mechanical properties :
#
#
# Convention : Reuss Voigt Hill
#
# Bulk Modulus (GPa) = 62.75350 71.83020 67.29185
# Shear Modulus (GPa) = 35.55571 42.59647 39.07609
#
# Velocity S-wave (km/s) = 3.97674 4.35270 4.16896
# Velocity P-wave (km/s) = 6.99981 7.56372 7.28722
#
# Compressibility (1/GPa) = 0.01593537
#
# Stress axis : x y z
#
# Youngs Moduli (GPa) = 78.90873 66.42676 132.60028
#
# Poissons Ratio (x) = 0.24515 0.30291
# Poissons Ratio (y) = 0.29121 0.48953
# Poissons Ratio (z) = 0.18026 0.24523
#
# Static dielectric constant tensor:
#      x y z
#    x 4.312020 0.288110 0.161690 
#    y 0.288110 3.616130 0.186070 
#    z 0.161690 0.186070 4.216930 
# 
# 
# High freq. dielectric constant tensor:
#      x y z
#    x 1.897360 0.017600 0.004550 
#    y 0.017600 1.865550 -0.011250 
#    z 0.004550 -0.011250 1.922210 
# 
# From -- ./inp_files/515460.got.cif
#   From: 2010.06.25/outbox.cif.g09.slc.cpg/sg2_258_cif.got.tgz:515460.got - 2010.06.27 13:26:56.
