data_PCOD8028073
_publ_section_title
;
Structure prediction by ZEFSAII (Michael W. Deem and Ramdas Pophale) SiO2 
 PCOD8028073
Probable space group: P -1
;
_chemical_formula_sum "Si O2"
_cell_formula_units_Z 14
_cell_length_a 9.342076
_cell_length_b 21.319556
_cell_length_c 11.996285
_cell_angle_alpha 149.575177
_cell_angle_beta 120.376168
_cell_angle_gamma 38.015258
_cell_volume 618.936972
_symmetry_space_group_name_H-M "P -1"
_symmetry_group_IT_number 2
_symmetry_cell_setting 'triclinic'
loop_
_space_group_symop_operation_xyz
x,y,z
-x,-y,-z
loop_
_atom_site_type_symbol
_atom_site_label
_atom_site_fract_x
_atom_site_fract_y
_atom_site_fract_z
Si Si1 0.165744 0.760262 0.008335
Si Si2 0.041449 0.020543 0.171029
Si Si3 0.249080 0.233947 0.803082
Si Si4 0.464594 0.860243 0.599615
Si Si5 0.567680 0.651333 0.533133
Si Si6 0.485229 0.117356 0.941877
Si Si7 0.342058 0.397482 0.934751
O O1 0.410370 0.653310 0.026102
O O2 0.185757 0.826098 0.003156
O O3 0.197378 0.595378 0.740552
O O4 0.868121 0.961318 0.256311
O O5 0.732627 0.237660 0.428152
O O6 0.244223 0.017087 0.236991
O O7 0.000000 0.000000 0.000000
O O8 0.237001 0.245437 0.951056
O O9 0.289868 0.348678 0.950247
O O10 0.500000 0.000000 0.500000
O O11 0.948963 0.358297 0.836601
O O12 0.620223 0.700972 0.519753
O O13 0.577693 0.742716 0.347905
O O14 0.539243 0.960783 0.793452
O O15 0.585172 0.728192 0.766136
#
# Coordination Sequence:
#
# PCOD8028073 Si02
#       7
#     2   2   2   2   2   2   2
#     4  11  24  44  67 100 137 179 220 274 333 405
#     4   9  21  42  66  97 131 174 220 274 330 390
#     4  11  24  43  69 102 130 174 225 282 334 385
#     4  11  25  44  66 100 136 179 222 272 337 397
#     4  10  25  43  67 100 134 178 222 270 345 395
#     4  11  22  45  69  95 137 170 225 286 323 396
#     4  11  25  43  68 100 132 175 228 273 334 396
#
# _framework density 22.619426000000001
#
# number of rings (size 3 to 8) (size 9 to 14) (size 15 to 20)
#    0.000    1.429    2.857    0.857    4.000    3.429 
#    7.714    0.000    0.000    0.000    0.000    0.000 
#    0.000    0.000    0.000    0.000    0.000    0.000 
#
# Total GULP energy -173602.368265 kJ/mol
# GULP energy per Si atom -12400.169162 kJ/mol
# Density = 2.256794 g / cm^3
# Si number density = 22.619426 Si / 1000 Ang^3
#
#
#
# Elastic Constant Matrix: (Units=GPa)
#
#
# Indices 1 2 3 4 5 6 
#
# 1 107.3930 30.1790 13.6589 10.1746 6.4140 10.5143
# 2 30.1790 112.1052 35.8482 8.7418 0.2879 3.8405
# 3 13.6589 35.8482 91.4283 7.9808 -4.3129 -6.7464
# 4 10.1746 8.7418 7.9808 36.6448 0.5763 -2.5252
# 5 6.4140 0.2879 -4.3129 0.5763 24.2523 -3.3787
# 6 10.5143 3.8405 -6.7464 -2.5252 -3.3787 33.9034
#
#
#
# Elastic Compliance Matrix: (Units=1/GPa)
#
#
# Indices 1 2 3 4 5 6 
#
# 1 0.010899 -0.002292 -0.000962 -0.002480 -0.003503 -0.003846
# 2 -0.002292 0.010952 -0.003973 -0.001205 -0.000404 -0.001450
# 3 -0.000962 -0.003973 0.013180 -0.001459 0.003179 0.003579
# 4 -0.002480 -0.001205 -0.001459 0.028772 0.000113 0.002769
# 5 -0.003503 -0.000404 0.003179 0.000113 0.043579 0.006116
# 6 -0.003846 -0.001450 0.003579 0.002769 0.006116 0.032380
#
#
# Mechanical properties :
#
#
# Convention : Reuss Voigt Hill
#
# Bulk Modulus (GPa) = 48.59700 52.25539 50.42619
# Shear Modulus (GPa) = 31.04131 34.37615 32.70873
#
# Velocity S-wave (km/s) = 3.70852 3.90264 3.80682
# Velocity P-wave (km/s) = 6.31417 6.59239 6.45478
#
# Compressibility (1/GPa) = 0.02057740
#
# Stress axis : x y z
#
# Youngs Moduli (GPa) = 91.75366 91.30504 75.87050
#
# Poissons Ratio (x) = 0.20929 0.07299
# Poissons Ratio (y) = 0.21032 0.30141
# Poissons Ratio (z) = 0.08827 0.36273
#
# Static dielectric constant tensor:
#      x y z
#    x 4.719740 -0.313750 -0.127780 
#    y -0.313750 4.522660 0.168610 
#    z -0.127780 0.168610 3.791720 
# 
# 
# High freq. dielectric constant tensor:
#      x y z
#    x 1.899670 0.003210 -0.007260 
#    y 0.003210 1.900830 0.002980 
#    z -0.007260 0.002980 1.878410 
# 
# From -- ./inp_files/68346.got.cif
#   From: 2010.06.25/outbox.cif.g09.slc.cpg/sg2_35_cif.got.tgz:68346.got - 2010.06.27 13:26:56.
