data_PCOD8028867
_publ_section_title
;
Structure prediction by ZEFSAII (Michael W. Deem and Ramdas Pophale) SiO2 
 PCOD8028867
Probable space group: P -1
;
_chemical_formula_sum "Si O2"
_cell_formula_units_Z 14
_cell_length_a 10.755669
_cell_length_b 17.425497
_cell_length_c 13.712496
_cell_angle_alpha 33.414858
_cell_angle_beta 32.708732
_cell_angle_gamma 31.146650
_cell_volume 655.186582
_symmetry_space_group_name_H-M "P -1"
_symmetry_group_IT_number 2
_symmetry_cell_setting 'triclinic'
loop_
_space_group_symop_operation_xyz
x,y,z
-x,-y,-z
loop_
_atom_site_type_symbol
_atom_site_label
_atom_site_fract_x
_atom_site_fract_y
_atom_site_fract_z
Si Si1 0.869523 0.784753 0.541000
Si Si2 0.276782 0.109946 0.845378
Si Si3 0.358777 0.786070 0.217000
Si Si4 0.039016 0.485208 0.875705
Si Si5 0.485791 0.152312 0.467072
Si Si6 0.785619 0.040387 0.681339
Si Si7 0.896018 0.265627 0.095265
O O1 0.695710 0.759296 0.601006
O O2 0.154466 0.740405 0.349459
O O3 0.932933 0.664646 0.716465
O O4 0.711749 0.968703 0.489241
O O5 0.285751 0.152624 0.681431
O O6 0.491345 0.139338 0.726723
O O7 0.986605 0.235985 0.952228
O O8 0.366049 0.920890 0.000997
O O9 0.643925 0.634569 0.219172
O O10 0.200992 0.854635 0.351160
O O11 0.000000 0.500000 0.000000
O O12 0.856714 0.429616 0.995181
O O13 0.631906 0.251232 0.297646
O O14 0.000000 0.000000 0.500000
O O15 0.847769 0.870945 0.867781
#
# Coordination Sequence:
#
# PCOD8028867 Si02
#       7
#     2   2   2   2   2   2   2
#     4  11  25  44  61  99 136 169 218 268 315 395
#     4  11  19  38  68  99 121 167 224 266 319 379
#     4  11  21  40  65  97 130 165 217 275 325 387
#     4  12  26  42  65  97 136 168 212 278 339 374
#     4  11  24  44  70  91 131 179 220 260 317 394
#     4  11  18  33  69  98 123 162 218 275 321 372
#     4  11  22  41  66  97 125 168 220 268 316 391
#
# _framework density 21.367958000000002
#
# number of rings (size 3 to 8) (size 9 to 14) (size 15 to 20)
#    0.000    0.857    7.143    2.143    2.000    1.143 
#    5.143    0.714    0.000    0.000    0.000    0.000 
#    0.000    0.000    0.000    0.000    0.000    0.000 
#
# Total GULP energy -173500.748993 kJ/mol
# GULP energy per Si atom -12392.910642 kJ/mol
# Density = 2.131932 g / cm^3
# Si number density = 21.367958 Si / 1000 Ang^3
#
#
#
# Elastic Constant Matrix: (Units=GPa)
#
#
# Indices 1 2 3 4 5 6 
#
# 1 89.9008 32.4423 57.0504 4.6763 -1.2713 -6.4768
# 2 32.4423 57.4946 41.5086 4.7129 2.9785 -1.4724
# 3 57.0504 41.5086 118.5513 10.9221 3.3649 -4.2752
# 4 4.6763 4.7129 10.9221 29.7691 10.5723 6.5920
# 5 -1.2713 2.9785 3.3649 10.5723 42.2477 1.5413
# 6 -6.4768 -1.4724 -4.2752 6.5920 1.5413 20.8495
#
#
#
# Elastic Compliance Matrix: (Units=1/GPa)
#
#
# Indices 1 2 3 4 5 6 
#
# 1 0.017366 -0.005084 -0.006388 -0.000978 0.001491 0.003925
# 2 -0.005084 0.024812 -0.006222 -0.000163 -0.001331 -0.000953
# 3 -0.006388 -0.006222 0.014069 -0.003502 -0.000055 0.001572
# 4 -0.000978 -0.000163 -0.003502 0.041446 -0.009621 -0.013426
# 5 0.001491 -0.001331 -0.000055 -0.009621 0.026167 0.001465
# 6 0.003925 -0.000953 0.001572 -0.013426 0.001465 0.053574
#
#
# Mechanical properties :
#
#
# Convention : Reuss Voigt Hill
#
# Bulk Modulus (GPa) = 47.94235 58.66104 53.30170
# Shear Modulus (GPa) = 22.75048 27.56961 25.16005
#
# Velocity S-wave (km/s) = 3.26652 3.59588 3.43515
# Velocity P-wave (km/s) = 6.05905 6.68976 6.38220
#
# Compressibility (1/GPa) = 0.02085839
#
# Stress axis : x y z
#
# Youngs Moduli (GPa) = 57.58213 40.30316 71.07978
#
# Poissons Ratio (x) = 0.20491 0.45404
# Poissons Ratio (y) = 0.29276 0.44229
# Poissons Ratio (z) = 0.36782 0.25078
#
# Static dielectric constant tensor:
#      x y z
#    x 4.122570 0.564670 -0.283490 
#    y 0.564670 5.821520 -0.486350 
#    z -0.283490 -0.486350 4.351460 
# 
# 
# High freq. dielectric constant tensor:
#      x y z
#    x 1.837110 0.001290 -0.006500 
#    y 0.001290 1.812380 0.010860 
#    z -0.006500 0.010860 1.844840 
# 
# From -- ./inp_files/381591.got.cif
#   From: 2010.06.25/outbox.cif.g09.slc.cpg/sg2_191_cif.got.tgz:381591.got - 2010.06.27 13:26:56.
