data_PCOD8028584
_publ_section_title
;
Structure prediction by ZEFSAII (Michael W. Deem and Ramdas Pophale) SiO2 
 PCOD8028584
Probable space group: P -1
;
_chemical_formula_sum "Si O2"
_cell_formula_units_Z 16
_cell_length_a 11.688310
_cell_length_b 17.818315
_cell_length_c 8.414627
_cell_angle_alpha 47.357659
_cell_angle_beta 96.027581
_cell_angle_gamma 134.026522
_cell_volume 669.479799
_symmetry_space_group_name_H-M "P -1"
_symmetry_group_IT_number 2
_symmetry_cell_setting 'triclinic'
loop_
_space_group_symop_operation_xyz
x,y,z
-x,-y,-z
loop_
_atom_site_type_symbol
_atom_site_label
_atom_site_fract_x
_atom_site_fract_y
_atom_site_fract_z
Si Si1 0.290872 0.290304 0.200755
Si Si2 0.265192 0.718581 0.735590
Si Si3 0.929563 0.117752 0.578294
Si Si4 0.416394 0.185933 0.533130
Si Si5 0.002184 0.780099 0.216781
Si Si6 0.731596 0.762019 0.098502
Si Si7 0.630589 0.384925 0.597080
Si Si8 0.480513 0.084686 0.201388
O O1 0.108382 0.235118 0.301709
O O2 0.270070 0.161526 0.458191
O O3 0.500000 0.500000 0.000000
O O4 0.284024 0.276324 0.033044
O O5 0.406131 0.728667 0.683709
O O6 0.320045 0.781508 0.838664
O O7 0.365652 0.891448 0.404140
O O8 0.000000 0.500000 0.000000
O O9 0.983352 0.232218 0.573213
O O10 0.719092 0.003711 0.616803
O O11 0.880008 0.971638 0.859534
O O12 0.574666 0.354834 0.447406
O O13 0.241338 0.976355 0.888908
O O14 0.843001 0.756557 0.218508
O O15 0.888433 0.597784 0.371395
O O16 0.488567 0.608863 0.342949
O O17 0.563437 0.218915 0.876481
#
# Coordination Sequence:
#
# PCOD8028584 Si02
#       8
#     2   2   2   2   2   2   2   2
#     4  12  25  38  66 105 142 183 226 274 337 409
#     4  11  28  49  76  95 133 177 227 291 343 402
#     4  11  22  41  69  97 141 179 219 281 335 400
#     4  12  25  45  67 104 135 176 233 276 337 405
#     4  12  23  40  68  96 143 185 217 275 340 398
#     4  11  21  40  61  99 144 185 222 267 330 404
#     4  11  24  42  68 102 139 179 226 274 332 412
#     4  10  25  48  71 102 131 175 230 280 341 404
#
# _framework density 23.899152000000001
#
# number of rings (size 3 to 8) (size 9 to 14) (size 15 to 20)
#    0.000    0.750    3.750    4.875    5.250    2.500 
#    0.000    1.250    0.000    0.000    0.000    0.000 
#    0.000    0.000    0.000    0.000    0.000    0.000 
#
# Total GULP energy -198265.102477 kJ/mol
# GULP energy per Si atom -12391.568905 kJ/mol
# Density = 2.384476 g / cm^3
# Si number density = 23.899152 Si / 1000 Ang^3
#
#
#
# Elastic Constant Matrix: (Units=GPa)
#
#
# Indices 1 2 3 4 5 6 
#
# 1 51.6369 7.3410 29.0792 -0.6045 3.6189 3.0285
# 2 7.3410 110.0692 23.8133 -17.4844 -10.8398 -2.4180
# 3 29.0792 23.8133 57.0484 -29.3225 -19.8580 -1.1103
# 4 -0.6045 -17.4844 -29.3225 43.9415 -3.0162 0.1713
# 5 3.6189 -10.8398 -19.8580 -3.0162 27.0810 7.6101
# 6 3.0285 -2.4180 -1.1103 0.1713 7.6101 29.6020
#
#
#
# Elastic Compliance Matrix: (Units=1/GPa)
#
#
# Indices 1 2 3 4 5 6 
#
# 1 -0.744062 0.038519 1.237577 0.912297 1.175001 -0.181665
# 2 0.038519 0.008270 -0.065245 -0.043676 -0.057139 0.009230
# 3 1.237577 -0.065245 -2.004799 -1.478884 -1.908356 0.292028
# 4 0.912297 -0.043676 -1.478884 -1.066069 -1.402830 0.214442
# 5 1.175001 -0.057139 -1.908356 -1.402830 -1.773788 0.267674
# 6 -0.181665 0.009230 0.292028 0.214442 0.267674 -0.005981
#
#
# Mechanical properties :
#
#
# Convention : Reuss Voigt Hill
#
# Bulk Modulus (GPa) = -3.13588 37.69128 17.27770
# Shear Modulus (GPa) = -0.61619 30.69297 15.03839
#
# Velocity S-wave (km/s) = -0.50832 3.58756 2.51119
# Velocity P-wave (km/s) = 1.28821 5.74160 3.95642
#
# Compressibility (1/GPa) = -0.31888975
#
# Stress axis : x y z
#
# Youngs Moduli (GPa) = -1.34397 120.92399 -0.49880
#
# Poissons Ratio (x) = -4.65786 0.61731
# Poissons Ratio (y) = 0.05177 -0.03254
# Poissons Ratio (z) = 1.66327 7.88972
#
# Static dielectric constant tensor:
#      x y z
#    x 4.478910 0.333580 0.052500 
#    y 0.333580 4.569690 -0.329440 
#    z 0.052500 -0.329440 4.375950 
# 
# 
# High freq. dielectric constant tensor:
#      x y z
#    x 1.933390 0.008650 0.004300 
#    y 0.008650 1.956870 -0.017760 
#    z 0.004300 -0.017760 1.945780 
# 
# From -- ./inp_files/279052.got.cif
#   From: 2010.06.25/outbox.cif.g09.slc.cpg/sg2_140_cif.got.tgz:279052.got - 2010.06.27 13:26:56.
