data_PCOD8028671
_publ_section_title
;
Structure prediction by ZEFSAII (Michael W. Deem and Ramdas Pophale) SiO2 
 PCOD8028671
Probable space group: P -1
;
_chemical_formula_sum "Si O2"
_cell_formula_units_Z 14
_cell_length_a 9.483522
_cell_length_b 8.639110
_cell_length_c 16.739091
_cell_angle_alpha 59.338943
_cell_angle_beta 107.245011
_cell_angle_gamma 148.883649
_cell_volume 578.558663
_symmetry_space_group_name_H-M "P -1"
_symmetry_group_IT_number 2
_symmetry_cell_setting 'triclinic'
loop_
_space_group_symop_operation_xyz
x,y,z
-x,-y,-z
loop_
_atom_site_type_symbol
_atom_site_label
_atom_site_fract_x
_atom_site_fract_y
_atom_site_fract_z
Si Si1 0.899221 0.574574 0.006535
Si Si2 0.122563 0.327622 0.426600
Si Si3 0.799173 0.604448 0.402138
Si Si4 0.497544 0.811028 0.813929
Si Si5 0.117477 0.565260 0.680780
Si Si6 0.466647 0.360634 0.897619
Si Si7 0.365014 0.408349 0.307595
O O1 0.683196 0.297646 0.114471
O O2 0.745399 0.546910 0.925857
O O3 0.000000 0.500000 0.000000
O O4 0.178642 0.966435 0.986292
O O5 0.258761 0.524815 0.482934
O O6 0.878637 0.215869 0.389925
O O7 0.354059 0.558761 0.331851
O O8 0.000000 0.000000 0.500000
O O9 0.506596 0.382533 0.378520
O O10 0.881842 0.522234 0.383419
O O11 0.047126 0.015080 0.330259
O O12 0.469042 0.566454 0.874458
O O13 0.390085 0.786842 0.719480
O O14 0.830425 0.208989 0.774446
O O15 0.458306 0.340281 0.805333
#
# Coordination Sequence:
#
# PCOD8028671 Si02
#       7
#     2   2   2   2   2   2   2
#     4  12  28  44  72 101 139 174 222 280 334 403
#     4  10  26  43  69 100 140 178 222 277 342 396
#     4  11  21  45  64  99 131 174 225 275 326 397
#     4  12  26  46  69 103 131 179 229 273 340 391
#     4  12  24  44  70  99 137 177 226 282 322 406
#     4  12  23  47  71  98 138 180 222 272 336 402
#     4  11  23  41  70  98 133 172 224 272 337 390
#
# _framework density 24.198065
#
# number of rings (size 3 to 8) (size 9 to 14) (size 15 to 20)
#    0.000    0.571    2.857    4.714    4.000    4.571 
#    0.000    5.000    0.000    0.000    0.000    0.000 
#    0.000    0.000    0.000    0.000    0.000    0.000 
#
# Total GULP energy -173668.397508 kJ/mol
# GULP energy per Si atom -12404.885536 kJ/mol
# Density = 2.414299 g / cm^3
# Si number density = 24.198065 Si / 1000 Ang^3
#
#
#
# Elastic Constant Matrix: (Units=GPa)
#
#
# Indices 1 2 3 4 5 6 
#
# 1 167.3653 9.6200 44.5527 19.6738 2.8589 4.1392
# 2 9.6200 48.1037 -4.9874 8.3183 12.1301 14.9244
# 3 44.5527 -4.9874 71.1252 23.1235 -7.5725 -7.3368
# 4 19.6738 8.3183 23.1235 30.4605 0.1691 1.4264
# 5 2.8589 12.1301 -7.5725 0.1691 59.6007 5.4978
# 6 4.1392 14.9244 -7.3368 1.4264 5.4978 27.8814
#
#
#
# Elastic Compliance Matrix: (Units=1/GPa)
#
#
# Indices 1 2 3 4 5 6 
#
# 1 0.007439 -0.001210 -0.004691 -0.000838 -0.000562 -0.001537
# 2 -0.001210 0.027911 0.004036 -0.009299 -0.003935 -0.012447
# 3 -0.004691 0.004036 0.023186 -0.015921 0.001927 0.005072
# 4 -0.000838 -0.009299 -0.015921 0.048069 -0.000085 -0.001530
# 5 -0.000562 -0.003935 0.001927 -0.000085 0.017928 -0.000834
# 6 -0.001537 -0.012447 0.005072 -0.001530 -0.000834 0.044334
#
#
# Mechanical properties :
#
#
# Convention : Reuss Voigt Hill
#
# Bulk Modulus (GPa) = 18.24652 42.77388 30.51020
# Shear Modulus (GPa) = 26.19633 39.41578 32.80605
#
# Velocity S-wave (km/s) = 3.29383 4.04032 3.68602
# Velocity P-wave (km/s) = 4.69282 6.28335 5.54541
#
# Compressibility (1/GPa) = 0.05480497
#
# Stress axis : x y z
#
# Youngs Moduli (GPa) = 134.41979 35.82820 43.13038
#
# Poissons Ratio (x) = 0.04337 0.20231
# Poissons Ratio (y) = 0.16271 -0.17406
# Poissons Ratio (z) = 0.63053 -0.14459
#
# Static dielectric constant tensor:
#      x y z
#    x 4.621580 0.047360 -0.331060 
#    y 0.047360 4.165130 0.175040 
#    z -0.331060 0.175040 4.588880 
# 
# 
# High freq. dielectric constant tensor:
#      x y z
#    x 1.977890 0.008890 -0.009600 
#    y 0.008890 1.952400 0.008390 
#    z -0.009600 0.008390 1.967660 
# 
# From -- ./inp_files/38558.got.cif
#   From: 2010.06.25/outbox.cif.g09.slc.cpg/sg2_20_cif.got.tgz:38558.got - 2010.06.27 13:26:56.
