data_PCOD8028986
_publ_section_title
;
Structure prediction by ZEFSAII (Michael W. Deem and Ramdas Pophale) SiO2 
 PCOD8028986
Probable space group: P -1
;
_chemical_formula_sum "Si O2"
_cell_formula_units_Z 16
_cell_length_a 17.423628
_cell_length_b 14.125292
_cell_length_c 11.697503
_cell_angle_alpha 60.086878
_cell_angle_beta 107.762687
_cell_angle_gamma 157.159988
_cell_volume 860.430185
_symmetry_space_group_name_H-M "P -1"
_symmetry_group_IT_number 2
_symmetry_cell_setting 'triclinic'
loop_
_space_group_symop_operation_xyz
x,y,z
-x,-y,-z
loop_
_atom_site_type_symbol
_atom_site_label
_atom_site_fract_x
_atom_site_fract_y
_atom_site_fract_z
Si Si1 0.518208 0.256093 0.345684
Si Si2 0.229509 0.699228 0.167844
Si Si3 0.525147 0.201370 0.828364
Si Si4 0.403837 0.791704 0.798896
Si Si5 0.347770 0.202533 0.118073
Si Si6 0.658953 0.490380 0.921908
Si Si7 0.274167 0.871761 0.690509
Si Si8 0.000572 0.929228 0.156227
O O1 0.564794 0.210453 0.314327
O O2 0.387197 0.185210 0.262228
O O3 0.752806 0.601362 0.288756
O O4 0.372242 0.034802 0.517784
O O5 0.272348 0.627239 0.198970
O O6 0.970214 0.389515 0.251555
O O7 0.352633 0.881811 0.232717
O O8 0.322253 0.890981 0.992589
O O9 0.623278 0.428316 0.807463
O O10 0.427143 0.115222 0.714198
O O11 0.265451 0.729163 0.776720
O O12 0.268756 0.531928 0.970092
O O13 0.500000 0.500000 0.000000
O O14 0.418140 0.217902 0.032117
O O15 0.094807 0.926991 0.168931
O O16 0.848044 0.820499 0.829460
O O17 0.000000 0.000000 0.000000
#
# Coordination Sequence:
#
# PCOD8028986 Si02
#       8
#     2   2   2   2   2   2   2   2
#     4  11  22  35  54  87 115 146 180 222 281 332
#     4   9  19  36  55  76 109 150 188 229 266 314
#     4   9  19  37  54  79 110 144 192 228 262 318
#     4   9  19  35  54  83 115 140 184 228 270 329
#     4   9  18  34  55  80 108 134 180 231 268 314
#     4   9  18  36  58  85 109 140 186 238 264 315
#     4  11  22  35  55  81 118 151 181 217 276 338
#     4  11  19  37  61  84 108 140 181 231 281 319
#
# _framework density 18.595348999999999
#
# number of rings (size 3 to 8) (size 9 to 14) (size 15 to 20)
#    0.000    2.250    3.750    1.500    0.000    5.500 
#    2.250    0.625    0.000    3.750    0.000    0.000 
#    0.000    0.000    0.000    0.000    0.000    0.000 
#
# Total GULP energy -198344.230727 kJ/mol
# GULP energy per Si atom -12396.514420 kJ/mol
# Density = 1.855303 g / cm^3
# Si number density = 18.595349 Si / 1000 Ang^3
#
#
#
# Elastic Constant Matrix: (Units=GPa)
#
#
# Indices 1 2 3 4 5 6 
#
# 1 95.3386 58.5191 35.5223 -4.2322 -8.6947 -2.2465
# 2 58.5191 86.5401 25.9000 6.1296 -16.3361 0.6565
# 3 35.5223 25.9000 65.0621 4.5758 -12.9761 3.5974
# 4 -4.2322 6.1296 4.5758 21.8348 -1.6129 -12.7903
# 5 -8.6947 -16.3361 -12.9761 -1.6129 22.5830 2.4903
# 6 -2.2465 0.6565 3.5974 -12.7903 2.4903 37.9085
#
#
#
# Elastic Compliance Matrix: (Units=1/GPa)
#
#
# Indices 1 2 3 4 5 6 
#
# 1 0.024248 -0.016064 -0.009977 0.015682 -0.007831 0.008467
# 2 -0.016064 0.025158 0.002825 -0.014037 0.013437 -0.007274
# 3 -0.009977 0.002825 0.023173 -0.011015 0.011537 -0.007313
# 4 0.015682 -0.014037 -0.011015 0.069906 -0.008359 0.026353
# 5 -0.007831 0.013437 0.011537 -0.008359 0.057947 -0.008418
# 6 0.008467 -0.007274 -0.007313 0.026353 -0.008418 0.037146
#
#
# Mechanical properties :
#
#
# Convention : Reuss Voigt Hill
#
# Bulk Modulus (GPa) = 38.24579 54.09153 46.16866
# Shear Modulus (GPa) = 17.08090 24.93189 21.00640
#
# Velocity S-wave (km/s) = 3.03406 3.66561 3.36469
# Velocity P-wave (km/s) = 5.73464 6.86058 6.32272
#
# Compressibility (1/GPa) = 0.02614667
#
# Stress axis : x y z
#
# Youngs Moduli (GPa) = 41.24098 39.74822 43.15456
#
# Poissons Ratio (x) = 0.63851 0.43055
# Poissons Ratio (y) = 0.66249 -0.12190
# Poissons Ratio (z) = 0.41145 -0.11228
#
# Static dielectric constant tensor:
#      x y z
#    x 4.027010 -0.017320 -0.000390 
#    y -0.017320 4.904300 -0.485260 
#    z -0.000390 -0.485260 3.366750 
# 
# 
# High freq. dielectric constant tensor:
#      x y z
#    x 1.730260 0.001280 -0.003620 
#    y 0.001280 1.718340 0.008900 
#    z -0.003620 0.008900 1.688680 
# 
# From -- ./inp_files/432829.got.cif
#   From: 2010.06.25/outbox.cif.g09.slc.cpg/sg2_217_cif.got.tgz:432829.got - 2010.06.27 13:26:56.
