data_PCOD8028258
_publ_section_title
;
Structure prediction by ZEFSAII (Michael W. Deem and Ramdas Pophale) SiO2 
 PCOD8028258
Probable space group: P -1
;
_chemical_formula_sum "Si O2"
_cell_formula_units_Z 16
_cell_length_a 7.820753
_cell_length_b 9.527052
_cell_length_c 13.561373
_cell_angle_alpha 90.095345
_cell_angle_beta 44.383477
_cell_angle_gamma 71.951891
_cell_volume 633.051431
_symmetry_space_group_name_H-M "P -1"
_symmetry_group_IT_number 2
_symmetry_cell_setting 'triclinic'
loop_
_space_group_symop_operation_xyz
x,y,z
-x,-y,-z
loop_
_atom_site_type_symbol
_atom_site_label
_atom_site_fract_x
_atom_site_fract_y
_atom_site_fract_z
Si Si1 0.792052 0.833753 0.036640
Si Si2 0.325447 0.772109 0.724284
Si Si3 0.508152 0.309041 0.964051
Si Si4 0.396921 0.296955 0.588253
Si Si5 0.053697 0.891357 0.569106
Si Si6 0.118637 0.086469 0.717036
Si Si7 0.423645 0.191183 0.196976
Si Si8 0.964518 0.417879 0.916300
O O1 0.555499 0.787613 0.097497
O O2 0.046539 0.755609 0.855420
O O3 0.908699 0.766282 0.101001
O O4 0.677034 0.019536 0.079937
O O5 0.502796 0.665262 0.558557
O O6 0.506199 0.711909 0.748226
O O7 0.250164 0.958355 0.749067
O O8 0.365259 0.287158 0.120720
O O9 0.353178 0.492979 0.990724
O O10 0.831779 0.245613 0.853762
O O11 0.643693 0.249668 0.564074
O O12 0.142340 0.432587 0.750129
O O13 0.333984 0.147944 0.591994
O O14 0.846629 0.817161 0.657582
O O15 0.000000 0.000000 0.500000
O O16 0.037092 0.989169 0.672761
O O17 0.000000 0.500000 0.000000
#
# Coordination Sequence:
#
# PCOD8028258 Si02
#       8
#     2   2   2   2   2   2   2   2
#     4  11  21  42  67  96 130 167 214 266 318 378
#     4  11  23  39  64 100 132 164 210 268 331 365
#     4  11  23  40  65  97 123 167 223 263 306 377
#     4  11  24  42  61  92 136 171 204 265 328 381
#     4  11  21  36  64  97 129 164 213 264 322 375
#     4  11  21  38  63  97 131 162 210 266 320 375
#     4  12  22  39  68 100 128 165 220 267 310 377
#     4  10  25  45  67  92 125 174 217 256 324 387
#
# _framework density 25.274408999999999
#
# number of rings (size 3 to 8) (size 9 to 14) (size 15 to 20)
#    0.000    1.000    2.500    6.750    3.500    0.500 
#    0.000    6.250    0.000    0.000    0.000    0.000 
#    0.000    0.000    0.000    0.000    0.000    0.000 
#
# Total GULP energy -198294.101988 kJ/mol
# GULP energy per Si atom -12393.381374 kJ/mol
# Density = 2.521688 g / cm^3
# Si number density = 25.274409 Si / 1000 Ang^3
#
#
#
# Elastic Constant Matrix: (Units=GPa)
#
#
# Indices 1 2 3 4 5 6 
#
# 1 83.8964 3.7152 15.3053 2.2122 -12.6043 -34.9107
# 2 3.7152 72.8617 0.8506 1.6674 9.1472 -29.1026
# 3 15.3053 0.8506 119.7280 -6.6610 -10.5940 -11.0536
# 4 2.2122 1.6674 -6.6610 35.9085 7.6408 5.5151
# 5 -12.6043 9.1472 -10.5940 7.6408 40.2582 -2.4452
# 6 -34.9107 -29.1026 -11.0536 5.5151 -2.4452 40.2279
#
#
#
# Elastic Compliance Matrix: (Units=1/GPa)
#
#
# Indices 1 2 3 4 5 6 
#
# 1 0.026891 0.010798 -0.000129 -0.009312 0.009702 0.032980
# 2 0.010798 0.024444 0.000784 -0.006177 0.000917 0.028173
# 3 -0.000129 0.000784 0.008863 0.000707 0.002157 0.002925
# 4 -0.009312 -0.006177 0.000707 0.033378 -0.008721 -0.017461
# 5 0.009702 0.000917 0.002157 -0.008721 0.030665 0.012735
# 6 0.032980 0.028173 0.002925 -0.017461 0.012735 0.077832
#
#
# Mechanical properties :
#
#
# Convention : Reuss Voigt Hill
#
# Bulk Modulus (GPa) = 12.03282 35.13648 23.58465
# Shear Modulus (GPa) = 24.16982 40.38659 32.27820
#
# Velocity S-wave (km/s) = 3.09576 4.00174 3.57754
# Velocity P-wave (km/s) = 4.18921 5.94004 5.13973
#
# Compressibility (1/GPa) = 0.08310604
#
# Stress axis : x y z
#
# Youngs Moduli (GPa) = 37.18654 40.90972 112.82257
#
# Poissons Ratio (x) = -0.44175 0.01457
# Poissons Ratio (y) = -0.40155 -0.08850
# Poissons Ratio (z) = 0.00480 -0.03209
#
# Static dielectric constant tensor:
#      x y z
#    x 4.455220 -0.246470 -0.084510 
#    y -0.246470 4.500840 0.125140 
#    z -0.084510 0.125140 4.539530 
# 
# 
# High freq. dielectric constant tensor:
#      x y z
#    x 2.033910 -0.011800 -0.002720 
#    y -0.011800 1.989650 -0.000610 
#    z -0.002720 -0.000610 2.007260 
# 
# From -- ./inp_files/202591.got.cif
#   From: 2010.06.25/outbox.cif.g09.slc.cpg/sg2_102_cif.got.tgz:202591.got - 2010.06.27 13:26:56.
