data_PCOD8028927
_publ_section_title
;
Structure prediction by ZEFSAII (Michael W. Deem and Ramdas Pophale) SiO2 
 PCOD8028927
Probable space group: P -1
;
_chemical_formula_sum "Si O2"
_cell_formula_units_Z 14
_cell_length_a 15.607383
_cell_length_b 12.667253
_cell_length_c 14.349522
_cell_angle_alpha 19.912765
_cell_angle_beta 48.982661
_cell_angle_gamma 50.851738
_cell_volume 727.904916
_symmetry_space_group_name_H-M "P -1"
_symmetry_group_IT_number 2
_symmetry_cell_setting 'triclinic'
loop_
_space_group_symop_operation_xyz
x,y,z
-x,-y,-z
loop_
_atom_site_type_symbol
_atom_site_label
_atom_site_fract_x
_atom_site_fract_y
_atom_site_fract_z
Si Si1 0.029947 0.347304 0.202091
Si Si2 0.375339 0.890238 0.578152
Si Si3 0.231332 0.744849 0.142194
Si Si4 0.930565 0.561538 0.617918
Si Si5 0.363562 0.149321 0.572524
Si Si6 0.240608 0.335521 0.182533
Si Si7 0.053754 0.172744 0.988904
O O1 0.163228 0.324052 0.154695
O O2 0.000000 0.000000 0.500000
O O3 0.000000 0.500000 0.000000
O O4 0.953043 0.543767 0.168633
O O5 0.506391 0.888775 0.456451
O O6 0.350779 0.112446 0.500630
O O7 0.298278 0.006984 0.448491
O O8 0.345302 0.546038 0.912440
O O9 0.119883 0.564821 0.337429
O O10 0.315075 0.498447 0.340915
O O11 0.180847 0.006078 0.033730
O O12 0.295672 0.894274 0.886508
O O13 0.837360 0.525334 0.794802
O O14 0.962063 0.919531 0.290599
O O15 0.034023 0.324561 0.774177
#
# Coordination Sequence:
#
# PCOD8028927 Si02
#       7
#     2   2   2   2   2   2   2
#     4  11  23  40  60  85 107 137 187 242 286 330
#     4  11  20  36  52  83 112 156 188 223 267 314
#     4  12  21  35  51  82 115 159 181 218 270 321
#     4  11  19  34  51  81 114 151 183 214 263 340
#     4  11  22  33  54  79 120 153 194 222 251 321
#     4  11  20  35  60  78 114 146 184 229 282 327
#     4  11  23  35  55  79 113 148 185 224 276 342
#
# _framework density 19.233281000000002
#
# number of rings (size 3 to 8) (size 9 to 14) (size 15 to 20)
#    0.000    0.857    2.857    7.714    0.000    2.286 
#    0.000    0.000    0.000    0.000    0.000   20.000 
#    0.000    0.000    0.000    0.000    0.000    0.000 
#
# Total GULP energy -173580.634331 kJ/mol
# GULP energy per Si atom -12398.616738 kJ/mol
# Density = 1.918950 g / cm^3
# Si number density = 19.233281 Si / 1000 Ang^3
#
#
#
# Elastic Constant Matrix: (Units=GPa)
#
#
# Indices 1 2 3 4 5 6 
#
# 1 101.3546 28.6818 25.6546 -7.1323 15.3572 -2.8570
# 2 28.6818 68.2596 31.8643 -16.0935 -7.3552 -8.8730
# 3 25.6546 31.8643 119.7939 -11.0881 7.6813 -3.3556
# 4 -7.1323 -16.0935 -11.0881 25.5709 -1.1300 3.9575
# 5 15.3572 -7.3552 7.6813 -1.1300 36.2425 -0.4969
# 6 -2.8570 -8.8730 -3.3556 3.9575 -0.4969 23.5803
#
#
#
# Elastic Compliance Matrix: (Units=1/GPa)
#
#
# Indices 1 2 3 4 5 6 
#
# 1 0.012639 -0.005891 -0.000816 -0.000692 -0.006411 -0.000820
# 2 -0.005891 0.023347 -0.004350 0.010638 0.008568 0.005848
# 3 -0.000816 -0.004350 0.009953 0.001328 -0.002613 -0.000597
# 4 -0.000692 0.010638 0.001328 0.046915 0.003583 -0.003690
# 5 -0.006411 0.008568 -0.002613 0.003583 0.032743 0.002164
# 6 -0.000820 0.005848 -0.000597 -0.003690 0.002164 0.045089
#
#
# Mechanical properties :
#
#
# Convention : Reuss Voigt Hill
#
# Bulk Modulus (GPa) = 41.96846 51.31218 46.64032
# Shear Modulus (GPa) = 24.90773 30.62589 27.76681
#
# Velocity S-wave (km/s) = 3.60256 3.99474 3.80371
# Velocity P-wave (km/s) = 6.25881 6.92922 6.60253
#
# Compressibility (1/GPa) = 0.02382741
#
# Stress axis : x y z
#
# Youngs Moduli (GPa) = 79.11753 42.83180 100.47147
#
# Poissons Ratio (x) = 0.25231 0.08197
# Poissons Ratio (y) = 0.46606 0.43700
# Poissons Ratio (z) = 0.06455 0.18630
#
# Static dielectric constant tensor:
#      x y z
#    x 3.707070 -0.102720 0.158110 
#    y -0.102720 3.401130 -0.015480 
#    z 0.158110 -0.015480 3.584140 
# 
# 
# High freq. dielectric constant tensor:
#      x y z
#    x 1.725890 -0.022500 0.025550 
#    y -0.022500 1.727160 0.007440 
#    z 0.025550 0.007440 1.768490 
# 
# From -- ./inp_files/92394.got.cif
#   From: 2010.06.25/outbox.cif.g09.slc.cpg/sg2_47_cif.got.tgz:92394.got - 2010.06.27 13:26:56.
