data_PCOD8028272
_publ_section_title
;
Structure prediction by ZEFSAII (Michael W. Deem and Ramdas Pophale) SiO2 
 PCOD8028272
Probable space group: P -1
;
_chemical_formula_sum "Si O2"
_cell_formula_units_Z 16
_cell_length_a 11.975376
_cell_length_b 11.591480
_cell_length_c 11.452614
_cell_angle_alpha 33.734681
_cell_angle_beta 123.639884
_cell_angle_gamma 111.895239
_cell_volume 721.653287
_symmetry_space_group_name_H-M "P -1"
_symmetry_group_IT_number 2
_symmetry_cell_setting 'triclinic'
loop_
_space_group_symop_operation_xyz
x,y,z
-x,-y,-z
loop_
_atom_site_type_symbol
_atom_site_label
_atom_site_fract_x
_atom_site_fract_y
_atom_site_fract_z
Si Si1 0.217687 0.982756 0.487941
Si Si2 0.780609 0.801200 0.936109
Si Si3 0.817518 0.897460 0.130795
Si Si4 0.580932 0.651054 0.260454
Si Si5 0.688894 0.324030 0.791328
Si Si6 0.130094 0.394752 0.237493
Si Si7 0.958601 0.344111 0.391999
Si Si8 0.506259 0.693159 0.922932
O O1 0.185258 0.078612 0.259863
O O2 0.189880 0.164740 0.415312
O O3 0.121717 0.811331 0.593988
O O4 0.371115 0.869075 0.693692
O O5 0.619823 0.812496 0.837524
O O6 0.820363 0.919947 0.973718
O O7 0.856305 0.557488 0.186168
O O8 0.688806 0.805212 0.182562
O O9 0.966144 0.759566 0.361512
O O10 0.805772 0.124715 0.994057
O O11 0.646673 0.441589 0.545615
O O12 0.441795 0.754265 0.161495
O O13 0.540893 0.594297 0.154393
O O14 0.750825 0.465985 0.804149
O O15 0.083575 0.381724 0.353675
O O16 0.000000 0.500000 0.000000
O O17 0.500000 0.500000 0.000000
#
# Coordination Sequence:
#
# PCOD8028272 Si02
#       8
#     2   2   2   2   2   2   2   2
#     4  12  27  45  74 102 139 188 231 285 354 410
#     4  11  26  47  69 103 140 183 232 286 349 418
#     4  11  25  44  72 102 138 182 235 282 348 417
#     4  10  25  45  68 102 140 180 234 285 346 405
#     4  11  25  45  73 100 142 185 230 291 340 409
#     4  12  26  46  72 106 144 181 235 286 346 418
#     4  12  25  47  69 103 143 181 231 289 350 410
#     4  11  25  45  73 100 140 181 232 291 344 410
#
# _framework density 22.171310999999999
#
# number of rings (size 3 to 8) (size 9 to 14) (size 15 to 20)
#    0.000    0.750    3.750    2.250    7.000    4.500 
#    0.000    0.000    0.000    0.000    0.000    0.000 
#    0.000    0.000    0.000    0.000    0.000    0.000 
#
# Total GULP energy -198433.243775 kJ/mol
# GULP energy per Si atom -12402.077736 kJ/mol
# Density = 2.212085 g / cm^3
# Si number density = 22.171311 Si / 1000 Ang^3
#
#
#
# Elastic Constant Matrix: (Units=GPa)
#
#
# Indices 1 2 3 4 5 6 
#
# 1 72.0814 21.9219 21.6582 -1.8223 13.8768 1.9658
# 2 21.9219 115.6262 31.4272 -6.9350 17.4848 -2.1806
# 3 21.6582 31.4272 88.5128 3.7433 27.0161 1.3286
# 4 -1.8223 -6.9350 3.7433 38.9642 -4.1269 3.7339
# 5 13.8768 17.4848 27.0161 -4.1269 43.7576 4.7660
# 6 1.9658 -2.1806 1.3286 3.7339 4.7660 31.4902
#
#
#
# Elastic Compliance Matrix: (Units=1/GPa)
#
#
# Indices 1 2 3 4 5 6 
#
# 1 0.015705 -0.001925 -0.002359 0.000402 -0.002645 -0.000661
# 2 -0.001925 0.010124 -0.002683 0.001691 -0.001728 0.000995
# 3 -0.002359 -0.002683 0.015405 -0.003008 -0.008072 0.000890
# 4 0.000402 0.001691 -0.003008 0.027041 0.003995 -0.003592
# 5 -0.002645 -0.001728 -0.008072 0.003995 0.030251 -0.004666
# 6 -0.000661 0.000995 0.000890 -0.003592 -0.004666 0.032961
#
#
# Mechanical properties :
#
#
# Convention : Reuss Voigt Hill
#
# Bulk Modulus (GPa) = 36.62947 47.35945 41.99446
# Shear Modulus (GPa) = 32.35828 36.25662 34.30745
#
# Velocity S-wave (km/s) = 3.82444 4.04826 3.93794
# Velocity P-wave (km/s) = 6.00490 6.57711 6.29750
#
# Compressibility (1/GPa) = 0.02730042
#
# Stress axis : x y z
#
# Youngs Moduli (GPa) = 63.67482 98.77401 64.91337
#
# Poissons Ratio (x) = 0.19011 0.15315
# Poissons Ratio (y) = 0.12256 0.17416
# Poissons Ratio (z) = 0.15022 0.26500
#
# Static dielectric constant tensor:
#      x y z
#    x 4.073620 0.025490 -0.130870 
#    y 0.025490 4.013120 0.202880 
#    z -0.130870 0.202880 4.089310 
# 
# 
# High freq. dielectric constant tensor:
#      x y z
#    x 1.883150 0.003610 0.006420 
#    y 0.003610 1.879850 0.010680 
#    z 0.006420 0.010680 1.878720 
# 
# From -- ./inp_files/76998.got.cif
#   From: 2010.06.25/outbox.cif.g09.slc.cpg/sg2_39_cif.got.tgz:76998.got - 2010.06.27 13:26:56.
