data_PCOD8028303
_publ_section_title
;
Structure prediction by ZEFSAII (Michael W. Deem and Ramdas Pophale) SiO2 
 PCOD8028303
Probable space group: P -1
;
_chemical_formula_sum "Si O2"
_cell_formula_units_Z 12
_cell_length_a 14.422063
_cell_length_b 9.232323
_cell_length_c 8.207851
_cell_angle_alpha 32.437265
_cell_angle_beta 72.789797
_cell_angle_gamma 58.190816
_cell_volume 470.790051
_symmetry_space_group_name_H-M "P -1"
_symmetry_group_IT_number 2
_symmetry_cell_setting 'triclinic'
loop_
_space_group_symop_operation_xyz
x,y,z
-x,-y,-z
loop_
_atom_site_type_symbol
_atom_site_label
_atom_site_fract_x
_atom_site_fract_y
_atom_site_fract_z
Si Si1 0.235691 0.458734 0.769369
Si Si2 0.929699 0.623279 0.253008
Si Si3 0.769077 0.151467 0.053664
Si Si4 0.482816 0.295607 0.326563
Si Si5 0.381508 0.772109 0.378450
Si Si6 0.840295 0.564417 0.805638
O O1 0.125497 0.576271 0.595807
O O2 0.283533 0.689066 0.526156
O O3 0.208225 0.395805 0.025708
O O4 0.331947 0.101696 0.990853
O O5 0.000000 0.500000 0.500000
O O6 0.022792 0.575714 0.115238
O O7 0.827567 0.988631 0.003634
O O8 0.768802 0.897017 0.421749
O O9 0.645400 0.457873 0.768905
O O10 0.837706 0.285278 0.978734
O O11 0.585612 0.155683 0.533150
O O12 0.500000 0.000000 0.500000
O O13 0.500000 0.500000 0.000000
O O14 0.500000 0.500000 0.500000
#
# Coordination Sequence:
#
# PCOD8028303 Si02
#       6
#     2   2   2   2   2   2
#     4  12  25  45  68  97 136 177 222 279 335 398
#     4  10  25  45  70 101 134 178 227 279 338 400
#     4  11  23  42  67  99 137 177 223 278 331 395
#     4  12  24  42  69 100 133 176 225 273 326 394
#     4  12  27  45  67  99 136 178 223 274 337 399
#     4  11  23  43  69 100 135 176 224 277 336 398
#
# _framework density 25.489066000000001
#
# number of rings (size 3 to 8) (size 9 to 14) (size 15 to 20)
#    0.000    0.667    0.000    8.500    0.000    9.333 
#    0.000    5.833    0.000    0.000    0.000    0.000 
#    0.000    0.000    0.000    0.000    0.000    0.000 
#
# Total GULP energy -148693.478976 kJ/mol
# GULP energy per Si atom -12391.123248 kJ/mol
# Density = 2.543105 g / cm^3
# Si number density = 25.489066 Si / 1000 Ang^3
#
#
#
# Elastic Constant Matrix: (Units=GPa)
#
#
# Indices 1 2 3 4 5 6 
#
# 1 187.4298 36.2051 27.3984 -4.5500 -13.9381 25.4593
# 2 36.2051 73.5778 14.1224 -15.4020 1.0352 -2.4056
# 3 27.3984 14.1224 95.7367 -13.0157 -14.6941 15.4749
# 4 -4.5500 -15.4020 -13.0157 38.3298 5.7278 3.2092
# 5 -13.9381 1.0352 -14.6941 5.7278 41.3404 -9.7111
# 6 25.4593 -2.4056 15.4749 3.2092 -9.7111 53.8400
#
#
#
# Elastic Compliance Matrix: (Units=1/GPa)
#
#
# Indices 1 2 3 4 5 6 
#
# 1 0.006561 -0.003355 -0.000835 -0.000849 0.001484 -0.002694
# 2 -0.003355 0.016886 -0.001386 0.006119 -0.002440 0.001934
# 3 -0.000835 -0.001386 0.012255 0.003298 0.002983 -0.002848
# 4 -0.000849 0.006119 0.003298 0.030425 -0.004148 -0.002835
# 5 0.001484 -0.002440 0.002983 -0.004148 0.027205 0.003486
# 6 -0.002694 0.001934 -0.002848 -0.002835 0.003486 0.021550
#
#
# Mechanical properties :
#
#
# Convention : Reuss Voigt Hill
#
# Bulk Modulus (GPa) = 40.73155 56.91067 48.82111
# Shear Modulus (GPa) = 37.25268 45.30329 41.27798
#
# Velocity S-wave (km/s) = 3.82713 4.22045 4.02859
# Velocity P-wave (km/s) = 5.96187 6.79158 6.39020
#
# Compressibility (1/GPa) = 0.02455099
#
# Stress axis : x y z
#
# Youngs Moduli (GPa) = 152.41204 59.21902 81.59675
#
# Poissons Ratio (x) = 0.19868 0.06813
# Poissons Ratio (y) = 0.51133 0.11310
# Poissons Ratio (z) = 0.12726 0.08208
#
# Static dielectric constant tensor:
#      x y z
#    x 5.100550 -0.259920 0.197940 
#    y -0.259920 5.180680 -0.287860 
#    z 0.197940 -0.287860 4.724050 
# 
# 
# High freq. dielectric constant tensor:
#      x y z
#    x 2.043360 0.000480 0.003200 
#    y 0.000480 2.029530 -0.014060 
#    z 0.003200 -0.014060 2.011270 
# 
# From -- ./inp_files/297218.got.cif
#   From: 2010.06.25/outbox.cif.g09.slc.cpg/sg2_149_cif.got.tgz:297218.got - 2010.06.27 13:26:56.
