data_PCOD8028458
_publ_section_title
;
Structure prediction by ZEFSAII (Michael W. Deem and Ramdas Pophale) SiO2 
 PCOD8028458
Probable space group: P -1
;
_chemical_formula_sum "Si O2"
_cell_formula_units_Z 16
_cell_length_a 8.719816
_cell_length_b 15.307461
_cell_length_c 25.662475
_cell_angle_alpha 20.542227
_cell_angle_beta 57.152604
_cell_angle_gamma 69.529198
_cell_volume 852.102567
_symmetry_space_group_name_H-M "P -1"
_symmetry_group_IT_number 2
_symmetry_cell_setting 'triclinic'
loop_
_space_group_symop_operation_xyz
x,y,z
-x,-y,-z
loop_
_atom_site_type_symbol
_atom_site_label
_atom_site_fract_x
_atom_site_fract_y
_atom_site_fract_z
Si Si1 0.177250 0.840127 0.280922
Si Si2 0.791603 0.091768 0.350473
Si Si3 0.710730 0.757647 0.655747
Si Si4 0.875868 0.217127 0.454029
Si Si5 0.638005 0.446292 0.310416
Si Si6 0.231007 0.373544 0.928089
Si Si7 0.602130 0.245318 0.800124
Si Si8 0.950435 0.177188 0.576639
O O1 0.382992 0.895345 0.178673
O O2 0.220102 0.917624 0.291362
O O3 0.000000 0.500000 0.500000
O O4 0.088164 0.036025 0.163093
O O5 0.859215 0.430115 0.143290
O O6 0.769938 0.012644 0.459864
O O7 0.557315 0.883857 0.483420
O O8 0.974712 0.056781 0.309630
O O9 0.468390 0.487090 0.844118
O O10 0.868418 0.636109 0.685998
O O11 0.743550 0.899231 0.627616
O O12 0.803074 0.433755 0.326235
O O13 0.827393 0.168261 0.551858
O O14 0.766329 0.624052 0.136059
O O15 0.545998 0.623469 0.256678
O O16 0.837995 0.498335 0.635681
O O17 0.500000 0.000000 0.000000
#
# Coordination Sequence:
#
# PCOD8028458 Si02
#       8
#     2   2   2   2   2   2   2   2
#     4  10  22  38  55  74 107 146 186 224 261 307
#     4   9  16  30  53  85 109 132 180 217 275 306
#     4   9  17  28  51  85 117 140 160 223 268 330
#     4  10  17  30  51  81 123 134 166 210 293 312
#     4  10  17  30  55  88 105 133 175 240 256 310
#     4  11  17  31  58  81 108 135 189 217 264 314
#     4  10  19  36  60  77  95 140 200 223 255 297
#     4   9  21  35  52  79 116 143 163 223 276 326
#
# _framework density 18.777083999999999
#
# number of rings (size 3 to 8) (size 9 to 14) (size 15 to 20)
#    0.000    2.250    3.750    1.500    0.000    0.500 
#    0.000    1.875    0.000    3.000    0.000    0.000 
#    0.000    0.000    0.000    0.000    0.000    0.000 
#
# Total GULP energy -198332.058770 kJ/mol
# GULP energy per Si atom -12395.753673 kJ/mol
# Density = 1.873435 g / cm^3
# Si number density = 18.777084 Si / 1000 Ang^3
#
#
#
# Elastic Constant Matrix: (Units=GPa)
#
#
# Indices 1 2 3 4 5 6 
#
# 1 110.0782 49.7732 31.8810 3.7809 29.4017 -1.1124
# 2 49.7732 158.2270 52.0676 13.4857 24.7908 3.6773
# 3 31.8810 52.0676 96.4920 -6.9025 27.5060 -7.8307
# 4 3.7809 13.4857 -6.9025 29.3760 -2.5851 9.3653
# 5 29.4017 24.7908 27.5060 -2.5851 22.7294 0.5287
# 6 -1.1124 3.6773 -7.8307 9.3653 0.5287 22.3492
#
#
#
# Elastic Compliance Matrix: (Units=1/GPa)
#
#
# Indices 1 2 3 4 5 6 
#
# 1 0.014895 -0.001973 0.001840 -0.003484 -0.019823 0.003640
# 2 -0.001973 0.009134 -0.003699 -0.004867 -0.003470 -0.000776
# 3 0.001840 -0.003699 0.018242 0.001777 -0.020378 0.006829
# 4 -0.003484 -0.004867 0.001777 0.043848 0.013056 -0.017433
# 5 -0.019823 -0.003470 -0.020378 0.013056 0.099926 -0.015391
# 6 0.003640 -0.000776 0.006829 -0.017433 -0.015391 0.055115
#
#
# Mechanical properties :
#
#
# Convention : Reuss Voigt Hill
#
# Bulk Modulus (GPa) = 28.89532 70.24900 49.57216
# Shear Modulus (GPa) = 19.20419 30.29594 24.75007
#
# Velocity S-wave (km/s) = 3.20151 4.02114 3.63450
# Velocity P-wave (km/s) = 5.39335 7.68458 6.63856
#
# Compressibility (1/GPa) = 0.03460767
#
# Stress axis : x y z
#
# Youngs Moduli (GPa) = 67.13804 109.47718 54.81892
#
# Poissons Ratio (x) = 0.21597 -0.10088
# Poissons Ratio (y) = 0.13245 0.20278
# Poissons Ratio (z) = -0.12355 0.40497
#
# Static dielectric constant tensor:
#      x y z
#    x 3.325540 -0.096380 0.203080 
#    y -0.096380 3.956310 -0.016050 
#    z 0.203080 -0.016050 3.247030 
# 
# 
# High freq. dielectric constant tensor:
#      x y z
#    x 1.700820 -0.005010 0.023660 
#    y -0.005010 1.743650 -0.010840 
#    z 0.023660 -0.010840 1.703010 
# 
# From -- ./inp_files/170460.got.cif
#   From: 2010.06.25/outbox.cif.g09.slc.cpg/sg2_86_cif.got.tgz:170460.got - 2010.06.27 13:26:56.
