data_PCOD8028772
_publ_section_title
;
Structure prediction by ZEFSAII (Michael W. Deem and Ramdas Pophale) SiO2 
 PCOD8028772
Probable space group: P -1
;
_chemical_formula_sum "Si O2"
_cell_formula_units_Z 16
_cell_length_a 24.774352
_cell_length_b 5.132485
_cell_length_c 18.532048
_cell_angle_alpha 94.331312
_cell_angle_beta 16.955499
_cell_angle_gamma 101.127172
_cell_volume 623.373539
_symmetry_space_group_name_H-M "P -1"
_symmetry_group_IT_number 2
_symmetry_cell_setting 'triclinic'
loop_
_space_group_symop_operation_xyz
x,y,z
-x,-y,-z
loop_
_atom_site_type_symbol
_atom_site_label
_atom_site_fract_x
_atom_site_fract_y
_atom_site_fract_z
Si Si1 0.117653 0.357764 0.214303
Si Si2 0.445799 0.520038 0.186617
Si Si3 0.634300 0.283691 0.375794
Si Si4 0.353055 0.999631 0.954511
Si Si5 0.318049 0.697268 0.215001
Si Si6 0.878785 0.787906 0.291010
Si Si7 0.769965 0.696056 0.086664
Si Si8 0.240846 0.803263 0.638051
O O1 0.182974 0.108491 0.150282
O O2 0.887755 0.263240 0.532163
O O3 0.254178 0.658003 0.084937
O O4 0.136385 0.394238 0.104408
O O5 0.301239 0.504067 0.303413
O O6 0.309383 0.284536 0.414380
O O7 0.539453 0.842968 0.105946
O O8 0.634716 0.451096 0.918620
O O9 0.784702 0.516873 0.133425
O O10 0.467783 0.381776 0.626731
O O11 0.779144 0.238253 0.250502
O O12 0.500000 0.000000 0.500000
O O13 0.518969 0.078778 0.681065
O O14 0.500000 0.000000 0.000000
O O15 0.882910 0.496246 0.250667
O O16 0.844315 0.966990 0.272583
O O17 0.092652 0.969116 0.061825
#
# Coordination Sequence:
#
# PCOD8028772 Si02
#       8
#     2   2   2   2   2   2   2   2
#     4  12  27  45  75 104 141 192 241 290 353 436
#     4  10  26  47  71 105 147 190 237 300 359 421
#     4  11  26  46  74 103 152 188 237 304 361 419
#     4  11  25  45  71 105 142 190 238 291 354 425
#     4  11  27  46  74 105 148 187 241 301 357 427
#     4  11  27  45  77 102 142 193 239 288 357 430
#     4  11  27  45  71 110 141 192 244 295 359 434
#     4  11  25  47  72 106 144 188 235 297 355 422
#
# _framework density 25.666793999999999
#
# number of rings (size 3 to 8) (size 9 to 14) (size 15 to 20)
#    0.000    1.000    1.250    3.000   19.250    2.000 
#    0.000    0.000    0.000    0.000    0.000    0.000 
#    0.000    0.000    0.000    0.000    0.000    0.000 
#
# Total GULP energy -198492.890853 kJ/mol
# GULP energy per Si atom -12405.805678 kJ/mol
# Density = 2.560838 g / cm^3
# Si number density = 25.666794 Si / 1000 Ang^3
#
#
#
# Elastic Constant Matrix: (Units=GPa)
#
#
# Indices 1 2 3 4 5 6 
#
# 1 90.8539 -6.3089 3.2318 -6.1884 6.3561 -0.3306
# 2 -6.3089 72.9229 0.2136 -22.6477 -0.1465 3.6742
# 3 3.2318 0.2136 81.9325 -8.9094 -10.0082 4.1214
# 4 -6.1884 -22.6477 -8.9094 43.1591 -2.5612 -13.4273
# 5 6.3561 -0.1465 -10.0082 -2.5612 33.6214 3.2972
# 6 -0.3306 3.6742 4.1214 -13.4273 3.2972 42.8648
#
#
#
# Elastic Compliance Matrix: (Units=1/GPa)
#
#
# Indices 1 2 3 4 5 6 
#
# 1 0.011484 0.001763 -0.000488 0.002646 -0.002204 0.000983
# 2 0.001763 0.016826 0.000951 0.009781 0.000621 0.001496
# 3 -0.000488 0.000951 0.013129 0.003183 0.004314 -0.000682
# 4 0.002646 0.009781 0.003183 0.032201 0.002080 0.008803
# 5 -0.002204 0.000621 0.004314 0.002080 0.031829 -0.002282
# 6 0.000983 0.001496 -0.000682 0.008803 -0.002282 0.026207
#
#
# Mechanical properties :
#
#
# Convention : Reuss Voigt Hill
#
# Bulk Modulus (GPa) = 21.79102 26.66470 24.22786
# Shear Modulus (GPa) = 35.08186 40.50058 37.79122
#
# Velocity S-wave (km/s) = 3.70106 3.97663 3.84132
# Velocity P-wave (km/s) = 5.17419 5.61215 5.39761
#
# Compressibility (1/GPa) = 0.04589046
#
# Stress axis : x y z
#
# Youngs Moduli (GPa) = 87.07438 59.43049 76.16506
#
# Poissons Ratio (x) = -0.10476 0.03721
# Poissons Ratio (y) = -0.15349 -0.07242
# Poissons Ratio (z) = 0.04254 -0.05651
#
# Static dielectric constant tensor:
#      x y z
#    x 4.640200 0.009280 0.063390 
#    y 0.009280 4.660940 0.123780 
#    z 0.063390 0.123780 4.860290 
# 
# 
# High freq. dielectric constant tensor:
#      x y z
#    x 2.026100 0.001670 0.002820 
#    y 0.001670 2.027980 0.002730 
#    z 0.002820 0.002730 2.034450 
# 
# From -- ./inp_files/578742.got.cif
#   From: 2010.06.25/outbox.cif.g09.slc.cpg/sg2_290_cif.got.tgz:578742.got - 2010.06.27 13:26:56.
