data_PCOD8028570
_publ_section_title
;
Structure prediction by ZEFSAII (Michael W. Deem and Ramdas Pophale) SiO2 
 PCOD8028570
Probable space group: P -1
;
_chemical_formula_sum "Si O2"
_cell_formula_units_Z 14
_cell_length_a 18.726029
_cell_length_b 12.242397
_cell_length_c 6.479812
_cell_angle_alpha 46.226860
_cell_angle_beta 127.350910
_cell_angle_gamma 144.434780
_cell_volume 620.466796
_symmetry_space_group_name_H-M "P -1"
_symmetry_group_IT_number 2
_symmetry_cell_setting 'triclinic'
loop_
_space_group_symop_operation_xyz
x,y,z
-x,-y,-z
loop_
_atom_site_type_symbol
_atom_site_label
_atom_site_fract_x
_atom_site_fract_y
_atom_site_fract_z
Si Si1 0.709883 0.392338 0.026004
Si Si2 0.136804 0.220161 0.919850
Si Si3 0.473459 0.280982 0.875331
Si Si4 0.070381 0.644997 0.233705
Si Si5 0.365398 0.281349 0.298960
Si Si6 0.331381 0.973028 0.365719
Si Si7 0.127261 0.449243 0.269565
O O1 0.820500 0.609546 0.053156
O O2 0.670202 0.199615 0.335583
O O3 0.587580 0.352024 0.845516
O O4 0.752125 0.392668 0.870369
O O5 0.135107 0.295734 0.592501
O O6 0.230171 0.187274 0.128056
O O7 0.000000 0.000000 0.000000
O O8 0.372409 0.245875 0.600166
O O9 0.529842 0.470549 0.885942
O O10 0.407748 0.069987 0.159911
O O11 0.191605 0.872275 0.224371
O O12 0.119728 0.567331 0.276714
O O13 0.000000 0.500000 0.500000
O O14 0.990364 0.671724 0.929421
O O15 0.395548 0.162148 0.388251
#
# Coordination Sequence:
#
# PCOD8028570 Si02
#       7
#     2   2   2   2   2   2   2
#     4  11  25  46  69 106 135 173 237 285 335 407
#     4  11  26  44  69 100 142 179 226 278 345 408
#     4  10  25  48  67  98 140 184 226 277 345 403
#     4  11  24  43  69 105 140 171 225 285 345 405
#     4  10  26  44  67  98 139 178 233 275 339 407
#     4  12  24  41  75  99 134 180 231 286 336 399
#     4  11  24  43  71  96 144 178 220 284 346 398
#
# _framework density 22.563656000000002
#
# number of rings (size 3 to 8) (size 9 to 14) (size 15 to 20)
#    0.000    1.143    2.857    0.857    8.000    6.857 
#    0.000    0.000    0.000    0.000    0.000    0.000 
#    0.000    0.000    0.000    0.000    0.000    0.000 
#
# Total GULP energy -173564.895493 kJ/mol
# GULP energy per Si atom -12397.492535 kJ/mol
# Density = 2.251230 g / cm^3
# Si number density = 22.563656 Si / 1000 Ang^3
#
#
#
# Elastic Constant Matrix: (Units=GPa)
#
#
# Indices 1 2 3 4 5 6 
#
# 1 94.7946 37.6665 51.6945 -1.8470 -6.0341 0.3236
# 2 37.6665 94.2408 56.5728 -4.4893 0.3088 12.1521
# 3 51.6945 56.5728 159.0584 -3.1817 0.7317 18.4408
# 4 -1.8470 -4.4893 -3.1817 40.7223 9.3557 3.1359
# 5 -6.0341 0.3088 0.7317 9.3557 43.2563 -2.6406
# 6 0.3236 12.1521 18.4408 3.1359 -2.6406 35.0722
#
#
#
# Elastic Compliance Matrix: (Units=1/GPa)
#
#
# Indices 1 2 3 4 5 6 
#
# 1 0.014253 -0.004010 -0.003634 -0.000916 0.002486 0.003438
# 2 -0.004010 0.014878 -0.003543 0.001725 -0.001192 -0.003499
# 3 -0.003634 -0.003543 0.009175 0.000678 -0.001009 -0.003700
# 4 -0.000916 0.001725 0.000678 0.026451 -0.006103 -0.003770
# 5 0.002486 -0.001192 -0.001009 -0.006103 0.025015 0.003350
# 6 0.003438 -0.003499 -0.003700 -0.003770 0.003350 0.032228
#
#
# Mechanical properties :
#
#
# Convention : Reuss Voigt Hill
#
# Bulk Modulus (GPa) = 62.76633 71.10682 66.93658
# Shear Modulus (GPa) = 33.40351 37.28749 35.34550
#
# Velocity S-wave (km/s) = 3.85179 4.06956 3.96217
# Velocity P-wave (km/s) = 6.90359 7.32558 7.11771
#
# Compressibility (1/GPa) = 0.01593211
#
# Stress axis : x y z
#
# Youngs Moduli (GPa) = 70.15988 67.21408 108.98716
#
# Poissons Ratio (x) = 0.26954 0.39610
# Poissons Ratio (y) = 0.28135 0.38610
# Poissons Ratio (z) = 0.25499 0.23812
#
# Static dielectric constant tensor:
#      x y z
#    x 3.929580 0.046680 0.050700 
#    y 0.046680 4.139120 0.122800 
#    z 0.050700 0.122800 4.139360 
# 
# 
# High freq. dielectric constant tensor:
#      x y z
#    x 1.886190 0.003500 0.005650 
#    y 0.003500 1.890980 0.006260 
#    z 0.005650 0.006260 1.898880 
# 
# From -- ./inp_files/109535.got.cif
#   From: 2010.06.25/outbox.cif.g09.slc.cpg/sg2_55_cif.got.tgz:109535.got - 2010.06.27 13:26:56.
