data_PCOD8028384
_publ_section_title
;
Structure prediction by ZEFSAII (Michael W. Deem and Ramdas Pophale) SiO2 
 PCOD8028384
Probable space group: P -1
;
_chemical_formula_sum "Si O2"
_cell_formula_units_Z 16
_cell_length_a 14.618584
_cell_length_b 8.972612
_cell_length_c 15.434972
_cell_angle_alpha 90.306719
_cell_angle_beta 40.880103
_cell_angle_gamma 122.578505
_cell_volume 764.892810
_symmetry_space_group_name_H-M "P -1"
_symmetry_group_IT_number 2
_symmetry_cell_setting 'triclinic'
loop_
_space_group_symop_operation_xyz
x,y,z
-x,-y,-z
loop_
_atom_site_type_symbol
_atom_site_label
_atom_site_fract_x
_atom_site_fract_y
_atom_site_fract_z
Si Si1 0.151272 0.867676 0.221867
Si Si2 0.924221 0.099803 0.532883
Si Si3 0.832096 0.433427 0.877847
Si Si4 0.767623 0.696796 0.195908
Si Si5 0.640433 0.134181 0.486700
Si Si6 0.454187 0.755333 0.758918
Si Si7 0.716336 0.543285 0.424503
Si Si8 0.391084 0.565345 0.097486
O O1 0.143293 0.870403 0.331726
O O2 0.155483 0.698651 0.193484
O O3 0.937035 0.779472 0.331141
O O4 0.399858 0.153114 0.008713
O O5 0.161346 0.380597 0.323366
O O6 0.704309 0.911730 0.621118
O O7 0.000000 0.000000 0.500000
O O8 0.683421 0.438162 0.942598
O O9 0.102465 0.724493 0.705031
O O10 0.702786 0.289133 0.060204
O O11 0.705481 0.518327 0.167958
O O12 0.807536 0.652038 0.260809
O O13 0.529383 0.588603 0.376358
O O14 0.000000 0.000000 0.000000
O O15 0.672642 0.335535 0.481828
O O16 0.500000 0.000000 0.500000
O O17 0.492402 0.919038 0.664033
O O18 0.500000 0.500000 0.000000
#
# Coordination Sequence:
#
# PCOD8028384 Si02
#       8
#     2   2   2   2   2   2   2   2
#     4  11  25  45  68 101 147 176 231 289 352 416
#     4  12  24  43  71 105 138 185 233 284 353 416
#     4  11  26  44  69 105 138 183 236 289 350 418
#     4  11  26  45  72 100 139 185 239 291 355 419
#     4  11  24  46  72 100 140 185 235 299 347 412
#     4  12  25  44  75 103 139 185 239 289 352 423
#     4  10  25  46  67 102 139 187 229 294 355 415
#     4  12  24  42  71 100 140 185 227 285 345 419
#
# _framework density 20.917964000000001
#
# number of rings (size 3 to 8) (size 9 to 14) (size 15 to 20)
#    0.000    0.750    5.000    1.125    1.750    8.000 
#    0.000    0.000    0.000    0.000    0.000    0.000 
#    0.000    0.000    0.000    0.000    0.000    0.000 
#
# Total GULP energy -198337.468414 kJ/mol
# GULP energy per Si atom -12396.091776 kJ/mol
# Density = 2.087035 g / cm^3
# Si number density = 20.917964 Si / 1000 Ang^3
#
#
#
# Elastic Constant Matrix: (Units=GPa)
#
#
# Indices 1 2 3 4 5 6 
#
# 1 142.4574 64.3237 49.3353 -7.4201 5.1559 6.7839
# 2 64.3237 99.7341 65.1270 -8.8990 5.1053 8.9980
# 3 49.3353 65.1270 141.6135 -13.4339 18.0284 5.7542
# 4 -7.4201 -8.8990 -13.4339 42.4235 1.7257 -4.1685
# 5 5.1559 5.1053 18.0284 1.7257 41.4964 -3.6868
# 6 6.7839 8.9980 5.7542 -4.1685 -3.6868 36.3795
#
#
#
# Elastic Compliance Matrix: (Units=1/GPa)
#
#
# Indices 1 2 3 4 5 6 
#
# 1 0.009965 -0.005921 -0.000680 0.000268 -0.000250 -0.000281
# 2 -0.005921 0.018132 -0.006264 0.000525 0.001007 -0.002228
# 3 -0.000680 -0.006264 0.010900 0.002161 -0.003989 -0.000205
# 4 0.000268 0.000525 0.002161 0.024698 -0.001876 0.002118
# 5 -0.000250 0.001007 -0.003989 -0.001876 0.026070 0.002856
# 6 -0.000281 -0.002228 -0.000205 0.002118 0.002856 0.028656
#
#
# Mechanical properties :
#
#
# Convention : Reuss Voigt Hill
#
# Bulk Modulus (GPa) = 75.37078 82.37521 78.87300
# Shear Modulus (GPa) = 33.65356 37.72781 35.69069
#
# Velocity S-wave (km/s) = 4.01538 4.25150 4.13512
# Velocity P-wave (km/s) = 7.58996 7.97282 7.78375
#
# Compressibility (1/GPa) = 0.01326774
#
# Stress axis : x y z
#
# Youngs Moduli (GPa) = 100.35179 55.15126 91.74188
#
# Poissons Ratio (x) = 0.32654 0.06238
# Poissons Ratio (y) = 0.59417 0.57466
# Poissons Ratio (z) = 0.06823 0.34546
#
# Static dielectric constant tensor:
#      x y z
#    x 4.005710 0.124460 -0.188800 
#    y 0.124460 3.728100 -0.253050 
#    z -0.188800 -0.253050 3.956140 
# 
# 
# High freq. dielectric constant tensor:
#      x y z
#    x 1.837320 0.004690 -0.006780 
#    y 0.004690 1.816970 -0.010140 
#    z -0.006780 -0.010140 1.836980 
# 
# From -- ./inp_files/529890.got.cif
#   From: 2010.06.25/outbox.cif.g09.slc.cpg/sg2_265_cif.got.tgz:529890.got - 2010.06.27 13:26:56.
