data_PCOD8028033
_publ_section_title
;
Structure prediction by ZEFSAII (Michael W. Deem and Ramdas Pophale) SiO2 
 PCOD8028033
Probable space group: P -1
;
_chemical_formula_sum "Si O2"
_cell_formula_units_Z 14
_cell_length_a 6.776851
_cell_length_b 21.163593
_cell_length_c 12.605685
_cell_angle_alpha 159.779952
_cell_angle_beta 93.311310
_cell_angle_gamma 79.518525
_cell_volume 579.521994
_symmetry_space_group_name_H-M "P -1"
_symmetry_group_IT_number 2
_symmetry_cell_setting 'triclinic'
loop_
_space_group_symop_operation_xyz
x,y,z
-x,-y,-z
loop_
_atom_site_type_symbol
_atom_site_label
_atom_site_fract_x
_atom_site_fract_y
_atom_site_fract_z
Si Si1 0.616008 0.845072 0.902926
Si Si2 0.924596 0.737538 0.271887
Si Si3 0.298395 0.526603 0.105288
Si Si4 0.245297 0.879301 0.791575
Si Si5 0.012368 0.552445 0.756898
Si Si6 0.573096 0.653891 0.808048
Si Si7 0.138599 0.876456 0.213820
O O1 0.387241 0.880880 0.900215
O O2 0.602400 0.813518 0.978653
O O3 0.800984 0.656667 0.562842
O O4 0.680936 0.030157 0.167481
O O5 0.085463 0.651265 0.234722
O O6 0.878187 0.970723 0.641008
O O7 0.712125 0.686721 0.204050
O O8 0.021668 0.643782 0.015212
O O9 0.290782 0.650634 0.407187
O O10 0.500000 0.500000 0.000000
O O11 0.000000 0.000000 0.000000
O O12 0.788571 0.537878 0.696070
O O13 0.055193 0.701028 0.905808
O O14 0.500000 0.500000 0.500000
O O15 0.393978 0.769574 0.072501
O O16 0.000000 0.000000 0.500000
#
# Coordination Sequence:
#
# PCOD8028033 Si02
#       7
#     2   2   2   2   2   2   2
#     4  11  26  44  70 107 138 180 237 276 355 413
#     4  10  25  42  68  96 138 174 235 274 345 405
#     4  11  25  43  69  97 131 184 228 285 335 404
#     4  11  27  45  74  99 142 184 226 294 343 404
#     4  11  24  46  70 101 144 182 224 292 347 413
#     4  12  27  41  74 105 138 185 232 283 350 417
#     4  10  25  45  67 100 139 180 228 281 349 411
#
# _framework density 24.15784
#
# number of rings (size 3 to 8) (size 9 to 14) (size 15 to 20)
#    0.000    1.143    1.429    2.143   10.000    6.857 
#    0.000    0.000    0.000    0.000    0.000    0.000 
#    0.000    0.000    0.000    0.000    0.000    0.000 
#
# Total GULP energy -173519.076457 kJ/mol
# GULP energy per Si atom -12394.219747 kJ/mol
# Density = 2.410286 g / cm^3
# Si number density = 24.157840 Si / 1000 Ang^3
#
#
#
# Elastic Constant Matrix: (Units=GPa)
#
#
# Indices 1 2 3 4 5 6 
#
# 1 138.3546 15.0596 36.0192 7.1187 -17.1521 5.1863
# 2 15.0596 44.9969 -1.4474 4.1201 -2.4583 6.9017
# 3 36.0192 -1.4474 62.8995 12.9053 -13.4317 3.0237
# 4 7.1187 4.1201 12.9053 37.7103 14.0426 2.1766
# 5 -17.1521 -2.4583 -13.4317 14.0426 58.4349 4.0512
# 6 5.1863 6.9017 3.0237 2.1766 4.0512 39.3073
#
#
#
# Elastic Compliance Matrix: (Units=1/GPa)
#
#
# Indices 1 2 3 4 5 6 
#
# 1 0.009033 -0.003008 -0.004849 -0.000251 0.001500 -0.000431
# 2 -0.003008 0.024490 0.003798 -0.004012 0.002276 -0.004208
# 3 -0.004849 0.003798 0.022060 -0.009234 0.006154 -0.001847
# 4 -0.000251 -0.004012 -0.009234 0.034073 -0.010598 0.000653
# 5 0.001500 0.002276 0.006154 -0.010598 0.021800 -0.002731
# 6 -0.000431 -0.004208 -0.001847 0.000653 -0.002731 0.026624
#
#
# Mechanical properties :
#
#
# Convention : Reuss Voigt Hill
#
# Bulk Modulus (GPa) = 21.06890 38.39044 29.72967
# Shear Modulus (GPa) = 30.86052 40.19847 35.52950
#
# Velocity S-wave (km/s) = 3.57803 4.08363 3.83916
# Velocity P-wave (km/s) = 5.08035 6.17744 5.65556
#
# Compressibility (1/GPa) = 0.04746332
#
# Stress axis : x y z
#
# Youngs Moduli (GPa) = 110.70840 40.83344 45.33055
#
# Poissons Ratio (x) = 0.12283 0.21982
# Poissons Ratio (y) = 0.33301 -0.17214
# Poissons Ratio (z) = 0.53685 -0.15507
#
# Static dielectric constant tensor:
#      x y z
#    x 4.606440 0.506680 0.141200 
#    y 0.506680 4.377490 0.367900 
#    z 0.141200 0.367900 4.515320 
# 
# 
# High freq. dielectric constant tensor:
#      x y z
#    x 1.979090 0.020350 0.001610 
#    y 0.020350 1.944690 0.014840 
#    z 0.001610 0.014840 1.961710 
# 
# From -- ./inp_files/78201.got.cif
#   From: 2010.06.25/outbox.cif.g09.slc.cpg/sg2_40_cif.got.tgz:78201.got - 2010.06.27 13:26:56.
