data_PCOD8028496
_publ_section_title
;
Structure prediction by ZEFSAII (Michael W. Deem and Ramdas Pophale) SiO2 
 PCOD8028496
Probable space group: P -1
;
_chemical_formula_sum "Si O2"
_cell_formula_units_Z 14
_cell_length_a 8.088461
_cell_length_b 9.150820
_cell_length_c 13.788315
_cell_angle_alpha 72.094509
_cell_angle_beta 140.852270
_cell_angle_gamma 102.317612
_cell_volume 612.557784
_symmetry_space_group_name_H-M "P -1"
_symmetry_group_IT_number 2
_symmetry_cell_setting 'triclinic'
loop_
_space_group_symop_operation_xyz
x,y,z
-x,-y,-z
loop_
_atom_site_type_symbol
_atom_site_label
_atom_site_fract_x
_atom_site_fract_y
_atom_site_fract_z
Si Si1 0.750871 0.889838 0.659912
Si Si2 0.538042 0.768305 0.244167
Si Si3 0.945451 0.831776 0.970105
Si Si4 0.170331 0.481417 0.675672
Si Si5 0.697574 0.045799 0.163327
Si Si6 0.721461 0.613849 0.556424
Si Si7 0.483747 0.346116 0.088741
O O1 0.768743 0.847533 0.790168
O O2 0.746421 0.730502 0.632280
O O3 0.003501 0.985859 0.727276
O O4 0.500000 0.000000 0.500000
O O5 0.675029 0.683700 0.229707
O O6 0.648757 0.706797 0.407736
O O7 0.623730 0.944230 0.243716
O O8 0.227459 0.747880 0.095600
O O9 0.797810 0.726124 0.003043
O O10 0.000000 0.000000 0.000000
O O11 0.386564 0.611984 0.756853
O O12 0.000000 0.500000 0.500000
O O13 0.984840 0.505115 0.681403
O O14 0.667932 0.222794 0.141890
O O15 0.500000 0.000000 0.000000
O O16 0.500000 0.500000 0.500000
O O17 0.500000 0.500000 0.000000
#
# Coordination Sequence:
#
# PCOD8028496 Si02
#       7
#     2   2   2   2   2   2   2
#     4  12  28  46  78 112 147 197 248 317 377 450
#     4  11  25  46  78 102 154 203 245 318 370 454
#     4  12  26  49  75 114 149 193 257 308 379 456
#     4  10  25  47  67 107 145 194 242 307 378 437
#     4  12  24  49  74 111 149 195 259 303 384 451
#     4  11  27  47  70 110 152 193 251 313 378 444
#     4  12  27  46  78 108 148 193 246 315 378 446
#
# _framework density 22.854984999999999
#
# number of rings (size 3 to 8) (size 9 to 14) (size 15 to 20)
#    0.000    0.571    4.286    1.714    8.000    2.286 
#    0.000    0.000    0.000    0.000    0.000    0.000 
#    0.000    0.000    0.000    0.000    0.000    0.000 
#
# Total GULP energy -173531.720116 kJ/mol
# GULP energy per Si atom -12395.122865 kJ/mol
# Density = 2.280297 g / cm^3
# Si number density = 22.854985 Si / 1000 Ang^3
#
#
#
# Elastic Constant Matrix: (Units=GPa)
#
#
# Indices 1 2 3 4 5 6 
#
# 1 140.2153 73.5881 56.7969 -8.6196 18.9082 11.2149
# 2 73.5881 165.1300 58.2156 11.3810 -0.8513 -1.0253
# 3 56.7969 58.2156 122.3262 5.5140 7.8735 -4.1272
# 4 -8.6196 11.3810 5.5140 42.3849 -0.7275 -1.1363
# 5 18.9082 -0.8513 7.8735 -0.7275 51.8810 -0.2080
# 6 11.2149 -1.0253 -4.1272 -1.1363 -0.2080 61.4868
#
#
#
# Elastic Compliance Matrix: (Units=1/GPa)
#
#
# Indices 1 2 3 4 5 6 
#
# 1 0.011711 -0.004324 -0.003391 0.003855 -0.003780 -0.002377
# 2 -0.004324 0.008992 -0.002244 -0.002947 0.002026 0.000740
# 3 -0.003391 -0.002244 0.010959 -0.001486 -0.000480 0.001288
# 4 0.003855 -0.002947 -0.001486 0.025337 -0.000874 -0.000387
# 5 -0.003780 0.002026 -0.000480 -0.000874 0.020749 0.000745
# 6 -0.002377 0.000740 0.001288 -0.000387 0.000745 0.016791
#
#
# Mechanical properties :
#
#
# Convention : Reuss Voigt Hill
#
# Bulk Modulus (GPa) = 85.14587 89.43030 87.28808
# Shear Modulus (GPa) = 42.23983 47.08861 44.66422
#
# Velocity S-wave (km/s) = 4.30369 4.54400 4.42548
# Velocity P-wave (km/s) = 7.87600 8.16976 8.02423
#
# Compressibility (1/GPa) = 0.01174455
#
# Stress axis : x y z
#
# Youngs Moduli (GPa) = 85.38713 111.21001 91.25208
#
# Poissons Ratio (x) = 0.48083 0.30941
# Poissons Ratio (y) = 0.36918 0.20481
# Poissons Ratio (z) = 0.28953 0.24960
#
# Static dielectric constant tensor:
#      x y z
#    x 5.043990 0.480300 0.160900 
#    y 0.480300 5.609770 -0.112780 
#    z 0.160900 -0.112780 4.357830 
# 
# 
# High freq. dielectric constant tensor:
#      x y z
#    x 1.910750 -0.008150 0.013140 
#    y -0.008150 1.914240 0.009650 
#    z 0.013140 0.009650 1.911560 
# 
# From -- ./inp_files/494749.got.cif
#   From: 2010.06.25/outbox.cif.g09.slc.cpg/sg2_248_cif.got.tgz:494749.got - 2010.06.27 13:26:56.
