data_PCOD8028818
_publ_section_title
;
Structure prediction by ZEFSAII (Michael W. Deem and Ramdas Pophale) SiO2 
 PCOD8028818
Probable space group: P -1
;
_chemical_formula_sum "Si O2"
_cell_formula_units_Z 16
_cell_length_a 8.200277
_cell_length_b 9.039713
_cell_length_c 14.987389
_cell_angle_alpha 139.646721
_cell_angle_beta 108.216807
_cell_angle_gamma 76.651678
_cell_volume 683.259776
_symmetry_space_group_name_H-M "P -1"
_symmetry_group_IT_number 2
_symmetry_cell_setting 'triclinic'
loop_
_space_group_symop_operation_xyz
x,y,z
-x,-y,-z
loop_
_atom_site_type_symbol
_atom_site_label
_atom_site_fract_x
_atom_site_fract_y
_atom_site_fract_z
Si Si1 0.757256 0.964630 0.264121
Si Si2 0.280988 0.379504 0.047796
Si Si3 0.509644 0.351842 0.347843
Si Si4 0.392046 0.502309 0.746019
Si Si5 0.148054 0.852043 0.259822
Si Si6 0.179510 0.062415 0.177721
Si Si7 0.818291 0.075390 0.076805
Si Si8 0.196161 0.061604 0.543500
O O1 0.702166 0.988335 0.369782
O O2 0.963183 0.970059 0.291260
O O3 0.666765 0.172917 0.294018
O O4 0.698455 0.727002 0.096984
O O5 0.458139 0.513798 0.162407
O O6 0.136485 0.577079 0.120799
O O7 0.228978 0.182196 0.018414
O O8 0.500000 0.500000 0.500000
O O9 0.532884 0.536104 0.357536
O O10 0.324673 0.236355 0.251084
O O11 0.337264 0.764416 0.852543
O O12 0.233071 0.330344 0.657019
O O13 0.236139 0.945957 0.226932
O O14 0.255955 0.922078 0.400829
O O15 0.988345 0.167569 0.201462
O O16 0.154918 0.892468 0.010706
O O17 0.000000 0.000000 0.500000
#
# Coordination Sequence:
#
# PCOD8028818 Si02
#       8
#     2   2   2   2   2   2   2   2
#     4  11  25  47  70 105 144 187 237 292 354 422
#     4  12  24  43  75 105 145 183 238 295 348 423
#     4  12  26  44  72 103 145 186 243 294 352 426
#     4  12  25  47  72 102 146 188 235 297 363 407
#     4  11  25  46  72 102 147 191 237 291 351 424
#     4  11  24  41  70 106 140 182 241 285 359 417
#     4  11  24  44  72 105 144 186 233 299 351 429
#     4  10  27  47  69 100 140 189 241 284 349 427
#
# _framework density 23.417155999999999
#
# number of rings (size 3 to 8) (size 9 to 14) (size 15 to 20)
#    0.000    0.750    3.750    2.250    5.250    6.000 
#    0.000    4.375    0.000    0.000    0.000    0.000 
#    0.000    0.000    0.000    0.000    0.000    0.000 
#
# Total GULP energy -198242.871057 kJ/mol
# GULP energy per Si atom -12390.179441 kJ/mol
# Density = 2.336386 g / cm^3
# Si number density = 23.417156 Si / 1000 Ang^3
#
#
#
# Elastic Constant Matrix: (Units=GPa)
#
#
# Indices 1 2 3 4 5 6 
#
# 1 80.5213 25.0473 32.6926 3.9121 22.4407 5.5923
# 2 25.0473 94.3840 56.0911 -25.5155 7.9502 28.6370
# 3 32.6926 56.0911 131.9394 -29.1462 -2.2410 5.1969
# 4 3.9121 -25.5155 -29.1462 52.3274 10.5462 -5.9461
# 5 22.4407 7.9502 -2.2410 10.5462 37.2130 1.8405
# 6 5.5923 28.6370 5.1969 -5.9461 1.8405 38.8452
#
#
#
# Elastic Compliance Matrix: (Units=1/GPa)
#
#
# Indices 1 2 3 4 5 6 
#
# 1 0.017626 -0.001872 -0.004322 -0.002748 -0.009684 -0.000541
# 2 -0.001872 0.021230 -0.006749 0.006213 -0.004916 -0.013295
# 3 -0.004322 -0.006749 0.012206 0.003611 0.003545 0.004349
# 4 -0.002748 0.006213 0.003611 0.025660 -0.006704 -0.000422
# 5 -0.009684 -0.004916 0.003545 -0.006704 0.035786 0.001823
# 6 -0.000541 -0.013295 0.004349 -0.000422 0.001823 0.034889
#
#
# Mechanical properties :
#
#
# Convention : Reuss Voigt Hill
#
# Bulk Modulus (GPa) = 39.72001 59.38965 49.55483
# Shear Modulus (GPa) = 27.52183 38.54470 33.03326
#
# Velocity S-wave (km/s) = 3.43196 4.06150 3.75993
# Velocity P-wave (km/s) = 5.71867 6.88556 6.32907
#
# Compressibility (1/GPa) = 0.02517623
#
# Stress axis : x y z
#
# Youngs Moduli (GPa) = 56.73430 47.10301 81.92858
#
# Poissons Ratio (x) = 0.08818 0.35407
# Poissons Ratio (y) = 0.10622 0.55293
# Poissons Ratio (z) = 0.24519 0.31790
#
# Static dielectric constant tensor:
#      x y z
#    x 4.033270 0.083150 -0.201190 
#    y 0.083150 4.279590 -0.454980 
#    z -0.201190 -0.454980 4.439190 
# 
# 
# High freq. dielectric constant tensor:
#      x y z
#    x 1.921520 0.006150 -0.002940 
#    y 0.006150 1.927690 -0.030890 
#    z -0.002940 -0.030890 1.931560 
# 
# From -- ./inp_files/495923.got.cif
#   From: 2010.06.25/outbox.cif.g09.slc.cpg/sg2_248_cif.got.tgz:495923.got - 2010.06.27 13:26:56.
