data_PCOD8028194
_publ_section_title
;
Structure prediction by ZEFSAII (Michael W. Deem and Ramdas Pophale) SiO2 
 PCOD8028194
Probable space group: P -1
;
_chemical_formula_sum "Si O2"
_cell_formula_units_Z 10
_cell_length_a 9.806092
_cell_length_b 10.103828
_cell_length_c 16.568916
_cell_angle_alpha 34.365464
_cell_angle_beta 35.120750
_cell_angle_gamma 61.659044
_cell_volume 419.416429
_symmetry_space_group_name_H-M "P -1"
_symmetry_group_IT_number 2
_symmetry_cell_setting 'triclinic'
loop_
_space_group_symop_operation_xyz
x,y,z
-x,-y,-z
loop_
_atom_site_type_symbol
_atom_site_label
_atom_site_fract_x
_atom_site_fract_y
_atom_site_fract_z
Si Si1 0.516321 0.073269 0.670618
Si Si2 0.273254 0.257124 0.564930
Si Si3 0.572689 0.616036 0.816166
Si Si4 0.956601 0.434754 0.729305
Si Si5 0.854024 0.663777 0.980213
O O1 0.304797 0.110599 0.701212
O O2 0.798844 0.392151 0.405365
O O3 0.640118 0.936327 0.622812
O O4 0.330308 0.871134 0.939636
O O5 0.597671 0.536916 0.236024
O O6 0.081955 0.367390 0.626787
O O7 0.106445 0.016692 0.694394
O O8 0.857586 0.630314 0.644014
O O9 0.284352 0.385598 0.016348
O O10 0.500000 0.500000 0.000000
O O11 0.000000 0.500000 0.000000
#
# Coordination Sequence:
#
# PCOD8028194 Si02
#       5
#     2   2   2   2   2
#     4  11  22  42  69  98 137 175 220 265 326 400
#     4  12  25  42  71  97 136 173 220 276 329 388
#     4  10  25  44  70  96 135 176 221 270 327 396
#     4  11  24  42  66 104 133 173 219 272 332 387
#     4  12  26  45  69  98 133 176 223 272 329 393
#
# _framework density 23.842652999999999
#
# number of rings (size 3 to 8) (size 9 to 14) (size 15 to 20)
#    0.000    0.800    2.000    4.800    2.800    4.800 
#    0.000    0.000    0.000    0.000    0.000    0.000 
#    0.000    0.000    0.000    0.000    0.000    0.000 
#
# Total GULP energy -124069.678827 kJ/mol
# GULP energy per Si atom -12406.967883 kJ/mol
# Density = 2.378839 g / cm^3
# Si number density = 23.842653 Si / 1000 Ang^3
#
#
#
# Elastic Constant Matrix: (Units=GPa)
#
#
# Indices 1 2 3 4 5 6 
#
# 1 122.8869 44.1850 5.2160 -0.8357 -27.1782 6.6168
# 2 44.1850 165.9347 6.2177 9.6125 -22.4653 -25.2491
# 3 5.2160 6.2177 54.2929 2.7653 -16.3421 -10.1327
# 4 -0.8357 9.6125 2.7653 43.2587 8.1036 -14.4212
# 5 -27.1782 -22.4653 -16.3421 8.1036 33.2207 -7.1701
# 6 6.6168 -25.2491 -10.1327 -14.4212 -7.1701 36.4198
#
#
#
# Elastic Compliance Matrix: (Units=1/GPa)
#
#
# Indices 1 2 3 4 5 6 
#
# 1 0.010669 -0.002037 0.001292 -0.001597 0.007932 -0.002062
# 2 -0.002037 0.008910 0.003266 -0.000832 0.008048 0.008711
# 3 0.001292 0.003266 0.026105 -0.001856 0.019224 0.012342
# 4 -0.001597 -0.000832 -0.001856 0.027714 -0.007673 0.008660
# 5 0.007932 0.008048 0.019224 -0.007673 0.057183 0.017707
# 6 -0.002062 0.008711 0.012342 0.008660 0.017707 0.044220
#
#
# Mechanical properties :
#
#
# Convention : Reuss Voigt Hill
#
# Bulk Modulus (GPa) = 19.71361 50.48352 35.09857
# Shear Modulus (GPa) = 26.78555 41.74624 34.26589
#
# Velocity S-wave (km/s) = 3.35540 4.18892 3.79511
# Velocity P-wave (km/s) = 4.82677 6.67950 5.82724
#
# Compressibility (1/GPa) = 0.05072637
#
# Stress axis : x y z
#
# Youngs Moduli (GPa) = 93.72563 112.23671 38.30720
#
# Poissons Ratio (x) = 0.22861 -0.04950
# Poissons Ratio (y) = 0.19091 -0.12511
# Poissons Ratio (z) = -0.12111 -0.36656
#
# Static dielectric constant tensor:
#      x y z
#    x 4.380060 -0.352920 -0.228470 
#    y -0.352920 4.877410 -0.024510 
#    z -0.228470 -0.024510 4.038130 
# 
# 
# High freq. dielectric constant tensor:
#      x y z
#    x 1.949810 -0.005270 -0.011660 
#    y -0.005270 1.959790 0.001910 
#    z -0.011660 0.001910 1.936520 
# 
# From -- ./inp_files/519.got.cif
#   From: 2010.06.25/outbox.cif.g09.slc.cpg/sg2_1_cif.got.tgz:519.got - 2010.06.27 13:26:56.
