data_PCOD8028156
_publ_section_title
;
Structure prediction by ZEFSAII (Michael W. Deem and Ramdas Pophale) SiO2 
 PCOD8028156
Probable space group: P -1
;
_chemical_formula_sum "Si O2"
_cell_formula_units_Z 16
_cell_length_a 12.135383
_cell_length_b 14.406888
_cell_length_c 9.743928
_cell_angle_alpha 145.305728
_cell_angle_beta 114.254458
_cell_angle_gamma 48.477569
_cell_volume 689.013367
_symmetry_space_group_name_H-M "P -1"
_symmetry_group_IT_number 2
_symmetry_cell_setting 'triclinic'
loop_
_space_group_symop_operation_xyz
x,y,z
-x,-y,-z
loop_
_atom_site_type_symbol
_atom_site_label
_atom_site_fract_x
_atom_site_fract_y
_atom_site_fract_z
Si Si1 0.063114 0.745582 0.497708
Si Si2 0.566218 0.321853 0.705275
Si Si3 0.029954 0.147609 0.919399
Si Si4 0.413967 0.484473 0.311085
Si Si5 0.829305 0.864362 0.306200
Si Si6 0.600806 0.800388 0.205993
Si Si7 0.727405 0.599722 0.293860
Si Si8 0.909721 0.720297 0.645026
O O1 0.245765 0.562920 0.365460
O O2 0.965689 0.716986 0.306861
O O3 0.012702 0.739149 0.616264
O O4 0.021111 0.962266 0.689867
O O5 0.605014 0.363554 0.629299
O O6 0.432878 0.299185 0.584990
O O7 0.724022 0.110893 0.589246
O O8 0.500000 0.500000 0.000000
O O9 0.095188 0.175842 0.851592
O O10 0.856967 0.361705 0.117923
O O11 0.141632 0.108945 0.055617
O O12 0.500000 0.500000 0.500000
O O13 0.493293 0.252223 0.002685
O O14 0.714818 0.806530 0.174441
O O15 0.704212 0.601491 0.119952
O O16 0.500000 0.000000 0.500000
O O17 0.766058 0.756851 0.538648
O O18 0.000000 0.500000 0.500000
#
# Coordination Sequence:
#
# PCOD8028156 Si02
#       8
#     2   2   2   2   2   2   2   2
#     4  12  25  47  73 108 147 191 249 310 368 443
#     4  12  24  48  71 104 148 196 245 304 370 450
#     4  11  25  43  70 107 148 190 243 308 376 438
#     4  12  30  47  73 112 152 194 248 312 380 440
#     4  12  25  44  76 109 143 190 256 310 361 440
#     4  12  25  47  72 110 149 200 250 304 373 446
#     4  11  23  44  72 103 141 199 248 296 363 449
#     4  10  25  44  67 104 147 194 240 301 376 443
#
# _framework density 23.221610999999999
#
# number of rings (size 3 to 8) (size 9 to 14) (size 15 to 20)
#    0.000    0.500    5.000    2.250    7.000    2.000 
#    2.250    1.250    0.000    0.000    0.000    0.000 
#    0.000    0.000    0.000    0.000    0.000    0.000 
#
# Total GULP energy -198306.346784 kJ/mol
# GULP energy per Si atom -12394.146674 kJ/mol
# Density = 2.316876 g / cm^3
# Si number density = 23.221611 Si / 1000 Ang^3
#
#
#
# Elastic Constant Matrix: (Units=GPa)
#
#
# Indices 1 2 3 4 5 6 
#
# 1 137.7007 29.7234 26.7935 -19.8275 -4.1396 5.4279
# 2 29.7234 80.0882 37.6757 -17.8217 -0.3923 -2.6471
# 3 26.7935 37.6757 103.8429 -26.0513 9.3756 -16.9195
# 4 -19.8275 -17.8217 -26.0513 40.4925 -1.3892 -3.7091
# 5 -4.1396 -0.3923 9.3756 -1.3892 36.9194 -3.5652
# 6 5.4279 -2.6471 -16.9195 -3.7091 -3.5652 47.8388
#
#
#
# Elastic Compliance Matrix: (Units=1/GPa)
#
#
# Indices 1 2 3 4 5 6 
#
# 1 0.008352 -0.002084 -0.001094 0.002401 0.001169 -0.001176
# 2 -0.002084 0.016154 -0.004689 0.003097 0.001226 -0.000197
# 3 -0.001094 -0.004689 0.014554 0.007147 -0.003084 0.005337
# 4 0.002401 0.003097 0.007147 0.032292 0.000180 0.004944
# 5 0.001169 0.001226 -0.003084 0.000180 0.028112 0.000953
# 6 -0.001176 -0.000197 0.005337 0.004944 0.000953 0.023368
#
#
# Mechanical properties :
#
#
# Convention : Reuss Voigt Hill
#
# Bulk Modulus (GPa) = 42.86905 56.66856 49.76881
# Shear Modulus (GPa) = 34.16650 40.21276 37.18963
#
# Velocity S-wave (km/s) = 3.83994 4.16588 4.00623
# Velocity P-wave (km/s) = 6.17747 6.89897 6.54816
#
# Compressibility (1/GPa) = 0.02332685
#
# Stress axis : x y z
#
# Youngs Moduli (GPa) = 119.73127 61.90344 68.70735
#
# Poissons Ratio (x) = 0.12901 0.07515
# Poissons Ratio (y) = 0.24953 0.32218
# Poissons Ratio (z) = 0.13095 0.29027
#
# Static dielectric constant tensor:
#      x y z
#    x 4.668880 -0.134490 0.328120 
#    y -0.134490 4.367720 -0.258820 
#    z 0.328120 -0.258820 4.432670 
# 
# 
# High freq. dielectric constant tensor:
#      x y z
#    x 1.938630 0.008420 0.009760 
#    y 0.008420 1.912200 -0.005130 
#    z 0.009760 -0.005130 1.914180 
# 
# From -- ./inp_files/256837.got.cif
#   From: 2010.06.25/outbox.cif.g09.slc.cpg/sg2_129_cif.got.tgz:256837.got - 2010.06.27 13:26:56.
