data_PCOD8028778
_publ_section_title
;
Structure prediction by ZEFSAII (Michael W. Deem and Ramdas Pophale) SiO2 
 PCOD8028778
Probable space group: P -1
;
_chemical_formula_sum "Si O2"
_cell_formula_units_Z 16
_cell_length_a 11.596005
_cell_length_b 14.980690
_cell_length_c 5.076197
_cell_angle_alpha 128.938835
_cell_angle_beta 93.031937
_cell_angle_gamma 106.602988
_cell_volume 624.510101
_symmetry_space_group_name_H-M "P -1"
_symmetry_group_IT_number 2
_symmetry_cell_setting 'triclinic'
loop_
_space_group_symop_operation_xyz
x,y,z
-x,-y,-z
loop_
_atom_site_type_symbol
_atom_site_label
_atom_site_fract_x
_atom_site_fract_y
_atom_site_fract_z
Si Si1 0.523580 0.769421 0.498065
Si Si2 0.160349 0.963002 0.625677
Si Si3 0.073529 0.286305 0.867890
Si Si4 0.614218 0.097157 0.524882
Si Si5 0.549408 0.390803 0.309436
Si Si6 0.048942 0.415797 0.614266
Si Si7 0.194969 0.109922 0.392596
Si Si8 0.790360 0.361981 0.273543
O O1 0.440735 0.853004 0.638788
O O2 0.533673 0.717975 0.694746
O O3 0.657930 0.853648 0.548867
O O4 0.458633 0.654731 0.075406
O O5 0.303791 0.975856 0.709887
O O6 0.066405 0.819773 0.390970
O O7 0.136580 0.004124 0.411184
O O8 0.129358 0.049781 0.995961
O O9 0.092161 0.399470 0.880818
O O10 0.177123 0.233560 0.706645
O O11 0.090061 0.335045 0.258828
O O12 0.500000 0.000000 0.500000
O O13 0.704188 0.215794 0.932626
O O14 0.500000 0.500000 0.500000
O O15 0.697491 0.430019 0.481526
O O16 0.124363 0.563741 0.829512
O O17 0.896411 0.372667 0.523330
#
# Coordination Sequence:
#
# PCOD8028778 Si02
#       8
#     2   2   2   2   2   2   2   2
#     4  11  26  44  69 107 139 186 238 287 353 434
#     4  12  25  45  71 104 144 191 236 294 355 417
#     4  12  26  45  75 102 142 188 241 290 362 411
#     4  11  24  47  75 106 145 191 237 296 358 426
#     4  11  26  45  73 101 144 183 233 293 359 423
#     4  11  26  47  74 105 138 192 234 301 349 420
#     4  12  26  44  70 103 150 182 241 292 351 431
#     4  10  26  47  73 106 145 180 246 290 353 425
#
# _framework density 25.620083000000001
#
# number of rings (size 3 to 8) (size 9 to 14) (size 15 to 20)
#    0.000    0.750    2.500    3.375    7.000    5.500 
#    0.000    0.000    0.000    0.000    0.000    0.000 
#    0.000    0.000    0.000    0.000    0.000    0.000 
#
# Total GULP energy -198399.260766 kJ/mol
# GULP energy per Si atom -12399.953798 kJ/mol
# Density = 2.556177 g / cm^3
# Si number density = 25.620083 Si / 1000 Ang^3
#
#
#
# Elastic Constant Matrix: (Units=GPa)
#
#
# Indices 1 2 3 4 5 6 
#
# 1 112.5680 23.5306 31.7953 0.3813 -15.5610 1.9469
# 2 23.5306 106.4641 20.2350 -0.4252 0.2556 -14.1061
# 3 31.7953 20.2350 77.8090 4.5425 -22.1988 9.8306
# 4 0.3813 -0.4252 4.5425 38.8551 8.1491 0.7181
# 5 -15.5610 0.2556 -22.1988 8.1491 41.3992 11.4460
# 6 1.9469 -14.1061 9.8306 0.7181 11.4460 37.0116
#
#
#
# Elastic Compliance Matrix: (Units=1/GPa)
#
#
# Indices 1 2 3 4 5 6 
#
# 1 0.010513 -0.002027 -0.002684 -0.000419 0.003034 -0.001543
# 2 -0.002027 0.011871 -0.005102 0.001883 -0.006109 0.007839
# 3 -0.002684 -0.005102 0.021333 -0.005413 0.014832 -0.011951
# 4 -0.000419 0.001883 -0.005413 0.028397 -0.009963 0.004708
# 5 0.003034 -0.006109 0.014832 -0.009963 0.040427 -0.018736
# 6 -0.001543 0.007839 -0.011951 0.004708 -0.018736 0.038965
#
#
# Mechanical properties :
#
#
# Convention : Reuss Voigt Hill
#
# Bulk Modulus (GPa) = 41.50831 49.77364 45.64098
# Shear Modulus (GPa) = 27.90771 38.20520 33.05645
#
# Velocity S-wave (km/s) = 3.30402 3.86582 3.59591
# Velocity P-wave (km/s) = 5.54906 6.27661 5.92402
#
# Compressibility (1/GPa) = 0.02409156
#
# Stress axis : x y z
#
# Youngs Moduli (GPa) = 95.12263 84.23636 46.87590
#
# Poissons Ratio (x) = 0.17073 0.12580
# Poissons Ratio (y) = 0.19280 0.23917
# Poissons Ratio (z) = 0.25528 0.42979
#
# Static dielectric constant tensor:
#      x y z
#    x 5.017440 -0.028100 -0.087510 
#    y -0.028100 4.540130 0.060440 
#    z -0.087510 0.060440 4.655830 
# 
# 
# High freq. dielectric constant tensor:
#      x y z
#    x 2.041730 0.003310 -0.005460 
#    y 0.003310 2.023590 0.005880 
#    z -0.005460 0.005880 2.021910 
# 
# From -- ./inp_files/78801.got.cif
#   From: 2010.06.25/outbox.cif.g09.slc.cpg/sg2_40_cif.got.tgz:78801.got - 2010.06.27 13:26:56.
