data_PCOD8028453
_publ_section_title
;
Structure prediction by ZEFSAII (Michael W. Deem and Ramdas Pophale) SiO2 
 PCOD8028453
Probable space group: P -1
;
_chemical_formula_sum "Si O2"
_cell_formula_units_Z 16
_cell_length_a 11.209412
_cell_length_b 9.688581
_cell_length_c 8.952285
_cell_angle_alpha 85.676476
_cell_angle_beta 100.048481
_cell_angle_gamma 60.094333
_cell_volume 814.707020
_symmetry_space_group_name_H-M "P -1"
_symmetry_group_IT_number 2
_symmetry_cell_setting 'triclinic'
loop_
_space_group_symop_operation_xyz
x,y,z
-x,-y,-z
loop_
_atom_site_type_symbol
_atom_site_label
_atom_site_fract_x
_atom_site_fract_y
_atom_site_fract_z
Si Si1 0.265375 0.028161 0.754175
Si Si2 0.859854 0.107004 0.053267
Si Si3 0.836343 0.693089 0.099047
Si Si4 0.463361 0.220792 0.011918
Si Si5 0.443839 0.879533 0.524354
Si Si6 0.597652 0.257013 0.769235
Si Si7 0.379427 0.440046 0.232199
Si Si8 0.902971 0.379601 0.010121
O O1 0.308496 0.972941 0.598301
O O2 0.183444 0.223974 0.748120
O O3 0.158832 0.972575 0.795146
O O4 0.406917 0.953749 0.894416
O O5 0.732667 0.151783 0.910244
O O6 0.860189 0.265570 0.095308
O O7 0.000000 0.000000 0.000000
O O8 0.680681 0.776813 0.983537
O O9 0.939910 0.727338 0.018673
O O10 0.902620 0.499161 0.128176
O O11 0.467264 0.271538 0.836852
O O12 0.465049 0.358442 0.104239
O O13 0.383504 0.845116 0.365752
O O14 0.570743 0.705481 0.625616
O O15 0.500000 0.000000 0.500000
O O16 0.578817 0.430958 0.712316
O O17 0.210037 0.526274 0.157280
#
# Coordination Sequence:
#
# PCOD8028453 Si02
#       8
#     2   2   2   2   2   2   2   2
#     4  10  20  34  57  80 115 145 185 233 277 322
#     4  10  19  37  59  87 110 140 184 235 275 332
#     4  10  17  30  51  81 114 141 180 221 281 324
#     4   9  18  31  56  90 108 138 185 242 277 323
#     4  11  23  38  53  84 115 153 186 226 276 333
#     4  10  20  35  59  84 110 148 185 226 285 325
#     4   9  19  36  57  79 112 144 187 232 277 328
#     4   9  19  32  54  86 110 144 179 232 284 328
#
# _framework density 19.638961999999999
#
# number of rings (size 3 to 8) (size 9 to 14) (size 15 to 20)
#    0.000    2.250    1.250    1.875    0.000    8.000 
#    0.000    1.875    0.000    3.000    0.000    0.000 
#    0.000    0.000    0.000    0.000    0.000    0.000 
#
# Total GULP energy -198233.901927 kJ/mol
# GULP energy per Si atom -12389.618870 kJ/mol
# Density = 1.959426 g / cm^3
# Si number density = 19.638962 Si / 1000 Ang^3
#
#
#
# Elastic Constant Matrix: (Units=GPa)
#
#
# Indices 1 2 3 4 5 6 
#
# 1 102.8464 42.2001 36.9096 9.1015 -20.3095 3.5683
# 2 42.2001 106.8586 50.6040 25.7292 -8.6069 17.1562
# 3 36.9096 50.6040 93.2141 25.6502 -20.2742 19.4672
# 4 9.1015 25.7292 25.6502 36.3405 0.1373 0.9764
# 5 -20.3095 -8.6069 -20.2742 0.1373 21.6647 7.2461
# 6 3.5683 17.1562 19.4672 0.9764 7.2461 30.2756
#
#
#
# Elastic Compliance Matrix: (Units=1/GPa)
#
#
# Indices 1 2 3 4 5 6 
#
# 1 0.013909 -0.003978 -0.000087 -0.000592 0.012121 -0.002211
# 2 -0.003978 0.015347 -0.002799 -0.007723 0.002027 -0.006664
# 3 -0.000087 -0.002799 0.031401 -0.019579 0.037311 -0.026894
# 4 -0.000592 -0.007723 -0.019579 0.046456 -0.029824 0.022675
# 5 0.012121 0.002027 0.037311 -0.029824 0.110871 -0.052142
# 6 -0.002211 -0.006664 -0.026894 0.022675 -0.052142 0.066108
#
#
# Mechanical properties :
#
#
# Convention : Reuss Voigt Hill
#
# Bulk Modulus (GPa) = 21.30832 62.48294 41.89563
# Shear Modulus (GPa) = 15.95076 29.20319 22.57697
#
# Velocity S-wave (km/s) = 2.85300 3.86035 3.39426
# Velocity P-wave (km/s) = 4.66116 7.19407 6.06140
#
# Compressibility (1/GPa) = 0.04693003
#
# Stress axis : x y z
#
# Youngs Moduli (GPa) = 71.89392 65.15851 31.84565
#
# Poissons Ratio (x) = 0.25920 0.00278
# Poissons Ratio (y) = 0.28599 0.08913
# Poissons Ratio (z) = 0.00627 0.18237
#
# Static dielectric constant tensor:
#      x y z
#    x 4.177670 0.117540 -0.390250 
#    y 0.117540 3.958210 0.189520 
#    z -0.390250 0.189520 3.373500 
# 
# 
# High freq. dielectric constant tensor:
#      x y z
#    x 1.770950 0.009320 -0.012340 
#    y 0.009320 1.786420 0.026250 
#    z -0.012340 0.026250 1.712870 
# 
# From -- ./inp_files/175175.got.cif
#   From: 2010.06.25/outbox.cif.g09.slc.cpg/sg2_88_cif.got.tgz:175175.got - 2010.06.27 13:26:56.
