data_PCOD8028012
_publ_section_title
;
Structure prediction by ZEFSAII (Michael W. Deem and Ramdas Pophale) SiO2 
 PCOD8028012
Probable space group: P -1
;
_chemical_formula_sum "Si O2"
_cell_formula_units_Z 16
_cell_length_a 12.069821
_cell_length_b 15.185111
_cell_length_c 9.147126
_cell_angle_alpha 106.482698
_cell_angle_beta 116.536747
_cell_angle_gamma 30.204619
_cell_volume 734.788365
_symmetry_space_group_name_H-M "P -1"
_symmetry_group_IT_number 2
_symmetry_cell_setting 'triclinic'
loop_
_space_group_symop_operation_xyz
x,y,z
-x,-y,-z
loop_
_atom_site_type_symbol
_atom_site_label
_atom_site_fract_x
_atom_site_fract_y
_atom_site_fract_z
Si Si1 0.689099 0.592060 0.519932
Si Si2 0.749228 0.891509 0.122480
Si Si3 0.518295 0.355615 0.058669
Si Si4 0.435707 0.605330 0.207981
Si Si5 0.862775 0.985232 0.045899
Si Si6 0.399867 0.929394 0.339026
Si Si7 0.805999 0.804445 0.434149
Si Si8 0.146512 0.500252 0.101610
O O1 0.529977 0.602390 0.400572
O O2 0.560159 0.764093 0.461507
O O3 0.707584 0.593404 0.704742
O O4 0.950860 0.411429 0.512949
O O5 0.808104 0.861753 0.314057
O O6 0.959128 0.702731 0.074896
O O7 0.743533 0.996472 0.102866
O O8 0.500000 0.000000 0.000000
O O9 0.517714 0.447038 0.202201
O O10 0.330071 0.399006 0.027618
O O11 0.442704 0.431500 0.885019
O O12 0.784559 0.139120 0.113064
O O13 0.148204 0.795084 0.119571
O O14 0.754784 0.033046 0.844893
O O15 0.577554 0.882141 0.331213
O O16 0.211644 0.112199 0.404660
O O17 0.000000 0.500000 0.000000
#
# Coordination Sequence:
#
# PCOD8028012 Si02
#       8
#     2   2   2   2   2   2   2   2
#     4  11  26  44  68 100 141 177 231 280 343 407
#     4  11  22  43  67 100 139 178 227 286 347 406
#     4  11  25  44  71 101 135 188 227 284 339 403
#     4  11  26  47  69  99 143 186 233 280 334 417
#     4  12  24  43  72 101 136 179 237 281 339 412
#     4  11  24  41  68 100 137 179 232 281 348 399
#     4  10  25  42  63 100 140 182 220 291 341 412
#     4  11  26  45  73 104 139 181 231 286 351 412
#
# _framework density 21.774977
#
# number of rings (size 3 to 8) (size 9 to 14) (size 15 to 20)
#    0.000    1.000    3.750    1.500    8.750    1.500 
#    0.000    0.625    0.000    0.000    0.000    0.000 
#    0.000    0.000    0.000    0.000    0.000    0.000 
#
# Total GULP energy -198467.389644 kJ/mol
# GULP energy per Si atom -12404.211853 kJ/mol
# Density = 2.172542 g / cm^3
# Si number density = 21.774977 Si / 1000 Ang^3
#
#
#
# Elastic Constant Matrix: (Units=GPa)
#
#
# Indices 1 2 3 4 5 6 
#
# 1 113.1694 32.5163 48.3386 11.9809 -2.8631 2.4909
# 2 32.5163 124.3682 37.9754 4.6226 5.8760 5.2131
# 3 48.3386 37.9754 107.2040 -5.1409 10.5119 -2.2628
# 4 11.9809 4.6226 -5.1409 23.0518 3.1477 0.6906
# 5 -2.8631 5.8760 10.5119 3.1477 27.7822 1.3626
# 6 2.4909 5.2131 -2.2628 0.6906 1.3626 40.1321
#
#
#
# Elastic Compliance Matrix: (Units=1/GPa)
#
#
# Indices 1 2 3 4 5 6 
#
# 1 0.012961 -0.001346 -0.006289 -0.008523 0.005015 -0.001008
# 2 -0.001346 0.009381 -0.002738 -0.001641 -0.000840 -0.001233
# 3 -0.006289 -0.002738 0.014169 0.007802 -0.006394 0.001628
# 4 -0.008523 -0.001641 0.007802 0.051132 -0.009307 0.000618
# 5 0.005015 -0.000840 -0.006394 -0.009307 0.040249 -0.001769
# 6 -0.001008 -0.001233 0.001628 0.000618 -0.001769 0.025282
#
#
# Mechanical properties :
#
#
# Convention : Reuss Voigt Hill
#
# Bulk Modulus (GPa) = 63.43563 64.71134 64.07349
# Shear Modulus (GPa) = 27.90562 33.25398 30.57980
#
# Velocity S-wave (km/s) = 3.58375 3.91214 3.75154
# Velocity P-wave (km/s) = 6.80588 7.08443 6.94655
#
# Compressibility (1/GPa) = 0.01576401
#
# Stress axis : x y z
#
# Youngs Moduli (GPa) = 77.15621 106.59704 70.57570
#
# Poissons Ratio (x) = 0.14350 0.44384
# Poissons Ratio (y) = 0.10387 0.19326
# Poissons Ratio (z) = 0.48523 0.29190
#
# Static dielectric constant tensor:
#      x y z
#    x 4.006980 0.105150 -0.082430 
#    y 0.105150 4.185040 -0.001280 
#    z -0.082430 -0.001280 3.828500 
# 
# 
# High freq. dielectric constant tensor:
#      x y z
#    x 1.861590 0.003800 -0.005110 
#    y 0.003800 1.875090 0.000120 
#    z -0.005110 0.000120 1.842500 
# 
# From -- ./inp_files/273443.got.cif
#   From: 2010.06.25/outbox.cif.g09.slc.cpg/sg2_137_cif.got.tgz:273443.got - 2010.06.27 13:26:56.
