data_PCOD8028981
_publ_section_title
;
Structure prediction by ZEFSAII (Michael W. Deem and Ramdas Pophale) SiO2 
 PCOD8028981
Probable space group: P -1
;
_chemical_formula_sum "Si O2"
_cell_formula_units_Z 16
_cell_length_a 18.169112
_cell_length_b 20.960800
_cell_length_c 11.286120
_cell_angle_alpha 37.291032
_cell_angle_beta 28.804241
_cell_angle_gamma 20.671661
_cell_volume 723.579092
_symmetry_space_group_name_H-M "P -1"
_symmetry_group_IT_number 2
_symmetry_cell_setting 'triclinic'
loop_
_space_group_symop_operation_xyz
x,y,z
-x,-y,-z
loop_
_atom_site_type_symbol
_atom_site_label
_atom_site_fract_x
_atom_site_fract_y
_atom_site_fract_z
Si Si1 0.719753 0.222849 0.340676
Si Si2 0.161834 0.612060 0.482995
Si Si3 0.955969 0.531663 0.262788
Si Si4 0.411345 0.175112 0.483218
Si Si5 0.123763 0.021951 0.715602
Si Si6 0.506298 0.761499 0.155049
Si Si7 0.731266 0.784872 0.997165
Si Si8 0.735298 0.981950 0.088743
O O1 0.476116 0.423726 0.331373
O O2 0.661804 0.232549 0.547675
O O3 0.770391 0.085377 0.400002
O O4 0.973362 0.154734 0.073381
O O5 0.051246 0.588293 0.580730
O O6 0.104749 0.762815 0.299263
O O7 0.010852 0.679919 0.720796
O O8 0.832562 0.611799 0.450104
O O9 0.763442 0.711641 0.186406
O O10 0.255054 0.410653 0.014047
O O11 0.519158 0.147902 0.242335
O O12 0.643276 0.050845 0.436418
O O13 0.292339 0.126039 0.722651
O O14 0.000000 0.000000 0.000000
O O15 0.665877 0.730976 0.076981
O O16 0.304804 0.944298 0.092523
O O17 0.500000 0.000000 0.000000
#
# Coordination Sequence:
#
# PCOD8028981 Si02
#       8
#     2   2   2   2   2   2   2   2
#     4  12  23  47  69 104 141 173 231 287 343 411
#     4  11  22  39  71 107 135 170 222 299 343 394
#     4  11  20  40  71 105 134 171 237 289 333 406
#     4  11  23  47  66  97 138 181 238 275 333 422
#     4  12  25  46  73 102 132 177 236 291 341 397
#     4  11  21  40  64  98 138 179 223 279 344 406
#     4  11  19  36  71 105 133 175 226 291 342 389
#     4  11  26  43  67  94 144 193 218 275 351 410
#
# _framework density 22.112302
#
# number of rings (size 3 to 8) (size 9 to 14) (size 15 to 20)
#    0.000    0.750    5.000    4.875    0.000    1.000 
#    2.250    0.625    0.000    0.000    0.000    0.000 
#    0.000    0.000    0.000    0.000    0.000    0.000 
#
# Total GULP energy -198380.676582 kJ/mol
# GULP energy per Si atom -12398.792286 kJ/mol
# Density = 2.206197 g / cm^3
# Si number density = 22.112302 Si / 1000 Ang^3
#
#
#
# Elastic Constant Matrix: (Units=GPa)
#
#
# Indices 1 2 3 4 5 6 
#
# 1 61.4641 12.7730 42.9600 1.2793 1.4434 7.2043
# 2 12.7730 111.2262 45.8004 -5.6441 9.7803 20.6128
# 3 42.9600 45.8004 126.6882 2.7117 3.0281 19.3606
# 4 1.2793 -5.6441 2.7117 34.2372 3.6991 11.2109
# 5 1.4434 9.7803 3.0281 3.6991 33.4421 3.4869
# 6 7.2043 20.6128 19.3606 11.2109 3.4869 23.9380
#
#
#
# Elastic Compliance Matrix: (Units=1/GPa)
#
#
# Indices 1 2 3 4 5 6 
#
# 1 0.021395 0.000892 -0.007364 0.000432 -0.000420 -0.001393
# 2 0.000892 0.012936 -0.003321 0.006381 -0.003052 -0.011265
# 3 -0.007364 -0.003321 0.012361 0.000378 0.000670 -0.005196
# 4 0.000432 0.006381 0.000378 0.038245 -0.003720 -0.023299
# 5 -0.000420 -0.003052 0.000670 -0.003720 0.031226 -0.000594
# 6 -0.001393 -0.011265 -0.005196 -0.023299 -0.000594 0.067094
#
#
# Mechanical properties :
#
#
# Convention : Reuss Voigt Hill
#
# Bulk Modulus (GPa) = 36.89184 55.82726 46.35955
# Shear Modulus (GPa) = 23.59841 31.51314 27.55578
#
# Velocity S-wave (km/s) = 3.27036 3.77920 3.53395
# Velocity P-wave (km/s) = 5.56600 6.65921 6.13700
#
# Compressibility (1/GPa) = 0.02710627
#
# Stress axis : x y z
#
# Youngs Moduli (GPa) = 46.73881 77.30610 80.89830
#
# Poissons Ratio (x) = -0.06899 0.59575
# Poissons Ratio (y) = -0.04171 0.26868
# Poissons Ratio (z) = 0.34419 0.25675
#
# Static dielectric constant tensor:
#      x y z
#    x 4.096860 0.189380 0.309210 
#    y 0.189380 3.922790 0.306200 
#    z 0.309210 0.306200 4.229810 
# 
# 
# High freq. dielectric constant tensor:
#      x y z
#    x 1.854560 0.003490 0.015090 
#    y 0.003490 1.865450 0.018230 
#    z 0.015090 0.018230 1.882730 
# 
# From -- ./inp_files/467086.got.cif
#   From: 2010.06.25/outbox.cif.g09.slc.cpg/sg2_234_cif.got.tgz:467086.got - 2010.06.27 13:26:56.
