data_PCOD8028733
_publ_section_title
;
Structure prediction by ZEFSAII (Michael W. Deem and Ramdas Pophale) SiO2 
 PCOD8028733
Probable space group: P -1
;
_chemical_formula_sum "Si O2"
_cell_formula_units_Z 14
_cell_length_a 11.199650
_cell_length_b 16.993391
_cell_length_c 14.193696
_cell_angle_alpha 148.368502
_cell_angle_beta 144.302858
_cell_angle_gamma 32.354406
_cell_volume 715.474121
_symmetry_space_group_name_H-M "P -1"
_symmetry_group_IT_number 2
_symmetry_cell_setting 'triclinic'
loop_
_space_group_symop_operation_xyz
x,y,z
-x,-y,-z
loop_
_atom_site_type_symbol
_atom_site_label
_atom_site_fract_x
_atom_site_fract_y
_atom_site_fract_z
Si Si1 0.964372 0.686956 0.482385
Si Si2 0.069189 0.448763 0.144426
Si Si3 0.628586 0.588186 0.871591
Si Si4 0.384696 0.395503 0.553071
Si Si5 0.330822 0.453362 0.787082
Si Si6 0.860383 0.768445 0.855427
Si Si7 0.126729 0.917881 0.898948
O O1 0.713430 0.690842 0.334885
O O2 0.080690 0.597333 0.365456
O O3 0.127396 0.564325 0.546203
O O4 0.957034 0.868733 0.678565
O O5 0.280254 0.372630 0.126830
O O6 0.101241 0.290418 0.070120
O O7 0.816220 0.538910 0.024420
O O8 0.582280 0.427103 0.661198
O O9 0.384902 0.754559 0.918150
O O10 0.447057 0.370387 0.677546
O O11 0.374603 0.231424 0.335048
O O12 0.085212 0.632440 0.800107
O O13 0.500000 0.500000 0.000000
O O14 0.832114 0.954897 0.012458
O O15 0.000000 0.000000 0.000000
#
# Coordination Sequence:
#
# PCOD8028733 Si02
#       7
#     2   2   2   2   2   2   2
#     4   9  19  33  54  77 106 141 182 222 262 325
#     4   9  20  39  58  81 102 144 193 223 264 315
#     4  10  20  37  60  78 109 142 182 231 268 321
#     4   9  16  30  52  75 101 142 182 219 260 317
#     4  10  17  30  52  77 105 141 184 221 261 320
#     4  10  20  33  53  79 109 139 182 225 266 323
#     4  11  22  36  54  83 116 144 172 222 283 324
#
# _framework density 19.567443999999998
#
# number of rings (size 3 to 8) (size 9 to 14) (size 15 to 20)
#    0.000    2.571    0.000    6.000    0.000    5.714 
#    0.000    5.714    0.000    3.429    0.000    0.000 
#    0.000    0.000    0.000    0.000    0.000    0.000 
#
# Total GULP energy -173455.192912 kJ/mol
# GULP energy per Si atom -12389.656637 kJ/mol
# Density = 1.952291 g / cm^3
# Si number density = 19.567444 Si / 1000 Ang^3
#
#
#
# Elastic Constant Matrix: (Units=GPa)
#
#
# Indices 1 2 3 4 5 6 
#
# 1 126.1826 40.5643 63.1691 -3.6022 1.2897 9.9424
# 2 40.5643 46.4446 49.5757 0.1776 4.6964 1.1828
# 3 63.1691 49.5757 167.6928 7.6162 16.8194 14.4122
# 4 -3.6022 0.1776 7.6162 28.2341 8.7686 4.8206
# 5 1.2897 4.6964 16.8194 8.7686 34.4736 -2.4239
# 6 9.9424 1.1828 14.4122 4.8206 -2.4239 28.7215
#
#
#
# Elastic Compliance Matrix: (Units=1/GPa)
#
#
# Indices 1 2 3 4 5 6 
#
# 1 0.011872 -0.008316 -0.001934 0.002371 0.000809 -0.003127
# 2 -0.008316 0.037726 -0.008467 0.000151 -0.000348 0.005519
# 3 -0.001934 -0.008467 0.009963 -0.001042 -0.003659 -0.004115
# 4 0.002371 0.000151 -0.001042 0.040629 -0.010498 -0.008009
# 5 0.000809 -0.000348 -0.003659 -0.010498 0.033916 0.006195
# 6 -0.003127 0.005519 -0.004115 -0.008009 0.006195 0.039604
#
#
# Mechanical properties :
#
#
# Convention : Reuss Voigt Hill
#
# Bulk Modulus (GPa) = 45.19258 71.88203 58.53730
# Shear Modulus (GPa) = 22.88126 30.75324 26.81725
#
# Velocity S-wave (km/s) = 3.42329 3.96871 3.70605
# Velocity P-wave (km/s) = 6.22665 7.60369 6.94936
#
# Compressibility (1/GPa) = 0.02212753
#
# Stress axis : x y z
#
# Youngs Moduli (GPa) = 84.22907 26.50697 100.37340
#
# Poissons Ratio (x) = 0.22044 0.19411
# Poissons Ratio (y) = 0.70047 0.84983
# Poissons Ratio (z) = 0.16289 0.22443
#
# Static dielectric constant tensor:
#      x y z
#    x 3.613640 0.093540 0.357260 
#    y 0.093540 3.114720 -0.051310 
#    z 0.357260 -0.051310 4.169350 
# 
# 
# High freq. dielectric constant tensor:
#      x y z
#    x 1.765380 0.012940 0.013180 
#    y 0.012940 1.708200 -0.013480 
#    z 0.013180 -0.013480 1.781050 
# 
# From -- ./inp_files/208354.got.cif
#   From: 2010.06.25/outbox.cif.g09.slc.cpg/sg2_105_cif.got.tgz:208354.got - 2010.06.27 13:26:56.
