data_PCOD8028795
_publ_section_title
;
Structure prediction by ZEFSAII (Michael W. Deem and Ramdas Pophale) SiO2 
 PCOD8028795
Probable space group: P -1
;
_chemical_formula_sum "Si O2"
_cell_formula_units_Z 16
_cell_length_a 10.488750
_cell_length_b 8.413396
_cell_length_c 18.279569
_cell_angle_alpha 121.905128
_cell_angle_beta 142.936511
_cell_angle_gamma 45.800437
_cell_volume 695.552006
_symmetry_space_group_name_H-M "P -1"
_symmetry_group_IT_number 2
_symmetry_cell_setting 'triclinic'
loop_
_space_group_symop_operation_xyz
x,y,z
-x,-y,-z
loop_
_atom_site_type_symbol
_atom_site_label
_atom_site_fract_x
_atom_site_fract_y
_atom_site_fract_z
Si Si1 0.473693 0.018270 0.840343
Si Si2 0.103825 0.474657 0.837113
Si Si3 0.164199 0.526862 0.518689
Si Si4 0.255224 0.393801 0.045385
Si Si5 0.583742 0.297310 0.760064
Si Si6 0.619459 0.645666 0.578194
Si Si7 0.316421 0.065173 0.625910
Si Si8 0.081383 0.914825 0.934635
O O1 0.230185 0.266165 0.789838
O O2 0.449890 0.929229 0.728456
O O3 0.509539 0.834360 0.870002
O O4 0.701862 0.043829 0.972582
O O5 0.178273 0.656841 0.904489
O O6 0.809106 0.592981 0.718826
O O7 0.185937 0.357823 0.924801
O O8 0.438588 0.445352 0.657800
O O9 0.241123 0.384830 0.443403
O O10 0.000000 0.500000 0.500000
O O11 0.991298 0.787991 0.479687
O O12 0.349514 0.561805 0.122752
O O13 0.000000 0.500000 0.000000
O O14 0.400078 0.242521 0.703780
O O15 0.847472 0.063872 0.807958
O O16 0.500000 0.500000 0.500000
O O17 0.402853 0.904432 0.555664
O O18 0.000000 0.000000 0.000000
#
# Coordination Sequence:
#
# PCOD8028795 Si02
#       8
#     2   2   2   2   2   2   2   2
#     4  12  24  41  71 105 146 184 236 304 368 434
#     4  12  25  45  66 105 149 184 241 295 368 448
#     4  10  26  48  72 105 147 189 252 298 361 431
#     4  12  24  41  68 102 141 181 236 294 369 430
#     4  11  23  42  73 101 136 188 245 290 360 430
#     4  12  27  44  76 107 143 198 247 299 371 437
#     4  11  23  49  73 100 147 193 244 302 366 436
#     4  12  20  42  72 100 132 190 235 284 359 433
#
# _framework density 23.003309999999999
#
# number of rings (size 3 to 8) (size 9 to 14) (size 15 to 20)
#    0.000    0.500    6.250    1.500    3.500    3.500 
#    0.000    0.000    0.000    0.000    0.000    0.000 
#    0.000    0.000    0.000    0.000    0.000    0.000 
#
# Total GULP energy -198214.440525 kJ/mol
# GULP energy per Si atom -12388.402533 kJ/mol
# Density = 2.295095 g / cm^3
# Si number density = 23.003310 Si / 1000 Ang^3
#
#
#
# Elastic Constant Matrix: (Units=GPa)
#
#
# Indices 1 2 3 4 5 6 
#
# 1 79.7699 36.6243 25.5062 3.6567 -18.2478 -7.1430
# 2 36.6243 138.4744 34.6045 -12.7221 -11.4699 -13.5825
# 3 25.5062 34.6045 104.5648 -25.5065 -22.0283 2.3285
# 4 3.6567 -12.7221 -25.5065 48.7624 5.4519 -0.3220
# 5 -18.2478 -11.4699 -22.0283 5.4519 31.9328 1.4446
# 6 -7.1430 -13.5825 2.3285 -0.3220 1.4446 39.7911
#
#
#
# Elastic Compliance Matrix: (Units=1/GPa)
#
#
# Indices 1 2 3 4 5 6 
#
# 1 0.016977 -0.003477 -0.002529 -0.004316 0.007367 0.001706
# 2 -0.003477 0.008978 -0.001862 0.001697 -0.000453 0.002580
# 3 -0.002529 -0.001862 0.013681 0.006134 0.006370 -0.002072
# 4 -0.004316 0.001697 0.006134 0.024685 -0.001826 -0.000288
# 5 0.007367 -0.000453 0.006370 -0.001826 0.040100 -0.000675
# 6 0.001706 0.002580 -0.002072 -0.000288 -0.000675 0.026461
#
#
# Mechanical properties :
#
#
# Convention : Reuss Voigt Hill
#
# Bulk Modulus (GPa) = 41.84153 57.36433 49.60293
# Shear Modulus (GPa) = 32.34473 39.16889 35.75681
#
# Velocity S-wave (km/s) = 3.75385 4.13092 3.94689
# Velocity P-wave (km/s) = 6.08419 6.90972 6.51005
#
# Compressibility (1/GPa) = 0.02389970
#
# Stress axis : x y z
#
# Youngs Moduli (GPa) = 58.90290 111.38530 73.09434
#
# Poissons Ratio (x) = 0.38729 0.18486
# Poissons Ratio (y) = 0.20481 0.13610
# Poissons Ratio (z) = 0.14897 0.20739
#
# Static dielectric constant tensor:
#      x y z
#    x 3.779030 0.234050 -0.464830 
#    y 0.234050 4.317640 -0.110640 
#    z -0.464830 -0.110640 4.093240 
# 
# 
# High freq. dielectric constant tensor:
#      x y z
#    x 1.879650 0.001760 -0.008080 
#    y 0.001760 1.919970 -0.019270 
#    z -0.008080 -0.019270 1.922450 
# 
# From -- ./inp_files/594204.got.cif
#   From: 2010.06.25/outbox.cif.g09.slc.cpg/sg2_298_cif.got.tgz:594204.got - 2010.06.27 13:26:56.
