data_PCOD8028442
_publ_section_title
;
Structure prediction by ZEFSAII (Michael W. Deem and Ramdas Pophale) SiO2 
 PCOD8028442
Probable space group: P -1
;
_chemical_formula_sum "Si O2"
_cell_formula_units_Z 10
_cell_length_a 10.019525
_cell_length_b 7.905199
_cell_length_c 10.554084
_cell_angle_alpha 68.006346
_cell_angle_beta 38.168081
_cell_angle_gamma 90.000176
_cell_volume 410.920890
_symmetry_space_group_name_H-M "P -1"
_symmetry_group_IT_number 2
_symmetry_cell_setting 'triclinic'
loop_
_space_group_symop_operation_xyz
x,y,z
-x,-y,-z
loop_
_atom_site_type_symbol
_atom_site_label
_atom_site_fract_x
_atom_site_fract_y
_atom_site_fract_z
Si Si1 0.749982 0.097239 0.000012
Si Si2 0.484251 0.281336 0.545386
Si Si3 0.521403 0.707951 0.739319
Si Si4 0.984233 0.173272 0.545401
Si Si5 0.978613 0.447279 0.260669
O O1 0.777378 0.058502 0.842800
O O2 0.995103 0.322405 0.797829
O O3 0.504862 0.120223 0.202195
O O4 0.722590 0.901293 0.157220
O O5 0.500000 0.500000 0.500000
O O6 0.407506 0.201434 0.481773
O O7 0.762226 0.317796 0.355779
O O8 0.737798 0.673579 0.644192
O O9 0.250007 0.485357 0.999998
O O10 0.907498 0.316790 0.481779
O O11 0.000000 0.000000 0.500000
#
# Coordination Sequence:
#
# PCOD8028442 Si02
#       5
#     2   2   2   2   2
#     4  10  26  44  70  98 142 176 228 278 342 398
#     4  12  25  45  73 103 135 182 231 278 342 403
#     4  10  25  46  70  99 143 175 225 282 340 405
#     4  12  25  45  73 103 135 182 231 278 342 403
#     4  10  25  46  70  99 143 175 225 282 340 405
#
# _framework density 24.335584999999998
#
# number of rings (size 3 to 8) (size 9 to 14) (size 15 to 20)
#    1.200    0.000    0.000    4.800    2.800    6.400 
#    0.000    0.000    0.000    0.000    0.000    0.000 
#    0.000    0.000    0.000    0.000    0.000    0.000 
#
# Total GULP energy -123954.269445 kJ/mol
# GULP energy per Si atom -12395.426944 kJ/mol
# Density = 2.428020 g / cm^3
# Si number density = 24.335585 Si / 1000 Ang^3
#
#
#
# Elastic Constant Matrix: (Units=GPa)
#
#
# Indices 1 2 3 4 5 6 
#
# 1 116.9141 14.6036 25.3251 -1.7544 0.5660 5.9793
# 2 14.6036 100.8720 46.8974 2.5859 20.0307 -5.1606
# 3 25.3251 46.8974 122.0687 4.0089 35.1076 -2.5677
# 4 -1.7544 2.5859 4.0089 50.1618 -0.5784 7.5696
# 5 0.5660 20.0307 35.1076 -0.5784 45.8480 -3.2637
# 6 5.9793 -5.1606 -2.5677 7.5696 -3.2637 22.3184
#
#
#
# Elastic Compliance Matrix: (Units=1/GPa)
#
#
# Indices 1 2 3 4 5 6 
#
# 1 0.009298 -0.000850 -0.002200 0.001023 0.001738 -0.003033
# 2 -0.000850 0.012441 -0.003864 -0.000779 -0.002291 0.002589
# 3 -0.002200 -0.003864 0.012410 -0.001009 -0.007777 0.000329
# 4 0.001023 -0.000779 -0.001009 0.021257 0.000823 -0.007660
# 5 0.001738 -0.002291 -0.007777 0.000823 0.028902 0.002057
# 6 -0.003033 0.002589 0.000329 -0.007660 0.002057 0.049154
#
#
# Mechanical properties :
#
#
# Convention : Reuss Voigt Hill
#
# Bulk Modulus (GPa) = 49.21103 57.05633 53.13368
# Shear Modulus (GPa) = 32.45424 40.53421 36.49422
#
# Velocity S-wave (km/s) = 3.65583 4.08565 3.87670
# Velocity P-wave (km/s) = 6.17137 6.76411 6.47453
#
# Compressibility (1/GPa) = 0.02032065
#
# Stress axis : x y z
#
# Youngs Moduli (GPa) = 107.54995 80.38237 80.58257
#
# Poissons Ratio (x) = 0.06832 0.17726
# Poissons Ratio (y) = 0.09141 0.31138
# Poissons Ratio (z) = 0.23658 0.31061
#
# Static dielectric constant tensor:
#      x y z
#    x 4.358560 0.038090 0.005880 
#    y 0.038090 3.976160 -0.009920 
#    z 0.005880 -0.009920 4.471280 
# 
# 
# High freq. dielectric constant tensor:
#      x y z
#    x 1.966220 0.002150 0.003820 
#    y 0.002150 1.943910 -0.000240 
#    z 0.003820 -0.000240 1.973200 
# 
# From -- ./inp_files/61402.got.cif
#   From: 2010.06.25/outbox.cif.g09.slc.cpg/sg2_31_cif.got.tgz:61402.got - 2010.06.27 13:26:56.
