data_PCOD8028003
_publ_section_title
;
Structure prediction by ZEFSAII (Michael W. Deem and Ramdas Pophale) SiO2 
 PCOD8028003
Probable space group: P -1
;
_chemical_formula_sum "Si O2"
_cell_formula_units_Z 16
_cell_length_a 17.435785
_cell_length_b 19.440049
_cell_length_c 8.368328
_cell_angle_alpha 132.456109
_cell_angle_beta 48.009330
_cell_angle_gamma 159.047549
_cell_volume 740.284946
_symmetry_space_group_name_H-M "P -1"
_symmetry_group_IT_number 2
_symmetry_cell_setting 'triclinic'
loop_
_space_group_symop_operation_xyz
x,y,z
-x,-y,-z
loop_
_atom_site_type_symbol
_atom_site_label
_atom_site_fract_x
_atom_site_fract_y
_atom_site_fract_z
Si Si1 0.337322 0.294192 0.833654
Si Si2 0.829827 0.227292 0.953441
Si Si3 0.861550 0.600963 0.449546
Si Si4 0.443731 0.545473 0.548621
Si Si5 0.780217 0.525575 0.995328
Si Si6 0.575005 0.820503 0.270069
Si Si7 0.555182 0.188124 0.262019
Si Si8 0.018001 0.192481 0.093252
O O1 0.382058 0.302456 0.598051
O O2 0.351768 0.215962 0.801538
O O3 0.500000 0.500000 0.000000
O O4 0.099737 0.152328 0.951337
O O5 0.750073 0.269557 0.132585
O O6 0.021120 0.373278 0.045634
O O7 0.924564 0.277720 0.725739
O O8 0.625298 0.993864 0.898042
O O9 0.793955 0.639283 0.498112
O O10 0.656601 0.367589 0.352091
O O11 0.887698 0.654703 0.677419
O O12 0.500000 0.500000 0.500000
O O13 0.414667 0.603890 0.813073
O O14 0.660007 0.369829 0.783790
O O15 0.891972 0.706487 0.047235
O O16 0.561679 0.892903 0.530557
O O17 0.758497 0.989213 0.147549
#
# Coordination Sequence:
#
# PCOD8028003 Si02
#       8
#     2   2   2   2   2   2   2   2
#     4  12  20  41  67  92 128 178 216 254 316 387
#     4  10  25  41  68  97 125 160 218 277 323 372
#     4  11  21  40  69  91 127 171 217 258 317 387
#     4  11  20  36  65  92 128 170 205 262 322 365
#     4  11  24  42  61  96 135 164 207 277 317 371
#     4  12  24  42  68  92 130 177 218 254 320 389
#     4  11  21  44  70  92 123 169 219 262 322 392
#     4  12  23  41  64  96 131 175 214 256 315 389
#
# _framework density 21.613299999999999
#
# number of rings (size 3 to 8) (size 9 to 14) (size 15 to 20)
#    0.000    0.750    7.500    0.750    0.000    2.500 
#    0.000    1.250    0.000    0.000    0.000    0.000 
#    0.000    0.000    0.000    0.000    0.000    0.000 
#
# Total GULP energy -198210.560202 kJ/mol
# GULP energy per Si atom -12388.160013 kJ/mol
# Density = 2.156411 g / cm^3
# Si number density = 21.613300 Si / 1000 Ang^3
#
#
#
# Elastic Constant Matrix: (Units=GPa)
#
#
# Indices 1 2 3 4 5 6 
#
# 1 87.9995 42.6007 41.0226 0.4110 1.8421 16.2892
# 2 42.6007 102.2087 35.0465 -6.5636 -3.3447 10.5131
# 3 41.0226 35.0465 97.0537 -21.7962 -8.0685 8.3705
# 4 0.4110 -6.5636 -21.7962 37.6483 4.2725 0.0988
# 5 1.8421 -3.3447 -8.0685 4.2725 31.6769 -11.8032
# 6 16.2892 10.5131 8.3705 0.0988 -11.8032 33.6845
#
#
#
# Elastic Compliance Matrix: (Units=1/GPa)
#
#
# Indices 1 2 3 4 5 6 
#
# 1 0.018539 -0.005076 -0.006789 -0.004362 -0.005603 -0.007644
# 2 -0.005076 0.012795 -0.002132 0.000976 0.000684 -0.000772
# 3 -0.006789 -0.002132 0.016068 0.008600 0.003538 0.001170
# 4 -0.004362 0.000976 0.008600 0.032013 -0.002219 -0.001204
# 5 -0.005603 0.000684 0.003538 -0.002219 0.038844 0.015235
# 6 -0.007644 -0.000772 0.001170 -0.001204 0.015235 0.038676
#
#
# Mechanical properties :
#
#
# Convention : Reuss Voigt Hill
#
# Bulk Modulus (GPa) = 51.52816 58.28908 54.90862
# Shear Modulus (GPa) = 26.12357 31.84141 28.98249
#
# Velocity S-wave (km/s) = 3.48038 3.84243 3.66588
# Velocity P-wave (km/s) = 6.32799 6.83472 6.58623
#
# Compressibility (1/GPa) = 0.01940686
#
# Stress axis : x y z
#
# Youngs Moduli (GPa) = 53.94170 78.15397 62.23682
#
# Poissons Ratio (x) = 0.39673 0.42252
# Poissons Ratio (y) = 0.27382 0.13270
# Poissons Ratio (z) = 0.36621 0.16664
#
# Static dielectric constant tensor:
#      x y z
#    x 3.838890 0.098690 0.077860 
#    y 0.098690 3.888620 -0.270210 
#    z 0.077860 -0.270210 4.173550 
# 
# 
# High freq. dielectric constant tensor:
#      x y z
#    x 1.834860 0.010210 0.002850 
#    y 0.010210 1.840340 -0.023720 
#    z 0.002850 -0.023720 1.857670 
# 
# From -- ./inp_files/338174.got.cif
#   From: 2010.06.25/outbox.cif.g09.slc.cpg/sg2_170_cif.got.tgz:338174.got - 2010.06.27 13:26:56.
