data_PCOD8028479
_publ_section_title
;
Structure prediction by ZEFSAII (Michael W. Deem and Ramdas Pophale) SiO2 
 PCOD8028479
Probable space group: P -1
;
_chemical_formula_sum "Si O2"
_cell_formula_units_Z 16
_cell_length_a 9.163814
_cell_length_b 14.475221
_cell_length_c 8.182939
_cell_angle_alpha 138.424398
_cell_angle_beta 104.856488
_cell_angle_gamma 83.542657
_cell_volume 690.888007
_symmetry_space_group_name_H-M "P -1"
_symmetry_group_IT_number 2
_symmetry_cell_setting 'triclinic'
loop_
_space_group_symop_operation_xyz
x,y,z
-x,-y,-z
loop_
_atom_site_type_symbol
_atom_site_label
_atom_site_fract_x
_atom_site_fract_y
_atom_site_fract_z
Si Si1 0.491543 0.596560 0.968179
Si Si2 0.907192 0.087389 0.701801
Si Si3 0.620907 0.901665 0.353334
Si Si4 0.587495 0.875724 0.925041
Si Si5 0.650138 0.388099 0.568480
Si Si6 0.084157 0.143141 0.139580
Si Si7 0.198201 0.639265 0.076077
Si Si8 0.972780 0.424811 0.564607
O O1 0.556313 0.523668 0.730634
O O2 0.500000 0.500000 0.000000
O O3 0.588352 0.748162 0.219644
O O4 0.313554 0.618254 0.929688
O O5 0.843746 0.204609 0.729837
O O6 0.773140 0.973691 0.580760
O O7 0.000000 0.000000 0.500000
O O8 0.009888 0.166122 0.974225
O O9 0.500000 0.000000 0.500000
O O10 0.637518 0.898003 0.156850
O O11 0.469027 0.737659 0.694095
O O12 0.735614 0.863036 0.837964
O O13 0.500000 0.000000 0.000000
O O14 0.716676 0.368732 0.740419
O O15 0.790870 0.405608 0.508159
O O16 0.046354 0.278743 0.410003
O O17 0.000000 0.000000 0.000000
O O18 0.050906 0.524066 0.862603
O O19 0.000000 0.500000 0.500000
#
# Coordination Sequence:
#
# PCOD8028479 Si02
#       8
#     2   2   2   2   2   2   2   2
#     4  10  25  46  74 109 142 190 245 303 362 434
#     4  12  26  46  74 106 147 191 250 295 367 437
#     4  12  27  46  79 106 149 197 244 304 367 433
#     4  12  28  49  75 111 149 191 251 304 367 441
#     4  11  27  46  77 107 148 192 244 302 368 434
#     4  12  29  49  75 109 150 194 238 308 369 437
#     4  11  24  49  74 105 149 190 244 304 364 439
#     4  12  27  46  73 108 148 189 242 301 366 434
#
# _framework density 23.158601999999998
#
# number of rings (size 3 to 8) (size 9 to 14) (size 15 to 20)
#    0.000    0.500    3.750    2.625   12.250    2.500 
#    0.000    0.000    0.000    0.000    0.000    0.000 
#    0.000    0.000    0.000    0.000    0.000    0.000 
#
# Total GULP energy -198381.878266 kJ/mol
# GULP energy per Si atom -12398.867392 kJ/mol
# Density = 2.310589 g / cm^3
# Si number density = 23.158602 Si / 1000 Ang^3
#
#
#
# Elastic Constant Matrix: (Units=GPa)
#
#
# Indices 1 2 3 4 5 6 
#
# 1 200.1745 28.5079 51.9448 28.5143 -8.3680 2.0815
# 2 28.5079 79.1635 24.2649 27.4244 -10.3489 2.9614
# 3 51.9448 24.2649 120.5524 30.5631 5.1905 -1.7360
# 4 28.5143 27.4244 30.5631 53.9377 -5.1192 -0.6487
# 5 -8.3680 -10.3489 5.1905 -5.1192 53.2160 7.2035
# 6 2.0815 2.9614 -1.7360 -0.6487 7.2035 31.7631
#
#
#
# Elastic Compliance Matrix: (Units=1/GPa)
#
#
# Indices 1 2 3 4 5 6 
#
# 1 0.005900 -0.000851 -0.002054 -0.001444 0.000912 -0.000656
# 2 -0.000851 0.016139 -0.001318 -0.006772 0.002792 -0.002293
# 3 -0.002054 -0.001318 0.010701 -0.004504 -0.002226 0.001255
# 4 -0.001444 -0.006772 -0.004504 0.025425 0.001244 0.000717
# 5 0.000912 0.002792 -0.002226 0.001244 0.020500 -0.005066
# 6 -0.000656 -0.002293 0.001255 0.000717 -0.005066 0.032972
#
#
# Mechanical properties :
#
#
# Convention : Reuss Voigt Hill
#
# Bulk Modulus (GPa) = 41.16143 67.70285 54.43214
# Shear Modulus (GPa) = 39.00673 47.46155 43.23414
#
# Velocity S-wave (km/s) = 4.10851 4.53196 4.32542
# Velocity P-wave (km/s) = 6.34971 7.52879 6.96425
#
# Compressibility (1/GPa) = 0.02429459
#
# Stress axis : x y z
#
# Youngs Moduli (GPa) = 169.47763 61.96037 93.44733
#
# Poissons Ratio (x) = 0.05274 0.19192
# Poissons Ratio (y) = 0.14427 0.12318
# Poissons Ratio (z) = 0.34807 0.08168
#
# Static dielectric constant tensor:
#      x y z
#    x 4.932710 -0.154200 -0.255360 
#    y -0.154200 3.956610 0.212130 
#    z -0.255360 0.212130 4.286590 
# 
# 
# High freq. dielectric constant tensor:
#      x y z
#    x 1.938880 -0.006660 -0.001470 
#    y -0.006660 1.911100 0.013560 
#    z -0.001470 0.013560 1.929440 
# 
# From -- ./inp_files/209183.got.cif
#   From: 2010.06.25/outbox.cif.g09.slc.cpg/sg2_105_cif.got.tgz:209183.got - 2010.06.27 13:26:56.
