data_PCOD8028083
_publ_section_title
;
Structure prediction by ZEFSAII (Michael W. Deem and Ramdas Pophale) SiO2 
 PCOD8028083
Probable space group: P -1
;
_chemical_formula_sum "Si O2"
_cell_formula_units_Z 12
_cell_length_a 13.719612
_cell_length_b 5.113421
_cell_length_c 11.451466
_cell_angle_alpha 73.930912
_cell_angle_beta 38.437208
_cell_angle_gamma 72.912208
_cell_volume 475.899850
_symmetry_space_group_name_H-M "P -1"
_symmetry_group_IT_number 2
_symmetry_cell_setting 'triclinic'
loop_
_space_group_symop_operation_xyz
x,y,z
-x,-y,-z
loop_
_atom_site_type_symbol
_atom_site_label
_atom_site_fract_x
_atom_site_fract_y
_atom_site_fract_z
Si Si1 0.105923 0.237187 0.900854
Si Si2 0.679319 0.627300 0.923756
Si Si3 0.644248 0.538257 0.707096
Si Si4 0.826944 0.020369 0.901464
Si Si5 0.850588 0.282898 0.347115
Si Si6 0.375699 0.052151 0.509222
O O1 0.217391 0.141396 0.919847
O O2 0.044890 0.567507 0.873295
O O3 0.308177 0.779222 0.561994
O O4 0.000000 0.000000 0.000000
O O5 0.708244 0.638582 0.756810
O O6 0.490681 0.659147 0.121991
O O7 0.745713 0.889424 0.884168
O O8 0.770940 0.344048 0.923852
O O9 0.798170 0.407724 0.506874
O O10 0.557842 0.800425 0.683320
O O11 0.019460 0.977754 0.712498
O O12 0.771060 0.746142 0.324744
O O13 0.500000 0.000000 0.500000
#
# Coordination Sequence:
#
# PCOD8028083 Si02
#       6
#     2   2   2   2   2   2
#     4   9  22  40  63  98 133 176 219 284 330 406
#     4  11  27  46  72 101 136 188 228 282 337 412
#     4  10  26  45  68 101 138 177 235 283 338 410
#     4  11  26  44  73 102 138 183 229 278 347 407
#     4  10  25  43  68 101 139 177 230 290 339 408
#     4  11  24  41  69  99 135 180 226 286 347 401
#
# _framework density 25.215389999999999
#
# number of rings (size 3 to 8) (size 9 to 14) (size 15 to 20)
#    0.000    1.667    0.000    1.000   18.667    5.333 
#    0.000    0.000    0.000    0.000    0.000    0.000 
#    0.000    0.000    0.000    0.000    0.000    0.000 
#
# Total GULP energy -148725.401855 kJ/mol
# GULP energy per Si atom -12393.783488 kJ/mol
# Density = 2.515800 g / cm^3
# Si number density = 25.215390 Si / 1000 Ang^3
#
#
#
# Elastic Constant Matrix: (Units=GPa)
#
#
# Indices 1 2 3 4 5 6 
#
# 1 131.1579 -4.6114 19.1473 -8.6875 9.1331 10.2017
# 2 -4.6114 65.9783 -0.5257 1.2736 3.7848 2.3733
# 3 19.1473 -0.5257 113.5516 0.3934 23.2523 -0.2645
# 4 -8.6875 1.2736 0.3934 28.9002 1.2460 1.1232
# 5 9.1331 3.7848 23.2523 1.2460 44.9318 -8.7420
# 6 10.2017 2.3733 -0.2645 1.1232 -8.7420 45.4795
#
#
#
# Elastic Compliance Matrix: (Units=1/GPa)
#
#
# Indices 1 2 3 4 5 6 
#
# 1 0.008275 0.000700 -0.001056 0.002634 -0.001714 -0.002293
# 2 0.000700 0.015368 0.000331 -0.000341 -0.001852 -0.001305
# 3 -0.001056 0.000331 0.010037 -0.000220 -0.005139 -0.000704
# 4 0.002634 -0.000341 -0.000220 0.035555 -0.001726 -0.001784
# 5 -0.001714 -0.001852 -0.005139 -0.001726 0.026557 0.005599
# 6 -0.002293 -0.001305 -0.000704 -0.001784 0.005599 0.023687
#
#
# Mechanical properties :
#
#
# Convention : Reuss Voigt Hill
#
# Bulk Modulus (GPa) = 29.73507 37.63425 33.68466
# Shear Modulus (GPa) = 38.24389 43.64081 40.94235
#
# Velocity S-wave (km/s) = 3.89869 4.16471 4.03389
# Velocity P-wave (km/s) = 5.66431 6.17121 5.92319
#
# Compressibility (1/GPa) = 0.03363033
#
# Stress axis : x y z
#
# Youngs Moduli (GPa) = 120.84099 65.07106 99.62661
#
# Poissons Ratio (x) = -0.04555 0.10517
# Poissons Ratio (y) = -0.08458 -0.03293
# Poissons Ratio (z) = 0.12757 -0.02151
#
# Static dielectric constant tensor:
#      x y z
#    x 4.393990 -0.015400 0.310520 
#    y -0.015400 4.736890 0.402280 
#    z 0.310520 0.402280 5.349570 
# 
# 
# High freq. dielectric constant tensor:
#      x y z
#    x 2.002190 -0.006070 0.020870 
#    y -0.006070 2.016960 0.017150 
#    z 0.020870 0.017150 2.040790 
# 
# From -- ./inp_files/440872.got.cif
#   From: 2010.06.25/outbox.cif.g09.slc.cpg/sg2_221_cif.got.tgz:440872.got - 2010.06.27 13:26:56.
