data_PCOD8028334
_publ_section_title
;
Structure prediction by ZEFSAII (Michael W. Deem and Ramdas Pophale) SiO2 
 PCOD8028334
Probable space group: P -1
;
_chemical_formula_sum "Si O2"
_cell_formula_units_Z 16
_cell_length_a 10.175026
_cell_length_b 19.281651
_cell_length_c 5.083820
_cell_angle_alpha 102.673843
_cell_angle_beta 76.912243
_cell_angle_gamma 134.916013
_cell_volume 685.389766
_symmetry_space_group_name_H-M "P -1"
_symmetry_group_IT_number 2
_symmetry_cell_setting 'triclinic'
loop_
_space_group_symop_operation_xyz
x,y,z
-x,-y,-z
loop_
_atom_site_type_symbol
_atom_site_label
_atom_site_fract_x
_atom_site_fract_y
_atom_site_fract_z
Si Si1 0.021720 0.280204 0.470909
Si Si2 0.981021 0.575795 0.654047
Si Si3 0.644509 0.318343 0.198663
Si Si4 0.184232 0.266247 0.880662
Si Si5 0.025224 0.959382 0.205636
Si Si6 0.556953 0.888102 0.915253
Si Si7 0.393618 0.606573 0.215903
Si Si8 0.396561 0.890415 0.491369
O O1 0.817218 0.177462 0.545500
O O2 0.019543 0.365962 0.532538
O O3 0.155832 0.296431 0.643660
O O4 0.079564 0.271695 0.154868
O O5 0.779687 0.512051 0.838977
O O6 0.000000 0.500000 0.500000
O O7 0.162773 0.655959 0.819572
O O8 0.462976 0.202446 0.219879
O O9 0.612918 0.371052 0.458858
O O10 0.653089 0.346109 0.917904
O O11 0.405340 0.352037 0.909579
O O12 0.115164 0.158836 0.819031
O O13 0.236304 0.006968 0.141743
O O14 0.000000 0.000000 0.500000
O O15 0.000000 0.000000 0.000000
O O16 0.415077 0.876668 0.776504
O O17 0.495035 0.871211 0.232573
O O18 0.500000 0.000000 0.500000
#
# Coordination Sequence:
#
# PCOD8028334 Si02
#       8
#     2   2   2   2   2   2   2   2
#     4  12  26  45  69  99 143 181 226 292 340 412
#     4  10  25  45  72 101 135 177 237 292 351 397
#     4  11  22  42  68 101 132 170 230 286 345 399
#     4  12  26  45  68 100 144 182 230 272 354 414
#     4  12  24  43  68 102 139 183 231 276 333 410
#     4  12  23  39  67  94 131 173 222 275 333 394
#     4  11  24  43  68  98 134 178 223 286 340 416
#     4  12  24  42  64  96 133 176 223 267 342 403
#
# _framework density 23.344382
#
# number of rings (size 3 to 8) (size 9 to 14) (size 15 to 20)
#    0.000    0.500    1.250    7.500    1.750    3.000 
#    0.000    0.000    0.000    0.000    0.000    0.000 
#    0.000    0.000    0.000    0.000    0.000    0.000 
#
# Total GULP energy -198357.640452 kJ/mol
# GULP energy per Si atom -12397.352528 kJ/mol
# Density = 2.329125 g / cm^3
# Si number density = 23.344382 Si / 1000 Ang^3
#
#
#
# Elastic Constant Matrix: (Units=GPa)
#
#
# Indices 1 2 3 4 5 6 
#
# 1 111.7720 50.4910 28.2191 -10.7173 14.0757 4.1016
# 2 50.4910 125.6754 21.5710 -20.7809 1.7029 -0.2823
# 3 28.2191 21.5710 101.3803 -4.3277 4.9509 -6.4499
# 4 -10.7173 -20.7809 -4.3277 27.7976 -4.0286 -3.7563
# 5 14.0757 1.7029 4.9509 -4.0286 48.7946 -15.5328
# 6 4.1016 -0.2823 -6.4499 -3.7563 -15.5328 56.0961
#
#
#
# Elastic Compliance Matrix: (Units=1/GPa)
#
#
# Indices 1 2 3 4 5 6 
#
# 1 0.012102 -0.004377 -0.002386 0.000173 -0.003788 -0.002218
# 2 -0.004377 0.010966 -0.000837 0.006832 0.001934 0.001272
# 3 -0.002386 -0.000837 0.010809 0.000353 0.000118 0.001469
# 4 0.000173 0.006832 0.000353 0.042416 0.004498 0.004148
# 5 -0.003788 0.001934 0.000118 0.004498 0.024204 0.007303
# 6 -0.002218 0.001272 0.001469 0.004148 0.007303 0.020464
#
#
# Mechanical properties :
#
#
# Convention : Reuss Voigt Hill
#
# Bulk Modulus (GPa) = 53.54413 59.93221 56.73817
# Shear Modulus (GPa) = 35.11613 42.44077 38.77845
#
# Velocity S-wave (km/s) = 3.88269 4.26846 4.08014
# Velocity P-wave (km/s) = 6.56406 7.07261 6.82307
#
# Compressibility (1/GPa) = 0.01867618
#
# Stress axis : x y z
#
# Youngs Moduli (GPa) = 82.63357 91.19430 92.51761
#
# Poissons Ratio (x) = 0.39920 0.22073
# Poissons Ratio (y) = 0.36172 0.07740
# Poissons Ratio (z) = 0.19715 0.07629
#
# Static dielectric constant tensor:
#      x y z
#    x 4.532610 -0.041680 0.421590 
#    y -0.041680 5.242130 -0.434020 
#    z 0.421590 -0.434020 4.276010 
# 
# 
# High freq. dielectric constant tensor:
#      x y z
#    x 1.922320 0.010670 0.011160 
#    y 0.010670 1.942800 -0.009440 
#    z 0.011160 -0.009440 1.921320 
# 
# From -- ./inp_files/48215.got.cif
#   From: 2010.06.25/outbox.cif.g09.slc.cpg/sg2_25_cif.got.tgz:48215.got - 2010.06.27 13:26:56.
