data_PCOD8028543
_publ_section_title
;
Structure prediction by ZEFSAII (Michael W. Deem and Ramdas Pophale) SiO2 
 PCOD8028543
Probable space group: P -1
;
_chemical_formula_sum "Si O2"
_cell_formula_units_Z 16
_cell_length_a 8.398467
_cell_length_b 12.490940
_cell_length_c 15.295298
_cell_angle_alpha 27.823962
_cell_angle_beta 110.743190
_cell_angle_gamma 103.728416
_cell_volume 689.713221
_symmetry_space_group_name_H-M "P -1"
_symmetry_group_IT_number 2
_symmetry_cell_setting 'triclinic'
loop_
_space_group_symop_operation_xyz
x,y,z
-x,-y,-z
loop_
_atom_site_type_symbol
_atom_site_label
_atom_site_fract_x
_atom_site_fract_y
_atom_site_fract_z
Si Si1 0.868637 0.716641 0.639082
Si Si2 0.954933 0.737916 0.084280
Si Si3 0.070983 0.808886 0.770548
Si Si4 0.403021 0.444155 0.105904
Si Si5 0.770282 0.915459 0.758477
Si Si6 0.482534 0.314289 0.707725
Si Si7 0.510819 0.361215 0.367729
Si Si8 0.215605 0.076477 0.912143
O O1 0.665831 0.738528 0.597140
O O2 0.939413 0.520949 0.722864
O O3 0.970340 0.658724 0.792963
O O4 0.886306 0.970736 0.429967
O O5 0.882326 0.744909 0.163762
O O6 0.794150 0.790374 0.947746
O O7 0.078658 0.928853 0.952675
O O8 0.961083 0.904290 0.764664
O O9 0.244533 0.646623 0.953842
O O10 0.339923 0.202353 0.247871
O O11 0.539774 0.426086 0.225449
O O12 0.500000 0.500000 0.000000
O O13 0.673465 0.177870 0.565288
O O14 0.500000 0.500000 0.500000
O O15 0.509363 0.418021 0.732982
O O16 0.298053 0.219680 0.747557
O O17 0.634170 0.094788 0.882621
#
# Coordination Sequence:
#
# PCOD8028543 Si02
#       8
#     2   2   2   2   2   2   2   2
#     4  11  23  44  69  99 143 183 230 286 352 421
#     4  11  23  47  71 104 138 190 229 301 356 419
#     4  11  25  41  67 103 140 185 234 282 341 432
#     4  12  26  43  67 101 143 186 229 285 353 430
#     4  12  25  41  70 101 142 182 235 281 354 427
#     4  11  25  48  73 103 141 184 240 306 352 424
#     4  12  26  44  68 102 139 184 230 288 354 421
#     4  10  25  47  74 102 141 181 247 296 361 417
#
# _framework density 23.198046999999999
#
# number of rings (size 3 to 8) (size 9 to 14) (size 15 to 20)
#    0.000    0.750    3.750    3.000    7.000    1.000 
#    2.250    1.875    0.000    0.000    0.000    0.000 
#    0.000    0.000    0.000    0.000    0.000    0.000 
#
# Total GULP energy -198420.617062 kJ/mol
# GULP energy per Si atom -12401.288566 kJ/mol
# Density = 2.314525 g / cm^3
# Si number density = 23.198047 Si / 1000 Ang^3
#
#
#
# Elastic Constant Matrix: (Units=GPa)
#
#
# Indices 1 2 3 4 5 6 
#
# 1 99.9427 14.2379 29.8554 -6.4513 -3.8659 -14.5696
# 2 14.2379 90.8367 10.3779 -8.4567 -2.5151 -5.8329
# 3 29.8554 10.3779 81.2028 -3.6807 2.4646 -6.9239
# 4 -6.4513 -8.4567 -3.6807 32.3599 -5.7982 4.2044
# 5 -3.8659 -2.5151 2.4646 -5.7982 42.4006 -2.8085
# 6 -14.5696 -5.8329 -6.9239 4.2044 -2.8085 29.2623
#
#
#
# Elastic Compliance Matrix: (Units=1/GPa)
#
#
# Indices 1 2 3 4 5 6 
#
# 1 0.012196 -0.000965 -0.003932 0.001416 0.001803 0.004919
# 2 -0.000965 0.011641 -0.000928 0.002773 0.001124 0.001330
# 3 -0.003932 -0.000928 0.014012 0.000231 -0.001128 0.001031
# 4 0.001416 0.002773 0.000231 0.033153 0.004615 -0.003008
# 5 0.001803 0.001124 -0.001128 0.004615 0.024682 0.002561
# 6 0.004919 0.001330 0.001031 -0.003008 0.002561 0.037810
#
#
# Mechanical properties :
#
#
# Convention : Reuss Voigt Hill
#
# Bulk Modulus (GPa) = 38.16929 42.32497 40.24713
# Shear Modulus (GPa) = 32.49375 35.30530 33.89952
#
# Velocity S-wave (km/s) = 3.74667 3.90540 3.82685
# Velocity P-wave (km/s) = 5.93347 6.21457 6.07564
#
# Compressibility (1/GPa) = 0.02619907
#
# Stress axis : x y z
#
# Youngs Moduli (GPa) = 81.99429 85.90583 71.36898
#
# Poissons Ratio (x) = 0.08288 0.28061
# Poissons Ratio (y) = 0.07911 0.06623
# Poissons Ratio (z) = 0.32239 0.07972
#
# Static dielectric constant tensor:
#      x y z
#    x 4.251850 0.140970 0.099600 
#    y 0.140970 4.235000 -0.046470 
#    z 0.099600 -0.046470 3.986640 
# 
# 
# High freq. dielectric constant tensor:
#      x y z
#    x 1.928170 -0.008410 0.000280 
#    y -0.008410 1.918110 -0.010520 
#    z 0.000280 -0.010520 1.910120 
# 
# From -- ./inp_files/352368.got.cif
#   From: 2010.06.25/outbox.cif.g09.slc.cpg/sg2_177_cif.got.tgz:352368.got - 2010.06.27 13:26:56.
