data_PCOD8028996
_publ_section_title
;
Structure prediction by ZEFSAII (Michael W. Deem and Ramdas Pophale) SiO2 
 PCOD8028996
Probable space group: P -1
;
_chemical_formula_sum "Si O2"
_cell_formula_units_Z 16
_cell_length_a 11.977911
_cell_length_b 14.397814
_cell_length_c 14.361191
_cell_angle_alpha 30.148876
_cell_angle_beta 113.136849
_cell_angle_gamma 134.515324
_cell_volume 712.452075
_symmetry_space_group_name_H-M "P -1"
_symmetry_group_IT_number 2
_symmetry_cell_setting 'triclinic'
loop_
_space_group_symop_operation_xyz
x,y,z
-x,-y,-z
loop_
_atom_site_type_symbol
_atom_site_label
_atom_site_fract_x
_atom_site_fract_y
_atom_site_fract_z
Si Si1 0.184515 0.717373 0.934919
Si Si2 0.734037 0.461063 0.743267
Si Si3 0.679326 0.059298 0.941653
Si Si4 0.146125 0.507391 0.527767
Si Si5 0.942131 0.025790 0.728055
Si Si6 0.001545 0.314403 0.934447
Si Si7 0.337933 0.010600 0.407433
Si Si8 0.474073 0.860264 0.462471
O O1 0.146003 0.829926 0.902324
O O2 0.375044 0.991263 0.699695
O O3 0.195538 0.518090 0.149578
O O4 0.000000 0.500000 0.000000
O O5 0.693491 0.212075 0.901554
O O6 0.892858 0.771915 0.473382
O O7 0.519182 0.301059 0.813347
O O8 0.681832 0.193552 0.735590
O O9 0.869250 0.153128 0.935539
O O10 0.032037 0.211430 0.692190
O O11 0.254042 0.557680 0.612787
O O12 0.000000 0.500000 0.500000
O O13 0.747820 0.902051 0.738948
O O14 0.885621 0.745470 0.967556
O O15 0.156778 0.664638 0.677330
O O16 0.469916 0.065182 0.325315
O O17 0.467782 0.203964 0.375389
#
# Coordination Sequence:
#
# PCOD8028996 Si02
#       8
#     2   2   2   2   2   2   2   2
#     4  11  19  37  66  91 120 167 211 251 310 371
#     4   9  17  32  55  85 120 157 200 254 304 360
#     4   9  17  32  55  85 120 157 200 254 304 360
#     4  11  19  37  66  91 120 167 211 251 310 371
#     4  11  22  39  66  92 126 168 208 255 318 375
#     4  11  22  39  66  92 126 168 208 255 318 375
#     4  11  22  44  65  88 128 167 206 256 324 371
#     4  11  22  38  70  92 121 173 208 257 317 373
#
# _framework density 22.457650999999998
#
# number of rings (size 3 to 8) (size 9 to 14) (size 15 to 20)
#    0.000    1.500    7.500    0.000    1.750    0.500 
#    0.000    7.500    5.500    0.000    0.000    0.000 
#    0.000    0.000    0.000    0.000    0.000    0.000 
#
# Total GULP energy -198217.395528 kJ/mol
# GULP energy per Si atom -12388.587220 kJ/mol
# Density = 2.240654 g / cm^3
# Si number density = 22.457651 Si / 1000 Ang^3
#
#
#
# Elastic Constant Matrix: (Units=GPa)
#
#
# Indices 1 2 3 4 5 6 
#
# 1 87.6275 25.9149 16.6540 5.0905 5.4839 15.8984
# 2 25.9149 158.8426 7.1628 14.6802 12.1286 34.8327
# 3 16.6540 7.1628 17.8230 5.4111 9.5631 3.0392
# 4 5.0905 14.6802 5.4111 18.3202 11.8028 -3.7991
# 5 5.4839 12.1286 9.5631 11.8028 31.7649 7.8159
# 6 15.8984 34.8327 3.0392 -3.7991 7.8159 43.4906
#
#
#
# Elastic Compliance Matrix: (Units=1/GPa)
#
#
# Indices 1 2 3 4 5 6 
#
# 1 0.015206 -0.000768 -0.014450 -0.003260 0.004465 -0.005021
# 2 -0.000768 0.009004 0.000337 -0.010453 0.002525 -0.008321
# 3 -0.014450 0.000337 0.082096 -0.006904 -0.020358 0.002331
# 4 -0.003260 -0.010453 -0.006904 0.092675 -0.033760 0.024209
# 5 0.004465 0.002525 -0.020358 -0.033760 0.051993 -0.014525
# 6 -0.005021 -0.008321 0.002331 0.024209 -0.014525 0.036056
#
#
# Mechanical properties :
#
#
# Convention : Reuss Voigt Hill
#
# Bulk Modulus (GPa) = 13.06444 40.41740 26.74092
# Shear Modulus (GPa) = 14.60672 33.01922 23.81297
#
# Velocity S-wave (km/s) = 2.55308 3.83859 3.25983
# Velocity P-wave (km/s) = 3.81064 6.13862 5.10899
#
# Compressibility (1/GPa) = 0.07654364
#
# Stress axis : x y z
#
# Youngs Moduli (GPa) = 65.76210 111.06671 12.18079
#
# Poissons Ratio (x) = 0.08528 0.17602
# Poissons Ratio (y) = 0.05049 -0.00410
# Poissons Ratio (z) = 0.95028 -0.03740
#
# Static dielectric constant tensor:
#      x y z
#    x 4.187460 0.592140 -0.114710 
#    y 0.592140 4.846540 0.342910 
#    z -0.114710 0.342910 3.358720 
# 
# 
# High freq. dielectric constant tensor:
#      x y z
#    x 1.876170 0.029200 -0.035890 
#    y 0.029200 1.902600 0.021410 
#    z -0.035890 0.021410 1.841880 
# 
# From -- ./inp_files/522162.got.cif
#   From: 2010.06.25/outbox.cif.g09.slc.cpg/sg2_262_cif.got.tgz:522162.got - 2010.06.27 13:26:56.
