data_PCOD8028949
_publ_section_title
;
Structure prediction by ZEFSAII (Michael W. Deem and Ramdas Pophale) SiO2 
 PCOD8028949
Probable space group: P -1
;
_chemical_formula_sum "Si O2"
_cell_formula_units_Z 16
_cell_length_a 22.971065
_cell_length_b 7.966535
_cell_length_c 13.048381
_cell_angle_alpha 125.411162
_cell_angle_beta 158.045260
_cell_angle_gamma 54.043652
_cell_volume 717.845804
_symmetry_space_group_name_H-M "P -1"
_symmetry_group_IT_number 2
_symmetry_cell_setting 'triclinic'
loop_
_space_group_symop_operation_xyz
x,y,z
-x,-y,-z
loop_
_atom_site_type_symbol
_atom_site_label
_atom_site_fract_x
_atom_site_fract_y
_atom_site_fract_z
Si Si1 0.535603 0.510377 0.726623
Si Si2 0.573725 0.810963 0.716249
Si Si3 0.861791 0.937683 0.161027
Si Si4 0.875115 0.447042 0.574308
Si Si5 0.287343 0.585848 0.507268
Si Si6 0.873444 0.401653 0.327122
Si Si7 0.006137 0.172840 0.989900
Si Si8 0.288895 0.121736 0.302730
O O1 0.522668 0.700722 0.694756
O O2 0.446879 0.331554 0.468697
O O3 0.456727 0.602208 0.738254
O O4 0.717196 0.416792 0.010168
O O5 0.456772 0.031769 0.595574
O O6 0.754378 0.854709 0.045903
O O7 0.006645 0.769686 0.302886
O O8 0.928211 0.156050 0.364338
O O9 0.721158 0.974317 0.860168
O O10 0.720570 0.417642 0.381161
O O11 0.837467 0.516250 0.419032
O O12 0.958347 0.619037 0.824763
O O13 0.156173 0.773391 0.319121
O O14 0.249591 0.369898 0.325947
O O15 0.000000 0.500000 0.500000
O O16 0.143840 0.052335 0.101549
O O17 0.000000 0.000000 0.000000
#
# Coordination Sequence:
#
# PCOD8028949 Si02
#       8
#     2   2   2   2   2   2   2   2
#     4  11  23  40  63  96 132 164 217 272 324 376
#     4  11  22  38  67 100 127 162 213 285 326 363
#     4  12  21  42  68  94 129 168 217 266 324 381
#     4  11  24  42  63  93 134 176 213 257 322 397
#     4  11  21  41  65  94 128 163 217 270 319 376
#     4  12  28  43  64  94 132 179 216 262 321 396
#     4  11  22  37  65  98 129 165 215 273 322 375
#     4  11  19  35  63  98 123 160 208 268 329 366
#
# _framework density 22.288910000000001
#
# number of rings (size 3 to 8) (size 9 to 14) (size 15 to 20)
#    0.000    0.750    5.000    3.750    1.750    2.500 
#    0.000    0.000    0.000    6.750    0.000    0.000 
#    0.000    0.000    0.000    0.000    0.000    0.000 
#
# Total GULP energy -198254.997985 kJ/mol
# GULP energy per Si atom -12390.937374 kJ/mol
# Density = 2.223818 g / cm^3
# Si number density = 22.288910 Si / 1000 Ang^3
#
#
#
# Elastic Constant Matrix: (Units=GPa)
#
#
# Indices 1 2 3 4 5 6 
#
# 1 137.1311 22.6856 34.5300 -0.0012 23.0214 -0.6561
# 2 22.6856 80.5526 19.5390 -2.7371 15.9783 4.2374
# 3 34.5300 19.5390 75.7257 7.6479 26.5531 -5.9652
# 4 -0.0012 -2.7371 7.6479 27.7074 -3.9013 5.2462
# 5 23.0214 15.9783 26.5531 -3.9013 41.2096 -1.6809
# 6 -0.6561 4.2374 -5.9652 5.2462 -1.6809 26.4762
#
#
#
# Elastic Compliance Matrix: (Units=1/GPa)
#
#
# Indices 1 2 3 4 5 6 
#
# 1 0.008621 -0.001209 -0.002813 0.000391 -0.002517 -0.000464
# 2 -0.001209 0.014260 -0.002544 0.002341 -0.003138 -0.003548
# 3 -0.002813 -0.002544 0.020385 -0.008569 -0.011147 0.005920
# 4 0.000391 0.002341 -0.008569 0.041709 0.007934 -0.010056
# 5 -0.002517 -0.003138 -0.011147 0.007934 0.034764 -0.001437
# 6 -0.000464 -0.003548 0.005920 -0.010056 -0.001437 0.041561
#
#
# Mechanical properties :
#
#
# Convention : Reuss Voigt Hill
#
# Bulk Modulus (GPa) = 33.18335 49.65761 41.42048
# Shear Modulus (GPa) = 27.10379 33.52230 30.31304
#
# Velocity S-wave (km/s) = 3.49093 3.88234 3.69183
# Velocity P-wave (km/s) = 5.58292 6.51338 6.06602
#
# Compressibility (1/GPa) = 0.03013559
#
# Stress axis : x y z
#
# Youngs Moduli (GPa) = 115.99880 70.12451 49.05597
#
# Poissons Ratio (x) = 0.08476 0.13797
# Poissons Ratio (y) = 0.14020 0.12480
# Poissons Ratio (z) = 0.32625 0.17840
#
# Static dielectric constant tensor:
#      x y z
#    x 3.208210 -0.191030 -1.332310 
#    y -0.191030 3.371170 -0.479020 
#    z -1.332310 -0.479020 2.012630 
# 
# 
# High freq. dielectric constant tensor:
#      x y z
#    x 1.897200 0.010500 0.018700 
#    y 0.010500 1.871280 -0.012850 
#    z 0.018700 -0.012850 1.859550 
# 
# From -- ./inp_files/451706.got.cif
#   From: 2010.06.25/outbox.cif.g09.slc.cpg/sg2_226_cif.got.tgz:451706.got - 2010.06.27 13:26:56.
