data_PCOD8028556
_publ_section_title
;
Structure prediction by ZEFSAII (Michael W. Deem and Ramdas Pophale) SiO2 
 PCOD8028556
Probable space group: P -1
;
_chemical_formula_sum "Si O2"
_cell_formula_units_Z 16
_cell_length_a 14.587508
_cell_length_b 8.896988
_cell_length_c 9.977266
_cell_angle_alpha 31.338933
_cell_angle_beta 92.542852
_cell_angle_gamma 95.419118
_cell_volume 668.816674
_symmetry_space_group_name_H-M "P -1"
_symmetry_group_IT_number 2
_symmetry_cell_setting 'triclinic'
loop_
_space_group_symop_operation_xyz
x,y,z
-x,-y,-z
loop_
_atom_site_type_symbol
_atom_site_label
_atom_site_fract_x
_atom_site_fract_y
_atom_site_fract_z
Si Si1 0.318713 0.683581 0.166442
Si Si2 0.679241 0.394496 0.263203
Si Si3 0.029861 0.928941 0.701115
Si Si4 0.801265 0.827975 0.309438
Si Si5 0.386439 0.978580 0.213726
Si Si6 0.947657 0.677080 0.259432
Si Si7 0.440755 0.731754 0.885567
Si Si8 0.887614 0.524012 0.103539
O O1 0.271614 0.382143 0.452240
O O2 0.379461 0.838505 0.172747
O O3 0.383670 0.604882 0.108600
O O4 0.242962 0.880607 0.954074
O O5 0.679961 0.208221 0.542197
O O6 0.627467 0.191328 0.297485
O O7 0.779574 0.492923 0.138206
O O8 0.634157 0.690588 0.058405
O O9 0.087553 0.651410 0.892175
O O10 0.103149 0.144939 0.620567
O O11 0.000000 0.000000 0.500000
O O12 0.933101 0.857737 0.828495
O O13 0.838861 0.695872 0.275538
O O14 0.491047 0.987731 0.273070
O O15 0.941519 0.464033 0.291054
O O16 0.000000 0.500000 0.500000
O O17 0.000000 0.000000 0.000000
O O18 0.500000 0.500000 0.000000
#
# Coordination Sequence:
#
# PCOD8028556 Si02
#       8
#     2   2   2   2   2   2   2   2
#     4  12  26  46  73 105 141 183 230 293 341 423
#     4  11  25  44  71 102 138 179 230 288 341 413
#     4  11  26  42  65  94 139 184 230 283 334 410
#     4  12  27  46  70 104 141 182 236 283 348 400
#     4  11  24  47  72 103 138 176 229 283 353 418
#     4  12  24  43  67  96 134 185 231 282 335 395
#     4  10  25  47  75 105 141 181 228 286 358 422
#     4  11  25  42  65  98 132 183 230 279 342 399
#
# _framework density 23.922847000000001
#
# number of rings (size 3 to 8) (size 9 to 14) (size 15 to 20)
#    0.000    0.750    1.250    5.250    7.000    5.000 
#    0.000    4.375    0.000    0.000    0.000    0.000 
#    0.000    0.000    0.000    0.000    0.000    0.000 
#
# Total GULP energy -198227.628684 kJ/mol
# GULP energy per Si atom -12389.226793 kJ/mol
# Density = 2.386840 g / cm^3
# Si number density = 23.922847 Si / 1000 Ang^3
#
#
#
# Elastic Constant Matrix: (Units=GPa)
#
#
# Indices 1 2 3 4 5 6 
#
# 1 101.5137 27.8795 23.3246 10.1989 -22.1512 9.1943
# 2 27.8795 81.3731 16.5043 16.5172 -2.6917 11.1396
# 3 23.3246 16.5043 110.6381 9.3986 -8.6138 -0.0281
# 4 10.1989 16.5172 9.3986 39.8432 0.0272 -3.5829
# 5 -22.1512 -2.6917 -8.6138 0.0272 43.5652 11.9047
# 6 9.1943 11.1396 -0.0281 -3.5829 11.9047 45.1885
#
#
#
# Elastic Compliance Matrix: (Units=1/GPa)
#
#
# Indices 1 2 3 4 5 6 
#
# 1 0.013216 -0.002971 -0.001591 -0.002146 0.007332 -0.004059
# 2 -0.002971 0.015178 -0.001149 -0.005587 0.000196 -0.003632
# 3 -0.001591 -0.001149 0.009740 -0.001393 0.000980 0.000244
# 4 -0.002146 -0.005587 -0.001393 0.028735 -0.003069 0.004900
# 5 0.007332 0.000196 0.000980 -0.003069 0.029501 -0.009555
# 6 -0.004059 -0.003632 0.000244 0.004900 -0.009555 0.026757
#
#
# Mechanical properties :
#
#
# Convention : Reuss Voigt Hill
#
# Bulk Modulus (GPa) = 37.43694 47.66019 42.54856
# Shear Modulus (GPa) = 34.85490 40.77381 37.81436
#
# Velocity S-wave (km/s) = 3.82117 4.13290 3.98009
# Velocity P-wave (km/s) = 5.92887 6.53760 6.24066
#
# Compressibility (1/GPa) = 0.02671159
#
# Stress axis : x y z
#
# Youngs Moduli (GPa) = 75.66803 65.88500 102.67062
#
# Poissons Ratio (x) = 0.19577 0.16332
# Poissons Ratio (y) = 0.22484 0.11794
# Poissons Ratio (z) = 0.12037 0.07569
#
# Static dielectric constant tensor:
#      x y z
#    x 5.459440 -0.623820 -0.429960 
#    y -0.623820 4.688330 0.632810 
#    z -0.429960 0.632810 4.142510 
# 
# 
# High freq. dielectric constant tensor:
#      x y z
#    x 1.950660 0.010200 -0.012870 
#    y 0.010200 1.970750 0.017090 
#    z -0.012870 0.017090 1.947900 
# 
# From -- ./inp_files/297289.got.cif
#   From: 2010.06.25/outbox.cif.g09.slc.cpg/sg2_149_cif.got.tgz:297289.got - 2010.06.27 13:26:56.
