data_PCOD8028404
_publ_section_title
;
Structure prediction by ZEFSAII (Michael W. Deem and Ramdas Pophale) SiO2 
 PCOD8028404
Probable space group: P -1
;
_chemical_formula_sum "Si O2"
_cell_formula_units_Z 16
_cell_length_a 12.302439
_cell_length_b 14.648538
_cell_length_c 16.229367
_cell_angle_alpha 151.483386
_cell_angle_beta 145.894888
_cell_angle_gamma 52.771896
_cell_volume 696.043107
_symmetry_space_group_name_H-M "P -1"
_symmetry_group_IT_number 2
_symmetry_cell_setting 'triclinic'
loop_
_space_group_symop_operation_xyz
x,y,z
-x,-y,-z
loop_
_atom_site_type_symbol
_atom_site_label
_atom_site_fract_x
_atom_site_fract_y
_atom_site_fract_z
Si Si1 0.011995 0.021419 0.771358
Si Si2 0.028115 0.376799 0.665705
Si Si3 0.682060 0.204724 0.734262
Si Si4 0.093829 0.839694 0.839650
Si Si5 0.772137 0.444914 0.413994
Si Si6 0.534893 0.178723 0.446074
Si Si7 0.323270 0.366990 0.128813
Si Si8 0.069651 0.819462 0.380590
O O1 0.870470 0.147541 0.776668
O O2 0.031975 0.973520 0.841065
O O3 0.245445 0.187738 0.010202
O O4 0.910517 0.797059 0.477837
O O5 0.908225 0.289585 0.607945
O O6 0.868923 0.429456 0.550773
O O7 0.242857 0.598762 0.997515
O O8 0.582637 0.259212 0.634261
O O9 0.500000 0.000000 0.500000
O O10 0.184191 0.695014 0.736629
O O11 0.886943 0.693186 0.651299
O O12 0.285305 0.001823 0.146425
O O13 0.512045 0.346110 0.179012
O O14 0.574392 0.386413 0.579176
O O15 0.696172 0.083855 0.440548
O O16 0.119961 0.344651 0.927577
O O17 0.000000 0.000000 0.500000
#
# Coordination Sequence:
#
# PCOD8028404 Si02
#       8
#     2   2   2   2   2   2   2   2
#     4  11  26  45  69 105 138 177 239 280 344 414
#     4  11  24  44  72  99 138 183 227 289 340 411
#     4  12  26  45  69 101 140 185 233 285 342 413
#     4  10  25  46  68  96 138 184 227 288 334 416
#     4  10  25  46  68  99 135 181 237 274 348 410
#     4  12  25  42  66 102 141 176 228 288 343 412
#     4  12  24  41  67 102 137 174 224 285 340 409
#     4  12  22  42  69  99 137 179 224 283 347 407
#
# _framework density 22.987085
#
# number of rings (size 3 to 8) (size 9 to 14) (size 15 to 20)
#    0.000    0.750    3.750    2.625    5.250    2.500 
#    0.000    0.000    0.000    0.000    0.000    0.000 
#    0.000    0.000    0.000    0.000    0.000    0.000 
#
# Total GULP energy -198387.291824 kJ/mol
# GULP energy per Si atom -12399.205739 kJ/mol
# Density = 2.293476 g / cm^3
# Si number density = 22.987085 Si / 1000 Ang^3
#
#
#
# Elastic Constant Matrix: (Units=GPa)
#
#
# Indices 1 2 3 4 5 6 
#
# 1 74.7480 27.3021 22.2945 5.9500 18.3027 14.1766
# 2 27.3021 101.2226 35.8572 6.6419 0.0111 29.3041
# 3 22.2945 35.8572 121.6416 10.2163 6.2316 7.5858
# 4 5.9500 6.6419 10.2163 40.1309 8.3299 -1.8527
# 5 18.3027 0.0111 6.2316 8.3299 35.1721 7.6416
# 6 14.1766 29.3041 7.5858 -1.8527 7.6416 37.1762
#
#
#
# Elastic Compliance Matrix: (Units=1/GPa)
#
#
# Indices 1 2 3 4 5 6 
#
# 1 0.017611 -0.003688 -0.001604 0.000098 -0.008528 -0.001723
# 2 -0.003688 0.015537 -0.003233 -0.002909 0.005673 -0.011491
# 3 -0.001604 -0.003233 0.009548 -0.001431 -0.000800 0.001306
# 4 0.000098 -0.002909 -0.001431 0.027561 -0.007512 0.005465
# 5 -0.008528 0.005673 -0.000800 -0.007512 0.036740 -0.008983
# 6 -0.001723 -0.011491 0.001306 0.005465 -0.008983 0.038467
#
#
# Mechanical properties :
#
#
# Convention : Reuss Voigt Hill
#
# Bulk Modulus (GPa) = 38.99706 52.05774 45.52740
# Shear Modulus (GPa) = 29.22889 36.63973 32.93431
#
# Velocity S-wave (km/s) = 3.56973 3.99673 3.78925
# Velocity P-wave (km/s) = 5.83028 6.63281 6.24445
#
# Compressibility (1/GPa) = 0.02564296
#
# Stress axis : x y z
#
# Youngs Moduli (GPa) = 56.78214 64.36416 104.73538
#
# Poissons Ratio (x) = 0.23740 0.16804
# Poissons Ratio (y) = 0.20944 0.33866
# Poissons Ratio (z) = 0.09110 0.20812
#
# Static dielectric constant tensor:
#      x y z
#    x 4.321910 -0.172970 0.110160 
#    y -0.172970 4.329240 0.211750 
#    z 0.110160 0.211750 4.329240 
# 
# 
# High freq. dielectric constant tensor:
#      x y z
#    x 1.906680 0.008770 -0.000230 
#    y 0.008770 1.915290 0.012140 
#    z -0.000230 0.012140 1.910670 
# 
# From -- ./inp_files/522701.got.cif
#   From: 2010.06.25/outbox.cif.g09.slc.cpg/sg2_262_cif.got.tgz:522701.got - 2010.06.27 13:26:56.
