data_PCOD8028743
_publ_section_title
;
Structure prediction by ZEFSAII (Michael W. Deem and Ramdas Pophale) SiO2 
 PCOD8028743
Probable space group: P -1
;
_chemical_formula_sum "Si O2"
_cell_formula_units_Z 16
_cell_length_a 16.835034
_cell_length_b 6.203661
_cell_length_c 11.074084
_cell_angle_alpha 104.262770
_cell_angle_beta 37.879127
_cell_angle_gamma 106.183388
_cell_volume 681.306034
_symmetry_space_group_name_H-M "P -1"
_symmetry_group_IT_number 2
_symmetry_cell_setting 'triclinic'
loop_
_space_group_symop_operation_xyz
x,y,z
-x,-y,-z
loop_
_atom_site_type_symbol
_atom_site_label
_atom_site_fract_x
_atom_site_fract_y
_atom_site_fract_z
Si Si1 0.112480 0.647093 0.120909
Si Si2 0.299535 0.000932 0.814489
Si Si3 0.038557 0.168887 0.086517
Si Si4 0.495752 0.812065 0.880210
Si Si5 0.212929 0.682254 0.249542
Si Si6 0.891152 0.938763 0.432683
Si Si7 0.305068 0.477898 0.350863
Si Si8 0.573751 0.091134 0.601709
O O1 0.044961 0.437148 0.090953
O O2 0.126045 0.551533 0.229013
O O3 0.027291 0.845762 0.274069
O O4 0.243863 0.760634 0.909577
O O5 0.422466 0.126521 0.761848
O O6 0.354684 0.975490 0.611683
O O7 0.181702 0.147972 0.966019
O O8 0.915511 0.108481 0.314672
O O9 0.000000 0.000000 0.000000
O O10 0.556276 0.610357 0.844966
O O11 0.572453 0.898215 0.678268
O O12 0.345340 0.738535 0.022472
O O13 0.500000 0.000000 0.000000
O O14 0.233947 0.528930 0.318281
O O15 0.156505 0.913577 0.381267
O O16 0.785223 0.723804 0.501146
O O17 0.334215 0.691620 0.430429
#
# Coordination Sequence:
#
# PCOD8028743 Si02
#       8
#     2   2   2   2   2   2   2   2
#     4  11  26  47  74 103 141 190 232 294 356 409
#     4  10  26  46  71 103 139 183 238 291 347 417
#     4  11  28  46  73 101 141 186 241 290 346 421
#     4  12  24  42  66 105 144 183 230 286 344 424
#     4  12  25  45  71 106 146 182 239 286 354 421
#     4  11  26  46  69 107 141 188 234 293 342 428
#     4  12  26  40  75 102 145 188 227 286 361 412
#     4  11  25  45  70 103 142 184 235 289 348 421
#
# _framework density 23.484309
#
# number of rings (size 3 to 8) (size 9 to 14) (size 15 to 20)
#    0.000    0.750    3.750    1.500    8.750    5.000 
#    0.000    2.500    0.000    0.000    0.000    0.000 
#    0.000    0.000    0.000    0.000    0.000    0.000 
#
# Total GULP energy -198222.786755 kJ/mol
# GULP energy per Si atom -12388.924172 kJ/mol
# Density = 2.343086 g / cm^3
# Si number density = 23.484309 Si / 1000 Ang^3
#
#
#
# Elastic Constant Matrix: (Units=GPa)
#
#
# Indices 1 2 3 4 5 6 
#
# 1 89.5729 26.3084 31.5299 -0.8368 12.6948 -0.3274
# 2 26.3084 95.5255 45.6955 -7.3624 1.5530 1.9766
# 3 31.5299 45.6955 118.4913 -14.3293 0.3201 -3.9945
# 4 -0.8368 -7.3624 -14.3293 39.4069 -3.2905 -7.1218
# 5 12.6948 1.5530 0.3201 -3.2905 25.9011 -3.2936
# 6 -0.3274 1.9766 -3.9945 -7.1218 -3.2936 32.8700
#
#
#
# Elastic Compliance Matrix: (Units=1/GPa)
#
#
# Indices 1 2 3 4 5 6 
#
# 1 0.013919 -0.002391 -0.003056 -0.002077 -0.007063 -0.001247
# 2 -0.002391 0.013333 -0.004471 0.000628 0.000355 -0.001197
# 3 -0.003056 -0.004471 0.011547 0.004004 0.002483 0.002758
# 4 -0.002077 0.000628 0.004004 0.028663 0.005486 0.007188
# 5 -0.007063 0.000355 0.002483 0.005486 0.043447 0.005752
# 6 -0.001247 -0.001197 0.002758 0.007188 0.005752 0.032951
#
#
# Mechanical properties :
#
#
# Convention : Reuss Voigt Hill
#
# Bulk Modulus (GPa) = 52.73251 56.73971 54.73611
# Shear Modulus (GPa) = 29.40868 32.97264 31.19066
#
# Velocity S-wave (km/s) = 3.54258 3.75110 3.64833
# Velocity P-wave (km/s) = 6.26389 6.55547 6.41134
#
# Compressibility (1/GPa) = 0.01896363
#
# Stress axis : x y z
#
# Youngs Moduli (GPa) = 71.84333 75.00164 86.60016
#
# Poissons Ratio (x) = 0.17934 0.26464
# Poissons Ratio (y) = 0.17179 0.38719
# Poissons Ratio (z) = 0.21954 0.33533
#
# Static dielectric constant tensor:
#      x y z
#    x 4.430660 -0.435910 -0.134900 
#    y -0.435910 5.332290 -0.425180 
#    z -0.134900 -0.425180 4.483600 
# 
# 
# High freq. dielectric constant tensor:
#      x y z
#    x 1.932610 -0.001360 -0.012620 
#    y -0.001360 1.923440 -0.007620 
#    z -0.012620 -0.007620 1.943790 
# 
# From -- ./inp_files/459211.got.cif
#   From: 2010.06.25/outbox.cif.g09.slc.cpg/sg2_230_cif.got.tgz:459211.got - 2010.06.27 13:26:56.
