data_PCOD8028655
_publ_section_title
;
Structure prediction by ZEFSAII (Michael W. Deem and Ramdas Pophale) SiO2 
 PCOD8028655
Probable space group: P -1
;
_chemical_formula_sum "Si O2"
_cell_formula_units_Z 16
_cell_length_a 13.681447
_cell_length_b 9.164773
_cell_length_c 8.543838
_cell_angle_alpha 48.819766
_cell_angle_beta 105.464415
_cell_angle_gamma 78.491645
_cell_volume 665.161997
_symmetry_space_group_name_H-M "P -1"
_symmetry_group_IT_number 2
_symmetry_cell_setting 'triclinic'
loop_
_space_group_symop_operation_xyz
x,y,z
-x,-y,-z
loop_
_atom_site_type_symbol
_atom_site_label
_atom_site_fract_x
_atom_site_fract_y
_atom_site_fract_z
Si Si1 0.072479 0.188056 0.491500
Si Si2 0.343805 0.189627 0.098705
Si Si3 0.465562 0.384818 0.196989
Si Si4 0.238621 0.722925 0.064751
Si Si5 0.074526 0.613144 0.245687
Si Si6 0.403086 0.740550 0.356215
Si Si7 0.161421 0.672009 0.560579
Si Si8 0.156852 0.108457 0.239672
O O1 0.092550 0.369062 0.463569
O O2 0.100337 0.214969 0.306365
O O3 0.935171 0.253626 0.393210
O O4 0.156470 0.945503 0.773530
O O5 0.444187 0.197662 0.238469
O O6 0.257111 0.162243 0.199117
O O7 0.405763 0.972088 0.158088
O O8 0.272215 0.418764 0.805246
O O9 0.348111 0.562971 0.114080
O O10 0.578975 0.271062 0.440409
O O11 0.500000 0.500000 0.000000
O O12 0.169351 0.596981 0.170388
O O13 0.279199 0.784130 0.203483
O O14 0.087806 0.709863 0.345654
O O15 0.942885 0.785115 0.010404
O O16 0.500000 0.500000 0.500000
O O17 0.213174 0.837657 0.463391
#
# Coordination Sequence:
#
# PCOD8028655 Si02
#       8
#     2   2   2   2   2   2   2   2
#     4  12  25  42  68 110 150 192 236 279 349 443
#     4  12  26  46  79 104 143 193 235 301 371 418
#     4  11  27  50  75 104 135 186 256 311 354 415
#     4  11  25  47  72 101 150 190 231 300 364 414
#     4  12  25  42  69 106 151 195 229 282 355 437
#     4  10  25  51  72  98 138 184 246 308 353 414
#     4  12  26  42  71 109 152 190 238 278 353 447
#     4  12  26  42  71 105 155 192 230 286 357 436
#
# _framework density 24.054292
#
# number of rings (size 3 to 8) (size 9 to 14) (size 15 to 20)
#    0.000    0.500    2.500    4.875    8.750    0.000 
#    4.500    1.250    0.000    0.000    0.000    0.000 
#    0.000    0.000    0.000    0.000    0.000    0.000 
#
# Total GULP energy -198336.341507 kJ/mol
# GULP energy per Si atom -12396.021344 kJ/mol
# Density = 2.399954 g / cm^3
# Si number density = 24.054292 Si / 1000 Ang^3
#
#
#
# Elastic Constant Matrix: (Units=GPa)
#
#
# Indices 1 2 3 4 5 6 
#
# 1 105.3601 22.9076 21.5719 2.1992 -14.1566 11.5382
# 2 22.9076 94.0941 21.9528 -6.7046 9.7461 15.3734
# 3 21.5719 21.9528 110.9006 -7.2221 3.5063 5.1467
# 4 2.1992 -6.7046 -7.2221 46.6198 2.8387 0.4885
# 5 -14.1566 9.7461 3.5063 2.8387 33.2233 -5.4978
# 6 11.5382 15.3734 5.1467 0.4885 -5.4978 42.0137
#
#
#
# Elastic Compliance Matrix: (Units=1/GPa)
#
#
# Indices 1 2 3 4 5 6 
#
# 1 0.011450 -0.002895 -0.001895 -0.001597 0.005889 -0.001064
# 2 -0.002895 0.013214 -0.001506 0.002212 -0.005911 -0.004655
# 3 -0.001895 -0.001506 0.009848 0.001499 -0.001593 -0.000361
# 4 -0.001597 0.002212 0.001499 0.022309 -0.003607 -0.001286
# 5 0.005889 -0.005911 -0.001593 -0.003607 0.035722 0.005457
# 6 -0.001064 -0.004655 -0.000361 -0.001286 0.005457 0.026570
#
#
# Mechanical properties :
#
#
# Convention : Reuss Voigt Hill
#
# Bulk Modulus (GPa) = 45.61884 49.24660 47.43272
# Shear Modulus (GPa) = 35.96807 40.63285 38.30046
#
# Velocity S-wave (km/s) = 3.87109 4.11446 3.99463
# Velocity P-wave (km/s) = 6.24392 6.56424 6.40609
#
# Compressibility (1/GPa) = 0.02192077
#
# Stress axis : x y z
#
# Youngs Moduli (GPa) = 87.33778 75.67630 101.53879
#
# Poissons Ratio (x) = 0.21911 0.19240
# Poissons Ratio (y) = 0.25288 0.15288
# Poissons Ratio (z) = 0.16549 0.11394
#
# Static dielectric constant tensor:
#      x y z
#    x 4.452810 0.228450 0.101290 
#    y 0.228450 4.803050 -0.043770 
#    z 0.101290 -0.043770 4.634940 
# 
# 
# High freq. dielectric constant tensor:
#      x y z
#    x 1.952910 0.014060 0.002360 
#    y 0.014060 1.967080 -0.003890 
#    z 0.002360 -0.003890 1.971360 
# 
# From -- ./inp_files/297533.got.cif
#   From: 2010.06.25/outbox.cif.g09.slc.cpg/sg2_149_cif.got.tgz:297533.got - 2010.06.27 13:26:56.
