data_PCOD8028730
_publ_section_title
;
Structure prediction by ZEFSAII (Michael W. Deem and Ramdas Pophale) SiO2 
 PCOD8028730
Probable space group: P -1
;
_chemical_formula_sum "Si O2"
_cell_formula_units_Z 14
_cell_length_a 8.398680
_cell_length_b 11.184277
_cell_length_c 22.754528
_cell_angle_alpha 151.437518
_cell_angle_beta 143.585204
_cell_angle_gamma 38.479332
_cell_volume 584.472081
_symmetry_space_group_name_H-M "P -1"
_symmetry_group_IT_number 2
_symmetry_cell_setting 'triclinic'
loop_
_space_group_symop_operation_xyz
x,y,z
-x,-y,-z
loop_
_atom_site_type_symbol
_atom_site_label
_atom_site_fract_x
_atom_site_fract_y
_atom_site_fract_z
Si Si1 0.290928 0.678243 0.470099
Si Si2 0.193140 0.149757 0.722454
Si Si3 0.558301 0.936762 0.561070
Si Si4 0.814051 0.047790 0.240019
Si Si5 0.724860 0.591919 0.244909
Si Si6 0.636322 0.457121 0.730612
Si Si7 0.614352 0.744106 0.959749
O O1 0.500000 0.500000 0.500000
O O2 0.477520 0.734965 0.496090
O O3 0.060322 0.532949 0.319198
O O4 0.119649 0.938699 0.565701
O O5 0.399064 0.270724 0.795523
O O6 0.921167 0.390781 0.750904
O O7 0.304518 0.022732 0.762992
O O8 0.465762 0.814330 0.418521
O O9 0.890400 0.893603 0.640767
O O10 0.401336 0.228674 0.659170
O O11 0.593816 0.302241 0.260294
O O12 0.838369 0.802207 0.097137
O O13 0.638087 0.324067 0.108790
O O14 0.732251 0.509929 0.847853
O O15 0.500000 0.000000 0.000000
#
# Coordination Sequence:
#
# PCOD8028730 Si02
#       7
#     2   2   2   2   2   2   2
#     4  11  23  40  70 105 138 174 222 286 343 397
#     4  11  23  42  69 103 135 173 227 284 338 395
#     4  11  22  42  69 103 135 169 229 280 336 402
#     4  11  26  43  66 104 137 184 227 267 341 405
#     4  11  23  44  69  98 139 177 223 283 344 394
#     4  11  22  44  69 100 137 177 225 283 331 397
#     4  10  26  46  67  97 139 184 227 273 336 408
#
# _framework density 23.953239
#
# number of rings (size 3 to 8) (size 9 to 14) (size 15 to 20)
#    0.000    1.143    2.857    3.000    6.000    4.000 
#    0.000    4.286    0.000    0.000    0.000    0.000 
#    0.000    0.000    0.000    0.000    0.000    0.000 
#
# Total GULP energy -173455.336270 kJ/mol
# GULP energy per Si atom -12389.666876 kJ/mol
# Density = 2.389872 g / cm^3
# Si number density = 23.953239 Si / 1000 Ang^3
#
#
#
# Elastic Constant Matrix: (Units=GPa)
#
#
# Indices 1 2 3 4 5 6 
#
# 1 122.7681 26.0478 61.1375 9.3946 -12.2044 9.4588
# 2 26.0478 83.9837 34.3342 -0.8652 5.2884 3.2399
# 3 61.1375 34.3342 139.4978 10.8939 -12.0963 8.8287
# 4 9.3946 -0.8652 10.8939 30.9312 8.3742 3.2254
# 5 -12.2044 5.2884 -12.0963 8.3742 46.6831 6.0407
# 6 9.4588 3.2399 8.8287 3.2254 6.0407 37.3809
#
#
#
# Elastic Compliance Matrix: (Units=1/GPa)
#
#
# Indices 1 2 3 4 5 6 
#
# 1 0.011104 -0.002031 -0.003782 -0.002673 0.002888 -0.001976
# 2 -0.002031 0.014058 -0.003134 0.003032 -0.003524 0.000343
# 3 -0.003782 -0.003134 0.010163 -0.003118 0.002733 -0.001344
# 4 -0.002673 0.003032 -0.003118 0.036652 -0.008339 -0.000665
# 5 0.002888 -0.003524 0.002733 -0.008339 0.025355 -0.004449
# 6 -0.001976 0.000343 -0.001344 -0.000665 -0.004449 0.028316
#
#
# Mechanical properties :
#
#
# Convention : Reuss Voigt Hill
#
# Bulk Modulus (GPa) = 57.37035 65.47651 61.42343
# Shear Modulus (GPa) = 33.47794 37.98106 35.72950
#
# Velocity S-wave (km/s) = 3.74255 3.98632 3.86636
# Velocity P-wave (km/s) = 6.53289 6.97009 6.75503
#
# Compressibility (1/GPa) = 0.01743061
#
# Stress axis : x y z
#
# Youngs Moduli (GPa) = 90.05913 71.13336 98.39390
#
# Poissons Ratio (x) = 0.14445 0.37216
# Poissons Ratio (y) = 0.18289 0.30838
# Poissons Ratio (z) = 0.34064 0.22294
#
# Static dielectric constant tensor:
#      x y z
#    x 4.918570 0.348360 -0.500340 
#    y 0.348360 4.187470 0.278050 
#    z -0.500340 0.278050 5.020680 
# 
# 
# High freq. dielectric constant tensor:
#      x y z
#    x 1.981390 0.028410 -0.014500 
#    y 0.028410 1.946790 0.012290 
#    z -0.014500 0.012290 1.944500 
# 
# From -- ./inp_files/261864.got.cif
#   From: 2010.06.25/outbox.cif.g09.slc.cpg/sg2_131_cif.got.tgz:261864.got - 2010.06.27 13:26:56.
