data_PCOD8028765
_publ_section_title
;
Structure prediction by ZEFSAII (Michael W. Deem and Ramdas Pophale) SiO2 
 PCOD8028765
Probable space group: P -1
;
_chemical_formula_sum "Si O2"
_cell_formula_units_Z 14
_cell_length_a 16.961738
_cell_length_b 6.203429
_cell_length_c 8.452374
_cell_angle_alpha 99.535837
_cell_angle_beta 51.980440
_cell_angle_gamma 121.239355
_cell_volume 583.237840
_symmetry_space_group_name_H-M "P -1"
_symmetry_group_IT_number 2
_symmetry_cell_setting 'triclinic'
loop_
_space_group_symop_operation_xyz
x,y,z
-x,-y,-z
loop_
_atom_site_type_symbol
_atom_site_label
_atom_site_fract_x
_atom_site_fract_y
_atom_site_fract_z
Si Si1 0.465286 0.911159 0.781760
Si Si2 0.322928 0.934500 0.688686
Si Si3 0.843546 0.815586 0.525106
Si Si4 0.095089 0.460061 0.969850
Si Si5 0.861615 0.973753 0.165438
Si Si6 0.413404 0.597311 0.095663
Si Si7 0.962160 0.293784 0.656185
O O1 0.364806 0.926839 0.813184
O O2 0.563478 0.927935 0.545950
O O3 0.532545 0.138170 0.847983
O O4 0.402756 0.644194 0.927452
O O5 0.215149 0.638255 0.736812
O O6 0.263306 0.104844 0.768591
O O7 0.852220 0.951344 0.363909
O O8 0.710722 0.591711 0.693336
O O9 0.925779 0.696370 0.401150
O O10 0.876681 0.011842 0.653337
O O11 0.099220 0.206857 0.987457
O O12 0.107383 0.637901 0.124193
O O13 0.958985 0.287215 0.039856
O O14 0.500000 0.500000 0.000000
O O15 0.000000 0.500000 0.500000
#
# Coordination Sequence:
#
# PCOD8028765 Si02
#       7
#     2   2   2   2   2   2   2
#     4  10  26  47  70 105 131 189 236 287 354 403
#     4  11  25  46  73  97 144 181 231 291 346 419
#     4  11  26  44  72 107 141 185 235 286 355 420
#     4  11  26  41  71 104 140 185 229 282 356 419
#     4  11  25  43  70 107 139 182 234 284 352 427
#     4  11  25  45  75 101 139 180 239 291 345 412
#     4  11  26  44  68 104 148 183 228 289 352 424
#
# _framework density 24.003931999999999
#
# number of rings (size 3 to 8) (size 9 to 14) (size 15 to 20)
#    0.000    1.143    1.429    2.143   12.000    2.286 
#    0.000    3.571    0.000    0.000    0.000    0.000 
#    0.000    0.000    0.000    0.000    0.000    0.000 
#
# Total GULP energy -173554.205517 kJ/mol
# GULP energy per Si atom -12396.728966 kJ/mol
# Density = 2.394930 g / cm^3
# Si number density = 24.003932 Si / 1000 Ang^3
#
#
#
# Elastic Constant Matrix: (Units=GPa)
#
#
# Indices 1 2 3 4 5 6 
#
# 1 170.2528 22.6762 63.3926 -6.7158 -2.7962 -6.3514
# 2 22.6762 86.1136 44.7372 2.0036 -6.5391 0.9583
# 3 63.3926 44.7372 131.3049 -10.3697 -1.2400 -4.1908
# 4 -6.7158 2.0036 -10.3697 47.9100 -4.2466 -1.8043
# 5 -2.7962 -6.5391 -1.2400 -4.2466 42.1321 -9.4968
# 6 -6.3514 0.9583 -4.1908 -1.8043 -9.4968 24.6387
#
#
#
# Elastic Compliance Matrix: (Units=1/GPa)
#
#
# Indices 1 2 3 4 5 6 
#
# 1 0.007230 -0.000131 -0.003353 0.000423 0.000770 0.001626
# 2 -0.000131 0.014414 -0.004985 -0.001581 0.001721 -0.000895
# 3 -0.003353 -0.004985 0.011147 0.002188 -0.000148 0.001329
# 4 0.000423 -0.001581 0.002188 0.021838 0.002772 0.003210
# 5 0.000770 0.001721 -0.000148 0.002772 0.026719 0.010608
# 6 0.001626 -0.000895 0.001329 0.003210 0.010608 0.045590
#
#
# Mechanical properties :
#
#
# Convention : Reuss Voigt Hill
#
# Bulk Modulus (GPa) = 63.08270 72.14259 67.61264
# Shear Modulus (GPa) = 33.52082 40.06052 36.79067
#
# Velocity S-wave (km/s) = 3.74099 4.08967 3.91921
# Velocity P-wave (km/s) = 6.70800 7.24018 6.97917
#
# Compressibility (1/GPa) = 0.01585221
#
# Stress axis : x y z
#
# Youngs Moduli (GPa) = 138.32039 69.37555 89.71063
#
# Poissons Ratio (x) = 0.00911 0.30081
# Poissons Ratio (y) = 0.01815 0.44720
# Poissons Ratio (z) = 0.46380 0.34583
#
# Static dielectric constant tensor:
#      x y z
#    x 4.743230 -0.161460 0.084910 
#    y -0.161460 4.689040 0.000030 
#    z 0.084910 0.000030 4.768060 
# 
# 
# High freq. dielectric constant tensor:
#      x y z
#    x 1.973190 -0.017070 -0.003500 
#    y -0.017070 1.960230 -0.013470 
#    z -0.003500 -0.013470 1.960560 
# 
# From -- ./inp_files/229651.got.cif
#   From: 2010.06.25/outbox.cif.g09.slc.cpg/sg2_115_cif.got.tgz:229651.got - 2010.06.27 13:26:56.
