data_PCOD8028137
_publ_section_title
;
Structure prediction by ZEFSAII (Michael W. Deem and Ramdas Pophale) SiO2 
 PCOD8028137
Probable space group: P -1
;
_chemical_formula_sum "Si O2"
_cell_formula_units_Z 16
_cell_length_a 14.588705
_cell_length_b 11.238016
_cell_length_c 7.868454
_cell_angle_alpha 107.455652
_cell_angle_beta 111.859449
_cell_angle_gamma 35.148163
_cell_volume 689.233105
_symmetry_space_group_name_H-M "P -1"
_symmetry_group_IT_number 2
_symmetry_cell_setting 'triclinic'
loop_
_space_group_symop_operation_xyz
x,y,z
-x,-y,-z
loop_
_atom_site_type_symbol
_atom_site_label
_atom_site_fract_x
_atom_site_fract_y
_atom_site_fract_z
Si Si1 0.377318 0.857686 0.532563
Si Si2 0.692585 0.341886 0.645738
Si Si3 0.163190 0.034533 0.768822
Si Si4 0.382918 0.900462 0.160002
Si Si5 0.155529 0.595256 0.406392
Si Si6 0.370422 0.528090 0.978594
Si Si7 0.604361 0.844249 0.658388
Si Si8 0.943903 0.115820 0.286670
O O1 0.238256 0.021946 0.647260
O O2 0.421689 0.663482 0.493178
O O3 0.330262 0.933698 0.335193
O O4 0.515587 0.816208 0.674266
O O5 0.707977 0.435868 0.555826
O O6 0.614915 0.492224 0.816985
O O7 0.868253 0.104769 0.724692
O O8 0.983900 0.276656 0.781416
O O9 0.130052 0.920046 0.657471
O O10 0.263438 0.944978 0.973102
O O11 0.567848 0.663690 0.150610
O O12 0.367269 0.062842 0.164854
O O13 0.227801 0.384728 0.395549
O O14 0.060815 0.743295 0.569145
O O15 0.181128 0.748796 0.900238
O O16 0.500000 0.500000 0.000000
O O17 0.500000 0.000000 0.500000
#
# Coordination Sequence:
#
# PCOD8028137 Si02
#       8
#     2   2   2   2   2   2   2   2
#     4  11  21  43  69  94 129 173 212 268 325 376
#     4  11  22  38  63 102 129 163 213 269 331 384
#     4  11  22  41  70  96 133 166 216 272 326 387
#     4  11  25  45  62  94 140 170 220 270 311 383
#     4  11  23  41  68  97 126 172 213 265 337 382
#     4  12  23  37  65  98 129 176 211 265 331 383
#     4  10  25  44  65  90 133 176 220 266 315 386
#     4  11  20  40  64  96 140 159 207 275 329 389
#
# _framework density 23.214207999999999
#
# number of rings (size 3 to 8) (size 9 to 14) (size 15 to 20)
#    0.000    1.000    5.000    2.625    1.750    2.500 
#    0.000    2.500    0.000    0.000    0.000    0.000 
#    0.000    0.000    0.000    0.000    0.000    0.000 
#
# Total GULP energy -198213.013025 kJ/mol
# GULP energy per Si atom -12388.313314 kJ/mol
# Density = 2.316137 g / cm^3
# Si number density = 23.214208 Si / 1000 Ang^3
#
#
#
# Elastic Constant Matrix: (Units=GPa)
#
#
# Indices 1 2 3 4 5 6 
#
# 1 89.9629 28.0709 22.6664 17.2802 12.4970 15.5026
# 2 28.0709 113.9374 14.2307 18.4847 14.0752 38.5779
# 3 22.6664 14.2307 74.0750 16.3446 -2.6868 7.2882
# 4 17.2802 18.4847 16.3446 34.2906 2.0941 6.4409
# 5 12.4970 14.0752 -2.6868 2.0941 33.4041 7.2711
# 6 15.5026 38.5779 7.2882 6.4409 7.2711 32.2248
#
#
#
# Elastic Compliance Matrix: (Units=1/GPa)
#
#
# Indices 1 2 3 4 5 6 
#
# 1 0.014119 -0.000705 -0.003031 -0.004388 -0.004206 -0.003437
# 2 -0.000705 0.015816 -0.000188 -0.004729 -0.002405 -0.017065
# 3 -0.003031 -0.000188 0.016034 -0.005931 0.003196 -0.001479
# 4 -0.004388 -0.004729 -0.005931 0.036395 0.000500 0.001726
# 5 -0.004206 -0.002405 0.003196 0.000500 0.033507 -0.003481
# 6 -0.003437 -0.017065 -0.001479 0.001726 -0.003481 0.053890
#
#
# Mechanical properties :
#
#
# Convention : Reuss Voigt Hill
#
# Bulk Modulus (GPa) = 26.23186 45.32349 35.77768
# Shear Modulus (GPa) = 26.27245 34.18440 30.22843
#
# Velocity S-wave (km/s) = 3.36778 3.84156 3.61245
# Velocity P-wave (km/s) = 5.14267 6.26444 5.73107
#
# Compressibility (1/GPa) = 0.03812158
#
# Stress axis : x y z
#
# Youngs Moduli (GPa) = 70.82883 63.22670 62.36932
#
# Poissons Ratio (x) = 0.04456 0.18904
# Poissons Ratio (y) = 0.04992 0.01170
# Poissons Ratio (z) = 0.21468 0.01186
#
# Static dielectric constant tensor:
#      x y z
#    x 5.396430 0.677310 0.988270 
#    y 0.677310 5.204820 0.447420 
#    z 0.988270 0.447420 4.457500 
# 
# 
# High freq. dielectric constant tensor:
#      x y z
#    x 1.898250 -0.008110 0.012280 
#    y -0.008110 1.935080 -0.008370 
#    z 0.012280 -0.008370 1.908350 
# 
# From -- ./inp_files/227584.got.cif
#   From: 2010.06.25/outbox.cif.g09.slc.cpg/sg2_114_cif.got.tgz:227584.got - 2010.06.27 13:26:56.
