data_PCOD8028689
_publ_section_title
;
Structure prediction by ZEFSAII (Michael W. Deem and Ramdas Pophale) SiO2 
 PCOD8028689
Probable space group: P -1
;
_chemical_formula_sum "Si O2"
_cell_formula_units_Z 10
_cell_length_a 11.045590
_cell_length_b 11.311530
_cell_length_c 10.687976
_cell_angle_alpha 154.953241
_cell_angle_beta 131.874401
_cell_angle_gamma 45.714051
_cell_volume 402.014250
_symmetry_space_group_name_H-M "P -1"
_symmetry_group_IT_number 2
_symmetry_cell_setting 'triclinic'
loop_
_space_group_symop_operation_xyz
x,y,z
-x,-y,-z
loop_
_atom_site_type_symbol
_atom_site_label
_atom_site_fract_x
_atom_site_fract_y
_atom_site_fract_z
Si Si1 0.247940 0.772203 0.146288
Si Si2 0.896318 0.652112 0.252162
Si Si3 0.750419 0.488499 0.743422
Si Si4 0.576377 0.345048 0.090384
Si Si5 0.473635 0.190923 0.314056
O O1 0.413023 0.532202 0.082104
O O2 0.219054 0.075259 0.487945
O O3 0.091339 0.640060 0.937512
O O4 0.274808 0.816715 0.059281
O O5 0.085610 0.675430 0.384322
O O6 0.808164 0.635888 0.043560
O O7 0.660084 0.244263 0.485706
O O8 0.620100 0.759379 0.838115
O O9 0.640739 0.559836 0.431620
O O10 0.516117 0.123617 0.925453
#
# Coordination Sequence:
#
# PCOD8028689 Si02
#       5
#     2   2   2   2   2
#     4  11  24  44  69  98 131 174 225 273 323 391
#     4  11  24  45  68  99 133 176 215 276 328 392
#     4  10  26  44  70  96 142 168 222 266 336 394
#     4  11  24  44  69  98 131 174 225 273 323 391
#     4  11  24  45  68  99 133 176 215 276 328 392
#
# _framework density 24.874741
#
# number of rings (size 3 to 8) (size 9 to 14) (size 15 to 20)
#    0.000    1.200    2.000    2.400    0.000   14.400 
#    0.000    6.000    0.000    0.000    0.000    0.000 
#    0.000    0.000    0.000    0.000    0.000    0.000 
#
# Total GULP energy -124010.040598 kJ/mol
# GULP energy per Si atom -12401.004060 kJ/mol
# Density = 2.481813 g / cm^3
# Si number density = 24.874741 Si / 1000 Ang^3
#
#
#
# Elastic Constant Matrix: (Units=GPa)
#
#
# Indices 1 2 3 4 5 6 
#
# 1 137.3441 33.3644 9.6851 -12.9500 -7.3381 14.9268
# 2 33.3644 65.8587 9.7416 1.7861 15.0950 7.5750
# 3 9.6851 9.7416 78.5435 10.4251 8.9128 1.3700
# 4 -12.9500 1.7861 10.4251 32.7706 3.6807 5.1108
# 5 -7.3381 15.0950 8.9128 3.6807 30.9076 7.9755
# 6 14.9268 7.5750 1.3700 5.1108 7.9755 32.2870
#
#
#
# Elastic Compliance Matrix: (Units=1/GPa)
#
#
# Indices 1 2 3 4 5 6 
#
# 1 0.010352 -0.006000 -0.001889 0.005158 0.006815 -0.005798
# 2 -0.006000 0.020841 -0.000249 -0.002305 -0.011544 0.001111
# 3 -0.001889 -0.000249 0.014127 -0.005082 -0.004367 0.002216
# 4 0.005158 -0.002305 -0.005082 0.035305 0.001574 -0.007606
# 5 0.006815 -0.011544 -0.004367 0.001574 0.043592 -0.011274
# 6 -0.005798 0.001111 0.002216 -0.007606 -0.011274 0.037287
#
#
# Mechanical properties :
#
#
# Convention : Reuss Voigt Hill
#
# Bulk Modulus (GPa) = 34.42954 43.03649 38.73301
# Shear Modulus (GPa) = 26.67216 34.45672 30.56444
#
# Velocity S-wave (km/s) = 3.27809 3.72588 3.50913
# Velocity P-wave (km/s) = 5.31028 5.98735 5.65895
#
# Compressibility (1/GPa) = 0.02904483
#
# Stress axis : x y z
#
# Youngs Moduli (GPa) = 96.59624 47.98223 70.78603
#
# Poissons Ratio (x) = 0.28790 0.13373
# Poissons Ratio (y) = 0.57959 0.01759
# Poissons Ratio (z) = 0.18248 0.01193
#
# Static dielectric constant tensor:
#      x y z
#    x 5.443200 0.326450 -0.067380 
#    y 0.326450 4.255010 -0.106690 
#    z -0.067380 -0.106690 4.501750 
# 
# 
# High freq. dielectric constant tensor:
#      x y z
#    x 2.012830 0.022000 -0.011990 
#    y 0.022000 1.959180 0.004780 
#    z -0.011990 0.004780 2.002940 
# 
# From -- ./inp_files/422566.got.cif
#   From: 2010.06.25/outbox.cif.g09.slc.cpg/sg2_212_cif.got.tgz:422566.got - 2010.06.27 13:26:56.
