data_PCOD8028780
_publ_section_title
;
Structure prediction by ZEFSAII (Michael W. Deem and Ramdas Pophale) SiO2 
 PCOD8028780
Probable space group: P -1
;
_chemical_formula_sum "Si O2"
_cell_formula_units_Z 12
_cell_length_a 10.987599
_cell_length_b 5.136364
_cell_length_c 14.523135
_cell_angle_alpha 93.875144
_cell_angle_beta 51.423824
_cell_angle_gamma 122.571393
_cell_volume 493.255863
_symmetry_space_group_name_H-M "P -1"
_symmetry_group_IT_number 2
_symmetry_cell_setting 'triclinic'
loop_
_space_group_symop_operation_xyz
x,y,z
-x,-y,-z
loop_
_atom_site_type_symbol
_atom_site_label
_atom_site_fract_x
_atom_site_fract_y
_atom_site_fract_z
Si Si1 0.090500 0.566294 0.807489
Si Si2 0.822699 0.608075 0.058229
Si Si3 0.000219 0.136088 0.662357
Si Si4 0.697352 0.280476 0.583351
Si Si5 0.326050 0.105615 0.567754
Si Si6 0.390476 0.301422 0.265383
O O1 0.014343 0.286316 0.759028
O O2 0.221809 0.572228 0.826180
O O3 0.890293 0.476331 0.945176
O O4 0.239816 0.943435 0.704854
O O5 0.612607 0.508051 0.121192
O O6 0.000000 0.000000 0.000000
O O7 0.074592 0.402961 0.549800
O O8 0.139280 0.026246 0.595085
O O9 0.770070 0.805995 0.742282
O O10 0.590789 0.434290 0.668143
O O11 0.593130 0.062181 0.531818
O O12 0.684832 0.045899 0.660559
O O13 0.500000 0.500000 0.500000
#
# Coordination Sequence:
#
# PCOD8028780 Si02
#       6
#     2   2   2   2   2   2
#     4  10  26  47  74 104 146 192 250 302 368 431
#     4  11  27  48  72 103 145 198 250 305 355 440
#     4  11  25  45  74 109 150 189 242 308 364 437
#     4  11  26  45  72 110 149 193 238 298 372 439
#     4  11  26  44  76 114 151 191 239 308 369 439
#     4  12  28  45  76 107 149 197 244 298 370 433
#
# _framework density 24.328146
#
# number of rings (size 3 to 8) (size 9 to 14) (size 15 to 20)
#    0.000    1.000    1.667    2.000   16.333    2.000 
#    0.000    5.833    0.000    0.000    0.000    0.000 
#    0.000    0.000    0.000    0.000    0.000    0.000 
#
# Total GULP energy -148800.026715 kJ/mol
# GULP energy per Si atom -12400.002226 kJ/mol
# Density = 2.427277 g / cm^3
# Si number density = 24.328146 Si / 1000 Ang^3
#
#
#
# Elastic Constant Matrix: (Units=GPa)
#
#
# Indices 1 2 3 4 5 6 
#
# 1 86.8601 36.3303 54.6041 -16.2402 -12.9390 3.4335
# 2 36.3303 113.0964 53.9956 -0.7139 -13.2120 -8.2718
# 3 54.6041 53.9956 124.7977 4.2024 -7.8488 4.1775
# 4 -16.2402 -0.7139 4.2024 47.3692 -5.9397 -4.1196
# 5 -12.9390 -13.2120 -7.8488 -5.9397 47.6681 -10.8778
# 6 3.4335 -8.2718 4.1775 -4.1196 -10.8778 43.5081
#
#
#
# Elastic Compliance Matrix: (Units=1/GPa)
#
#
# Indices 1 2 3 4 5 6 
#
# 1 0.019197 -0.001912 -0.007574 0.007864 0.004582 0.000739
# 2 -0.001912 0.012184 -0.004388 0.000624 0.003061 0.003713
# 3 -0.007574 -0.004388 0.013317 -0.004333 -0.002183 -0.002471
# 4 0.007864 0.000624 -0.004333 0.025222 0.005581 0.003698
# 5 0.004582 0.003061 -0.002183 0.005581 0.025055 0.007222
# 6 0.000739 0.003713 -0.002471 0.003698 0.007222 0.026025
#
#
# Mechanical properties :
#
#
# Convention : Reuss Voigt Hill
#
# Bulk Modulus (GPa) = 58.99376 68.29048 63.64212
# Shear Modulus (GPa) = 32.38406 39.69734 36.04070
#
# Velocity S-wave (km/s) = 3.65243 4.04387 3.85312
# Velocity P-wave (km/s) = 6.48759 7.06649 6.78322
#
# Compressibility (1/GPa) = 0.01695095
#
# Stress axis : x y z
#
# Youngs Moduli (GPa) = 52.09072 82.07373 75.09407
#
# Poissons Ratio (x) = 0.15691 0.56874
# Poissons Ratio (y) = 0.09959 0.32951
# Poissons Ratio (z) = 0.39452 0.36014
#
# Static dielectric constant tensor:
#      x y z
#    x 4.519770 -0.281570 -0.040340 
#    y -0.281570 4.464580 0.114910 
#    z -0.040340 0.114910 4.504140 
# 
# 
# High freq. dielectric constant tensor:
#      x y z
#    x 1.963530 -0.011290 -0.007020 
#    y -0.011290 1.974410 0.004060 
#    z -0.007020 0.004060 1.967520 
# 
# From -- ./inp_files/510426.got.cif
#   From: 2010.06.25/outbox.cif.g09.slc.cpg/sg2_256_cif.got.tgz:510426.got - 2010.06.27 13:26:56.
