data_PCOD8028984
_publ_section_title
;
Structure prediction by ZEFSAII (Michael W. Deem and Ramdas Pophale) SiO2 
 PCOD8028984
Probable space group: P -1
;
_chemical_formula_sum "Si O2"
_cell_formula_units_Z 14
_cell_length_a 14.834576
_cell_length_b 9.316045
_cell_length_c 16.721508
_cell_angle_alpha 137.325738
_cell_angle_beta 27.732345
_cell_angle_gamma 120.628515
_cell_volume 651.686928
_symmetry_space_group_name_H-M "P -1"
_symmetry_group_IT_number 2
_symmetry_cell_setting 'triclinic'
loop_
_space_group_symop_operation_xyz
x,y,z
-x,-y,-z
loop_
_atom_site_type_symbol
_atom_site_label
_atom_site_fract_x
_atom_site_fract_y
_atom_site_fract_z
Si Si1 0.370162 0.809701 0.088081
Si Si2 0.723336 0.771701 0.549736
Si Si3 0.875623 0.980022 0.378029
Si Si4 0.371447 0.697818 0.872149
Si Si5 0.831860 0.525948 0.868908
Si Si6 0.515719 0.189580 0.622904
Si Si7 0.814957 0.467669 0.677366
O O1 0.191353 0.710538 0.187159
O O2 0.283873 0.047324 0.302116
O O3 0.401436 0.847713 0.984823
O O4 0.587499 0.602848 0.867980
O O5 0.756604 0.851279 0.467962
O O6 0.505186 0.736188 0.709166
O O7 0.927521 0.524727 0.312836
O O8 0.752663 0.081566 0.432952
O O9 0.874360 0.190543 0.520731
O O10 0.119871 0.796201 0.086781
O O11 0.473715 0.421391 0.699992
O O12 0.792970 0.580834 0.828236
O O13 0.659532 0.751825 0.144615
O O14 0.500000 0.000000 0.500000
O O15 0.000000 0.500000 0.500000
#
# Coordination Sequence:
#
# PCOD8028984 Si02
#       7
#     2   2   2   2   2   2   2
#     4  11  19  37  58  97 141 175 212 265 328 409
#     4  12  22  39  67  98 141 171 215 275 338 406
#     4  12  23  44  69  98 136 175 216 278 341 397
#     4  11  24  43  65 101 131 175 226 271 334 401
#     4  11  21  39  64  95 138 174 218 270 334 390
#     4  11  26  49  71  92 131 180 232 283 327 385
#     4  12  22  35  64 104 140 175 216 266 335 413
#
# _framework density 21.482707999999999
#
# number of rings (size 3 to 8) (size 9 to 14) (size 15 to 20)
#    0.000    0.571    7.143    4.714    0.000    0.571 
#    0.000    1.429    0.000    0.000    0.000    0.000 
#    0.000    0.000    0.000    0.000    0.000    0.000 
#
# Total GULP energy -173644.621780 kJ/mol
# GULP energy per Si atom -12403.187270 kJ/mol
# Density = 2.143381 g / cm^3
# Si number density = 21.482708 Si / 1000 Ang^3
#
#
#
# Elastic Constant Matrix: (Units=GPa)
#
#
# Indices 1 2 3 4 5 6 
#
# 1 77.5347 39.2102 59.5701 7.8253 -4.3155 -2.2095
# 2 39.2102 86.2604 67.8063 -20.3326 -6.6799 -5.8429
# 3 59.5701 67.8063 121.4443 -15.9893 -21.3680 0.3954
# 4 7.8253 -20.3326 -15.9893 39.7656 -1.0782 -0.3249
# 5 -4.3155 -6.6799 -21.3680 -1.0782 39.1933 10.1811
# 6 -2.2095 -5.8429 0.3954 -0.3249 10.1811 21.6751
#
#
#
# Elastic Compliance Matrix: (Units=1/GPa)
#
#
# Indices 1 2 3 4 5 6 
#
# 1 0.026728 -0.005141 -0.013182 -0.013332 -0.006657 0.004506
# 2 -0.005141 0.025029 -0.011002 0.009340 -0.004267 0.008568
# 3 -0.013182 -0.011002 0.024022 0.006885 0.012717 -0.010618
# 4 -0.013332 0.009340 0.006885 0.035446 0.005064 -0.000814
# 5 -0.006657 -0.004267 0.012717 0.005064 0.036040 -0.018914
# 6 0.004506 0.008568 -0.010618 -0.000814 -0.018914 0.057970
#
#
# Mechanical properties :
#
#
# Convention : Reuss Voigt Hill
#
# Bulk Modulus (GPa) = 58.37638 68.71249 63.54444
# Shear Modulus (GPa) = 18.54642 28.03699 23.29170
#
# Velocity S-wave (km/s) = 2.94142 3.61653 3.29630
# Velocity P-wave (km/s) = 6.22644 7.03516 6.64312
#
# Compressibility (1/GPa) = 0.01713022
#
# Stress axis : x y z
#
# Youngs Moduli (GPa) = 37.41404 39.95302 41.62931
#
# Poissons Ratio (x) = 0.20538 0.54874
# Poissons Ratio (y) = 0.19233 0.45801
# Poissons Ratio (z) = 0.49317 0.43957
#
# Static dielectric constant tensor:
#      x y z
#    x 3.381740 -0.105590 -0.012850 
#    y -0.105590 3.768670 -0.224620 
#    z -0.012850 -0.224620 3.995640 
# 
# 
# High freq. dielectric constant tensor:
#      x y z
#    x 1.818520 -0.019100 -0.026170 
#    y -0.019100 1.831760 -0.010860 
#    z -0.026170 -0.010860 1.852860 
# 
# From -- ./inp_files/226069.got.cif
#   From: 2010.06.25/outbox.cif.g09.slc.cpg/sg2_114_cif.got.tgz:226069.got - 2010.06.27 13:26:56.
