data_PCOD8028720
_publ_section_title
;
Structure prediction by ZEFSAII (Michael W. Deem and Ramdas Pophale) SiO2 
 PCOD8028720
Probable space group: P -1
;
_chemical_formula_sum "Si O2"
_cell_formula_units_Z 12
_cell_length_a 7.746063
_cell_length_b 4.970272
_cell_length_c 12.871823
_cell_angle_alpha 101.493287
_cell_angle_beta 79.470668
_cell_angle_gamma 83.271779
_cell_volume 471.346908
_symmetry_space_group_name_H-M "P -1"
_symmetry_group_IT_number 2
_symmetry_cell_setting 'triclinic'
loop_
_space_group_symop_operation_xyz
x,y,z
-x,-y,-z
loop_
_atom_site_type_symbol
_atom_site_label
_atom_site_fract_x
_atom_site_fract_y
_atom_site_fract_z
Si Si1 0.467933 0.491206 0.381001
Si Si2 0.177761 0.880188 0.910329
Si Si3 0.573930 0.883761 0.241375
Si Si4 0.039261 0.492257 0.195186
Si Si5 0.274118 0.899321 0.114895
Si Si6 0.064777 0.699013 0.426706
O O1 0.500000 0.500000 0.500000
O O2 0.484198 0.173387 0.322813
O O3 0.398778 0.351353 0.689754
O O4 0.275356 0.655081 0.386677
O O5 0.236271 0.076987 0.827610
O O6 0.141366 0.588506 0.842914
O O7 0.329463 0.851617 0.982242
O O8 0.000000 0.000000 0.000000
O O9 0.444130 0.798571 0.159651
O O10 0.184651 0.214414 0.175994
O O11 0.978811 0.645673 0.321642
O O12 0.123633 0.704546 0.130925
O O13 0.000000 0.500000 0.500000
O O14 0.000000 0.000000 0.500000
#
# Coordination Sequence:
#
# PCOD8028720 Si02
#       6
#     2   2   2   2   2   2
#     4  12  28  51  73 110 149 197 255 306 370 448
#     4  10  26  45  73 112 148 193 247 307 367 447
#     4  12  24  48  76 105 150 200 243 308 372 441
#     4  11  23  45  69 104 151 186 244 300 371 436
#     4  11  21  45  73 101 145 192 241 299 363 445
#     4  12  25  46  77 105 146 194 250 312 372 435
#
# _framework density 25.458953999999999
#
# number of rings (size 3 to 8) (size 9 to 14) (size 15 to 20)
#    0.000    0.667    3.333    3.500    2.333    5.333 
#    0.000    5.833    0.000    0.000    0.000    0.000 
#    0.000    0.000    0.000    0.000    0.000    0.000 
#
# Total GULP energy -148795.657051 kJ/mol
# GULP energy per Si atom -12399.638088 kJ/mol
# Density = 2.540101 g / cm^3
# Si number density = 25.458954 Si / 1000 Ang^3
#
#
#
# Elastic Constant Matrix: (Units=GPa)
#
#
# Indices 1 2 3 4 5 6 
#
# 1 68.8391 -5.1553 36.0295 10.2108 -0.1438 17.1365
# 2 -5.1553 130.2146 54.4995 -0.5302 2.8665 18.8598
# 3 36.0295 54.4995 190.9555 -2.9815 27.5176 26.1869
# 4 10.2108 -0.5302 -2.9815 57.1008 8.3145 -6.3132
# 5 -0.1438 2.8665 27.5176 8.3145 42.8142 -0.3442
# 6 17.1365 18.8598 26.1869 -6.3132 -0.3442 36.3391
#
#
#
# Elastic Compliance Matrix: (Units=1/GPa)
#
#
# Indices 1 2 3 4 5 6 
#
# 1 0.020121 0.003802 -0.004182 -0.005317 0.003459 -0.009339
# 2 0.003802 0.009793 -0.003096 -0.001525 0.001604 -0.004894
# 3 -0.004182 -0.003096 0.007957 0.001690 -0.005264 -0.001911
# 4 -0.005317 -0.001525 0.001690 0.019845 -0.004812 0.005483
# 5 0.003459 0.001604 -0.005264 -0.004812 0.027585 0.000755
# 6 -0.009339 -0.004894 -0.001911 0.005483 0.000755 0.036799
#
#
# Mechanical properties :
#
#
# Convention : Reuss Voigt Hill
#
# Bulk Modulus (GPa) = 32.34385 62.30628 47.32506
# Shear Modulus (GPa) = 35.87863 47.55987 41.71925
#
# Velocity S-wave (km/s) = 3.75810 4.32684 4.05246
# Velocity P-wave (km/s) = 5.61810 7.03480 6.36598
#
# Compressibility (1/GPa) = 0.03091778
#
# Stress axis : x y z
#
# Youngs Moduli (GPa) = 49.69945 102.11024 125.68167
#
# Poissons Ratio (x) = -0.38821 0.52563
# Poissons Ratio (y) = -0.18895 0.38913
# Poissons Ratio (z) = 0.20785 0.31615
#
# Static dielectric constant tensor:
#      x y z
#    x 4.704710 0.188450 0.200960 
#    y 0.188450 4.660330 0.048460 
#    z 0.200960 0.048460 5.909390 
# 
# 
# High freq. dielectric constant tensor:
#      x y z
#    x 2.012610 0.009570 0.002620 
#    y 0.009570 2.032320 -0.002060 
#    z 0.002620 -0.002060 2.039740 
# 
# From -- ./inp_files/371962.got.cif
#   From: 2010.06.25/outbox.cif.g09.slc.cpg/sg2_186_cif.got.tgz:371962.got - 2010.06.27 13:26:56.
