data_PCOD8028580
_publ_section_title
;
Structure prediction by ZEFSAII (Michael W. Deem and Ramdas Pophale) SiO2 
 PCOD8028580
Probable space group: P -1
;
_chemical_formula_sum "Si O2"
_cell_formula_units_Z 12
_cell_length_a 9.784914
_cell_length_b 11.915249
_cell_length_c 10.718531
_cell_angle_alpha 71.840775
_cell_angle_beta 84.069761
_cell_angle_gamma 145.267892
_cell_volume 505.881764
_symmetry_space_group_name_H-M "P -1"
_symmetry_group_IT_number 2
_symmetry_cell_setting 'triclinic'
loop_
_space_group_symop_operation_xyz
x,y,z
-x,-y,-z
loop_
_atom_site_type_symbol
_atom_site_label
_atom_site_fract_x
_atom_site_fract_y
_atom_site_fract_z
Si Si1 0.050318 0.678356 0.912841
Si Si2 0.734938 0.766617 0.255716
Si Si3 0.719973 0.636835 0.049846
Si Si4 0.695886 0.189825 0.793360
Si Si5 0.134161 0.751565 0.607065
Si Si6 0.928894 0.713734 0.409155
O O1 0.976551 0.663316 0.784488
O O2 0.806029 0.563101 0.063670
O O3 0.425594 0.998992 0.781191
O O4 0.000000 0.500000 0.000000
O O5 0.974248 0.876717 0.284196
O O6 0.449462 0.596733 0.424922
O O7 0.584976 0.572530 0.220621
O O8 0.932360 0.031733 0.100163
O O9 0.500000 0.500000 0.000000
O O10 0.909216 0.471845 0.676823
O O11 0.942097 0.278252 0.706068
O O12 0.500000 0.000000 0.000000
O O13 0.113910 0.844192 0.478802
O O14 0.500000 0.000000 0.500000
#
# Coordination Sequence:
#
# PCOD8028580 Si02
#       6
#     2   2   2   2   2   2
#     4  12  26  45  73 111 145 192 246 302 369 441
#     4  10  25  48  70 102 144 194 241 296 367 443
#     4  11  25  46  76 103 143 192 247 299 361 444
#     4  12  25  45  72 103 148 195 237 305 370 434
#     4  12  26  43  70 110 146 186 240 307 371 430
#     4  11  24  46  71 101 145 189 242 303 368 428
#
# _framework density 23.720956000000001
#
# number of rings (size 3 to 8) (size 9 to 14) (size 15 to 20)
#    0.000    0.667    3.333    3.500    4.667    2.667 
#    0.000    2.500    0.000    0.000    0.000    0.000 
#    0.000    0.000    0.000    0.000    0.000    0.000 
#
# Total GULP energy -148729.495834 kJ/mol
# GULP energy per Si atom -12394.124653 kJ/mol
# Density = 2.366697 g / cm^3
# Si number density = 23.720956 Si / 1000 Ang^3
#
#
#
# Elastic Constant Matrix: (Units=GPa)
#
#
# Indices 1 2 3 4 5 6 
#
# 1 143.3680 51.6092 37.7002 10.6552 -15.4341 5.9846
# 2 51.6092 118.6497 35.6875 5.7877 1.7335 10.3544
# 3 37.7002 35.6875 95.1231 19.2759 -9.8553 -5.7092
# 4 10.6552 5.7877 19.2759 52.2998 4.6536 3.5587
# 5 -15.4341 1.7335 -9.8553 4.6536 46.7252 11.6098
# 6 5.9846 10.3544 -5.7092 3.5587 11.6098 39.3343
#
#
#
# Elastic Compliance Matrix: (Units=1/GPa)
#
#
# Indices 1 2 3 4 5 6 
#
# 1 0.009153 -0.003236 -0.001988 -0.000947 0.003241 -0.001700
# 2 -0.003236 0.011050 -0.003390 0.001005 -0.001671 -0.002506
# 3 -0.001988 -0.003390 0.013937 -0.004752 0.002132 0.003018
# 4 -0.000947 0.001005 -0.004752 0.021348 -0.003019 -0.001851
# 5 0.003241 -0.001671 0.002132 -0.003019 0.024985 -0.006845
# 6 -0.001700 -0.002506 0.003018 -0.001851 -0.006845 0.028967
#
#
# Mechanical properties :
#
#
# Convention : Reuss Voigt Hill
#
# Bulk Modulus (GPa) = 59.13151 67.45940 63.29545
# Shear Modulus (GPa) = 37.79101 43.14810 40.46956
#
# Velocity S-wave (km/s) = 3.99576 4.26958 4.13494
# Velocity P-wave (km/s) = 6.80222 7.26679 7.03834
#
# Compressibility (1/GPa) = 0.01691146
#
# Stress axis : x y z
#
# Youngs Moduli (GPa) = 109.25424 90.50114 71.74913
#
# Poissons Ratio (x) = 0.29287 0.14263
# Poissons Ratio (y) = 0.35356 0.24324
# Poissons Ratio (z) = 0.21719 0.30682
#
# Static dielectric constant tensor:
#      x y z
#    x 4.520210 0.310370 -0.040640 
#    y 0.310370 5.088120 0.349700 
#    z -0.040640 0.349700 4.503060 
# 
# 
# High freq. dielectric constant tensor:
#      x y z
#    x 1.947150 0.011770 -0.008980 
#    y 0.011770 1.937920 0.016570 
#    z -0.008980 0.016570 1.945360 
# 
# From -- ./inp_files/60380.got.cif
#   From: 2010.06.25/outbox.cif.g09.slc.cpg/sg2_31_cif.got.tgz:60380.got - 2010.06.27 13:26:56.
