data_PCOD8028685
_publ_section_title
;
Structure prediction by ZEFSAII (Michael W. Deem and Ramdas Pophale) SiO2 
 PCOD8028685
Probable space group: P -1
;
_chemical_formula_sum "Si O2"
_cell_formula_units_Z 12
_cell_length_a 14.611146
_cell_length_b 4.655426
_cell_length_c 10.810734
_cell_angle_alpha 56.429500
_cell_angle_beta 43.529419
_cell_angle_gamma 66.238794
_cell_volume 421.983718
_symmetry_space_group_name_H-M "P -1"
_symmetry_group_IT_number 2
_symmetry_cell_setting 'triclinic'
loop_
_space_group_symop_operation_xyz
x,y,z
-x,-y,-z
loop_
_atom_site_type_symbol
_atom_site_label
_atom_site_fract_x
_atom_site_fract_y
_atom_site_fract_z
Si Si1 0.589838 0.636641 0.993825
Si Si2 0.858046 0.663498 0.177326
Si Si3 0.680338 0.202608 0.339642
Si Si4 0.557379 0.898865 0.217237
Si Si5 0.125150 0.210657 0.381984
Si Si6 0.007375 0.177632 0.749448
O O1 0.507790 0.858129 0.128906
O O2 0.633250 0.252872 0.091972
O O3 0.500000 0.500000 0.000000
O O4 0.722443 0.868034 0.787208
O O5 0.722477 0.892887 0.280146
O O6 0.813152 0.280631 0.271377
O O7 0.942788 0.611628 0.230209
O O8 0.944623 0.817041 0.943164
O O9 0.652629 0.567282 0.213077
O O10 0.561459 0.092898 0.569820
O O11 0.128391 0.144371 0.541762
O O12 0.103891 0.607246 0.267775
O O13 0.000000 0.000000 0.500000
#
# Coordination Sequence:
#
# PCOD8028685 Si02
#       6
#     2   2   2   2   2   2
#     4  12  28  47  75 105 147 192 242 295 353 433
#     4  11  25  43  74 103 141 185 244 304 351 428
#     4  11  24  43  75 101 144 182 239 302 361 422
#     4  11  25  46  70 107 141 192 238 294 368 426
#     4  11  27  46  75 103 151 193 241 294 369 431
#     4  10  26  44  68 107 141 192 238 297 363 428
#
# _framework density 28.437114000000001
#
# number of rings (size 3 to 8) (size 9 to 14) (size 15 to 20)
#    0.000    1.000    0.000    4.500   16.333    4.000 
#    0.000    0.000    0.000    0.000    0.000    0.000 
#    0.000    0.000    0.000    0.000    0.000    0.000 
#
# Total GULP energy -148691.333895 kJ/mol
# GULP energy per Si atom -12390.944491 kJ/mol
# Density = 2.837239 g / cm^3
# Si number density = 28.437114 Si / 1000 Ang^3
#
#
#
# Elastic Constant Matrix: (Units=GPa)
#
#
# Indices 1 2 3 4 5 6 
#
# 1 68.5447 9.9429 47.4541 -8.9360 -5.4835 12.5653
# 2 9.9429 103.1758 30.3405 11.2159 -4.0681 24.6452
# 3 47.4541 30.3405 158.1995 12.3084 -11.9734 7.0143
# 4 -8.9360 11.2159 12.3084 45.9028 4.6120 -7.2639
# 5 -5.4835 -4.0681 -11.9734 4.6120 54.5012 1.6983
# 6 12.5653 24.6452 7.0143 -7.2639 1.6983 46.7971
#
#
#
# Elastic Compliance Matrix: (Units=1/GPa)
#
#
# Indices 1 2 3 4 5 6 
#
# 1 0.020321 0.000324 -0.006337 0.004916 0.000383 -0.003928
# 2 0.000324 0.012270 -0.001779 -0.003657 0.001082 -0.006889
# 3 -0.006337 -0.001779 0.008887 -0.003206 0.001430 0.000757
# 4 0.004916 -0.003657 -0.003206 0.025594 -0.002809 0.005161
# 5 0.000383 0.001082 0.001430 -0.002809 0.019082 -0.002015
# 6 -0.003928 -0.006889 0.000757 0.005161 -0.002015 0.026812
#
#
# Mechanical properties :
#
#
# Convention : Reuss Voigt Hill
#
# Bulk Modulus (GPa) = 38.61758 56.15499 47.38628
# Shear Modulus (GPa) = 36.44823 45.58572 41.01698
#
# Velocity S-wave (km/s) = 3.58399 4.00814 3.80198
# Velocity P-wave (km/s) = 5.54401 6.41951 5.99776
#
# Compressibility (1/GPa) = 0.02589494
#
# Stress axis : x y z
#
# Youngs Moduli (GPa) = 49.21087 81.50153 112.52120
#
# Poissons Ratio (x) = -0.02642 0.71304
# Poissons Ratio (y) = -0.01595 0.20013
# Poissons Ratio (z) = 0.31185 0.14496
#
# Static dielectric constant tensor:
#      x y z
#    x 5.647490 -0.268440 0.464370 
#    y -0.268440 5.708770 -0.215150 
#    z 0.464370 -0.215150 5.288500 
# 
# 
# High freq. dielectric constant tensor:
#      x y z
#    x 2.175280 -0.011110 0.020530 
#    y -0.011110 2.175180 -0.004410 
#    z 0.020530 -0.004410 2.155180 
# 
# From -- ./inp_files/60378.got.cif
#   From: 2010.06.25/outbox.cif.g09.slc.cpg/sg2_31_cif.got.tgz:60378.got - 2010.06.27 13:26:56.
