data_PCOD8028288
_publ_section_title
;
Structure prediction by ZEFSAII (Michael W. Deem and Ramdas Pophale) SiO2 
 PCOD8028288
Probable space group: P -1
;
_chemical_formula_sum "Si O2"
_cell_formula_units_Z 16
_cell_length_a 14.338705
_cell_length_b 15.075878
_cell_length_c 14.115578
_cell_angle_alpha 48.840067
_cell_angle_beta 30.107259
_cell_angle_gamma 29.856446
_cell_volume 708.260211
_symmetry_space_group_name_H-M "P -1"
_symmetry_group_IT_number 2
_symmetry_cell_setting 'triclinic'
loop_
_space_group_symop_operation_xyz
x,y,z
-x,-y,-z
loop_
_atom_site_type_symbol
_atom_site_label
_atom_site_fract_x
_atom_site_fract_y
_atom_site_fract_z
Si Si1 0.899581 0.065965 0.435382
Si Si2 0.832718 0.580969 0.948993
Si Si3 0.324957 0.996219 0.865160
Si Si4 0.365875 0.997354 0.031903
Si Si5 0.324177 0.467228 0.694830
Si Si6 0.882642 0.394214 0.878032
Si Si7 0.197658 0.802166 0.188684
Si Si8 0.786052 0.823644 0.434490
O O1 0.011979 0.143522 0.254021
O O2 0.024462 0.901832 0.371852
O O3 0.535821 0.253152 0.623362
O O4 0.000000 0.000000 0.500000
O O5 0.998669 0.441755 0.810267
O O6 0.017167 0.602925 0.809353
O O7 0.513133 0.792174 0.046045
O O8 0.770843 0.507647 0.130451
O O9 0.643511 0.827994 0.647012
O O10 0.399485 0.034131 0.870661
O O11 0.230985 0.911492 0.032899
O O12 0.046692 0.192794 0.912847
O O13 0.500000 0.000000 0.000000
O O14 0.500000 0.500000 0.500000
O O15 0.991382 0.366077 0.694429
O O16 0.516004 0.572172 0.081873
O O17 0.977756 0.839913 0.287090
O O18 0.500000 0.000000 0.500000
#
# Coordination Sequence:
#
# PCOD8028288 Si02
#       8
#     2   2   2   2   2   2   2   2
#     4  11  22  40  62  94 133 175 217 268 332 400
#     4  11  24  44  64  97 143 172 225 295 325 404
#     4  10  25  45  69 101 136 182 229 275 347 409
#     4  11  23  42  66  97 137 180 222 277 341 407
#     4  11  25  41  65 100 132 184 231 269 345 409
#     4  11  23  46  70 100 136 178 231 285 347 397
#     4  11  24  47  68 101 141 176 226 287 343 397
#     4  10  25  45  74 103 131 181 235 283 339 412
#
# _framework density 22.590565999999999
#
# number of rings (size 3 to 8) (size 9 to 14) (size 15 to 20)
#    0.000    1.250    3.750    1.125   12.250    2.500 
#    2.250    3.750    0.000    0.000    0.000    0.000 
#    0.000    0.000    0.000    0.000    0.000    0.000 
#
# Total GULP energy -198224.177312 kJ/mol
# GULP energy per Si atom -12389.011082 kJ/mol
# Density = 2.253915 g / cm^3
# Si number density = 22.590566 Si / 1000 Ang^3
#
#
#
# Elastic Constant Matrix: (Units=GPa)
#
#
# Indices 1 2 3 4 5 6 
#
# 1 140.1000 30.6636 69.9957 8.8336 19.6613 6.5966
# 2 30.6636 76.6500 38.4887 12.8507 3.8443 -1.7313
# 3 69.9957 38.4887 124.4453 10.6177 20.8381 9.9459
# 4 8.8336 12.8507 10.6177 43.4772 6.0023 0.5994
# 5 19.6613 3.8443 20.8381 6.0023 49.8804 8.1183
# 6 6.5966 -1.7313 9.9459 0.5994 8.1183 31.8071
#
#
#
# Elastic Compliance Matrix: (Units=1/GPa)
#
#
# Indices 1 2 3 4 5 6 
#
# 1 0.010208 -0.001481 -0.004954 -0.000177 -0.001788 -0.000189
# 2 -0.001481 0.016417 -0.004313 -0.003694 0.001188 0.002316
# 3 -0.004954 -0.004313 0.012835 -0.000458 -0.002607 -0.002547
# 4 -0.000177 -0.003694 -0.000458 0.024574 -0.002434 0.000137
# 5 -0.001788 0.001188 -0.002607 -0.002434 0.022778 -0.004517
# 6 -0.000189 0.002316 -0.002547 0.000137 -0.004517 0.033551
#
#
# Mechanical properties :
#
#
# Convention : Reuss Voigt Hill
#
# Bulk Modulus (GPa) = 55.66833 68.83237 62.25035
# Shear Modulus (GPa) = 33.81848 38.50278 36.16063
#
# Velocity S-wave (km/s) = 3.87333 4.13289 4.00521
# Velocity P-wave (km/s) = 6.68576 7.30137 7.00033
#
# Compressibility (1/GPa) = 0.01796354
#
# Stress axis : x y z
#
# Youngs Moduli (GPa) = 97.96327 60.91374 77.91042
#
# Poissons Ratio (x) = 0.09021 0.38596
# Poissons Ratio (y) = 0.14509 0.33604
# Poissons Ratio (z) = 0.48530 0.26273
#
# Static dielectric constant tensor:
#      x y z
#    x 4.327660 0.016830 0.326970 
#    y 0.016830 4.188340 0.614330 
#    z 0.326970 0.614330 4.866500 
# 
# 
# High freq. dielectric constant tensor:
#      x y z
#    x 1.902280 -0.003660 0.009690 
#    y -0.003660 1.878600 0.027000 
#    z 0.009690 0.027000 1.897750 
# 
# From -- ./inp_files/534323.got.cif
#   From: 2010.06.25/outbox.cif.g09.slc.cpg/sg2_268_cif.got.tgz:534323.got - 2010.06.27 13:26:56.
