data_PCOD8028699
_publ_section_title
;
Structure prediction by ZEFSAII (Michael W. Deem and Ramdas Pophale) SiO2 
 PCOD8028699
Probable space group: P -1
;
_chemical_formula_sum "Si O2"
_cell_formula_units_Z 14
_cell_length_a 16.184560
_cell_length_b 9.135796
_cell_length_c 8.721966
_cell_angle_alpha 104.086186
_cell_angle_beta 150.236700
_cell_angle_gamma 66.828356
_cell_volume 574.760455
_symmetry_space_group_name_H-M "P -1"
_symmetry_group_IT_number 2
_symmetry_cell_setting 'triclinic'
loop_
_space_group_symop_operation_xyz
x,y,z
-x,-y,-z
loop_
_atom_site_type_symbol
_atom_site_label
_atom_site_fract_x
_atom_site_fract_y
_atom_site_fract_z
Si Si1 0.787135 0.904268 0.156586
Si Si2 0.272550 0.749997 0.317647
Si Si3 0.410508 0.013547 0.696908
Si Si4 0.683963 0.245987 0.960424
Si Si5 0.375874 0.486447 0.662282
Si Si6 0.917689 0.404275 0.548201
Si Si7 0.907498 0.745986 0.631009
O O1 0.864659 0.864065 0.443146
O O2 0.891255 0.749995 0.173778
O O3 0.569472 0.953661 0.811080
O O4 0.813679 0.064297 0.175090
O O5 0.289121 0.905507 0.465214
O O6 0.351571 0.735068 0.271496
O O7 0.386941 0.594494 0.563042
O O8 0.068360 0.764932 0.988243
O O9 0.261908 0.200329 0.508163
O O10 0.500000 0.000000 0.000000
O O11 0.484333 0.299679 0.730582
O O12 0.786178 0.364049 0.207659
O O13 0.172134 0.546301 0.413775
O O14 0.500000 0.500000 0.000000
O O15 0.952257 0.564310 0.590788
#
# Coordination Sequence:
#
# PCOD8028699 Si02
#       7
#     2   2   2   2   2   2   2
#     4  11  24  44  76 108 151 196 237 288 371 434
#     4  12  26  46  76 110 146 186 250 310 354 426
#     4  10  26  44  75 103 149 191 243 292 370 428
#     4  11  25  45  77 111 147 192 242 301 358 435
#     4  10  26  44  75 103 149 191 243 292 370 428
#     4  11  24  44  76 108 151 196 237 288 371 434
#     4  11  25  45  77 111 147 192 242 301 358 435
#
# _framework density 24.357973999999999
#
# number of rings (size 3 to 8) (size 9 to 14) (size 15 to 20)
#    0.000    1.143    1.429    2.571   16.000    3.429 
#    0.000    0.000    0.000    0.000    0.000    0.000 
#    0.000    0.000    0.000    0.000    0.000    0.000 
#
# Total GULP energy -173464.654557 kJ/mol
# GULP energy per Si atom -12390.332468 kJ/mol
# Density = 2.430253 g / cm^3
# Si number density = 24.357974 Si / 1000 Ang^3
#
#
#
# Elastic Constant Matrix: (Units=GPa)
#
#
# Indices 1 2 3 4 5 6 
#
# 1 124.0179 46.6373 59.1388 -21.9781 3.6631 -27.8547
# 2 46.6373 150.8948 70.9463 -13.0334 5.1337 -26.8986
# 3 59.1388 70.9463 114.7063 -1.0357 5.9594 -7.3288
# 4 -21.9781 -13.0334 -1.0357 49.8289 0.7848 12.5673
# 5 3.6631 5.1337 5.9594 0.7848 46.1455 -21.6847
# 6 -27.8547 -26.8986 -7.3288 12.5673 -21.6847 44.0543
#
#
#
# Elastic Compliance Matrix: (Units=1/GPa)
#
#
# Indices 1 2 3 4 5 6 
#
# 1 0.013725 0.000951 -0.007264 0.003864 0.003828 0.008832
# 2 0.000951 0.010863 -0.006892 0.001259 0.002962 0.007186
# 3 -0.007264 -0.006892 0.016450 -0.002748 -0.004184 -0.007340
# 4 0.003864 0.001259 -0.002748 0.023465 -0.003047 -0.005439
# 5 0.003828 0.002962 -0.004184 -0.003047 0.030829 0.019576
# 6 0.008832 0.007186 -0.007340 -0.005439 0.019576 0.042638
#
#
# Mechanical properties :
#
#
# Convention : Reuss Voigt Hill
#
# Bulk Modulus (GPa) = 68.36809 82.56266 75.46537
# Shear Modulus (GPa) = 29.54119 42.19887 35.87003
#
# Velocity S-wave (km/s) = 3.48630 4.16678 3.84164
# Velocity P-wave (km/s) = 6.65843 7.55768 7.12226
#
# Compressibility (1/GPa) = 0.01462671
#
# Stress axis : x y z
#
# Youngs Moduli (GPa) = 72.85966 92.05819 60.79132
#
# Poissons Ratio (x) = -0.08758 0.44160
# Poissons Ratio (y) = -0.06932 0.41900
# Poissons Ratio (z) = 0.52927 0.63451
#
# Static dielectric constant tensor:
#      x y z
#    x 5.127510 -0.550080 0.623620 
#    y -0.550080 4.583860 -0.379620 
#    z 0.623620 -0.379620 4.348120 
# 
# 
# High freq. dielectric constant tensor:
#      x y z
#    x 1.975650 -0.016710 0.017770 
#    y -0.016710 1.973020 -0.014180 
#    z 0.017770 -0.014180 1.954820 
# 
# From -- ./inp_files/329358.got.cif
#   From: 2010.06.25/outbox.cif.g09.slc.cpg/sg2_165_cif.got.tgz:329358.got - 2010.06.27 13:26:56.
