data_PCOD8028942
_publ_section_title
;
Structure prediction by ZEFSAII (Michael W. Deem and Ramdas Pophale) SiO2 
 PCOD8028942
Probable space group: P -1
;
_chemical_formula_sum "Si O2"
_cell_formula_units_Z 16
_cell_length_a 11.473612
_cell_length_b 10.660264
_cell_length_c 16.650003
_cell_angle_alpha 43.211863
_cell_angle_beta 135.003896
_cell_angle_gamma 103.823322
_cell_volume 809.338060
_symmetry_space_group_name_H-M "P -1"
_symmetry_group_IT_number 2
_symmetry_cell_setting 'triclinic'
loop_
_space_group_symop_operation_xyz
x,y,z
-x,-y,-z
loop_
_atom_site_type_symbol
_atom_site_label
_atom_site_fract_x
_atom_site_fract_y
_atom_site_fract_z
Si Si1 0.377605 0.018608 0.043631
Si Si2 0.075408 0.463890 0.295134
Si Si3 0.833419 0.958878 0.914576
Si Si4 0.438583 0.455243 0.700038
Si Si5 0.480679 0.359400 0.488417
Si Si6 0.488965 0.370915 0.942361
Si Si7 0.155340 0.745486 0.719323
Si Si8 0.974614 0.385401 0.616729
O O1 0.332318 0.964423 0.133386
O O2 0.533970 0.781365 0.189728
O O3 0.463770 0.168292 0.021784
O O4 0.175875 0.139059 0.836063
O O5 0.303735 0.331465 0.437928
O O6 0.060109 0.490304 0.372399
O O7 0.984329 0.331137 0.283214
O O8 0.947432 0.697796 0.075984
O O9 0.694427 0.115350 0.699836
O O10 0.000000 0.000000 0.000000
O O11 0.567764 0.508303 0.681421
O O12 0.492448 0.463354 0.813895
O O13 0.205982 0.639022 0.478933
O O14 0.500000 0.500000 0.500000
O O15 0.300358 0.584775 0.794007
O O16 0.703633 0.273734 0.131556
O O17 0.000000 0.000000 0.500000
O O18 0.000000 0.500000 0.500000
#
# Coordination Sequence:
#
# PCOD8028942 Si02
#       8
#     2   2   2   2   2   2   2   2
#     4  11  21  35  61  92 129 162 193 262 320 372
#     4  11  22  39  58  90 122 160 217 254 301 371
#     4  11  19  35  57  89 128 158 199 244 308 373
#     4  12  23  38  60  97 135 157 200 261 322 382
#     4  12  21  34  61  91 125 169 199 241 312 389
#     4  11  25  42  61  95 123 164 217 260 315 368
#     4  11  26  44  68  86 121 172 219 262 302 371
#     4  11  20  32  56  90 128 156 196 247 327 368
#
# _framework density 19.769241999999998
#
# number of rings (size 3 to 8) (size 9 to 14) (size 15 to 20)
#    0.000    0.750    7.500    1.125    3.500    1.000 
#    0.000    0.625    0.000    1.500    0.000    0.000 
#    0.000    0.000    0.000    0.000    0.000    0.000 
#
# Total GULP energy -198344.518873 kJ/mol
# GULP energy per Si atom -12396.532430 kJ/mol
# Density = 1.972425 g / cm^3
# Si number density = 19.769242 Si / 1000 Ang^3
#
#
#
# Elastic Constant Matrix: (Units=GPa)
#
#
# Indices 1 2 3 4 5 6 
#
# 1 114.5552 43.7203 48.1095 14.0644 -7.5097 16.3784
# 2 43.7203 86.7715 65.4219 3.9260 0.6345 21.3304
# 3 48.1095 65.4219 151.8140 3.3475 2.2281 13.1049
# 4 14.0644 3.9260 3.3475 33.6798 4.8367 -2.0307
# 5 -7.5097 0.6345 2.2281 4.8367 34.6930 8.4660
# 6 16.3784 21.3304 13.1049 -2.0307 8.4660 28.8838
#
#
#
# Elastic Compliance Matrix: (Units=1/GPa)
#
#
# Indices 1 2 3 4 5 6 
#
# 1 0.012711 -0.003144 -0.002115 -0.005829 0.005186 -0.005856
# 2 -0.003144 0.021492 -0.007265 -0.001521 0.002439 -0.011615
# 3 -0.002115 -0.007265 0.010169 0.001125 -0.001756 0.002544
# 4 -0.005829 -0.001521 0.001125 0.033885 -0.008151 0.008689
# 5 0.005186 0.002439 -0.001756 -0.008151 0.034739 -0.014701
# 6 -0.005856 -0.011615 0.002544 0.008689 -0.014701 0.050285
#
#
# Mechanical properties :
#
#
# Convention : Reuss Voigt Hill
#
# Bulk Modulus (GPa) = 51.75066 74.18269 62.96667
# Shear Modulus (GPa) = 25.67115 32.51058 29.09087
#
# Velocity S-wave (km/s) = 3.60744 4.05965 3.84020
# Velocity P-wave (km/s) = 6.60194 7.71881 7.18212
#
# Compressibility (1/GPa) = 0.01932343
#
# Stress axis : x y z
#
# Youngs Moduli (GPa) = 78.67479 46.52794 98.33459
#
# Poissons Ratio (x) = 0.14630 0.20798
# Poissons Ratio (y) = 0.24738 0.71441
# Poissons Ratio (z) = 0.16640 0.33803
#
# Static dielectric constant tensor:
#      x y z
#    x 3.846980 0.179290 0.015320 
#    y 0.179290 3.307840 0.026800 
#    z 0.015320 0.026800 3.964110 
# 
# 
# High freq. dielectric constant tensor:
#      x y z
#    x 1.778190 0.019580 0.003060 
#    y 0.019580 1.726190 -0.004660 
#    z 0.003060 -0.004660 1.795040 
# 
# From -- ./inp_files/471943.got.cif
#   From: 2010.06.25/outbox.cif.g09.slc.cpg/sg2_236_cif.got.tgz:471943.got - 2010.06.27 13:26:56.
