data_PCOD8028170
_publ_section_title
;
Structure prediction by ZEFSAII (Michael W. Deem and Ramdas Pophale) SiO2 
 PCOD8028170
Probable space group: P -1
;
_chemical_formula_sum "Si O2"
_cell_formula_units_Z 16
_cell_length_a 8.594727
_cell_length_b 25.223508
_cell_length_c 25.280541
_cell_angle_alpha 11.540586
_cell_angle_beta 137.830274
_cell_angle_gamma 138.726754
_cell_volume 722.798828
_symmetry_space_group_name_H-M "P -1"
_symmetry_group_IT_number 2
_symmetry_cell_setting 'triclinic'
loop_
_space_group_symop_operation_xyz
x,y,z
-x,-y,-z
loop_
_atom_site_type_symbol
_atom_site_label
_atom_site_fract_x
_atom_site_fract_y
_atom_site_fract_z
Si Si1 0.112214 0.189180 0.890289
Si Si2 0.394810 0.894394 0.132110
Si Si3 0.865785 0.735392 0.752368
Si Si4 0.996428 0.346944 0.359012
Si Si5 0.008731 0.802664 0.839165
Si Si6 0.385984 0.655068 0.650104
Si Si7 0.504805 0.538045 0.343941
Si Si8 0.448671 0.129816 0.120460
O O1 0.269699 0.465946 0.634584
O O2 0.882258 0.235818 0.819282
O O3 0.275287 0.040815 0.114236
O O4 0.000000 0.000000 0.000000
O O5 0.506684 0.651493 0.422242
O O6 0.500000 0.000000 0.000000
O O7 0.460752 0.146011 0.942176
O O8 0.596989 0.671405 0.728838
O O9 0.862158 0.781155 0.769272
O O10 0.000000 0.000000 0.500000
O O11 0.000000 0.500000 0.000000
O O12 0.857631 0.389367 0.335792
O O13 0.272162 0.449832 0.337588
O O14 0.944330 0.038278 0.629133
O O15 0.920092 0.523724 0.119760
O O16 0.285215 0.852118 0.848520
O O17 0.398231 0.927488 0.354189
O O18 0.394737 0.417025 0.844074
#
# Coordination Sequence:
#
# PCOD8028170 Si02
#       8
#     2   2   2   2   2   2   2   2
#     4  10  25  44  68  98 133 180 232 282 334 414
#     4  11  25  42  66  97 129 176 226 284 348 400
#     4  12  23  44  72 103 141 177 233 282 338 408
#     4  12  27  43  70 103 144 178 231 287 348 400
#     4  12  24  45  73 101 134 193 225 281 342 422
#     4  12  27  45  70 107 138 180 225 296 342 406
#     4  11  24  44  65  91 138 176 222 281 341 406
#     4  12  25  45  74 100 135 184 238 272 349 414
#
# _framework density 22.136174
#
# number of rings (size 3 to 8) (size 9 to 14) (size 15 to 20)
#    0.000    0.500    3.750    3.750    5.250    3.000 
#    0.000    0.000    0.000    0.000    0.000    0.000 
#    0.000    0.000    0.000    0.000    0.000    0.000 
#
# Total GULP energy -198425.009700 kJ/mol
# GULP energy per Si atom -12401.563106 kJ/mol
# Density = 2.208579 g / cm^3
# Si number density = 22.136174 Si / 1000 Ang^3
#
#
#
# Elastic Constant Matrix: (Units=GPa)
#
#
# Indices 1 2 3 4 5 6 
#
# 1 107.4364 25.4667 22.0795 5.5482 -18.0304 3.6532
# 2 25.4667 126.2039 22.2679 10.9809 4.6435 -8.0590
# 3 22.0795 22.2679 102.6998 5.9187 -9.6537 -0.0920
# 4 5.5482 10.9809 5.9187 30.0517 -9.2906 -9.6416
# 5 -18.0304 4.6435 -9.6537 -9.2906 32.7298 0.8984
# 6 3.6532 -8.0590 -0.0920 -9.6416 0.8984 28.1958
#
#
#
# Elastic Compliance Matrix: (Units=1/GPa)
#
#
# Indices 1 2 3 4 5 6 
#
# 1 0.011281 -0.002447 -0.001320 0.000298 0.006319 -0.002265
# 2 -0.002447 0.009276 -0.001685 -0.003249 -0.004138 0.001984
# 3 -0.001320 -0.001685 0.010657 -0.000657 0.002485 -0.000580
# 4 0.000298 -0.003249 -0.000657 0.042520 0.012139 0.013184
# 5 0.006319 -0.004138 0.002485 0.012139 0.038775 0.000922
# 6 -0.002265 0.001984 -0.000580 0.013184 0.000922 0.040804
#
#
# Mechanical properties :
#
#
# Convention : Reuss Voigt Hill
#
# Bulk Modulus (GPa) = 49.23476 52.88537 51.06007
# Shear Modulus (GPa) = 29.24193 35.96384 32.60288
#
# Velocity S-wave (km/s) = 3.63850 4.03508 3.84191
# Velocity P-wave (km/s) = 6.31994 6.75663 6.54193
#
# Compressibility (1/GPa) = 0.02031085
#
# Stress axis : x y z
#
# Youngs Moduli (GPa) = 88.64327 107.80148 93.83286
#
# Poissons Ratio (x) = 0.26374 0.12387
# Poissons Ratio (y) = 0.21687 0.15813
# Poissons Ratio (z) = 0.11702 0.18167
#
# Static dielectric constant tensor:
#      x y z
#    x 4.474250 0.223930 0.038030 
#    y 0.223930 4.251260 0.058230 
#    z 0.038030 0.058230 4.093060 
# 
# 
# High freq. dielectric constant tensor:
#      x y z
#    x 1.877910 -0.003050 -0.012040 
#    y -0.003050 1.881590 0.005070 
#    z -0.012040 0.005070 1.878970 
# 
# From -- ./inp_files/617691.got.cif
#   From: 2010.06.25/outbox.cif.g09.slc.cpg/sg2_309_cif.got.tgz:617691.got - 2010.06.27 13:26:56.
