data_PCOD8028546
_publ_section_title
;
Structure prediction by ZEFSAII (Michael W. Deem and Ramdas Pophale) SiO2 
 PCOD8028546
Probable space group: P -1
;
_chemical_formula_sum "Si O2"
_cell_formula_units_Z 12
_cell_length_a 12.313460
_cell_length_b 6.475303
_cell_length_c 9.302021
_cell_angle_alpha 118.472272
_cell_angle_beta 114.694978
_cell_angle_gamma 49.611142
_cell_volume 489.975296
_symmetry_space_group_name_H-M "P -1"
_symmetry_group_IT_number 2
_symmetry_cell_setting 'triclinic'
loop_
_space_group_symop_operation_xyz
x,y,z
-x,-y,-z
loop_
_atom_site_type_symbol
_atom_site_label
_atom_site_fract_x
_atom_site_fract_y
_atom_site_fract_z
Si Si1 0.716897 0.391497 0.494125
Si Si2 0.182680 0.303982 0.900880
Si Si3 0.517899 0.187390 0.285838
Si Si4 0.056424 0.802099 0.202691
Si Si5 0.886942 0.442041 0.349203
Si Si6 0.521259 0.234946 0.999602
O O1 0.663551 0.185077 0.364238
O O2 0.579095 0.677188 0.582021
O O3 0.845221 0.225360 0.620400
O O4 0.770599 0.473769 0.411806
O O5 0.205487 0.335713 0.755039
O O6 0.047371 0.282330 0.822449
O O7 0.149574 0.588157 0.055224
O O8 0.314421 0.023058 0.959289
O O9 0.555956 0.869556 0.181567
O O10 0.435094 0.344448 0.141060
O O11 0.972471 0.130131 0.219235
O O12 0.000000 0.500000 0.500000
O O13 0.500000 0.500000 0.000000
#
# Coordination Sequence:
#
# PCOD8028546 Si02
#       6
#     2   2   2   2   2   2
#     4  11  23  50  73 111 155 194 249 310 379 447
#     4  11  25  49  77 109 151 195 261 310 367 454
#     4  10  25  47  74 106 154 199 251 306 370 452
#     4  11  24  47  76 111 152 198 247 311 380 447
#     4  12  26  45  78 115 149 196 244 318 383 439
#     4  11  25  51  77 108 147 206 257 308 370 447
#
# _framework density 24.491033000000002
#
# number of rings (size 3 to 8) (size 9 to 14) (size 15 to 20)
#    0.000    1.000    3.333    2.000    2.333    5.333 
#    9.000    2.500    0.000    0.000    0.000    0.000 
#    0.000    0.000    0.000    0.000    0.000    0.000 
#
# Total GULP energy -148678.889153 kJ/mol
# GULP energy per Si atom -12389.907429 kJ/mol
# Density = 2.443529 g / cm^3
# Si number density = 24.491033 Si / 1000 Ang^3
#
#
#
# Elastic Constant Matrix: (Units=GPa)
#
#
# Indices 1 2 3 4 5 6 
#
# 1 163.7550 65.6282 78.3979 3.7929 3.1251 7.6720
# 2 65.6282 155.0774 79.9317 5.9750 3.4308 24.0793
# 3 78.3979 79.9317 146.1580 25.8272 8.3130 13.6240
# 4 3.7929 5.9750 25.8272 31.0396 11.9948 7.3754
# 5 3.1251 3.4308 8.3130 11.9948 43.8354 0.7985
# 6 7.6720 24.0793 13.6240 7.3754 0.7985 41.0392
#
#
#
# Elastic Compliance Matrix: (Units=1/GPa)
#
#
# Indices 1 2 3 4 5 6 
#
# 1 0.008758 -0.001608 -0.004339 0.002990 -0.000498 0.000219
# 2 -0.001608 0.010282 -0.004936 0.003717 -0.000685 -0.004749
# 3 -0.004339 -0.004936 0.013557 -0.010422 0.000957 0.001061
# 4 0.002990 0.003717 -0.010422 0.045759 -0.010916 -0.007291
# 5 -0.000498 -0.000685 0.000957 -0.010916 0.025677 0.001639
# 6 0.000219 -0.004749 0.001061 -0.007291 0.001639 0.028038
#
#
# Mechanical properties :
#
#
# Convention : Reuss Voigt Hill
#
# Bulk Modulus (GPa) = 92.32207 101.43400 96.87803
# Shear Modulus (GPa) = 31.75637 39.25168 35.50403
#
# Velocity S-wave (km/s) = 3.60481 4.00771 3.81159
# Velocity P-wave (km/s) = 7.42323 7.93236 7.68202
#
# Compressibility (1/GPa) = 0.01083165
#
# Stress axis : x y z
#
# Youngs Moduli (GPa) = 114.17520 97.25364 73.76353
#
# Poissons Ratio (x) = 0.15642 0.32004
# Poissons Ratio (y) = 0.18364 0.36408
# Poissons Ratio (z) = 0.49538 0.48003
#
# Static dielectric constant tensor:
#      x y z
#    x 4.757420 -0.083820 0.151750 
#    y -0.083820 4.268930 0.246520 
#    z 0.151750 0.246520 4.929690 
# 
# 
# High freq. dielectric constant tensor:
#      x y z
#    x 1.992830 -0.004250 0.017480 
#    y -0.004250 1.966310 0.013880 
#    z 0.017480 0.013880 1.996530 
# 
# From -- ./inp_files/228725.got.cif
#   From: 2010.06.25/outbox.cif.g09.slc.cpg/sg2_115_cif.got.tgz:228725.got - 2010.06.27 13:26:56.
