data_PCOD8028273
_publ_section_title
;
Structure prediction by ZEFSAII (Michael W. Deem and Ramdas Pophale) SiO2 
 PCOD8028273
Probable space group: P -1
;
_chemical_formula_sum "Si O2"
_cell_formula_units_Z 14
_cell_length_a 9.619923
_cell_length_b 15.774670
_cell_length_c 15.645609
_cell_angle_alpha 28.748358
_cell_angle_beta 68.598230
_cell_angle_gamma 47.174862
_cell_volume 632.821895
_symmetry_space_group_name_H-M "P -1"
_symmetry_group_IT_number 2
_symmetry_cell_setting 'triclinic'
loop_
_space_group_symop_operation_xyz
x,y,z
-x,-y,-z
loop_
_atom_site_type_symbol
_atom_site_label
_atom_site_fract_x
_atom_site_fract_y
_atom_site_fract_z
Si Si1 0.577043 0.271165 0.124290
Si Si2 0.522746 0.585402 0.170897
Si Si3 0.016158 0.297834 0.368010
Si Si4 0.697483 0.908394 0.975711
Si Si5 0.730296 0.782320 0.770970
Si Si6 0.913440 0.885525 0.100287
Si Si7 0.445820 0.277005 0.536107
O O1 0.380774 0.300428 0.154975
O O2 0.500000 0.500000 0.000000
O O3 0.570166 0.355587 0.956229
O O4 0.859022 0.939967 0.376132
O O5 0.803251 0.393160 0.280742
O O6 0.515680 0.409321 0.378410
O O7 0.338206 0.907986 0.969639
O O8 0.906513 0.576382 0.188752
O O9 0.237749 0.133884 0.396297
O O10 0.841435 0.923443 0.983801
O O11 0.500000 0.000000 0.000000
O O12 0.560501 0.131980 0.730721
O O13 0.547193 0.047935 0.644692
O O14 0.000000 0.500000 0.000000
O O15 0.144135 0.537863 0.380014
O O16 0.000000 0.000000 0.000000
#
# Coordination Sequence:
#
# PCOD8028273 Si02
#       7
#     2   2   2   2   2   2   2
#     4  12  28  45  73 108 142 187 238 290 354 426
#     4  11  25  46  70 110 141 187 232 299 355 410
#     4  12  26  46  76 104 146 183 239 295 348 427
#     4  12  25  44  72 106 135 190 238 281 358 418
#     4  12  24  48  72 103 146 183 235 290 356 413
#     4  10  25  45  68 104 143 180 234 286 352 413
#     4  11  26  46  75 100 148 188 233 296 351 421
#
# _framework density 22.123128000000001
#
# number of rings (size 3 to 8) (size 9 to 14) (size 15 to 20)
#    0.000    0.571    4.286    2.143    4.000    8.571 
#    0.000    0.000    0.000    0.000    0.000    0.000 
#    0.000    0.000    0.000    0.000    0.000    0.000 
#
# Total GULP energy -173642.665449 kJ/mol
# GULP energy per Si atom -12403.047532 kJ/mol
# Density = 2.207277 g / cm^3
# Si number density = 22.123128 Si / 1000 Ang^3
#
#
#
# Elastic Constant Matrix: (Units=GPa)
#
#
# Indices 1 2 3 4 5 6 
#
# 1 129.9149 60.6365 67.5216 -1.1067 9.3110 23.6325
# 2 60.6365 136.9822 83.2615 10.2127 7.4501 20.2463
# 3 67.5216 83.2615 174.5593 1.7284 21.5489 17.3425
# 4 -1.1067 10.2127 1.7284 43.9639 0.0904 3.6906
# 5 9.3110 7.4501 21.5489 0.0904 35.2125 4.2500
# 6 23.6325 20.2463 17.3425 3.6906 4.2500 42.5448
#
#
#
# Elastic Compliance Matrix: (Units=1/GPa)
#
#
# Indices 1 2 3 4 5 6 
#
# 1 0.011084 -0.002909 -0.002491 0.001376 -0.000331 -0.003844
# 2 -0.002909 0.011656 -0.004356 -0.002439 0.001225 -0.002066
# 3 -0.002491 -0.004356 0.009266 0.000590 -0.004096 0.000038
# 4 0.001376 -0.002439 0.000590 0.023482 -0.000043 -0.001877
# 5 -0.000331 0.001225 -0.004096 -0.000043 0.030954 -0.001818
# 6 -0.003844 -0.002066 0.000038 -0.001877 -0.001818 0.026952
#
#
# Mechanical properties :
#
#
# Convention : Reuss Voigt Hill
#
# Bulk Modulus (GPa) = 80.03636 96.03285 88.03461
# Shear Modulus (GPa) = 36.47720 39.68004 38.07862
#
# Velocity S-wave (km/s) = 4.06498 4.23969 4.15325
# Velocity P-wave (km/s) = 7.63468 8.21396 7.92961
#
# Compressibility (1/GPa) = 0.01249432
#
# Stress axis : x y z
#
# Youngs Moduli (GPa) = 90.21726 85.78906 107.91823
#
# Poissons Ratio (x) = 0.24956 0.26882
# Poissons Ratio (y) = 0.26245 0.47014
# Poissons Ratio (z) = 0.22472 0.37373
#
# Static dielectric constant tensor:
#      x y z
#    x 4.492580 -0.116900 0.172870 
#    y -0.116900 4.941230 -0.413930 
#    z 0.172870 -0.413930 4.446960 
# 
# 
# High freq. dielectric constant tensor:
#      x y z
#    x 1.882840 0.008300 0.011010 
#    y 0.008300 1.880150 -0.007440 
#    z 0.011010 -0.007440 1.881230 
# 
# From -- ./inp_files/504936.got.cif
#   From: 2010.06.25/outbox.cif.g09.slc.cpg/sg2_253_cif.got.tgz:504936.got - 2010.06.27 13:26:56.
