data_PCOD8028568
_publ_section_title
;
Structure prediction by ZEFSAII (Michael W. Deem and Ramdas Pophale) SiO2 
 PCOD8028568
Probable space group: P -1
;
_chemical_formula_sum "Si O2"
_cell_formula_units_Z 16
_cell_length_a 19.466263
_cell_length_b 8.479632
_cell_length_c 11.684828
_cell_angle_alpha 135.267977
_cell_angle_beta 129.564760
_cell_angle_gamma 87.018607
_cell_volume 706.001657
_symmetry_space_group_name_H-M "P -1"
_symmetry_group_IT_number 2
_symmetry_cell_setting 'triclinic'
loop_
_space_group_symop_operation_xyz
x,y,z
-x,-y,-z
loop_
_atom_site_type_symbol
_atom_site_label
_atom_site_fract_x
_atom_site_fract_y
_atom_site_fract_z
Si Si1 0.547100 0.392196 0.076848
Si Si2 0.648917 0.754008 0.605337
Si Si3 0.280614 0.374464 0.813158
Si Si4 0.617839 0.502441 0.777612
Si Si5 0.120604 0.643144 0.278790
Si Si6 0.879111 0.503720 0.305613
Si Si7 0.123262 0.730375 0.584328
Si Si8 0.319300 0.649922 0.442569
O O1 0.624399 0.649772 0.394465
O O2 0.645248 0.420553 0.119713
O O3 0.500000 0.500000 0.000000
O O4 0.428673 0.016862 0.804758
O O5 0.521997 0.637837 0.467895
O O6 0.686174 0.595865 0.626997
O O7 0.773591 0.147259 0.948885
O O8 0.155155 0.302719 0.656787
O O9 0.236817 0.036544 0.587529
O O10 0.378422 0.580254 0.131155
O O11 0.639145 0.321546 0.629413
O O12 0.731602 0.894720 0.074448
O O13 0.080997 0.552668 0.324365
O O14 0.176494 0.505963 0.225622
O O15 0.000000 0.500000 0.000000
O O16 0.881514 0.472062 0.429120
O O17 0.021249 0.732832 0.516937
#
# Coordination Sequence:
#
# PCOD8028568 Si02
#       8
#     2   2   2   2   2   2   2   2
#     4  12  24  43  65 104 143 167 224 284 342 398
#     4  12  26  45  73 102 135 185 229 279 343 403
#     4  11  26  42  69 101 140 177 223 286 338 399
#     4  11  24  45  70 102 138 179 231 274 341 406
#     4  11  27  45  68  99 139 184 224 270 351 410
#     4  11  26  45  72 101 132 183 232 284 333 397
#     4  10  25  48  67 100 141 174 232 280 336 408
#     4  12  26  44  72  99 138 181 225 282 343 404
#
# _framework density 22.662837
#
# number of rings (size 3 to 8) (size 9 to 14) (size 15 to 20)
#    0.000    0.750    3.750    2.250   10.500    2.000 
#    0.000    1.250    0.000    0.000    0.000    0.000 
#    0.000    0.000    0.000    0.000    0.000    0.000 
#
# Total GULP energy -198449.212640 kJ/mol
# GULP energy per Si atom -12403.075790 kJ/mol
# Density = 2.261126 g / cm^3
# Si number density = 22.662837 Si / 1000 Ang^3
#
#
#
# Elastic Constant Matrix: (Units=GPa)
#
#
# Indices 1 2 3 4 5 6 
#
# 1 138.3801 52.8290 27.7413 -20.1179 -5.4908 -7.8163
# 2 52.8290 65.1539 13.1503 -19.5708 -1.4897 -17.1319
# 3 27.7413 13.1503 70.7543 -21.4968 -7.7913 5.0287
# 4 -20.1179 -19.5708 -21.4968 34.6763 5.1224 2.3211
# 5 -5.4908 -1.4897 -7.7913 5.1224 42.8036 -10.4509
# 6 -7.8163 -17.1319 5.0287 2.3211 -10.4509 49.0190
#
#
#
# Elastic Compliance Matrix: (Units=1/GPa)
#
#
# Indices 1 2 3 4 5 6 
#
# 1 0.011008 -0.008664 -0.002637 -0.000141 0.000427 -0.000905
# 2 -0.008664 0.027344 0.001003 0.010413 0.000662 0.007720
# 3 -0.002637 0.001003 0.018445 0.010429 0.001273 -0.002185
# 4 -0.000141 0.010413 0.010429 0.041501 -0.002724 0.000001
# 5 0.000427 0.000662 0.001273 -0.002724 0.025392 0.005711
# 6 -0.000905 0.007720 -0.002185 0.000001 0.005711 0.024396
#
#
# Mechanical properties :
#
#
# Convention : Reuss Voigt Hill
#
# Bulk Modulus (GPa) = 27.62413 51.30329 39.46371
# Shear Modulus (GPa) = 27.66262 37.33763 32.50013
#
# Velocity S-wave (km/s) = 3.49752 4.06338 3.79102
# Velocity P-wave (km/s) = 5.34096 6.68592 6.05092
#
# Compressibility (1/GPa) = 0.03620024
#
# Stress axis : x y z
#
# Youngs Moduli (GPa) = 90.84210 36.57138 54.21529
#
# Poissons Ratio (x) = 0.31685 0.14298
# Poissons Ratio (y) = 0.78704 -0.05436
# Poissons Ratio (z) = 0.23958 -0.03667
#
# Static dielectric constant tensor:
#      x y z
#    x 4.874950 0.239780 -0.269300 
#    y 0.239780 4.058630 -0.240310 
#    z -0.269300 -0.240310 4.242900 
# 
# 
# High freq. dielectric constant tensor:
#      x y z
#    x 1.911100 -0.001710 -0.000430 
#    y -0.001710 1.890960 -0.011180 
#    z -0.000430 -0.011180 1.891800 
# 
# From -- ./inp_files/187675.got.cif
#   From: 2010.06.25/outbox.cif.g09.slc.cpg/sg2_94_cif.got.tgz:187675.got - 2010.06.27 13:26:56.
