data_PCOD8028039
_publ_section_title
;
Structure prediction by ZEFSAII (Michael W. Deem and Ramdas Pophale) SiO2 
 PCOD8028039
Probable space group: P -1
;
_chemical_formula_sum "Si O2"
_cell_formula_units_Z 16
_cell_length_a 6.681698
_cell_length_b 20.212904
_cell_length_c 18.873034
_cell_angle_alpha 153.201381
_cell_angle_beta 41.557043
_cell_angle_gamma 127.812247
_cell_volume 749.408840
_symmetry_space_group_name_H-M "P -1"
_symmetry_group_IT_number 2
_symmetry_cell_setting 'triclinic'
loop_
_space_group_symop_operation_xyz
x,y,z
-x,-y,-z
loop_
_atom_site_type_symbol
_atom_site_label
_atom_site_fract_x
_atom_site_fract_y
_atom_site_fract_z
Si Si1 0.268002 0.635686 0.725040
Si Si2 0.320786 0.617840 0.105420
Si Si3 0.357990 0.464012 0.203845
Si Si4 0.436526 0.257909 0.115851
Si Si5 0.368858 0.264946 0.617216
Si Si6 0.624233 0.140376 0.575091
Si Si7 0.668751 0.923480 0.682180
Si Si8 0.158624 0.830775 0.809310
O O1 0.500000 0.500000 0.500000
O O2 0.364477 0.705089 0.837278
O O3 0.207511 0.782351 0.831790
O O4 0.978004 0.562501 0.750379
O O5 0.392969 0.771395 0.262622
O O6 0.954226 0.624981 0.207648
O O7 0.500000 0.500000 0.000000
O O8 0.429686 0.593616 0.973648
O O9 0.479965 0.375863 0.157585
O O10 0.368398 0.639251 0.380873
O O11 0.083685 0.272207 0.251865
O O12 0.539592 0.094564 0.898200
O O13 0.403762 0.220918 0.648582
O O14 0.392952 0.113802 0.419486
O O15 0.973141 0.109036 0.423354
O O16 0.500000 0.000000 0.500000
O O17 0.491011 0.809230 0.663183
O O18 0.000000 0.000000 0.000000
#
# Coordination Sequence:
#
# PCOD8028039 Si02
#       8
#     2   2   2   2   2   2   2   2
#     4  11  27  41  71 104 135 172 228 280 339 408
#     4  11  25  44  68  99 130 177 229 271 336 402
#     4  11  26  42  71  96 136 176 220 275 344 394
#     4  10  25  44  69  98 134 178 221 281 332 401
#     4  11  26  43  67 101 135 177 224 278 331 401
#     4  11  27  41  66 101 138 177 224 279 328 399
#     4  10  25  42  70  95 136 177 226 269 341 396
#     4   9  22  45  66  98 132 178 225 275 335 402
#
# _framework density 21.350162000000001
#
# number of rings (size 3 to 8) (size 9 to 14) (size 15 to 20)
#    0.000    1.500    1.250    0.375   12.250    6.000 
#    0.000    0.000    0.000    0.000    0.000    0.000 
#    0.000    0.000    0.000    0.000    0.000    0.000 
#
# Total GULP energy -198273.344003 kJ/mol
# GULP energy per Si atom -12392.084000 kJ/mol
# Density = 2.130157 g / cm^3
# Si number density = 21.350162 Si / 1000 Ang^3
#
#
#
# Elastic Constant Matrix: (Units=GPa)
#
#
# Indices 1 2 3 4 5 6 
#
# 1 158.0615 67.0317 41.7396 8.7567 3.6403 2.8686
# 2 67.0317 139.6508 39.5770 14.3159 -7.3443 9.1780
# 3 41.7396 39.5770 84.0886 7.6483 10.0642 8.0741
# 4 8.7567 14.3159 7.6483 35.4743 -0.1092 -7.3756
# 5 3.6403 -7.3443 10.0642 -0.1092 37.9886 2.3533
# 6 2.8686 9.1780 8.0741 -7.3756 2.3533 32.6286
#
#
#
# Elastic Compliance Matrix: (Units=1/GPa)
#
#
# Indices 1 2 3 4 5 6 
#
# 1 0.008468 -0.003446 -0.002573 0.000047 -0.000854 0.000934
# 2 -0.003446 0.010357 -0.002987 -0.003266 0.003291 -0.002847
# 3 -0.002573 -0.002987 0.015567 -0.002145 -0.004278 -0.002962
# 4 0.000047 -0.003266 -0.002145 0.031758 -0.000513 0.008661
# 5 -0.000854 0.003291 -0.004278 -0.000513 0.028294 -0.001949
# 6 0.000934 -0.002847 -0.002962 0.008661 -0.001949 0.034198
#
#
# Mechanical properties :
#
#
# Convention : Reuss Voigt Hill
#
# Bulk Modulus (GPa) = 61.05662 75.38861 68.22261
# Shear Modulus (GPa) = 32.87032 36.78180 34.82606
#
# Velocity S-wave (km/s) = 3.92801 4.15515 4.04317
# Velocity P-wave (km/s) = 7.01656 7.64249 7.33620
#
# Compressibility (1/GPa) = 0.01637824
#
# Stress axis : x y z
#
# Youngs Moduli (GPa) = 118.09487 96.55751 64.23993
#
# Poissons Ratio (x) = 0.33278 0.16528
# Poissons Ratio (y) = 0.40700 0.19189
# Poissons Ratio (z) = 0.30384 0.28843
#
# Static dielectric constant tensor:
#      x y z
#    x 4.565250 0.111980 0.107800 
#    y 0.111980 4.084900 -0.013280 
#    z 0.107800 -0.013280 3.857100 
# 
# 
# High freq. dielectric constant tensor:
#      x y z
#    x 1.854530 0.011000 0.002840 
#    y 0.011000 1.849840 0.002640 
#    z 0.002840 0.002640 1.830630 
# 
# From -- ./inp_files/49400.got.cif
#   From: 2010.06.25/outbox.cif.g09.slc.cpg/sg2_25_cif.got.tgz:49400.got - 2010.06.27 13:26:56.
