data_PCOD8028031
_publ_section_title
;
Structure prediction by ZEFSAII (Michael W. Deem and Ramdas Pophale) SiO2 
 PCOD8028031
Probable space group: P -1
;
_chemical_formula_sum "Si O2"
_cell_formula_units_Z 16
_cell_length_a 12.577378
_cell_length_b 5.408604
_cell_length_c 14.363732
_cell_angle_alpha 56.368770
_cell_angle_beta 118.085005
_cell_angle_gamma 113.301393
_cell_volume 705.568900
_symmetry_space_group_name_H-M "P -1"
_symmetry_group_IT_number 2
_symmetry_cell_setting 'triclinic'
loop_
_space_group_symop_operation_xyz
x,y,z
-x,-y,-z
loop_
_atom_site_type_symbol
_atom_site_label
_atom_site_fract_x
_atom_site_fract_y
_atom_site_fract_z
Si Si1 0.533818 0.358186 0.182608
Si Si2 0.072567 0.295032 0.920874
Si Si3 0.885717 0.707681 0.755652
Si Si4 0.722935 0.519204 0.899144
Si Si5 0.248439 0.705160 0.588039
Si Si6 0.591200 0.916637 0.979074
Si Si7 0.964780 0.654095 0.316904
Si Si8 0.821588 0.642924 0.547439
O O1 0.419783 0.461074 0.166289
O O2 0.618812 0.266544 0.317128
O O3 0.474518 0.084036 0.148587
O O4 0.614676 0.594857 0.094235
O O5 0.081125 0.273441 0.818643
O O6 0.001018 0.561864 0.864680
O O7 0.211141 0.355827 0.004137
O O8 0.000000 0.000000 0.000000
O O9 0.793762 0.699679 0.805237
O O10 0.808513 0.531600 0.673916
O O11 0.938043 0.051036 0.671370
O O12 0.719449 0.156076 0.972218
O O13 0.152146 0.422444 0.648490
O O14 0.259526 0.602772 0.505120
O O15 0.209527 0.021716 0.534493
O O16 0.500000 0.000000 0.000000
O O17 0.034787 0.367563 0.412271
#
# Coordination Sequence:
#
# PCOD8028031 Si02
#       8
#     2   2   2   2   2   2   2   2
#     4  10  25  42  68 101 134 183 230 280 346 418
#     4  11  25  39  65 108 142 181 228 274 353 429
#     4  11  25  44  69 100 138 185 231 286 356 412
#     4  11  24  42  68  97 145 180 221 284 346 424
#     4  12  27  43  76 100 139 181 241 289 351 408
#     4   9  22  42  63  94 140 176 224 273 343 405
#     4  11  25  42  71 105 138 180 232 289 358 411
#     4  11  26  48  69 102 138 183 234 303 346 403
#
# _framework density 22.676736999999999
#
# number of rings (size 3 to 8) (size 9 to 14) (size 15 to 20)
#    0.000    1.250    2.500    1.125   15.750    0.000 
#    0.000    1.250    0.000    0.000    0.000    0.000 
#    0.000    0.000    0.000    0.000    0.000    0.000 
#
# Total GULP energy -198222.200399 kJ/mol
# GULP energy per Si atom -12388.887525 kJ/mol
# Density = 2.262512 g / cm^3
# Si number density = 22.676737 Si / 1000 Ang^3
#
#
#
# Elastic Constant Matrix: (Units=GPa)
#
#
# Indices 1 2 3 4 5 6 
#
# 1 59.2841 13.4295 23.9545 -2.3176 7.1518 -2.1806
# 2 13.4295 112.3463 30.3399 4.9178 7.8690 -6.7521
# 3 23.9545 30.3399 125.0235 25.2694 17.8365 -7.7320
# 4 -2.3176 4.9178 25.2694 45.3481 -4.2082 -5.7239
# 5 7.1518 7.8690 17.8365 -4.2082 29.1909 7.6026
# 6 -2.1806 -6.7521 -7.7320 -5.7239 7.6026 31.8676
#
#
#
# Elastic Compliance Matrix: (Units=1/GPa)
#
#
# Indices 1 2 3 4 5 6 
#
# 1 0.019008 -0.001221 -0.003611 0.003082 -0.001988 0.001194
# 2 -0.001221 0.009765 -0.001745 -0.000066 -0.001792 0.001978
# 3 -0.003611 -0.001745 0.011758 -0.006895 -0.007552 0.002799
# 4 0.003082 -0.000066 -0.006895 0.026915 0.006910 0.001710
# 5 -0.001988 -0.001792 -0.007552 0.006910 0.043851 -0.011568
# 6 0.001194 0.001978 0.002799 0.001710 -0.011568 0.035627
#
#
# Mechanical properties :
#
#
# Convention : Reuss Voigt Hill
#
# Bulk Modulus (GPa) = 36.52590 48.01131 42.26860
# Shear Modulus (GPa) = 29.55017 36.54331 33.04674
#
# Velocity S-wave (km/s) = 3.61377 4.01869 3.82160
# Velocity P-wave (km/s) = 5.79264 6.53844 6.17680
#
# Compressibility (1/GPa) = 0.02737783
#
# Stress axis : x y z
#
# Youngs Moduli (GPa) = 52.60979 102.40233 85.04920
#
# Poissons Ratio (x) = 0.12502 0.30713
# Poissons Ratio (y) = 0.06423 0.14838
# Poissons Ratio (z) = 0.18999 0.17865
#
# Static dielectric constant tensor:
#      x y z
#    x 3.968480 -0.239640 -0.099640 
#    y -0.239640 4.559530 0.032390 
#    z -0.099640 0.032390 4.416320 
# 
# 
# High freq. dielectric constant tensor:
#      x y z
#    x 1.875910 -0.016550 -0.004470 
#    y -0.016550 1.897920 0.011310 
#    z -0.004470 0.011310 1.900040 
# 
# From -- ./inp_files/525563.got.cif
#   From: 2010.06.25/outbox.cif.g09.slc.cpg/sg2_263_cif.got.tgz:525563.got - 2010.06.27 13:26:56.
