data_PCOD8028705
_publ_section_title
;
Structure prediction by ZEFSAII (Michael W. Deem and Ramdas Pophale) SiO2 
 PCOD8028705
Probable space group: P -1
;
_chemical_formula_sum "Si O2"
_cell_formula_units_Z 16
_cell_length_a 12.084319
_cell_length_b 9.417320
_cell_length_c 8.523969
_cell_angle_alpha 105.773479
_cell_angle_beta 126.988707
_cell_angle_gamma 65.528724
_cell_volume 704.882104
_symmetry_space_group_name_H-M "P -1"
_symmetry_group_IT_number 2
_symmetry_cell_setting 'triclinic'
loop_
_space_group_symop_operation_xyz
x,y,z
-x,-y,-z
loop_
_atom_site_type_symbol
_atom_site_label
_atom_site_fract_x
_atom_site_fract_y
_atom_site_fract_z
Si Si1 0.071776 0.125556 0.650977
Si Si2 0.857491 0.251713 0.015537
Si Si3 0.884717 0.414917 0.408008
Si Si4 0.152842 0.079551 0.059840
Si Si5 0.574292 0.806318 0.670426
Si Si6 0.415862 0.349068 0.695420
Si Si7 0.604874 0.925367 0.210282
Si Si8 0.600163 0.498112 0.736471
O O1 0.085833 0.119368 0.844900
O O2 0.225501 0.109371 0.693665
O O3 0.952993 0.288078 0.558758
O O4 0.000000 0.000000 0.500000
O O5 0.764900 0.371939 0.838564
O O6 0.030144 0.179931 0.105964
O O7 0.838650 0.342570 0.191219
O O8 0.795385 0.106808 0.926137
O O9 0.747410 0.534813 0.412339
O O10 0.000000 0.500000 0.500000
O O11 0.291590 0.131627 0.216626
O O12 0.541803 0.747367 0.458057
O O13 0.612047 0.672179 0.799228
O O14 0.431647 0.949155 0.642165
O O15 0.432408 0.230588 0.819119
O O16 0.525016 0.454467 0.818072
O O17 0.500000 0.000000 0.000000
O O18 0.500000 0.500000 0.500000
#
# Coordination Sequence:
#
# PCOD8028705 Si02
#       8
#     2   2   2   2   2   2   2   2
#     4  12  27  45  71 107 143 190 236 300 358 426
#     4  11  26  46  73 103 146 187 238 297 356 433
#     4  12  26  47  71 104 143 182 239 292 361 423
#     4  11  25  46  74 103 139 192 244 289 361 425
#     4  11  25  46  73 105 138 194 238 293 359 428
#     4  11  26  48  73 101 144 189 236 299 362 429
#     4  12  26  46  72 106 145 187 244 293 359 435
#     4  10  26  45  68 109 139 187 236 297 362 423
#
# _framework density 22.698833
#
# number of rings (size 3 to 8) (size 9 to 14) (size 15 to 20)
#    0.000    0.750    3.750    1.875    8.750    3.000 
#    0.000    0.000    0.000    0.000    0.000    0.000 
#    0.000    0.000    0.000    0.000    0.000    0.000 
#
# Total GULP energy -198372.365880 kJ/mol
# GULP energy per Si atom -12398.272867 kJ/mol
# Density = 2.264717 g / cm^3
# Si number density = 22.698833 Si / 1000 Ang^3
#
#
#
# Elastic Constant Matrix: (Units=GPa)
#
#
# Indices 1 2 3 4 5 6 
#
# 1 111.0913 42.0840 6.7585 6.0131 5.2831 19.1101
# 2 42.0840 134.1575 -0.1158 -26.7494 4.6976 13.7777
# 3 6.7585 -0.1158 39.8659 -17.1469 -2.9308 -5.1625
# 4 6.0131 -26.7494 -17.1469 37.8109 4.3033 -3.4072
# 5 5.2831 4.6976 -2.9308 4.3033 32.4183 5.0993
# 6 19.1101 13.7777 -5.1625 -3.4072 5.0993 52.0210
#
#
#
# Elastic Compliance Matrix: (Units=1/GPa)
#
#
# Indices 1 2 3 4 5 6 
#
# 1 0.012743 -0.005400 -0.006775 -0.009333 0.000046 -0.004539
# 2 -0.005400 0.011574 0.006058 0.012058 -0.001928 0.000498
# 3 -0.006775 0.006058 0.036729 0.022611 -0.000406 0.006050
# 4 -0.009333 0.012058 0.022611 0.047898 -0.005509 0.006156
# 5 0.000046 -0.001928 -0.000406 -0.005509 0.032297 -0.003073
# 6 -0.004539 0.000498 0.006050 0.006156 -0.003073 0.022063
#
#
# Mechanical properties :
#
#
# Convention : Reuss Voigt Hill
#
# Bulk Modulus (GPa) = 20.48618 42.50755 31.49687
# Shear Modulus (GPa) = 26.06789 40.20922 33.13855
#
# Velocity S-wave (km/s) = 3.39252 4.21339 3.82504
# Velocity P-wave (km/s) = 4.93866 6.51442 5.78049
#
# Compressibility (1/GPa) = 0.04881338
#
# Stress axis : x y z
#
# Youngs Moduli (GPa) = 78.47395 86.40392 27.22637
#
# Poissons Ratio (x) = 0.46654 0.18445
# Poissons Ratio (y) = 0.42373 -0.16494
# Poissons Ratio (z) = 0.53164 -0.52345
#
# Static dielectric constant tensor:
#      x y z
#    x 4.594820 0.091240 -0.037180 
#    y 0.091240 5.009930 0.009870 
#    z -0.037180 0.009870 3.885320 
# 
# 
# High freq. dielectric constant tensor:
#      x y z
#    x 1.909170 0.008840 0.004590 
#    y 0.008840 1.920720 -0.007250 
#    z 0.004590 -0.007250 1.888180 
# 
# From -- ./inp_files/207313.got.cif
#   From: 2010.06.25/outbox.cif.g09.slc.cpg/sg2_104_cif.got.tgz:207313.got - 2010.06.27 13:26:56.
