data_PCOD8028091
_publ_section_title
;
Structure prediction by ZEFSAII (Michael W. Deem and Ramdas Pophale) SiO2 
 PCOD8028091
Probable space group: P -1
;
_chemical_formula_sum "Si O2"
_cell_formula_units_Z 14
_cell_length_a 4.871541
_cell_length_b 8.212205
_cell_length_c 16.185516
_cell_angle_alpha 70.746316
_cell_angle_beta 67.230513
_cell_angle_gamma 78.771428
_cell_volume 561.985819
_symmetry_space_group_name_H-M "P -1"
_symmetry_group_IT_number 2
_symmetry_cell_setting 'triclinic'
loop_
_space_group_symop_operation_xyz
x,y,z
-x,-y,-z
loop_
_atom_site_type_symbol
_atom_site_label
_atom_site_fract_x
_atom_site_fract_y
_atom_site_fract_z
Si Si1 0.790496 0.326925 0.140218
Si Si2 0.085725 0.995730 0.225789
Si Si3 0.964876 0.315206 0.495694
Si Si4 0.713506 0.800222 0.676232
Si Si5 0.840564 0.363125 0.942170
Si Si6 0.556166 0.842610 0.081565
Si Si7 0.615571 0.867483 0.398952
O O1 0.505217 0.328435 0.233124
O O2 0.016905 0.459731 0.127605
O O3 0.963352 0.136033 0.148534
O O4 0.694772 0.375154 0.048996
O O5 0.393030 0.895380 0.177650
O O6 0.839459 0.857368 0.294784
O O7 0.124495 0.095101 0.290528
O O8 0.044599 0.312873 0.388894
O O9 0.187446 0.169048 0.536382
O O10 0.000000 0.500000 0.500000
O O11 0.375550 0.725829 0.442302
O O12 0.534054 0.936833 0.613299
O O13 0.096294 0.204083 0.933529
O O14 0.581342 0.326974 0.913454
O O15 0.500000 0.000000 0.000000
#
# Coordination Sequence:
#
# PCOD8028091 Si02
#       7
#     2   2   2   2   2   2   2
#     4  10  25  43  69 102 139 183 227 277 345 396
#     4  11  25  43  72 102 138 180 231 279 331 412
#     4  12  27  47  72 102 138 175 224 285 343 403
#     4  11  25  45  74  99 139 177 234 272 341 413
#     4  11  26  45  69  99 142 183 226 284 335 399
#     4  12  25  43  68  98 138 179 232 277 336 390
#     4  11  25  47  70 100 135 181 226 271 341 410
#
# _framework density 24.911660999999999
#
# number of rings (size 3 to 8) (size 9 to 14) (size 15 to 20)
#    0.000    0.857    2.857    2.571   10.000    3.429 
#    0.000    0.000    0.000    0.000    0.000    0.000 
#    0.000    0.000    0.000    0.000    0.000    0.000 
#
# Total GULP energy -173640.653892 kJ/mol
# GULP energy per Si atom -12402.903849 kJ/mol
# Density = 2.485496 g / cm^3
# Si number density = 24.911661 Si / 1000 Ang^3
#
#
#
# Elastic Constant Matrix: (Units=GPa)
#
#
# Indices 1 2 3 4 5 6 
#
# 1 70.8942 -1.1770 23.0129 2.8820 -18.1119 12.6807
# 2 -1.1770 73.1797 51.5571 25.6405 -25.7709 13.8745
# 3 23.0129 51.5571 118.1814 5.0959 -32.5560 11.3170
# 4 2.8820 25.6405 5.0959 39.4271 2.9961 -2.6010
# 5 -18.1119 -25.7709 -32.5560 2.9961 50.9244 -1.9561
# 6 12.6807 13.8745 11.3170 -2.6010 -1.9561 36.6728
#
#
#
# Elastic Compliance Matrix: (Units=1/GPa)
#
#
# Indices 1 2 3 4 5 6 
#
# 1 0.022108 0.015659 -0.006087 -0.012727 0.012186 -0.011943
# 2 0.015659 0.046523 -0.014215 -0.032478 0.021175 -0.019803
# 3 -0.006087 -0.014215 0.015187 0.007947 0.000012 0.003360
# 4 -0.012727 -0.032478 0.007947 0.048868 -0.018114 0.016735
# 5 0.012186 0.021175 0.000012 -0.018114 0.035314 -0.011630
# 6 -0.011943 -0.019803 0.003360 0.016735 -0.011630 0.038420
#
#
# Mechanical properties :
#
#
# Convention : Reuss Voigt Hill
#
# Bulk Modulus (GPa) = 13.41705 45.44903 29.43304
# Shear Modulus (GPa) = 20.78579 37.99568 29.39074
#
# Velocity S-wave (km/s) = 2.89170 3.90964 3.43855
# Velocity P-wave (km/s) = 4.06777 6.21804 5.25408
#
# Compressibility (1/GPa) = 0.07453203
#
# Stress axis : x y z
#
# Youngs Moduli (GPa) = 45.23199 21.49491 65.84573
#
# Poissons Ratio (x) = -0.33659 0.40080
# Poissons Ratio (y) = -0.70828 0.93599
# Poissons Ratio (z) = 0.27532 0.30555
#
# Static dielectric constant tensor:
#      x y z
#    x 4.641540 -0.092490 -0.242500 
#    y -0.092490 4.282770 -0.131370 
#    z -0.242500 -0.131370 4.628090 
# 
# 
# High freq. dielectric constant tensor:
#      x y z
#    x 2.002200 -0.005350 -0.016570 
#    y -0.005350 1.975470 -0.006100 
#    z -0.016570 -0.006100 1.999500 
# 
# From -- ./inp_files/480204.got.cif
#   From: 2010.06.25/outbox.cif.g09.slc.cpg/sg2_241_cif.got.tgz:480204.got - 2010.06.27 13:26:56.
