data_PCOD8028422
_publ_section_title
;
Structure prediction by ZEFSAII (Michael W. Deem and Ramdas Pophale) SiO2 
 PCOD8028422
Probable space group: P -1
;
_chemical_formula_sum "Si O2"
_cell_formula_units_Z 14
_cell_length_a 22.714368
_cell_length_b 16.500874
_cell_length_c 8.284257
_cell_angle_alpha 136.641105
_cell_angle_beta 34.782972
_cell_angle_gamma 159.185048
_cell_volume 616.652675
_symmetry_space_group_name_H-M "P -1"
_symmetry_group_IT_number 2
_symmetry_cell_setting 'triclinic'
loop_
_space_group_symop_operation_xyz
x,y,z
-x,-y,-z
loop_
_atom_site_type_symbol
_atom_site_label
_atom_site_fract_x
_atom_site_fract_y
_atom_site_fract_z
Si Si1 0.697769 0.551097 0.352466
Si Si2 0.003843 0.683499 0.988159
Si Si3 0.414902 0.143160 0.603128
Si Si4 0.537622 0.647671 0.902877
Si Si5 0.658397 0.172701 0.038599
Si Si6 0.879870 0.760537 0.901967
Si Si7 0.806410 0.091254 0.767974
O O1 0.490293 0.269308 0.442166
O O2 0.666009 0.654974 0.618124
O O3 0.775613 0.611604 0.084039
O O4 0.866527 0.665868 0.261472
O O5 0.182555 0.869937 0.721513
O O6 0.095367 0.764652 0.078779
O O7 0.875697 0.440049 0.879034
O O8 0.555996 0.171784 0.383222
O O9 0.434412 0.270286 0.866073
O O10 0.630315 0.823056 0.810541
O O11 0.300215 0.390028 0.036044
O O12 0.694551 0.088612 0.929451
O O13 0.500000 0.000000 0.000000
O O14 0.022285 0.796667 0.568909
O O15 0.000000 0.000000 0.000000
#
# Coordination Sequence:
#
# PCOD8028422 Si02
#       7
#     2   2   2   2   2   2   2
#     4  11  24  42  70 104 141 176 231 283 336 412
#     4  10  25  46  73 100 138 186 230 282 343 413
#     4  10  25  46  69  98 137 185 229 280 343 408
#     4  11  25  44  69 102 142 185 226 282 343 414
#     4  11  26  45  73 103 139 175 236 292 342 405
#     4  12  26  41  69 103 145 183 224 284 348 405
#     4  11  26  47  70 102 141 184 232 279 347 411
#
# _framework density 22.703219000000001
#
# number of rings (size 3 to 8) (size 9 to 14) (size 15 to 20)
#    0.000    1.143    1.429    3.000    8.000    6.286 
#    0.000    0.000    0.000    0.000    0.000    0.000 
#    0.000    0.000    0.000    0.000    0.000    0.000 
#
# Total GULP energy -173602.739905 kJ/mol
# GULP energy per Si atom -12400.195707 kJ/mol
# Density = 2.265155 g / cm^3
# Si number density = 22.703219 Si / 1000 Ang^3
#
#
#
# Elastic Constant Matrix: (Units=GPa)
#
#
# Indices 1 2 3 4 5 6 
#
# 1 120.5386 57.1422 36.4612 -2.9215 -14.6722 -24.2595
# 2 57.1422 160.4959 39.8774 -25.1068 -2.1009 -19.6966
# 3 36.4612 39.8774 100.0157 -9.4212 3.0599 -31.3322
# 4 -2.9215 -25.1068 -9.4212 33.7977 -8.7596 2.4808
# 5 -14.6722 -2.1009 3.0599 -8.7596 46.2929 1.2353
# 6 -24.2595 -19.6966 -31.3322 2.4808 1.2353 42.1579
#
#
#
# Elastic Compliance Matrix: (Units=1/GPa)
#
#
# Indices 1 2 3 4 5 6 
#
# 1 0.011586 -0.003377 -0.001988 -0.001477 0.003275 0.003603
# 2 -0.003377 0.008833 -0.001536 0.005930 0.000536 0.000677
# 3 -0.001988 -0.001536 0.014257 0.001617 -0.001568 0.008685
# 4 -0.001477 0.005930 0.001617 0.035934 0.006472 0.000819
# 5 0.003275 0.000536 -0.001568 0.006472 0.023995 -0.000114
# 6 0.003603 0.000677 0.008685 0.000819 -0.000114 0.032520
#
#
# Mechanical properties :
#
#
# Convention : Reuss Voigt Hill
#
# Bulk Modulus (GPa) = 47.90916 72.00130 59.95523
# Shear Modulus (GPa) = 33.81020 40.95433 37.38226
#
# Velocity S-wave (km/s) = 3.86323 4.25184 4.06219
# Velocity P-wave (km/s) = 6.40684 7.47577 6.96185
#
# Compressibility (1/GPa) = 0.02087283
#
# Stress axis : x y z
#
# Youngs Moduli (GPa) = 86.30840 113.21690 70.14264
#
# Poissons Ratio (x) = 0.38236 0.13944
# Poissons Ratio (y) = 0.29149 0.10775
# Poissons Ratio (z) = 0.17158 0.17392
#
# Static dielectric constant tensor:
#      x y z
#    x 4.004650 -0.205320 -0.046760 
#    y -0.205320 4.332410 -0.274500 
#    z -0.046760 -0.274500 4.471080 
# 
# 
# High freq. dielectric constant tensor:
#      x y z
#    x 1.889540 -0.010390 -0.007000 
#    y -0.010390 1.908030 -0.010280 
#    z -0.007000 -0.010280 1.909220 
# 
# From -- ./inp_files/355031.got.cif
#   From: 2010.06.25/outbox.cif.g09.slc.cpg/sg2_178_cif.got.tgz:355031.got - 2010.06.27 13:26:56.
