data_PCOD8028281
_publ_section_title
;
Structure prediction by ZEFSAII (Michael W. Deem and Ramdas Pophale) SiO2 
 PCOD8028281
Probable space group: P -1
;
_chemical_formula_sum "Si O2"
_cell_formula_units_Z 16
_cell_length_a 11.696227
_cell_length_b 14.414433
_cell_length_c 13.273259
_cell_angle_alpha 65.285225
_cell_angle_beta 92.635572
_cell_angle_gamma 149.534249
_cell_volume 753.216948
_symmetry_space_group_name_H-M "P -1"
_symmetry_group_IT_number 2
_symmetry_cell_setting 'triclinic'
loop_
_space_group_symop_operation_xyz
x,y,z
-x,-y,-z
loop_
_atom_site_type_symbol
_atom_site_label
_atom_site_fract_x
_atom_site_fract_y
_atom_site_fract_z
Si Si1 0.473407 0.729387 0.562177
Si Si2 0.935684 0.707302 0.098715
Si Si3 0.200396 0.690150 0.642156
Si Si4 0.543972 0.653986 0.403931
Si Si5 0.425923 0.200389 0.020811
Si Si6 0.825709 0.804104 0.918742
Si Si7 0.827398 0.436116 0.091472
Si Si8 0.871304 0.616969 0.674675
O O1 0.376489 0.578460 0.722078
O O2 0.212511 0.604115 0.604376
O O3 0.443887 0.642109 0.498130
O O4 0.814688 0.057734 0.447479
O O5 0.011282 0.690324 0.019045
O O6 0.904964 0.796102 0.017330
O O7 0.239367 0.957115 0.066678
O O8 0.251115 0.691343 0.755571
O O9 0.917918 0.534721 0.686679
O O10 0.500000 0.000000 0.500000
O O11 0.500000 0.500000 0.500000
O O12 0.338086 0.507378 0.364017
O O13 0.902592 0.975315 0.252665
O O14 0.189496 0.093613 0.088584
O O15 0.534245 0.236428 0.111129
O O16 0.701107 0.476488 0.839620
O O17 0.500000 0.500000 0.000000
O O18 0.000000 0.500000 0.000000
#
# Coordination Sequence:
#
# PCOD8028281 Si02
#       8
#     2   2   2   2   2   2   2   2
#     4  10  25  45  68  97 137 179 219 279 340 393
#     4  11  25  43  67 103 133 175 229 272 342 401
#     4   9  21  43  69  98 132 176 221 268 339 401
#     4  12  28  44  67 104 135 175 235 274 330 407
#     4  12  24  43  72  98 139 176 222 289 331 395
#     4  12  25  44  70  97 136 183 225 277 341 399
#     4  11  23  43  69  99 134 174 225 276 335 401
#     4  11  24  45  70  98 135 178 226 277 338 399
#
# _framework density 21.24222
#
# number of rings (size 3 to 8) (size 9 to 14) (size 15 to 20)
#    0.000    1.000    3.750    1.875    3.500    5.500 
#    0.000    0.000    0.000    0.000    0.000    0.000 
#    0.000    0.000    0.000    0.000    0.000    0.000 
#
# Total GULP energy -198285.173634 kJ/mol
# GULP energy per Si atom -12392.823352 kJ/mol
# Density = 2.119387 g / cm^3
# Si number density = 21.242220 Si / 1000 Ang^3
#
#
#
# Elastic Constant Matrix: (Units=GPa)
#
#
# Indices 1 2 3 4 5 6 
#
# 1 148.8914 40.4412 43.1659 19.2409 7.4327 -3.9686
# 2 40.4412 116.5002 30.0253 0.5079 11.9714 -11.1277
# 3 43.1659 30.0253 106.3124 -6.4051 1.7834 9.7599
# 4 19.2409 0.5079 -6.4051 30.0317 -1.7835 0.8063
# 5 7.4327 11.9714 1.7834 -1.7835 35.0360 15.4740
# 6 -3.9686 -11.1277 9.7599 0.8063 15.4740 27.3892
#
#
#
# Elastic Compliance Matrix: (Units=1/GPa)
#
#
# Indices 1 2 3 4 5 6 
#
# 1 0.009621 -0.001328 -0.004356 -0.007430 -0.003869 0.004811
# 2 -0.001328 0.011892 -0.003720 -0.000929 -0.008376 0.010724
# 3 -0.004356 -0.003720 0.013501 0.006421 0.006648 -0.010898
# 4 -0.007430 -0.000929 0.006421 0.040150 0.007709 -0.009279
# 5 -0.003869 -0.008376 0.006648 0.007709 0.046872 -0.033041
# 6 0.004811 0.010724 -0.010898 -0.009279 -0.033041 0.064389
#
#
# Mechanical properties :
#
#
# Convention : Reuss Voigt Hill
#
# Bulk Modulus (GPa) = 61.69684 66.55209 64.12447
# Shear Modulus (GPa) = 23.73768 35.69613 29.71690
#
# Velocity S-wave (km/s) = 3.34649 4.10376 3.74432
# Velocity P-wave (km/s) = 6.63623 7.33843 6.99614
#
# Compressibility (1/GPa) = 0.01620828
#
# Stress axis : x y z
#
# Youngs Moduli (GPa) = 103.93578 84.08748 74.06723
#
# Poissons Ratio (x) = 0.11164 0.32264
# Poissons Ratio (y) = 0.13799 0.27550
# Poissons Ratio (z) = 0.45274 0.31277
#
# Static dielectric constant tensor:
#      x y z
#    x 4.873950 -0.301050 -0.318980 
#    y -0.301050 3.927490 0.097360 
#    z -0.318980 0.097360 4.068700 
# 
# 
# High freq. dielectric constant tensor:
#      x y z
#    x 1.852950 -0.009020 0.004910 
#    y -0.009020 1.823780 0.003940 
#    z 0.004910 0.003940 1.845200 
# 
# From -- ./inp_files/433835.got.cif
#   From: 2010.06.25/outbox.cif.g09.slc.cpg/sg2_217_cif.got.tgz:433835.got - 2010.06.27 13:26:56.
