data_PCOD8028654
_publ_section_title
;
Structure prediction by ZEFSAII (Michael W. Deem and Ramdas Pophale) SiO2 
 PCOD8028654
Probable space group: P -1
;
_chemical_formula_sum "Si O2"
_cell_formula_units_Z 14
_cell_length_a 16.203580
_cell_length_b 24.187080
_cell_length_c 5.374677
_cell_angle_alpha 84.752092
_cell_angle_beta 93.089403
_cell_angle_gamma 18.469719
_cell_volume 594.829816
_symmetry_space_group_name_H-M "P -1"
_symmetry_group_IT_number 2
_symmetry_cell_setting 'triclinic'
loop_
_space_group_symop_operation_xyz
x,y,z
-x,-y,-z
loop_
_atom_site_type_symbol
_atom_site_label
_atom_site_fract_x
_atom_site_fract_y
_atom_site_fract_z
Si Si1 0.274813 0.015229 0.743535
Si Si2 0.918947 0.981926 0.238671
Si Si3 0.059657 0.397837 0.044010
Si Si4 0.266108 0.777192 0.879451
Si Si5 0.364170 0.040530 0.133045
Si Si6 0.012283 0.375519 0.530312
Si Si7 0.896407 0.343225 0.299709
O O1 0.272661 0.950225 0.793264
O O2 0.023308 0.199885 0.437314
O O3 0.591011 0.834981 0.796020
O O4 0.197552 0.096060 0.954949
O O5 0.137485 0.842254 0.565859
O O6 0.081210 0.874555 0.044334
O O7 0.713587 0.168667 0.130963
O O8 0.878262 0.489759 0.212342
O O9 0.921174 0.462126 0.739878
O O10 0.000000 0.500000 0.000000
O O11 0.578043 0.546453 0.046001
O O12 0.129460 0.221384 0.198267
O O13 0.648447 0.832940 0.396538
O O14 0.500000 0.000000 0.000000
O O15 0.907718 0.378050 0.524843
#
# Coordination Sequence:
#
# PCOD8028654 Si02
#       7
#     2   2   2   2   2   2   2
#     4  11  25  41  70  99 139 179 228 279 343 397
#     4  10  25  51  67 100 131 179 223 299 340 406
#     4  11  25  43  63 101 137 182 221 277 326 408
#     4  10  26  48  74  93 136 173 236 284 353 399
#     4  11  22  42  63 100 149 181 216 275 336 408
#     4  11  23  41  65  94 141 176 221 269 332 404
#     4  12  24  41  70 104 128 191 224 280 340 408
#
# _framework density 23.536142999999999
#
# number of rings (size 3 to 8) (size 9 to 14) (size 15 to 20)
#    0.000    1.143    2.857    2.571    6.000    1.143 
#    5.143    0.000    0.000    0.000    0.000    0.000 
#    0.000    0.000    0.000    0.000    0.000    0.000 
#
# Total GULP energy -173462.631724 kJ/mol
# GULP energy per Si atom -12390.187980 kJ/mol
# Density = 2.348257 g / cm^3
# Si number density = 23.536143 Si / 1000 Ang^3
#
#
#
# Elastic Constant Matrix: (Units=GPa)
#
#
# Indices 1 2 3 4 5 6 
#
# 1 116.3163 -5.1646 20.5697 20.5482 -1.4358 3.9176
# 2 -5.1646 31.0531 18.7197 1.8968 -6.7855 4.0882
# 3 20.5697 18.7197 104.0559 21.0508 -5.9881 1.2548
# 4 20.5482 1.8968 21.0508 41.7963 0.2923 -3.1298
# 5 -1.4358 -6.7855 -5.9881 0.2923 33.7392 1.8023
# 6 3.9176 4.0882 1.2548 -3.1298 1.8023 30.3600
#
#
#
# Elastic Compliance Matrix: (Units=1/GPa)
#
#
# Indices 1 2 3 4 5 6 
#
# 1 0.009888 0.003370 -0.001592 -0.004381 0.000970 -0.002173
# 2 0.003370 0.039470 -0.007225 -0.000301 0.007117 -0.005905
# 3 -0.001592 -0.007225 0.012291 -0.005076 0.000699 0.000106
# 4 -0.004381 -0.000301 -0.005076 0.028953 -0.001607 0.003896
# 5 0.000970 0.007117 0.000699 -0.001607 0.031418 -0.003143
# 6 -0.002173 -0.005905 0.000106 0.003896 -0.003143 0.034597
#
#
# Mechanical properties :
#
#
# Convention : Reuss Voigt Hill
#
# Bulk Modulus (GPa) = 19.70317 35.51945 27.61131
# Shear Modulus (GPa) = 27.11068 35.66580 31.38824
#
# Velocity S-wave (km/s) = 3.39761 3.89699 3.65584
# Velocity P-wave (km/s) = 4.87661 5.94751 5.43848
#
# Compressibility (1/GPa) = 0.05075325
#
# Stress axis : x y z
#
# Youngs Moduli (GPa) = 101.13583 25.33578 81.36195
#
# Poissons Ratio (x) = -0.08539 0.12957
# Poissons Ratio (y) = -0.34084 0.58786
# Poissons Ratio (z) = 0.16106 0.18306
#
# Static dielectric constant tensor:
#      x y z
#    x 4.148320 0.358830 -0.132740 
#    y 0.358830 4.621320 0.134130 
#    z -0.132740 0.134130 4.736120 
# 
# 
# High freq. dielectric constant tensor:
#      x y z
#    x 1.924670 0.017830 -0.008660 
#    y 0.017830 1.912770 0.011460 
#    z -0.008660 0.011460 1.947700 
# 
# From -- ./inp_files/101071.got.cif
#   From: 2010.06.25/outbox.cif.g09.slc.cpg/sg2_51_cif.got.tgz:101071.got - 2010.06.27 13:26:56.
