data_PCOD8028011
_publ_section_title
;
Structure prediction by ZEFSAII (Michael W. Deem and Ramdas Pophale) SiO2 
 PCOD8028011
Probable space group: P -1
;
_chemical_formula_sum "Si O2"
_cell_formula_units_Z 16
_cell_length_a 11.493029
_cell_length_b 12.596242
_cell_length_c 8.618309
_cell_angle_alpha 51.777133
_cell_angle_beta 54.751536
_cell_angle_gamma 88.034630
_cell_volume 691.782006
_symmetry_space_group_name_H-M "P -1"
_symmetry_group_IT_number 2
_symmetry_cell_setting 'triclinic'
loop_
_space_group_symop_operation_xyz
x,y,z
-x,-y,-z
loop_
_atom_site_type_symbol
_atom_site_label
_atom_site_fract_x
_atom_site_fract_y
_atom_site_fract_z
Si Si1 0.220963 0.624244 0.465972
Si Si2 0.855362 0.525852 0.823278
Si Si3 0.827671 0.031770 0.349076
Si Si4 0.202621 0.296136 0.816164
Si Si5 0.673197 0.213502 0.440069
Si Si6 0.416955 0.632884 0.045752
Si Si7 0.636730 0.830729 0.417264
Si Si8 0.729291 0.718933 0.886617
O O1 0.230483 0.469177 0.634812
O O2 0.270472 0.737177 0.472037
O O3 0.351399 0.714001 0.145794
O O4 0.041796 0.583509 0.580024
O O5 0.747809 0.517211 0.761167
O O6 0.850419 0.649678 0.831858
O O7 0.780388 0.359964 0.114055
O O8 0.705634 0.076316 0.488468
O O9 0.780623 0.989939 0.240421
O O10 0.812468 0.885917 0.588549
O O11 0.010936 0.173150 0.082782
O O12 0.286005 0.267161 0.628074
O O13 0.288408 0.271023 0.924344
O O14 0.475978 0.145457 0.643237
O O15 0.514594 0.747012 0.729310
O O16 0.546634 0.596400 0.068240
#
# Coordination Sequence:
#
# PCOD8028011 Si02
#       8
#     2   2   2   2   2   2   2   2
#     4  12  24  40  70 104 132 171 224 276 333 384
#     4  11  22  43  66 100 134 172 220 272 332 390
#     4  11  24  46  66  97 138 176 218 269 334 398
#     4  12  24  42  69 101 134 175 222 272 329 397
#     4  11  22  44  70  99 132 173 223 275 329 393
#     4  10  25  42  63 100 135 175 215 279 325 388
#     4  10  25  44  66  97 135 181 220 268 330 397
#     4  11  24  43  68  99 134 174 220 272 334 390
#
# _framework density 23.128672999999999
#
# number of rings (size 3 to 8) (size 9 to 14) (size 15 to 20)
#    0.000    1.000    2.500    3.750    7.000    1.000 
#    0.000   10.625    0.000    0.000    0.000    0.000 
#    0.000    0.000    0.000    0.000    0.000    0.000 
#
# Total GULP energy -198364.634931 kJ/mol
# GULP energy per Si atom -12397.789683 kJ/mol
# Density = 2.307603 g / cm^3
# Si number density = 23.128673 Si / 1000 Ang^3
#
#
#
# Elastic Constant Matrix: (Units=GPa)
#
#
# Indices 1 2 3 4 5 6 
#
# 1 92.0404 20.2271 16.8010 2.2997 -22.7856 10.0464
# 2 20.2271 103.0892 15.0254 10.4075 -3.8621 0.8470
# 3 16.8010 15.0254 50.6086 16.8228 -1.2773 -4.0350
# 4 2.2997 10.4075 16.8228 35.7874 -5.7987 -5.6145
# 5 -22.7856 -3.8621 -1.2773 -5.7987 18.5196 3.1032
# 6 10.0464 0.8470 -4.0350 -5.6145 3.1032 36.6622
#
#
#
# Elastic Compliance Matrix: (Units=1/GPa)
#
#
# Indices 1 2 3 4 5 6 
#
# 1 0.020268 -0.002362 -0.008075 0.006374 0.027175 -0.007712
# 2 -0.002362 0.010582 -0.001589 -0.002435 -0.001569 -0.000012
# 3 -0.008075 -0.001589 0.027361 -0.013353 -0.013288 0.004341
# 4 0.006374 -0.002435 -0.013353 0.037605 0.018007 0.001075
# 5 0.027175 -0.001569 -0.013288 0.018007 0.094187 -0.014087
# 6 -0.007712 -0.000012 0.004341 0.001075 -0.014087 0.031224
#
#
# Mechanical properties :
#
#
# Convention : Reuss Voigt Hill
#
# Bulk Modulus (GPa) = 29.27387 38.87169 34.07278
# Shear Modulus (GPa) = 19.48062 31.10617 25.29340
#
# Velocity S-wave (km/s) = 2.90534 3.67129 3.31054
# Velocity P-wave (km/s) = 4.89276 5.90037 5.42003
#
# Compressibility (1/GPa) = 0.03416016
#
# Stress axis : x y z
#
# Youngs Moduli (GPa) = 49.33937 94.49570 36.54792
#
# Poissons Ratio (x) = 0.22318 0.29512
# Poissons Ratio (y) = 0.11653 0.05807
# Poissons Ratio (z) = 0.39841 0.15015
#
# Static dielectric constant tensor:
#      x y z
#    x 4.710060 0.390360 -0.260660 
#    y 0.390360 4.317880 0.182610 
#    z -0.260660 0.182610 4.057240 
# 
# 
# High freq. dielectric constant tensor:
#      x y z
#    x 1.929180 0.012120 -0.017110 
#    y 0.012120 1.921520 0.017120 
#    z -0.017110 0.017120 1.897610 
# 
# From -- ./inp_files/262010.got.cif
#   From: 2010.06.25/outbox.cif.g09.slc.cpg/sg2_132_cif.got.tgz:262010.got - 2010.06.27 13:26:56.
