data_PCOD8028871
_publ_section_title
;
Structure prediction by ZEFSAII (Michael W. Deem and Ramdas Pophale) SiO2 
 PCOD8028871
Probable space group: P -1
;
_chemical_formula_sum "Si O2"
_cell_formula_units_Z 14
_cell_length_a 11.658606
_cell_length_b 19.540477
_cell_length_c 20.028377
_cell_angle_alpha 20.796896
_cell_angle_beta 154.111695
_cell_angle_gamma 143.093089
_cell_volume 681.624785
_symmetry_space_group_name_H-M "P -1"
_symmetry_group_IT_number 2
_symmetry_cell_setting 'triclinic'
loop_
_space_group_symop_operation_xyz
x,y,z
-x,-y,-z
loop_
_atom_site_type_symbol
_atom_site_label
_atom_site_fract_x
_atom_site_fract_y
_atom_site_fract_z
Si Si1 0.093337 0.986155 0.745573
Si Si2 0.722541 0.248714 0.810942
Si Si3 0.898176 0.591858 0.643824
Si Si4 0.415083 0.501212 0.225311
Si Si5 0.883204 0.648649 0.901996
Si Si6 0.292444 0.939183 0.745819
Si Si7 0.758460 0.129777 0.798428
O O1 0.853318 0.879452 0.699335
O O2 0.273286 0.976832 0.781345
O O3 0.999089 0.221614 0.501889
O O4 0.260653 0.867139 0.004091
O O5 0.886292 0.420526 0.740194
O O6 0.404824 0.341520 0.544296
O O7 0.847005 0.103390 0.946820
O O8 0.113277 0.494367 0.902660
O O9 0.364017 0.362741 0.263990
O O10 0.687639 0.366307 0.526513
O O11 0.452850 0.707924 0.027058
O O12 0.166684 0.564468 0.088849
O O13 0.479192 0.067630 0.694954
O O14 0.000000 0.000000 0.500000
O O15 0.000000 0.000000 0.000000
#
# Coordination Sequence:
#
# PCOD8028871 Si02
#       7
#     2   2   2   2   2   2   2
#     4  10  18  30  56  86 115 142 186 248 295 335
#     4  10  21  32  51  85 116 151 192 239 298 339
#     4  10  17  30  53  81 117 142 185 253 297 335
#     4  10  19  34  55  80 118 152 194 236 289 340
#     4   9  17  30  54  87 111 140 184 252 295 331
#     4  11  22  37  64  92 115 150 202 248 294 343
#     4  12  25  40  56  84 128 163 191 233 293 363
#
# _framework density 20.539159999999999
#
# number of rings (size 3 to 8) (size 9 to 14) (size 15 to 20)
#    0.000    1.714    2.857    3.857    2.000    0.571 
#    0.000    0.000    0.000    7.714    0.000   10.000 
#    0.000    0.000    0.000    0.000    0.000    0.000 
#
# Total GULP energy -173467.298023 kJ/mol
# GULP energy per Si atom -12390.521287 kJ/mol
# Density = 2.049241 g / cm^3
# Si number density = 20.539160 Si / 1000 Ang^3
#
#
#
# Elastic Constant Matrix: (Units=GPa)
#
#
# Indices 1 2 3 4 5 6 
#
# 1 86.1516 33.1899 39.4496 5.2276 -7.6197 -18.7851
# 2 33.1899 114.8257 39.1546 -25.5787 -14.4986 -9.7340
# 3 39.4496 39.1546 75.9137 -18.8393 -17.7928 1.7052
# 4 5.2276 -25.5787 -18.8393 33.9896 2.8644 -9.2150
# 5 -7.6197 -14.4986 -17.7928 2.8644 25.7011 -1.1567
# 6 -18.7851 -9.7340 1.7052 -9.2150 -1.1567 21.5607
#
#
#
# Elastic Compliance Matrix: (Units=1/GPa)
#
#
# Indices 1 2 3 4 5 6 
#
# 1 0.022465 -0.002876 -0.013239 -0.008535 -0.002476 0.015541
# 2 -0.002876 0.014425 -0.001893 0.012470 0.005024 0.009756
# 3 -0.013239 -0.001893 0.027079 0.012266 0.011998 -0.008644
# 4 -0.008535 0.012470 0.012266 0.051572 0.008135 0.019702
# 5 -0.002476 0.005024 0.011998 0.008135 0.048645 0.005248
# 6 0.015541 0.009756 -0.008644 0.019702 0.005248 0.073711
#
#
# Mechanical properties :
#
#
# Convention : Reuss Voigt Hill
#
# Bulk Modulus (GPa) = 35.77180 55.60881 45.69030
# Shear Modulus (GPa) = 17.65363 27.25672 22.45518
#
# Velocity S-wave (km/s) = 2.93492 3.64684 3.31007
# Velocity P-wave (km/s) = 5.37952 6.69820 6.07475
#
# Compressibility (1/GPa) = 0.02795498
#
# Stress axis : x y z
#
# Youngs Moduli (GPa) = 44.51403 69.32645 36.92907
#
# Poissons Ratio (x) = 0.19935 0.48889
# Poissons Ratio (y) = 0.12800 0.06989
# Poissons Ratio (z) = 0.58930 0.13120
#
# Static dielectric constant tensor:
#      x y z
#    x 3.395820 -0.303620 -0.421230 
#    y -0.303620 4.189610 -0.418860 
#    z -0.421230 -0.418860 3.484960 
# 
# 
# High freq. dielectric constant tensor:
#      x y z
#    x 1.762350 -0.029870 -0.051910 
#    y -0.029870 1.817480 -0.028240 
#    z -0.051910 -0.028240 1.774660 
# 
# From -- ./inp_files/433231.got.cif
#   From: 2010.06.25/outbox.cif.g09.slc.cpg/sg2_217_cif.got.tgz:433231.got - 2010.06.27 13:26:56.
