data_PCOD8028183
_publ_section_title
;
Structure prediction by ZEFSAII (Michael W. Deem and Ramdas Pophale) SiO2 
 PCOD8028183
Probable space group: P -1
;
_chemical_formula_sum "Si O2"
_cell_formula_units_Z 16
_cell_length_a 9.102592
_cell_length_b 13.155612
_cell_length_c 9.091324
_cell_angle_alpha 56.156167
_cell_angle_beta 74.295898
_cell_angle_gamma 56.951919
_cell_volume 757.073732
_symmetry_space_group_name_H-M "P -1"
_symmetry_group_IT_number 2
_symmetry_cell_setting 'triclinic'
loop_
_space_group_symop_operation_xyz
x,y,z
-x,-y,-z
loop_
_atom_site_type_symbol
_atom_site_label
_atom_site_fract_x
_atom_site_fract_y
_atom_site_fract_z
Si Si1 0.455577 0.513944 0.671817
Si Si2 0.120200 0.372133 0.174264
Si Si3 0.211397 0.485795 0.339342
Si Si4 0.828420 0.714561 0.285934
Si Si5 0.246150 0.987138 0.934194
Si Si6 0.377057 0.266725 0.951618
Si Si7 0.014960 0.962923 0.775578
Si Si8 0.901945 0.221244 0.380938
O O1 0.500000 0.500000 0.500000
O O2 0.628821 0.482770 0.740749
O O3 0.400207 0.402276 0.826791
O O4 0.302025 0.669367 0.627873
O O5 0.176091 0.438015 0.234546
O O6 0.017939 0.294656 0.323622
O O7 0.300137 0.260741 0.135956
O O8 0.000000 0.500000 0.000000
O O9 0.263608 0.359335 0.542281
O O10 0.038337 0.627967 0.321933
O O11 0.762220 0.871028 0.237376
O O12 0.772261 0.720435 0.128765
O O13 0.176777 0.928673 0.868280
O O14 0.443583 0.874717 0.010907
O O15 0.141739 0.018296 0.091117
O O16 0.956912 0.101477 0.584115
O O17 0.069597 0.834438 0.750425
#
# Coordination Sequence:
#
# PCOD8028183 Si02
#       8
#     2   2   2   2   2   2   2   2
#     4  12  25  42  72 100 135 169 229 283 323 400
#     4  12  24  45  67  99 138 175 217 281 340 396
#     4  11  26  41  71 101 130 178 224 270 343 394
#     4  11  23  45  67  97 136 176 222 276 333 402
#     4  11  25  42  70  99 135 173 231 274 332 395
#     4  12  25  43  67 102 134 175 225 273 339 394
#     4  10  25  44  69  98 132 181 223 277 334 398
#     4  11  24  47  70  95 138 178 223 274 340 393
#
# _framework density 21.134007
#
# number of rings (size 3 to 8) (size 9 to 14) (size 15 to 20)
#    0.000    0.750    3.750    2.625    8.750    0.500 
#    2.250    1.250    0.000    0.000    0.000    0.000 
#    0.000    0.000    0.000    0.000    0.000    0.000 
#
# Total GULP energy -198465.389570 kJ/mol
# GULP energy per Si atom -12404.086848 kJ/mol
# Density = 2.108590 g / cm^3
# Si number density = 21.134007 Si / 1000 Ang^3
#
#
#
# Elastic Constant Matrix: (Units=GPa)
#
#
# Indices 1 2 3 4 5 6 
#
# 1 113.6737 33.0345 18.4769 -0.0587 2.8853 -0.8580
# 2 33.0345 104.0538 35.3952 6.4267 8.9870 -9.1946
# 3 18.4769 35.3952 67.4209 -3.3784 10.3726 -5.7174
# 4 -0.0587 6.4267 -3.3784 36.7626 5.4856 2.3010
# 5 2.8853 8.9870 10.3726 5.4856 25.7661 4.7979
# 6 -0.8580 -9.1946 -5.7174 2.3010 4.7979 39.7927
#
#
#
# Elastic Compliance Matrix: (Units=1/GPa)
#
#
# Indices 1 2 3 4 5 6 
#
# 1 0.009806 -0.002781 -0.001341 0.000353 0.000467 -0.000701
# 2 -0.002781 0.012972 -0.005692 -0.002680 -0.001816 0.002494
# 3 -0.001341 -0.005692 0.019619 0.003700 -0.006941 0.002098
# 4 0.000353 -0.002680 0.003700 0.029056 -0.006601 -0.000964
# 5 0.000467 -0.001816 -0.006941 -0.006601 0.044788 -0.006425
# 6 -0.000701 0.002494 0.002098 -0.000964 -0.006425 0.026823
#
#
# Mechanical properties :
#
#
# Convention : Reuss Voigt Hill
#
# Bulk Modulus (GPa) = 43.91758 50.99574 47.45666
# Shear Modulus (GPa) = 29.36314 33.68039 31.52176
#
# Velocity S-wave (km/s) = 3.73148 3.99640 3.86621
# Velocity P-wave (km/s) = 6.27622 6.74366 6.51413
#
# Compressibility (1/GPa) = 0.02276992
#
# Stress axis : x y z
#
# Youngs Moduli (GPa) = 101.97483 77.08834 50.97132
#
# Poissons Ratio (x) = 0.21440 0.06835
# Poissons Ratio (y) = 0.28361 0.29011
# Poissons Ratio (z) = 0.13674 0.43875
#
# Static dielectric constant tensor:
#      x y z
#    x 3.761030 -0.050240 -0.149000 
#    y -0.050240 3.953600 0.032010 
#    z -0.149000 0.032010 3.914500 
# 
# 
# High freq. dielectric constant tensor:
#      x y z
#    x 1.837410 0.006000 -0.000810 
#    y 0.006000 1.837060 0.001210 
#    z -0.000810 0.001210 1.833360 
# 
# From -- ./inp_files/185037.got.cif
#   From: 2010.06.25/outbox.cif.g09.slc.cpg/sg2_93_cif.got.tgz:185037.got - 2010.06.27 13:26:56.
