data_PCOD8028497
_publ_section_title
;
Structure prediction by ZEFSAII (Michael W. Deem and Ramdas Pophale) SiO2 
 PCOD8028497
Probable space group: P -1
;
_chemical_formula_sum "Si O2"
_cell_formula_units_Z 16
_cell_length_a 9.215219
_cell_length_b 11.158930
_cell_length_c 14.029507
_cell_angle_alpha 123.754785
_cell_angle_beta 50.544360
_cell_angle_gamma 137.964861
_cell_volume 736.037995
_symmetry_space_group_name_H-M "P -1"
_symmetry_group_IT_number 2
_symmetry_cell_setting 'triclinic'
loop_
_space_group_symop_operation_xyz
x,y,z
-x,-y,-z
loop_
_atom_site_type_symbol
_atom_site_label
_atom_site_fract_x
_atom_site_fract_y
_atom_site_fract_z
Si Si1 0.345349 0.898527 0.927288
Si Si2 0.580575 0.719324 0.760938
Si Si3 0.992953 0.943651 0.158285
Si Si4 0.392504 0.334275 0.660011
Si Si5 0.775866 0.287204 0.429949
Si Si6 0.136592 0.672114 0.385742
Si Si7 0.385380 0.045910 0.773091
Si Si8 0.850116 0.789167 0.486716
O O1 0.375464 0.741108 0.829961
O O2 0.433207 0.028889 0.855542
O O3 0.076670 0.828245 0.028261
O O4 0.500000 0.000000 0.000000
O O5 0.454220 0.516413 0.763727
O O6 0.708035 0.735158 0.618563
O O7 0.769938 0.861589 0.822849
O O8 0.827517 0.840802 0.272380
O O9 0.854292 0.973000 0.149600
O O10 0.618180 0.336401 0.568175
O O11 0.333879 0.327206 0.571068
O O12 0.874296 0.258618 0.472966
O O13 0.985698 0.453571 0.352544
O O14 0.628122 0.109137 0.349194
O O15 0.398130 0.760513 0.274514
O O16 0.025114 0.735250 0.388929
O O17 0.000000 0.000000 0.500000
#
# Coordination Sequence:
#
# PCOD8028497 Si02
#       8
#     2   2   2   2   2   2   2   2
#     4  10  25  47  67  93 125 172 232 276 316 370
#     4  11  23  43  64  92 134 169 215 274 321 382
#     4  11  25  44  66  91 125 175 225 270 317 374
#     4  12  24  39  66  96 135 171 211 264 332 390
#     4  11  24  40  64 102 138 167 208 260 328 405
#     4  11  24  39  62 102 141 163 207 258 325 402
#     4  12  24  42  71  93 131 177 212 266 329 382
#     4  12  22  37  64  99 135 170 206 261 330 401
#
# _framework density 21.738009000000002
#
# number of rings (size 3 to 8) (size 9 to 14) (size 15 to 20)
#    0.000    0.750    3.750    4.125    5.250    0.500 
#    0.000    2.500    0.000    5.250    0.000    0.000 
#    0.000    0.000    0.000    0.000    0.000    0.000 
#
# Total GULP energy -198381.804530 kJ/mol
# GULP energy per Si atom -12398.862783 kJ/mol
# Density = 2.168853 g / cm^3
# Si number density = 21.738009 Si / 1000 Ang^3
#
#
#
# Elastic Constant Matrix: (Units=GPa)
#
#
# Indices 1 2 3 4 5 6 
#
# 1 97.1327 22.1168 33.6232 -1.2001 -10.9100 -11.0064
# 2 22.1168 98.5072 27.3379 -1.4781 -10.2144 -2.2291
# 3 33.6232 27.3379 73.6651 -8.6933 -20.1683 2.3393
# 4 -1.2001 -1.4781 -8.6933 21.8152 -5.2444 -0.1944
# 5 -10.9100 -10.2144 -20.1683 -5.2444 44.1152 -1.8661
# 6 -11.0064 -2.2291 2.3393 -0.1944 -1.8661 25.1368
#
#
#
# Elastic Compliance Matrix: (Units=1/GPa)
#
#
# Indices 1 2 3 4 5 6 
#
# 1 0.013361 -0.001193 -0.005931 -0.001557 0.000399 0.006314
# 2 -0.001193 0.011510 -0.003636 -0.000564 0.000678 0.000883
# 3 -0.005931 -0.003636 0.021226 0.009866 0.008391 -0.004195
# 4 -0.001557 -0.000564 0.009866 0.052087 0.010166 -0.000492
# 5 0.000399 0.000678 0.008391 0.010166 0.028036 0.001614
# 6 0.006314 0.000883 -0.004195 -0.000492 0.001614 0.043132
#
#
# Mechanical properties :
#
#
# Convention : Reuss Voigt Hill
#
# Bulk Modulus (GPa) = 40.68730 48.38454 44.53592
# Shear Modulus (GPa) = 25.11763 30.62859 27.87311
#
# Velocity S-wave (km/s) = 3.40291 3.75772 3.58471
# Velocity P-wave (km/s) = 5.84786 6.41355 6.13723
#
# Compressibility (1/GPa) = 0.02457770
#
# Stress axis : x y z
#
# Youngs Moduli (GPa) = 74.84611 86.87880 47.11212
#
# Poissons Ratio (x) = 0.10365 0.27941
# Poissons Ratio (y) = 0.08929 0.17130
# Poissons Ratio (z) = 0.44389 0.31589
#
# Static dielectric constant tensor:
#      x y z
#    x 4.222690 0.025780 -0.181990 
#    y 0.025780 3.796300 -0.070490 
#    z -0.181990 -0.070490 3.963920 
# 
# 
# High freq. dielectric constant tensor:
#      x y z
#    x 1.878440 -0.002690 -0.008210 
#    y -0.002690 1.843700 -0.006610 
#    z -0.008210 -0.006610 1.837050 
# 
# From -- ./inp_files/390438.got.cif
#   From: 2010.06.25/outbox.cif.g09.slc.cpg/sg2_196_cif.got.tgz:390438.got - 2010.06.27 13:26:56.
