data_PCOD8028016
_publ_section_title
;
Structure prediction by ZEFSAII (Michael W. Deem and Ramdas Pophale) SiO2 
 PCOD8028016
Probable space group: P -1
;
_chemical_formula_sum "Si O2"
_cell_formula_units_Z 16
_cell_length_a 13.697092
_cell_length_b 12.728506
_cell_length_c 7.913257
_cell_angle_alpha 132.745396
_cell_angle_beta 99.302630
_cell_angle_gamma 117.444132
_cell_volume 616.417953
_symmetry_space_group_name_H-M "P -1"
_symmetry_group_IT_number 2
_symmetry_cell_setting 'triclinic'
loop_
_space_group_symop_operation_xyz
x,y,z
-x,-y,-z
loop_
_atom_site_type_symbol
_atom_site_label
_atom_site_fract_x
_atom_site_fract_y
_atom_site_fract_z
Si Si1 0.926060 0.807487 0.548168
Si Si2 0.674009 0.680239 0.163662
Si Si3 0.573563 0.722625 0.870953
Si Si4 0.780339 0.674055 0.725814
Si Si5 0.201022 0.585224 0.360858
Si Si6 0.143885 0.826381 0.752150
Si Si7 0.136452 0.840752 0.156689
Si Si8 0.385151 0.950294 0.539408
O O1 0.781412 0.657360 0.201727
O O2 0.838794 0.745053 0.629221
O O3 0.997996 0.728206 0.492878
O O4 0.080918 0.088358 0.866865
O O5 0.781544 0.914780 0.547374
O O6 0.500000 0.500000 0.000000
O O7 0.661417 0.698369 0.980919
O O8 0.400688 0.462393 0.474876
O O9 0.692517 0.899350 0.943449
O O10 0.545151 0.830690 0.103436
O O11 0.735803 0.465677 0.553175
O O12 0.170345 0.693368 0.574662
O O13 0.330382 0.763598 0.448005
O O14 0.026553 0.339024 0.974160
O O15 0.094764 0.775705 0.877687
O O16 0.239294 0.830391 0.249592
O O17 0.500000 0.000000 0.500000
#
# Coordination Sequence:
#
# PCOD8028016 Si02
#       8
#     2   2   2   2   2   2   2   2
#     4  11  22  42  70 101 134 185 234 281 345 414
#     4  11  22  45  69  94 141 185 232 295 345 400
#     4  10  25  42  66 101 141 179 227 294 348 402
#     4  11  22  41  72 100 132 184 234 286 338 407
#     4  11  23  43  70  99 142 181 228 291 341 411
#     4  11  25  41  69 105 138 179 236 287 340 418
#     4  11  22  43  67  98 135 182 230 284 351 404
#     4  10  25  42  64 100 139 182 225 284 353 417
#
# _framework density 25.956413999999999
#
# number of rings (size 3 to 8) (size 9 to 14) (size 15 to 20)
#    0.000    1.250    3.750    1.500    3.500    2.000 
#    0.000    0.000    0.000    0.000    0.000    0.000 
#    0.000    0.000    0.000    0.000    0.000    0.000 
#
# Total GULP energy -198292.478408 kJ/mol
# GULP energy per Si atom -12393.279900 kJ/mol
# Density = 2.589734 g / cm^3
# Si number density = 25.956414 Si / 1000 Ang^3
#
#
#
# Elastic Constant Matrix: (Units=GPa)
#
#
# Indices 1 2 3 4 5 6 
#
# 1 115.8175 34.0077 36.4796 -3.6882 30.2667 -9.6960
# 2 34.0077 134.8846 49.6361 4.7106 9.6987 -14.4829
# 3 36.4796 49.6361 109.8887 8.8969 29.2475 -3.8379
# 4 -3.6882 4.7106 8.8969 36.6461 -1.1607 9.2829
# 5 30.2667 9.6987 29.2475 -1.1607 43.7337 -1.3968
# 6 -9.6960 -14.4829 -3.8379 9.2829 -1.3968 53.9167
#
#
#
# Elastic Compliance Matrix: (Units=1/GPa)
#
#
# Indices 1 2 3 4 5 6 
#
# 1 0.011431 -0.001872 -0.001256 0.001213 -0.006589 0.001084
# 2 -0.001872 0.009491 -0.004031 -0.000909 0.001931 0.002132
# 3 -0.001256 -0.004031 0.013558 -0.003135 -0.007387 0.000005
# 4 0.001213 -0.000909 -0.003135 0.029699 0.002077 -0.005309
# 5 -0.006589 0.001931 -0.007387 0.002077 0.031970 -0.000722
# 6 0.001084 0.002132 0.000005 -0.005309 -0.000722 0.020210
#
#
# Mechanical properties :
#
#
# Convention : Reuss Voigt Hill
#
# Bulk Modulus (GPa) = 49.59930 66.75971 58.17951
# Shear Modulus (GPa) = 36.39064 42.89045 39.64055
#
# Velocity S-wave (km/s) = 3.74838 4.06939 3.91218
# Velocity P-wave (km/s) = 6.15499 6.91778 6.54750
#
# Compressibility (1/GPa) = 0.02016157
#
# Stress axis : x y z
#
# Youngs Moduli (GPa) = 87.48299 105.36139 73.75686
#
# Poissons Ratio (x) = 0.19725 0.09261
# Poissons Ratio (y) = 0.16378 0.29735
# Poissons Ratio (z) = 0.10984 0.42476
#
# Static dielectric constant tensor:
#      x y z
#    x 5.098080 -0.315480 0.156370 
#    y -0.315480 4.501030 -0.849270 
#    z 0.156370 -0.849270 2.534580 
# 
# 
# High freq. dielectric constant tensor:
#      x y z
#    x 2.062650 -0.003110 0.010230 
#    y -0.003110 2.053030 0.011190 
#    z 0.010230 0.011190 2.032460 
# 
# From -- ./inp_files/308574.got.cif
#   From: 2010.06.25/outbox.cif.g09.slc.cpg/sg2_155_cif.got.tgz:308574.got - 2010.06.27 13:26:56.
