data_PCOD8028967
_publ_section_title
;
Structure prediction by ZEFSAII (Michael W. Deem and Ramdas Pophale) SiO2 
 PCOD8028967
Probable space group: P -1
;
_chemical_formula_sum "Si O2"
_cell_formula_units_Z 14
_cell_length_a 30.194326
_cell_length_b 9.660645
_cell_length_c 14.554304
_cell_angle_alpha 45.430926
_cell_angle_beta 160.877663
_cell_angle_gamma 146.151815
_cell_volume 690.026290
_symmetry_space_group_name_H-M "P -1"
_symmetry_group_IT_number 2
_symmetry_cell_setting 'triclinic'
loop_
_space_group_symop_operation_xyz
x,y,z
-x,-y,-z
loop_
_atom_site_type_symbol
_atom_site_label
_atom_site_fract_x
_atom_site_fract_y
_atom_site_fract_z
Si Si1 0.074335 0.742308 0.236745
Si Si2 0.517315 0.836351 0.381920
Si Si3 0.161533 0.409153 0.988382
Si Si4 0.509121 0.516438 0.649977
Si Si5 0.260314 0.620456 0.539054
Si Si6 0.560595 0.698411 0.206769
Si Si7 0.129513 0.194133 0.338649
O O1 0.109435 0.579555 0.326209
O O2 0.923712 0.548099 0.115710
O O3 0.276744 0.024010 0.543859
O O4 0.980666 0.801634 0.957868
O O5 0.621578 0.800382 0.679095
O O6 0.480440 0.678250 0.290650
O O7 0.655504 0.159212 0.481376
O O8 0.304668 0.684845 0.074846
O O9 0.285672 0.356297 0.296269
O O10 0.985843 0.126572 0.718905
O O11 0.580652 0.556408 0.876633
O O12 0.143259 0.325476 0.399367
O O13 0.439078 0.729569 0.898137
O O14 0.653870 0.637350 0.349214
#
# Coordination Sequence:
#
# PCOD8028967 Si02
#       7
#     2   2   2   2   2   2   2
#     4  11  19  36  59  86 111 154 198 232 270 358
#     4   9  18  35  58  90 109 152 195 241 269 352
#     4   9  17  36  63  78 106 156 203 216 275 352
#     4   9  16  34  63  80 109 152 205 215 279 350
#     4  12  24  33  60  96 120 133 197 260 288 306
#     4  11  20  38  60  86 113 161 193 229 282 364
#     4  11  20  37  59  87 116 155 192 236 286 348
#
# _framework density 20.289080999999999
#
# number of rings (size 3 to 8) (size 9 to 14) (size 15 to 20)
#    0.857    0.857    4.286    2.143    0.000    0.000 
#    0.000    5.714    0.000    2.571    0.000    0.000 
#    0.000    0.000    0.000    0.000    0.000    0.000 
#
# Total GULP energy -173443.476507 kJ/mol
# GULP energy per Si atom -12388.819750 kJ/mol
# Density = 2.024290 g / cm^3
# Si number density = 20.289081 Si / 1000 Ang^3
#
#
#
# Elastic Constant Matrix: (Units=GPa)
#
#
# Indices 1 2 3 4 5 6 
#
# 1 131.3039 38.0733 25.4827 2.1104 31.5864 -13.8476
# 2 38.0733 42.8766 4.7086 -2.0563 7.0109 -6.2577
# 3 25.4827 4.7086 48.1310 -8.1286 13.5519 6.6597
# 4 2.1104 -2.0563 -8.1286 19.9929 -1.8937 -1.8027
# 5 31.5864 7.0109 13.5519 -1.8937 31.1912 -10.0124
# 6 -13.8476 -6.2577 6.6597 -1.8027 -10.0124 17.3928
#
#
#
# Elastic Compliance Matrix: (Units=1/GPa)
#
#
# Indices 1 2 3 4 5 6 
#
# 1 0.014323 -0.010308 -0.005616 -0.005291 -0.008691 0.004294
# 2 -0.010308 0.032822 0.000782 0.005915 0.005321 0.006979
# 3 -0.005616 0.000782 0.033698 0.010479 -0.016722 -0.025633
# 4 -0.005291 0.005915 0.010479 0.055917 0.003403 0.001657
# 5 -0.008691 0.005321 -0.016722 0.003403 0.058511 0.035434
# 6 0.004294 0.006979 -0.025633 0.001657 0.035434 0.093809
#
#
# Mechanical properties :
#
#
# Convention : Reuss Voigt Hill
#
# Bulk Modulus (GPa) = 19.77852 39.87116 29.82484
# Shear Modulus (GPa) = 14.87130 23.98518 19.42824
#
# Velocity S-wave (km/s) = 2.71028 3.44200 3.09782
# Velocity P-wave (km/s) = 4.42308 5.95741 5.24664
#
# Compressibility (1/GPa) = 0.05055991
#
# Stress axis : x y z
#
# Youngs Moduli (GPa) = 69.81649 30.46707 29.67526
#
# Poissons Ratio (x) = 0.31405 0.16665
# Poissons Ratio (y) = 0.71967 -0.02320
# Poissons Ratio (z) = 0.39207 -0.02382
#
# Static dielectric constant tensor:
#      x y z
#    x 4.027920 0.032220 0.227900 
#    y 0.032220 3.315680 -0.095450 
#    z 0.227900 -0.095450 3.462290 
# 
# 
# High freq. dielectric constant tensor:
#      x y z
#    x 1.808150 -0.001690 0.017780 
#    y -0.001690 1.754800 -0.009790 
#    z 0.017780 -0.009790 1.765420 
# 
# From -- ./inp_files/544816.got.cif
#   From: 2010.06.25/outbox.cif.g09.slc.cpg/sg2_273_cif.got.tgz:544816.got - 2010.06.27 13:26:56.
