data_PCOD8028555
_publ_section_title
;
Structure prediction by ZEFSAII (Michael W. Deem and Ramdas Pophale) SiO2 
 PCOD8028555
Probable space group: P -1
;
_chemical_formula_sum "Si O2"
_cell_formula_units_Z 16
_cell_length_a 9.654615
_cell_length_b 8.575492
_cell_length_c 12.140969
_cell_angle_alpha 128.988390
_cell_angle_beta 121.391753
_cell_angle_gamma 77.952898
_cell_volume 656.127271
_symmetry_space_group_name_H-M "P -1"
_symmetry_group_IT_number 2
_symmetry_cell_setting 'triclinic'
loop_
_space_group_symop_operation_xyz
x,y,z
-x,-y,-z
loop_
_atom_site_type_symbol
_atom_site_label
_atom_site_fract_x
_atom_site_fract_y
_atom_site_fract_z
Si Si1 0.532364 0.335250 0.526844
Si Si2 0.605500 0.940842 0.306441
Si Si3 0.945042 0.596496 0.411771
Si Si4 0.431775 0.437788 0.756753
Si Si5 0.362755 0.121466 0.956024
Si Si6 0.970646 0.896403 0.061014
Si Si7 0.088995 0.549164 0.230877
Si Si8 0.095272 0.978679 0.369631
O O1 0.500000 0.500000 0.500000
O O2 0.413838 0.333540 0.581955
O O3 0.715831 0.392761 0.677405
O O4 0.495157 0.116864 0.351019
O O5 0.507646 0.714035 0.194750
O O6 0.683686 0.944343 0.218646
O O7 0.735060 0.989191 0.480904
O O8 0.751177 0.523644 0.273950
O O9 0.000000 0.500000 0.500000
O O10 0.048681 0.505262 0.322069
O O11 0.999720 0.844165 0.547175
O O12 0.565990 0.640139 0.903478
O O13 0.203872 0.068433 0.944758
O O14 0.500000 0.000000 0.000000
O O15 0.111746 0.999293 0.251734
O O16 0.980287 0.656347 0.955235
O O17 0.000000 0.000000 0.000000
O O18 0.001934 0.742990 0.245870
#
# Coordination Sequence:
#
# PCOD8028555 Si02
#       8
#     2   2   2   2   2   2   2   2
#     4  11  22  43  72 105 151 187 240 296 367 430
#     4  10  25  47  76 109 143 193 242 299 363 435
#     4  11  24  42  74 107 146 187 244 296 361 433
#     4  11  24  47  68 109 145 191 241 297 364 437
#     4  12  28  49  74 108 151 193 238 305 369 434
#     4  12  28  49  75 107 147 193 248 299 364 434
#     4  11  24  45  68 107 141 191 242 300 358 430
#     4  10  25  47  75 104 145 188 245 298 359 424
#
# _framework density 24.385511999999999
#
# number of rings (size 3 to 8) (size 9 to 14) (size 15 to 20)
#    0.000    1.000    1.250    3.750   10.500    1.000 
#    4.500    0.000    0.000    0.000    0.000    0.000 
#    0.000    0.000    0.000    0.000    0.000    0.000 
#
# Total GULP energy -198322.453184 kJ/mol
# GULP energy per Si atom -12395.153324 kJ/mol
# Density = 2.433001 g / cm^3
# Si number density = 24.385512 Si / 1000 Ang^3
#
#
#
# Elastic Constant Matrix: (Units=GPa)
#
#
# Indices 1 2 3 4 5 6 
#
# 1 65.1047 43.5872 38.0996 -0.1635 -14.6984 10.3555
# 2 43.5872 138.5205 38.9350 -0.3395 -8.2259 -2.2295
# 3 38.0996 38.9350 129.2457 -6.2339 -16.3151 0.5308
# 4 -0.1635 -0.3395 -6.2339 50.3868 3.4658 -12.7495
# 5 -14.6984 -8.2259 -16.3151 3.4658 38.2840 -1.0771
# 6 10.3555 -2.2295 0.5308 -12.7495 -1.0771 36.9283
#
#
#
# Elastic Compliance Matrix: (Units=1/GPa)
#
#
# Indices 1 2 3 4 5 6 
#
# 1 0.025137 -0.006320 -0.004828 -0.003075 0.006282 -0.008240
# 2 -0.006320 0.009506 -0.001087 0.000611 -0.000831 0.002549
# 3 -0.004828 -0.001087 0.009806 0.001487 0.002005 0.001719
# 4 -0.003075 0.000611 0.001487 0.022333 -0.002198 0.008524
# 5 0.006282 -0.000831 0.002005 -0.002198 0.029359 -0.001743
# 6 -0.008240 0.002549 0.001719 0.008524 -0.001743 0.032411
#
#
# Mechanical properties :
#
#
# Convention : Reuss Voigt Hill
#
# Bulk Modulus (GPa) = 50.04785 63.79049 56.91917
# Shear Modulus (GPa) = 31.31246 39.26978 35.29112
#
# Velocity S-wave (km/s) = 3.58727 4.01730 3.80836
# Velocity P-wave (km/s) = 6.14216 6.90900 6.53683
#
# Compressibility (1/GPa) = 0.01998088
#
# Stress axis : x y z
#
# Youngs Moduli (GPa) = 39.78122 105.19212 101.98351
#
# Poissons Ratio (x) = 0.66481 0.49235
# Poissons Ratio (y) = 0.25142 0.11081
# Poissons Ratio (z) = 0.19205 0.11430
#
# Static dielectric constant tensor:
#      x y z
#    x 4.258840 -0.174040 -0.369440 
#    y -0.174040 5.077940 0.406060 
#    z -0.369440 0.406060 4.735130 
# 
# 
# High freq. dielectric constant tensor:
#      x y z
#    x 1.949670 0.001390 -0.020890 
#    y 0.001390 1.989430 0.007240 
#    z -0.020890 0.007240 1.979350 
# 
# From -- ./inp_files/383592.got.cif
#   From: 2010.06.25/outbox.cif.g09.slc.cpg/sg2_192_cif.got.tgz:383592.got - 2010.06.27 13:26:56.
