data_PCOD8028903
_publ_section_title
;
Structure prediction by ZEFSAII (Michael W. Deem and Ramdas Pophale) SiO2 
 PCOD8028903
Probable space group: P -1
;
_chemical_formula_sum "Si O2"
_cell_formula_units_Z 14
_cell_length_a 24.131745
_cell_length_b 11.907039
_cell_length_c 15.040730
_cell_angle_alpha 27.825213
_cell_angle_beta 159.301025
_cell_angle_gamma 149.310252
_cell_volume 698.924782
_symmetry_space_group_name_H-M "P -1"
_symmetry_group_IT_number 2
_symmetry_cell_setting 'triclinic'
loop_
_space_group_symop_operation_xyz
x,y,z
-x,-y,-z
loop_
_atom_site_type_symbol
_atom_site_label
_atom_site_fract_x
_atom_site_fract_y
_atom_site_fract_z
Si Si1 0.481702 0.239901 0.608119
Si Si2 0.180740 0.882561 0.794938
Si Si3 0.707200 0.644137 0.902800
Si Si4 0.215543 0.787423 0.578887
Si Si5 0.051982 0.995284 0.892031
Si Si6 0.976359 0.589606 0.208183
Si Si7 0.018254 0.778493 0.805295
O O1 0.500000 0.500000 0.500000
O O2 0.456892 0.300027 0.424386
O O3 0.329289 0.046276 0.549576
O O4 0.635377 0.124948 0.939173
O O5 0.062512 0.688323 0.691254
O O6 0.149789 0.837948 0.884145
O O7 0.146903 0.149817 0.529143
O O8 0.680335 0.384622 0.094881
O O9 0.829585 0.654551 0.996889
O O10 0.773618 0.862683 0.916700
O O11 0.136852 0.652207 0.465623
O O12 0.075047 0.825617 0.409159
O O13 0.073977 0.940728 0.861100
O O14 0.997203 0.751600 0.037459
O O15 0.000000 0.500000 0.000000
#
# Coordination Sequence:
#
# PCOD8028903 Si02
#       7
#     2   2   2   2   2   2   2
#     4  12  24  40  59  96 136 157 190 258 324 376
#     4  11  24  42  63  93 127 160 208 254 305 362
#     4  11  21  37  62  94 124 161 201 253 315 369
#     4  11  22  37  65  92 124 164 199 255 317 364
#     4  11  19  38  66  90 122 161 217 254 294 362
#     4  11  18  40  64  91 125 159 206 259 301 366
#     4  11  24  41  65  88 120 170 214 254 289 359
#
# _framework density 20.030767999999998
#
# number of rings (size 3 to 8) (size 9 to 14) (size 15 to 20)
#    0.000    0.857    5.714    4.286    0.000    1.714 
#    0.000    0.714    0.000    8.571    0.000    0.000 
#    0.000    0.000    0.000    0.000    0.000    0.000 
#
# Total GULP energy -173565.261637 kJ/mol
# GULP energy per Si atom -12397.518688 kJ/mol
# Density = 1.998518 g / cm^3
# Si number density = 20.030768 Si / 1000 Ang^3
#
#
#
# Elastic Constant Matrix: (Units=GPa)
#
#
# Indices 1 2 3 4 5 6 
#
# 1 100.7719 42.6005 20.0146 8.4717 -13.4661 -22.8365
# 2 42.6005 94.2318 55.8719 1.2925 -17.9319 -6.2525
# 3 20.0146 55.8719 113.9855 -6.3034 -11.6562 -0.3750
# 4 8.4717 1.2925 -6.3034 31.0637 2.0892 -8.8408
# 5 -13.4661 -17.9319 -11.6562 2.0892 29.4382 -3.3621
# 6 -22.8365 -6.2525 -0.3750 -8.8408 -3.3621 27.2234
#
#
#
# Elastic Compliance Matrix: (Units=1/GPa)
#
#
# Indices 1 2 3 4 5 6 
#
# 1 0.015782 -0.005557 0.000512 -0.000815 0.005510 0.012386
# 2 -0.005557 0.018847 -0.007724 -0.001270 0.005957 -0.000116
# 3 0.000512 -0.007724 0.012647 0.002650 0.000318 -0.000271
# 4 -0.000815 -0.001270 0.002650 0.036123 -0.001448 0.010613
# 5 0.005510 0.005957 0.000318 -0.001448 0.041564 0.010657
# 6 0.012386 -0.000116 -0.000271 0.010613 0.010657 0.051856
#
#
# Mechanical properties :
#
#
# Convention : Reuss Voigt Hill
#
# Bulk Modulus (GPa) = 46.00072 60.66259 53.33165
# Shear Modulus (GPa) = 23.85443 30.24522 27.04982
#
# Velocity S-wave (km/s) = 3.45467 3.89001 3.67878
# Velocity P-wave (km/s) = 6.23922 7.10821 6.68784
#
# Compressibility (1/GPa) = 0.02173879
#
# Stress axis : x y z
#
# Youngs Moduli (GPa) = 63.36132 53.05765 79.06750
#
# Poissons Ratio (x) = 0.29484 -0.04046
# Poissons Ratio (y) = 0.35209 0.61072
# Poissons Ratio (z) = -0.03242 0.40982
#
# Static dielectric constant tensor:
#      x y z
#    x 3.700690 -0.160440 -0.253700 
#    y -0.160440 3.764200 -0.001000 
#    z -0.253700 -0.001000 4.015710 
# 
# 
# High freq. dielectric constant tensor:
#      x y z
#    x 1.769510 -0.008640 -0.036250 
#    y -0.008640 1.783600 -0.017640 
#    z -0.036250 -0.017640 1.779960 
# 
# From -- ./inp_files/259717.got.cif
#   From: 2010.06.25/outbox.cif.g09.slc.cpg/sg2_130_cif.got.tgz:259717.got - 2010.06.27 13:26:56.
