data_PCOD8028026
_publ_section_title
;
Structure prediction by ZEFSAII (Michael W. Deem and Ramdas Pophale) SiO2 
 PCOD8028026
Probable space group: P -1
;
_chemical_formula_sum "Si O2"
_cell_formula_units_Z 16
_cell_length_a 12.661303
_cell_length_b 15.276190
_cell_length_c 12.715365
_cell_angle_alpha 140.139847
_cell_angle_beta 33.931997
_cell_angle_gamma 114.678270
_cell_volume 695.067122
_symmetry_space_group_name_H-M "P -1"
_symmetry_group_IT_number 2
_symmetry_cell_setting 'triclinic'
loop_
_space_group_symop_operation_xyz
x,y,z
-x,-y,-z
loop_
_atom_site_type_symbol
_atom_site_label
_atom_site_fract_x
_atom_site_fract_y
_atom_site_fract_z
Si Si1 0.276269 0.720393 0.288909
Si Si2 0.437529 0.413544 0.389488
Si Si3 0.930231 0.163378 0.646162
Si Si4 0.792285 0.698311 0.381246
Si Si5 0.925733 0.796366 0.813293
Si Si6 0.493725 0.810474 0.532260
Si Si7 0.311520 0.607545 0.483059
Si Si8 0.567981 0.813902 0.248435
O O1 0.086571 0.855050 0.481638
O O2 0.350837 0.819413 0.387425
O O3 0.120155 0.684956 0.457739
O O4 0.511389 0.540692 0.885725
O O5 0.500000 0.500000 0.500000
O O6 0.378738 0.295871 0.384738
O O7 0.238922 0.545048 0.586846
O O8 0.663888 0.313488 0.035833
O O9 0.109656 0.207247 0.562289
O O10 0.000000 0.000000 0.500000
O O11 0.653428 0.804708 0.488169
O O12 0.000000 0.500000 0.000000
O O13 0.072700 0.767088 0.770690
O O14 0.777039 0.724882 0.903723
O O15 0.745692 0.996166 0.112268
O O16 0.434420 0.685350 0.505550
O O17 0.641204 0.725959 0.222562
O O18 0.500000 0.000000 0.500000
#
# Coordination Sequence:
#
# PCOD8028026 Si02
#       8
#     2   2   2   2   2   2   2   2
#     4  11  25  47  66 100 147 176 230 291 355 419
#     4  11  23  46  71 105 139 192 243 284 349 433
#     4  11  28  45  73 106 146 186 232 304 356 409
#     4  12  25  47  75 104 142 190 240 288 352 429
#     4  11  25  43  71  98 136 188 224 291 358 409
#     4  11  24  44  72 106 136 177 247 290 343 426
#     4  11  23  44  70 104 145 179 232 295 352 420
#     4  10  25  42  67 102 134 176 237 285 348 420
#
# _framework density 23.019359999999999
#
# number of rings (size 3 to 8) (size 9 to 14) (size 15 to 20)
#    0.000    1.000    3.750    1.500    8.750    3.000 
#    0.000    0.000    0.000    0.000    0.000    0.000 
#    0.000    0.000    0.000    0.000    0.000    0.000 
#
# Total GULP energy -198245.026167 kJ/mol
# GULP energy per Si atom -12390.314135 kJ/mol
# Density = 2.296697 g / cm^3
# Si number density = 23.019360 Si / 1000 Ang^3
#
#
#
# Elastic Constant Matrix: (Units=GPa)
#
#
# Indices 1 2 3 4 5 6 
#
# 1 171.4276 82.5255 38.9363 -7.2696 -13.7253 -21.7401
# 2 82.5255 155.6619 26.9027 -22.4778 -6.2924 -13.5017
# 3 38.9363 26.9027 56.0878 -4.5044 -7.6706 -9.4848
# 4 -7.2696 -22.4778 -4.5044 43.4608 -7.4954 -0.1541
# 5 -13.7253 -6.2924 -7.6706 -7.4954 27.4157 3.3864
# 6 -21.7401 -13.5017 -9.4848 -0.1541 3.3864 50.1221
#
#
#
# Elastic Compliance Matrix: (Units=1/GPa)
#
#
# Indices 1 2 3 4 5 6 
#
# 1 0.008980 -0.003930 -0.003764 -0.000543 0.002148 0.001977
# 2 -0.003930 0.009420 -0.001226 0.004253 0.000946 0.000550
# 3 -0.003764 -0.001226 0.022081 0.001766 0.004256 0.001933
# 4 -0.000543 0.004253 0.001766 0.026755 0.008419 0.000757
# 5 0.002148 0.000946 0.004256 0.008419 0.041356 -0.000777
# 6 0.001977 0.000550 0.001933 0.000757 -0.000777 0.021378
#
#
# Mechanical properties :
#
#
# Convention : Reuss Voigt Hill
#
# Bulk Modulus (GPa) = 44.16989 75.54514 59.85751
# Shear Modulus (GPa) = 32.18364 39.85392 36.01878
#
# Velocity S-wave (km/s) = 3.74319 4.16543 3.95994
# Velocity P-wave (km/s) = 6.15725 7.48490 6.85330
#
# Compressibility (1/GPa) = 0.02263986
#
# Stress axis : x y z
#
# Youngs Moduli (GPa) = 111.35663 106.15912 45.28740
#
# Poissons Ratio (x) = 0.41726 0.17048
# Poissons Ratio (y) = 0.43769 0.05551
# Poissons Ratio (z) = 0.41919 0.13013
#
# Static dielectric constant tensor:
#      x y z
#    x 4.053400 -0.067300 0.070240 
#    y -0.067300 4.729820 -0.532700 
#    z 0.070240 -0.532700 3.895050 
# 
# 
# High freq. dielectric constant tensor:
#      x y z
#    x 1.919600 -0.019250 -0.005400 
#    y -0.019250 1.927500 -0.011620 
#    z -0.005400 -0.011620 1.890220 
# 
# From -- ./inp_files/433297.got.cif
#   From: 2010.06.25/outbox.cif.g09.slc.cpg/sg2_217_cif.got.tgz:433297.got - 2010.06.27 13:26:56.
