data_PCOD8028188
_publ_section_title
;
Structure prediction by ZEFSAII (Michael W. Deem and Ramdas Pophale) SiO2 
 PCOD8028188
Probable space group: P -1
;
_chemical_formula_sum "Si O2"
_cell_formula_units_Z 14
_cell_length_a 5.230492
_cell_length_b 8.720422
_cell_length_c 21.565301
_cell_angle_alpha 43.631844
_cell_angle_beta 61.096325
_cell_angle_gamma 64.410847
_cell_volume 588.674129
_symmetry_space_group_name_H-M "P -1"
_symmetry_group_IT_number 2
_symmetry_cell_setting 'triclinic'
loop_
_space_group_symop_operation_xyz
x,y,z
-x,-y,-z
loop_
_atom_site_type_symbol
_atom_site_label
_atom_site_fract_x
_atom_site_fract_y
_atom_site_fract_z
Si Si1 0.263399 0.492614 0.243031
Si Si2 0.404688 0.968073 0.090968
Si Si3 0.214866 0.888666 0.689562
Si Si4 0.832214 0.203912 0.420745
Si Si5 0.206238 0.777409 0.938241
Si Si6 0.309761 0.359028 0.521675
Si Si7 0.224768 0.405800 0.137800
O O1 0.400312 0.709367 0.187317
O O2 0.501357 0.274339 0.275243
O O3 0.155156 0.539288 0.171340
O O4 0.001635 0.425708 0.337185
O O5 0.630169 0.065641 0.081676
O O6 0.072198 0.090416 0.102655
O O7 0.500000 0.000000 0.000000
O O8 0.175572 0.885429 0.621436
O O9 0.933761 0.816792 0.779160
O O10 0.247838 0.141306 0.631622
O O11 0.500620 0.278900 0.461651
O O12 0.000000 0.000000 0.500000
O O13 0.427457 0.669274 0.890890
O O14 0.094456 0.577192 0.049291
O O15 0.500000 0.500000 0.500000
O O16 0.000000 0.500000 0.500000
#
# Coordination Sequence:
#
# PCOD8028188 Si02
#       7
#     2   2   2   2   2   2   2
#     4  11  25  42  75 100 140 189 240 289 346 432
#     4  12  25  44  69 104 145 182 239 292 349 409
#     4  11  25  46  74  99 142 186 244 282 356 442
#     4  11  24  48  73 102 138 192 244 287 354 437
#     4  11  26  45  71 102 147 187 231 294 351 415
#     4  12  28  46  72 104 142 179 229 304 359 411
#     4  10  25  44  70 103 139 191 231 286 357 420
#
# _framework density 23.782254999999999
#
# number of rings (size 3 to 8) (size 9 to 14) (size 15 to 20)
#    0.000    0.857    2.857    2.571   10.000    3.429 
#    0.000    0.000    0.000    0.000    0.000    0.000 
#    0.000    0.000    0.000    0.000    0.000    0.000 
#
# Total GULP energy -173642.520154 kJ/mol
# GULP energy per Si atom -12403.037154 kJ/mol
# Density = 2.372813 g / cm^3
# Si number density = 23.782255 Si / 1000 Ang^3
#
#
#
# Elastic Constant Matrix: (Units=GPa)
#
#
# Indices 1 2 3 4 5 6 
#
# 1 98.8028 30.6389 46.5449 -11.8999 -15.2535 -11.4923
# 2 30.6389 77.7300 51.7440 -23.7436 -10.1772 -12.3609
# 3 46.5449 51.7440 162.9783 -22.1237 -37.1354 -0.2863
# 4 -11.8999 -23.7436 -22.1237 45.7982 4.8404 -3.8176
# 5 -15.2535 -10.1772 -37.1354 4.8404 38.5918 -11.5173
# 6 -11.4923 -12.3609 -0.2863 -3.8176 -11.5173 50.5596
#
#
#
# Elastic Compliance Matrix: (Units=1/GPa)
#
#
# Indices 1 2 3 4 5 6 
#
# 1 0.012821 -0.002511 -0.001969 0.000988 0.003318 0.003120
# 2 -0.002511 0.020142 -0.004462 0.007999 0.000530 0.005053
# 3 -0.001969 -0.004462 0.010025 0.001239 0.007641 0.000353
# 4 0.000988 0.007999 0.001239 0.027045 0.001677 0.004611
# 5 0.003318 0.000530 0.007641 0.001677 0.037360 0.009564
# 6 0.003120 0.005053 0.000353 0.004611 0.009564 0.024252
#
#
# Mechanical properties :
#
#
# Convention : Reuss Voigt Hill
#
# Bulk Modulus (GPa) = 39.83398 66.37406 53.10402
# Shear Modulus (GPa) = 31.66627 41.02882 36.34755
#
# Velocity S-wave (km/s) = 3.65294 4.15804 3.91365
# Velocity P-wave (km/s) = 5.88029 7.14297 6.54217
#
# Compressibility (1/GPa) = 0.02510419
#
# Stress axis : x y z
#
# Youngs Moduli (GPa) = 77.99438 49.64833 99.75354
#
# Poissons Ratio (x) = 0.12466 0.19640
# Poissons Ratio (y) = 0.19583 0.44511
# Poissons Ratio (z) = 0.15356 0.22154
#
# Static dielectric constant tensor:
#      x y z
#    x 4.407690 0.000540 -0.271860 
#    y 0.000540 4.254910 -0.038500 
#    z -0.271860 -0.038500 4.764610 
# 
# 
# High freq. dielectric constant tensor:
#      x y z
#    x 1.948360 -0.002990 -0.016230 
#    y -0.002990 1.931230 -0.004650 
#    z -0.016230 -0.004650 1.961700 
# 
# From -- ./inp_files/48164.got.cif
#   From: 2010.06.25/outbox.cif.g09.slc.cpg/sg2_25_cif.got.tgz:48164.got - 2010.06.27 13:26:56.
