data_PCOD8028874
_publ_section_title
;
Structure prediction by ZEFSAII (Michael W. Deem and Ramdas Pophale) SiO2 
 PCOD8028874
Probable space group: P -1
;
_chemical_formula_sum "Si O2"
_cell_formula_units_Z 14
_cell_length_a 9.030080
_cell_length_b 11.126734
_cell_length_c 11.351547
_cell_angle_alpha 77.228596
_cell_angle_beta 141.924146
_cell_angle_gamma 113.202456
_cell_volume 638.458209
_symmetry_space_group_name_H-M "P -1"
_symmetry_group_IT_number 2
_symmetry_cell_setting 'triclinic'
loop_
_space_group_symop_operation_xyz
x,y,z
-x,-y,-z
loop_
_atom_site_type_symbol
_atom_site_label
_atom_site_fract_x
_atom_site_fract_y
_atom_site_fract_z
Si Si1 0.828804 0.650554 0.834545
Si Si2 0.781749 0.860369 0.917379
Si Si3 0.748758 0.038440 0.229376
Si Si4 0.701563 0.808878 0.530716
Si Si5 0.315050 0.914903 0.553277
Si Si6 0.623186 0.357383 0.847012
Si Si7 0.225971 0.205153 0.807740
O O1 0.880010 0.745464 0.960427
O O2 0.654279 0.697963 0.625534
O O3 0.653991 0.503135 0.794690
O O4 0.101799 0.654929 0.952251
O O5 0.547619 0.864103 0.687882
O O6 0.698886 0.832249 0.008731
O O7 0.000000 0.000000 0.000000
O O8 0.676578 0.064433 0.307073
O O9 0.996030 0.160166 0.313398
O O10 0.828244 0.910319 0.300277
O O11 0.500000 0.000000 0.000000
O O12 0.519367 0.747527 0.319634
O O13 0.651206 0.941392 0.514762
O O14 0.064289 0.793307 0.371315
O O15 0.456186 0.330923 0.870341
#
# Coordination Sequence:
#
# PCOD8028874 Si02
#       7
#     2   2   2   2   2   2   2
#     4  11  27  42  64  95 130 171 216 263 315 380
#     4  12  26  42  61  97 137 163 201 265 334 384
#     4  11  18  34  64 100 120 158 212 265 310 368
#     4  11  21  38  67  94 126 161 214 264 315 368
#     4  11  22  37  65  98 125 161 206 264 320 378
#     4  11  23  46  68  90 123 174 225 263 305 369
#     4  11  22  39  68  92 125 169 215 258 315 378
#
# _framework density 21.927826
#
# number of rings (size 3 to 8) (size 9 to 14) (size 15 to 20)
#    0.000    0.857    4.286    4.714    0.000    4.000 
#    0.000    0.714    0.000    0.000    0.000    0.000 
#    0.000    0.000    0.000    0.000    0.000    0.000 
#
# Total GULP energy -173486.821298 kJ/mol
# GULP energy per Si atom -12391.915807 kJ/mol
# Density = 2.187792 g / cm^3
# Si number density = 21.927826 Si / 1000 Ang^3
#
#
#
# Elastic Constant Matrix: (Units=GPa)
#
#
# Indices 1 2 3 4 5 6 
#
# 1 55.0887 44.4041 20.7199 -11.1282 2.2160 16.9059
# 2 44.4041 119.3036 32.3375 -7.5993 11.5769 22.5771
# 3 20.7199 32.3375 113.8313 -13.4476 14.8909 20.8695
# 4 -11.1282 -7.5993 -13.4476 35.2618 3.5220 -0.9374
# 5 2.2160 11.5769 14.8909 3.5220 37.3464 -1.4703
# 6 16.9059 22.5771 20.8695 -0.9374 -1.4703 38.5495
#
#
#
# Elastic Compliance Matrix: (Units=1/GPa)
#
#
# Indices 1 2 3 4 5 6 
#
# 1 0.029110 -0.008928 -0.000746 0.006751 0.000427 -0.006953
# 2 -0.008928 0.012887 -0.001067 -0.000218 -0.003144 -0.003180
# 3 -0.000746 -0.001067 0.011297 0.004176 -0.004729 -0.005242
# 4 0.006751 -0.000218 0.004176 0.032438 -0.005234 -0.004504
# 5 0.000427 -0.003144 -0.004729 -0.005234 0.030311 0.005243
# 6 -0.006953 -0.003180 -0.005242 -0.004504 0.005243 0.033781
#
#
# Mechanical properties :
#
#
# Convention : Reuss Voigt Hill
#
# Bulk Modulus (GPa) = 31.43552 53.68295 42.55923
# Shear Modulus (GPa) = 27.48599 34.94901 31.21750
#
# Velocity S-wave (km/s) = 3.54429 3.99660 3.77722
# Velocity P-wave (km/s) = 5.57820 6.76992 6.20275
#
# Compressibility (1/GPa) = 0.03181115
#
# Stress axis : x y z
#
# Youngs Moduli (GPa) = 34.35278 77.59668 88.51833
#
# Poissons Ratio (x) = 0.69278 0.06604
# Poissons Ratio (y) = 0.30670 0.09449
# Poissons Ratio (z) = 0.02563 0.08283
#
# Static dielectric constant tensor:
#      x y z
#    x 4.608890 -0.039640 0.780090 
#    y -0.039640 3.941610 -0.292190 
#    z 0.780090 -0.292190 4.841240 
# 
# 
# High freq. dielectric constant tensor:
#      x y z
#    x 1.861610 0.017350 0.005370 
#    y 0.017350 1.838600 -0.008520 
#    z 0.005370 -0.008520 1.878660 
# 
# From -- ./inp_files/260463.got.cif
#   From: 2010.06.25/outbox.cif.g09.slc.cpg/sg2_131_cif.got.tgz:260463.got - 2010.06.27 13:26:56.
