data_PCOD8028006
_publ_section_title
;
Structure prediction by ZEFSAII (Michael W. Deem and Ramdas Pophale) SiO2 
 PCOD8028006
Probable space group: P -1
;
_chemical_formula_sum "Si O2"
_cell_formula_units_Z 16
_cell_length_a 13.287580
_cell_length_b 9.895041
_cell_length_c 9.301033
_cell_angle_alpha 58.072531
_cell_angle_beta 119.148166
_cell_angle_gamma 78.815730
_cell_volume 718.857641
_symmetry_space_group_name_H-M "P -1"
_symmetry_group_IT_number 2
_symmetry_cell_setting 'triclinic'
loop_
_space_group_symop_operation_xyz
x,y,z
-x,-y,-z
loop_
_atom_site_type_symbol
_atom_site_label
_atom_site_fract_x
_atom_site_fract_y
_atom_site_fract_z
Si Si1 0.934020 0.301564 0.860612
Si Si2 0.325482 0.313864 0.417962
Si Si3 0.359599 0.913287 0.172553
Si Si4 0.673364 0.735101 0.882417
Si Si5 0.411611 0.729297 0.770978
Si Si6 0.737791 0.938152 0.295700
Si Si7 0.975220 0.455294 0.349374
Si Si8 0.188922 0.866280 0.292442
O O1 0.801447 0.447486 0.794662
O O2 0.005720 0.409522 0.816206
O O3 0.870647 0.263636 0.696323
O O4 0.057622 0.086145 0.138610
O O5 0.475442 0.280790 0.572216
O O6 0.317207 0.246783 0.291655
O O7 0.313136 0.184709 0.600129
O O8 0.244478 0.878253 0.166562
O O9 0.327244 0.093433 0.144046
O O10 0.343352 0.966978 0.964081
O O11 0.524595 0.774110 0.795157
O O12 0.813306 0.524075 0.165651
O O13 0.322940 0.758548 0.552323
O O14 0.300967 0.878540 0.734567
O O15 0.500000 0.500000 0.000000
O O16 0.911059 0.780613 0.476812
O O17 0.000000 0.500000 0.500000
#
# Coordination Sequence:
#
# PCOD8028006 Si02
#       8
#     2   2   2   2   2   2   2   2
#     4  10  25  41  70  98 130 178 222 266 333 393
#     4  11  24  40  71 102 131 172 222 281 325 395
#     4  12  22  42  70  97 136 175 219 273 334 394
#     4  12  24  44  69 100 134 171 225 272 341 388
#     4  12  29  45  67  97 138 179 218 280 336 391
#     4  11  25  41  68 102 133 174 228 273 329 399
#     4  11  23  43  72 101 133 176 221 280 327 396
#     4  11  24  47  66  94 140 177 219 269 334 399
#
# _framework density 22.257534
#
# number of rings (size 3 to 8) (size 9 to 14) (size 15 to 20)
#    0.000    0.750    5.000    1.500    5.250    2.500 
#    0.000    0.625    0.000    0.000    0.000    0.000 
#    0.000    0.000    0.000    0.000    0.000    0.000 
#
# Total GULP energy -198408.272955 kJ/mol
# GULP energy per Si atom -12400.517060 kJ/mol
# Density = 2.220688 g / cm^3
# Si number density = 22.257534 Si / 1000 Ang^3
#
#
#
# Elastic Constant Matrix: (Units=GPa)
#
#
# Indices 1 2 3 4 5 6 
#
# 1 48.1064 19.7424 36.8665 -2.0519 10.6705 -22.7536
# 2 19.7424 88.2629 22.2073 -10.7465 -6.3918 -18.7532
# 3 36.8665 22.2073 129.4040 11.7654 11.6203 -13.7388
# 4 -2.0519 -10.7465 11.7654 39.1144 -7.8449 5.2527
# 5 10.6705 -6.3918 11.6203 -7.8449 39.9814 2.2634
# 6 -22.7536 -18.7532 -13.7388 5.2527 2.2634 34.5258
#
#
#
# Elastic Compliance Matrix: (Units=1/GPa)
#
#
# Indices 1 2 3 4 5 6 
#
# 1 0.041485 -0.003417 -0.007571 -0.001868 -0.011113 0.023484
# 2 -0.003417 0.014262 -0.001907 0.004706 0.004458 0.003728
# 3 -0.007571 -0.001907 0.010718 -0.004465 -0.002222 -0.000935
# 4 -0.001868 0.004706 -0.004465 0.030651 0.008885 -0.005697
# 5 -0.011113 0.004458 -0.002222 0.008885 0.031601 -0.009210
# 6 0.023484 0.003728 -0.000935 -0.005697 -0.009210 0.047564
#
#
# Mechanical properties :
#
#
# Convention : Reuss Voigt Hill
#
# Bulk Modulus (GPa) = 24.58509 47.04509 35.81509
# Shear Modulus (GPa) = 23.18807 35.18812 29.18810
#
# Velocity S-wave (km/s) = 3.23121 3.98043 3.62523
# Velocity P-wave (km/s) = 4.99906 6.50444 5.80079
#
# Compressibility (1/GPa) = 0.04067506
#
# Stress axis : x y z
#
# Youngs Moduli (GPa) = 24.10534 70.11820 93.29925
#
# Poissons Ratio (x) = 0.23958 0.70640
# Poissons Ratio (y) = 0.08236 0.17788
# Poissons Ratio (z) = 0.18251 0.13368
#
# Static dielectric constant tensor:
#      x y z
#    x 4.569500 -0.168500 0.447220 
#    y -0.168500 4.069110 -0.144920 
#    z 0.447220 -0.144920 4.288040 
# 
# 
# High freq. dielectric constant tensor:
#      x y z
#    x 1.871520 -0.017060 0.019770 
#    y -0.017060 1.872700 -0.007820 
#    z 0.019770 -0.007820 1.887520 
# 
# From -- ./inp_files/297995.got.cif
#   From: 2010.06.25/outbox.cif.g09.slc.cpg/sg2_149_cif.got.tgz:297995.got - 2010.06.27 13:26:56.
