data_PCOD8028220
_publ_section_title
;
Structure prediction by ZEFSAII (Michael W. Deem and Ramdas Pophale) SiO2 
 PCOD8028220
Probable space group: P -1
;
_chemical_formula_sum "Si O2"
_cell_formula_units_Z 12
_cell_length_a 19.437175
_cell_length_b 8.502458
_cell_length_c 6.558884
_cell_angle_alpha 101.208827
_cell_angle_beta 64.444346
_cell_angle_gamma 145.710636
_cell_volume 522.177446
_symmetry_space_group_name_H-M "P -1"
_symmetry_group_IT_number 2
_symmetry_cell_setting 'triclinic'
loop_
_space_group_symop_operation_xyz
x,y,z
-x,-y,-z
loop_
_atom_site_type_symbol
_atom_site_label
_atom_site_fract_x
_atom_site_fract_y
_atom_site_fract_z
Si Si1 0.051583 0.919380 0.848457
Si Si2 0.613309 0.103160 0.753248
Si Si3 0.711282 0.598099 0.621598
Si Si4 0.776582 0.241793 0.936407
Si Si5 0.455815 0.238974 0.596913
Si Si6 0.265760 0.165040 0.963282
O O1 0.922160 0.574638 0.897896
O O2 0.134010 0.082032 0.570866
O O3 0.148359 0.021116 0.927583
O O4 0.000000 0.000000 0.000000
O O5 0.693408 0.374342 0.578706
O O6 0.729777 0.221017 0.770729
O O7 0.536604 0.829350 0.651774
O O8 0.500000 0.000000 0.000000
O O9 0.604871 0.496999 0.579501
O O10 0.683612 0.605811 0.891721
O O11 0.797104 0.085162 0.872784
O O12 0.654042 0.065765 0.211645
O O13 0.396913 0.321837 0.699703
#
# Coordination Sequence:
#
# PCOD8028220 Si02
#       6
#     2   2   2   2   2   2
#     4  12  27  45  72 102 144 182 234 288 345 414
#     4  12  24  43  75 102 141 183 231 285 347 412
#     4  12  26  44  74 106 139 181 237 287 346 410
#     4  10  25  46  69 101 141 183 231 277 351 411
#     4  10  25  44  73 103 138 181 232 285 348 404
#     4  10  26  47  73 101 142 182 236 283 350 413
#
# _framework density 22.980692999999999
#
# number of rings (size 3 to 8) (size 9 to 14) (size 15 to 20)
#    1.000    0.000    1.667    3.500    7.000    5.333 
#    0.000    0.000    0.000    0.000    0.000    0.000 
#    0.000    0.000    0.000    0.000    0.000    0.000 
#
# Total GULP energy -148817.504465 kJ/mol
# GULP energy per Si atom -12401.458705 kJ/mol
# Density = 2.292839 g / cm^3
# Si number density = 22.980693 Si / 1000 Ang^3
#
#
#
# Elastic Constant Matrix: (Units=GPa)
#
#
# Indices 1 2 3 4 5 6 
#
# 1 114.6067 8.6927 19.6251 5.6601 7.3968 7.9823
# 2 8.6927 80.5639 29.5987 18.6414 -17.4907 7.5774
# 3 19.6251 29.5987 97.8808 16.0606 -20.4663 7.4956
# 4 5.6601 18.6414 16.0606 45.4894 4.6021 3.2516
# 5 7.3968 -17.4907 -20.4663 4.6021 33.9835 4.7766
# 6 7.9823 7.5774 7.4956 3.2516 4.7766 45.7497
#
#
#
# Elastic Compliance Matrix: (Units=1/GPa)
#
#
# Indices 1 2 3 4 5 6 
#
# 1 0.009517 -0.001080 -0.002487 0.000601 -0.004110 -0.000688
# 2 -0.001080 0.017056 -0.001602 -0.007037 0.009403 -0.002856
# 3 -0.002487 -0.001602 0.014064 -0.004766 0.009144 -0.002221
# 4 0.000601 -0.007037 -0.004766 0.027465 -0.010480 0.000984
# 5 -0.004110 0.009403 0.009144 -0.010480 0.042940 -0.006077
# 6 -0.000688 -0.002856 -0.002221 0.000984 -0.006077 0.023380
#
#
# Mechanical properties :
#
#
# Convention : Reuss Voigt Hill
#
# Bulk Modulus (GPa) = 33.00416 45.43158 39.21787
# Shear Modulus (GPa) = 32.28792 40.72018 36.50405
#
# Velocity S-wave (km/s) = 3.75240 4.21400 3.98988
# Velocity P-wave (km/s) = 5.75907 6.59465 6.19097
#
# Compressibility (1/GPa) = 0.03029921
#
# Stress axis : x y z
#
# Youngs Moduli (GPa) = 105.07860 58.63158 71.10595
#
# Poissons Ratio (x) = 0.06331 0.17683
# Poissons Ratio (y) = 0.11347 0.11389
# Poissons Ratio (z) = 0.26131 0.09391
#
# Static dielectric constant tensor:
#      x y z
#    x 4.221140 -0.205600 0.054090 
#    y -0.205600 4.159860 -0.133010 
#    z 0.054090 -0.133010 4.207200 
# 
# 
# High freq. dielectric constant tensor:
#      x y z
#    x 1.919660 -0.010720 0.009870 
#    y -0.010720 1.918760 -0.008160 
#    z 0.009870 -0.008160 1.910300 
# 
# From -- ./inp_files/78634.got.cif
#   From: 2010.06.25/outbox.cif.g09.slc.cpg/sg2_40_cif.got.tgz:78634.got - 2010.06.27 13:26:56.
