data_PCOD8028698
_publ_section_title
;
Structure prediction by ZEFSAII (Michael W. Deem and Ramdas Pophale) SiO2 
 PCOD8028698
Probable space group: P -1
;
_chemical_formula_sum "Si O2"
_cell_formula_units_Z 16
_cell_length_a 8.973715
_cell_length_b 9.142722
_cell_length_c 12.089138
_cell_angle_alpha 64.860683
_cell_angle_beta 111.986890
_cell_angle_gamma 71.786413
_cell_volume 688.768364
_symmetry_space_group_name_H-M "P -1"
_symmetry_group_IT_number 2
_symmetry_cell_setting 'triclinic'
loop_
_space_group_symop_operation_xyz
x,y,z
-x,-y,-z
loop_
_atom_site_type_symbol
_atom_site_label
_atom_site_fract_x
_atom_site_fract_y
_atom_site_fract_z
Si Si1 0.214964 0.032776 0.126326
Si Si2 0.917708 0.375130 0.055790
Si Si3 0.113143 0.276388 0.564143
Si Si4 0.897918 0.748103 0.194713
Si Si5 0.332956 0.600260 0.329623
Si Si6 0.496260 0.384018 0.218368
Si Si7 0.529750 0.004785 0.375422
Si Si8 0.848257 0.402698 0.265963
O O1 0.334512 0.077856 0.229677
O O2 0.993900 0.188263 0.056898
O O3 0.279550 0.814189 0.221147
O O4 0.218107 0.081885 0.982755
O O5 0.972780 0.303244 0.220915
O O6 0.686142 0.511819 0.946999
O O7 0.000000 0.500000 0.000000
O O8 0.164279 0.151681 0.731918
O O9 0.000000 0.500000 0.500000
O O10 0.967172 0.260715 0.448414
O O11 0.304937 0.204194 0.566080
O O12 0.821818 0.609384 0.204930
O O13 0.133297 0.620632 0.296741
O O14 0.500000 0.500000 0.500000
O O15 0.426872 0.460915 0.297071
O O16 0.594065 0.152075 0.321833
O O17 0.641614 0.434131 0.195294
O O18 0.500000 0.000000 0.500000
#
# Coordination Sequence:
#
# PCOD8028698 Si02
#       8
#     2   2   2   2   2   2   2   2
#     4  12  26  44  78 112 145 203 254 315 377 458
#     4  12  22  46  73 107 151 198 250 314 387 447
#     4  10  26  44  74 105 150 201 250 309 385 439
#     4  11  24  48  72 105 153 195 250 313 381 452
#     4  12  27  46  75 109 149 199 257 312 381 456
#     4  12  26  44  72 110 148 196 254 312 381 449
#     4  12  27  46  76 113 151 199 259 309 382 460
#     4  11  24  44  73 104 152 198 246 314 382 450
#
# _framework density 23.229869999999998
#
# number of rings (size 3 to 8) (size 9 to 14) (size 15 to 20)
#    0.000    0.500    3.750    3.000   10.500    2.000 
#    2.250    0.000    0.000    0.000    0.000    0.000 
#    0.000    0.000    0.000    0.000    0.000    0.000 
#
# Total GULP energy -198341.687961 kJ/mol
# GULP energy per Si atom -12396.355498 kJ/mol
# Density = 2.317700 g / cm^3
# Si number density = 23.229870 Si / 1000 Ang^3
#
#
#
# Elastic Constant Matrix: (Units=GPa)
#
#
# Indices 1 2 3 4 5 6 
#
# 1 146.1167 36.6497 51.2365 9.9947 0.5053 3.6129
# 2 36.6497 97.1981 46.2366 4.5282 -13.0683 -10.7754
# 3 51.2365 46.2366 160.9782 22.6266 -14.7166 -3.3590
# 4 9.9947 4.5282 22.6266 47.5896 -9.7396 -9.1788
# 5 0.5053 -13.0683 -14.7166 -9.7396 35.6978 9.8466
# 6 3.6129 -10.7754 -3.3590 -9.1788 9.8466 49.7017
#
#
#
# Elastic Compliance Matrix: (Units=1/GPa)
#
#
# Indices 1 2 3 4 5 6 
#
# 1 0.008268 -0.002515 -0.001937 -0.001171 -0.001845 -0.001128
# 2 -0.002515 0.013281 -0.002900 0.001847 0.003513 0.002511
# 3 -0.001937 -0.002900 0.008231 -0.003032 0.001764 -0.000841
# 4 -0.001171 0.001847 -0.003032 0.024281 0.005028 0.003769
# 5 -0.001845 0.003513 0.001764 0.005028 0.032673 -0.004530
# 6 -0.001128 0.002511 -0.000841 0.003769 -0.004530 0.022283
#
#
# Mechanical properties :
#
#
# Convention : Reuss Voigt Hill
#
# Bulk Modulus (GPa) = 66.32697 74.72653 70.52675
# Shear Modulus (GPa) = 38.83601 44.60916 41.72258
#
# Velocity S-wave (km/s) = 4.09322 4.38692 4.24261
# Velocity P-wave (km/s) = 7.13818 7.60909 7.37739
#
# Compressibility (1/GPa) = 0.01507682
#
# Stress axis : x y z
#
# Youngs Moduli (GPa) = 120.94585 75.29701 121.48663
#
# Poissons Ratio (x) = 0.18935 0.23530
# Poissons Ratio (y) = 0.30415 0.35233
# Poissons Ratio (z) = 0.23425 0.21837
#
# Static dielectric constant tensor:
#      x y z
#    x 4.371940 -0.098850 0.102390 
#    y -0.098850 4.372480 0.406970 
#    z 0.102390 0.406970 4.931770 
# 
# 
# High freq. dielectric constant tensor:
#      x y z
#    x 1.913310 -0.005930 0.001260 
#    y -0.005930 1.918480 0.020040 
#    z 0.001260 0.020040 1.940710 
# 
# From -- ./inp_files/381752.got.cif
#   From: 2010.06.25/outbox.cif.g09.slc.cpg/sg2_191_cif.got.tgz:381752.got - 2010.06.27 13:26:56.
