data_PCOD8028977
_publ_section_title
;
Structure prediction by ZEFSAII (Michael W. Deem and Ramdas Pophale) SiO2 
 PCOD8028977
Probable space group: P -1
;
_chemical_formula_sum "Si O2"
_cell_formula_units_Z 16
_cell_length_a 13.675902
_cell_length_b 11.479778
_cell_length_c 18.237391
_cell_angle_alpha 29.927373
_cell_angle_beta 148.257628
_cell_angle_gamma 147.287463
_cell_volume 689.547272
_symmetry_space_group_name_H-M "P -1"
_symmetry_group_IT_number 2
_symmetry_cell_setting 'triclinic'
loop_
_space_group_symop_operation_xyz
x,y,z
-x,-y,-z
loop_
_atom_site_type_symbol
_atom_site_label
_atom_site_fract_x
_atom_site_fract_y
_atom_site_fract_z
Si Si1 0.240891 0.928613 0.579129
Si Si2 0.080038 0.958693 0.767637
Si Si3 0.578649 0.390408 0.479517
Si Si4 0.787283 0.206534 0.591339
Si Si5 0.742363 0.672240 0.806302
Si Si6 0.256306 0.040840 0.686153
Si Si7 0.252542 0.511838 0.725646
Si Si8 0.523590 0.772703 0.034769
O O1 0.449347 0.180668 0.571254
O O2 0.079026 0.906841 0.422169
O O3 0.146807 0.923775 0.602749
O O4 0.287281 0.679550 0.730126
O O5 0.116985 0.876069 0.754467
O O6 0.965636 0.741452 0.873823
O O7 0.299650 0.142818 0.836655
O O8 0.725021 0.286443 0.585910
O O9 0.419888 0.438275 0.300587
O O10 0.709162 0.663121 0.450275
O O11 0.688743 0.309072 0.407056
O O12 0.027111 0.305530 0.685329
O O13 0.709975 0.902927 0.700608
O O14 0.689400 0.435935 0.956404
O O15 0.470758 0.004163 0.845089
O O16 0.397726 0.358092 0.908134
#
# Coordination Sequence:
#
# PCOD8028977 Si02
#       8
#     2   2   2   2   2   2   2   2
#     4  11  24  42  66  96 127 173 216 263 315 380
#     4  11  22  42  67  94 124 165 219 270 302 370
#     4  11  21  38  66  95 126 165 220 265 312 375
#     4  11  19  36  67 101 120 153 219 288 309 350
#     4  11  21  37  66 103 123 157 215 275 325 355
#     4  12  26  43  61  90 142 179 202 250 330 394
#     4  11  19  36  66  93 127 162 212 267 323 365
#     4  12  24  42  67  96 133 167 208 271 321 380
#
# _framework density 23.203631000000001
#
# number of rings (size 3 to 8) (size 9 to 14) (size 15 to 20)
#    0.000    0.750    6.250    3.750    0.000    1.000 
#    2.250    0.000    0.000    1.500    0.000    0.000 
#    0.000    0.000    0.000    0.000    0.000    0.000 
#
# Total GULP energy -198313.834727 kJ/mol
# GULP energy per Si atom -12394.614670 kJ/mol
# Density = 2.315082 g / cm^3
# Si number density = 23.203631 Si / 1000 Ang^3
#
#
#
# Elastic Constant Matrix: (Units=GPa)
#
#
# Indices 1 2 3 4 5 6 
#
# 1 88.6052 26.1803 -0.3216 -8.1389 15.4095 -5.9767
# 2 26.1803 93.1663 12.6569 -3.9944 -1.3573 -1.2800
# 3 -0.3216 12.6569 44.5896 -2.0672 9.9148 -1.2320
# 4 -8.1389 -3.9944 -2.0672 14.9164 0.3728 4.4865
# 5 15.4095 -1.3573 9.9148 0.3728 13.7179 2.8921
# 6 -5.9767 -1.2800 -1.2320 4.4865 2.8921 43.8842
#
#
#
# Elastic Compliance Matrix: (Units=1/GPa)
#
#
# Indices 1 2 3 4 5 6 
#
# 1 0.019925 -0.006870 0.009566 0.009989 -0.031050 0.003807
# 2 -0.006870 0.013813 -0.007340 -0.000950 0.014756 -0.001614
# 3 0.009566 -0.007340 0.033126 0.007662 -0.036389 0.003634
# 4 0.009989 -0.000950 0.007662 0.075238 -0.017849 -0.004968
# 5 -0.031050 0.014756 -0.036389 -0.017849 0.138579 -0.012128
# 6 0.003807 -0.001614 0.003634 -0.004968 -0.012128 0.024668
#
#
# Mechanical properties :
#
#
# Convention : Reuss Voigt Hill
#
# Bulk Modulus (GPa) = 17.36839 33.71025 25.53932
# Shear Modulus (GPa) = 14.97768 27.02673 21.00221
#
# Velocity S-wave (km/s) = 2.54340 3.41657 3.01179
# Velocity P-wave (km/s) = 4.01580 5.48848 4.80885
#
# Compressibility (1/GPa) = 0.05757587
#
# Stress axis : x y z
#
# Youngs Moduli (GPa) = 50.18805 72.39349 30.18761
#
# Poissons Ratio (x) = 0.49738 -0.28879
# Poissons Ratio (y) = 0.34482 0.22158
# Poissons Ratio (z) = -0.48012 0.53139
#
# Static dielectric constant tensor:
#      x y z
#    x 4.419370 0.214080 0.314880 
#    y 0.214080 4.096310 -0.113670 
#    z 0.314880 -0.113670 3.834240 
# 
# 
# High freq. dielectric constant tensor:
#      x y z
#    x 1.928860 0.007480 0.033980 
#    y 0.007480 1.912120 -0.010110 
#    z 0.033980 -0.010110 1.878370 
# 
# From -- ./inp_files/471920.got.cif
#   From: 2010.06.25/outbox.cif.g09.slc.cpg/sg2_236_cif.got.tgz:471920.got - 2010.06.27 13:26:56.
