data_PCOD8028034
_publ_section_title
;
Structure prediction by ZEFSAII (Michael W. Deem and Ramdas Pophale) SiO2 
 PCOD8028034
Probable space group: P -1
;
_chemical_formula_sum "Si O2"
_cell_formula_units_Z 16
_cell_length_a 15.005930
_cell_length_b 9.921546
_cell_length_c 11.777564
_cell_angle_alpha 80.494688
_cell_angle_beta 29.878026
_cell_angle_gamma 93.612434
_cell_volume 781.963683
_symmetry_space_group_name_H-M "P -1"
_symmetry_group_IT_number 2
_symmetry_cell_setting 'triclinic'
loop_
_space_group_symop_operation_xyz
x,y,z
-x,-y,-z
loop_
_atom_site_type_symbol
_atom_site_label
_atom_site_fract_x
_atom_site_fract_y
_atom_site_fract_z
Si Si1 0.078577 0.617896 0.996735
Si Si2 0.185705 0.962122 0.812886
Si Si3 0.184857 0.185978 0.427834
Si Si4 0.290261 0.448007 0.442830
Si Si5 0.370528 0.593544 0.842302
Si Si6 0.461970 0.107499 0.278355
Si Si7 0.748916 0.974876 0.009629
Si Si8 0.322681 0.297354 0.019476
O O1 0.278376 0.611388 0.822552
O O2 0.917263 0.564233 0.282410
O O3 0.120604 0.784997 0.887299
O O4 0.000000 0.500000 0.000000
O O5 0.348469 0.054690 0.529718
O O6 0.278685 0.013421 0.827158
O O7 0.000000 0.000000 0.000000
O O8 0.261413 0.351847 0.373635
O O9 0.310929 0.097513 0.346587
O O10 0.203318 0.197652 0.270490
O O11 0.960387 0.094939 0.721650
O O12 0.400319 0.386359 0.425162
O O13 0.441201 0.621257 0.224606
O O14 0.246332 0.426583 0.056213
O O15 0.372891 0.721737 0.908955
O O16 0.579131 0.008253 0.129442
O O17 0.717333 0.808286 0.031950
#
# Coordination Sequence:
#
# PCOD8028034 Si02
#       8
#     2   2   2   2   2   2   2   2
#     4  12  25  40  66  96 131 168 218 265 314 388
#     4  12  24  42  65  94 130 178 202 265 326 380
#     4  11  21  47  67  91 131 171 218 259 325 382
#     4   9  21  43  63  93 127 165 212 260 317 378
#     4   9  22  43  59  96 124 167 217 254 316 378
#     4  11  23  41  69  91 129 172 216 258 322 392
#     4  12  24  43  64  98 132 164 219 266 322 382
#     4  10  25  42  69  94 130 169 212 277 315 372
#
# _framework density 20.461310000000001
#
# number of rings (size 3 to 8) (size 9 to 14) (size 15 to 20)
#    0.750    0.500    3.750    1.875    3.500    1.000 
#    2.250    1.250    0.000    0.000    0.000    0.000 
#    0.000    0.000    0.000    0.000    0.000    0.000 
#
# Total GULP energy -198338.525290 kJ/mol
# GULP energy per Si atom -12396.157831 kJ/mol
# Density = 2.041474 g / cm^3
# Si number density = 20.461310 Si / 1000 Ang^3
#
#
#
# Elastic Constant Matrix: (Units=GPa)
#
#
# Indices 1 2 3 4 5 6 
#
# 1 75.4237 49.5764 23.0909 6.7265 -3.2415 -9.7339
# 2 49.5764 112.8028 26.2923 -5.3105 6.1244 0.8603
# 3 23.0909 26.2923 39.0644 -4.7378 -13.5998 -11.7768
# 4 6.7265 -5.3105 -4.7378 28.5736 -5.1795 -4.1188
# 5 -3.2415 6.1244 -13.5998 -5.1795 26.9553 -1.0621
# 6 -9.7339 0.8603 -11.7768 -4.1188 -1.0621 36.6218
#
#
#
# Elastic Compliance Matrix: (Units=1/GPa)
#
#
# Indices 1 2 3 4 5 6 
#
# 1 0.022086 -0.008156 -0.008098 -0.007870 -0.000989 0.002544
# 2 -0.008156 0.015725 -0.011367 0.000116 -0.010522 -0.006485
# 3 -0.008098 -0.011367 0.058875 0.018951 0.035751 0.020216
# 4 -0.007870 0.000116 0.018951 0.044563 0.017526 0.009520
# 5 -0.000989 -0.010522 0.035751 0.017526 0.061376 0.015233
# 6 0.002544 -0.006485 0.020216 0.009520 0.015233 0.036148
#
#
# Mechanical properties :
#
#
# Convention : Reuss Voigt Hill
#
# Bulk Modulus (GPa) = 24.12783 47.24557 35.68670
# Shear Modulus (GPa) = 16.24279 26.98553 21.61416
#
# Velocity S-wave (km/s) = 2.82055 3.63555 3.25367
# Velocity P-wave (km/s) = 4.73549 6.38461 5.62086
#
# Compressibility (1/GPa) = 0.04144591
#
# Stress axis : x y z
#
# Youngs Moduli (GPa) = 45.27786 63.59311 16.98508
#
# Poissons Ratio (x) = 0.51863 0.13754
# Poissons Ratio (y) = 0.36926 0.19307
# Poissons Ratio (z) = 0.36664 0.72287
#
# Static dielectric constant tensor:
#      x y z
#    x 3.676820 -0.084550 -0.210980 
#    y -0.084550 3.881930 -0.045830 
#    z -0.210980 -0.045830 3.594710 
# 
# 
# High freq. dielectric constant tensor:
#      x y z
#    x 1.789250 -0.000460 -0.016890 
#    y -0.000460 1.807420 -0.007730 
#    z -0.016890 -0.007730 1.789160 
# 
# From -- ./inp_files/447326.got.cif
#   From: 2010.06.25/outbox.cif.g09.slc.cpg/sg2_224_cif.got.tgz:447326.got - 2010.06.27 13:26:56.
