data_PCOD8028249
_publ_section_title
;
Structure prediction by ZEFSAII (Michael W. Deem and Ramdas Pophale) SiO2 
 PCOD8028249
Probable space group: P -1
;
_chemical_formula_sum "Si O2"
_cell_formula_units_Z 16
_cell_length_a 8.864015
_cell_length_b 11.548761
_cell_length_c 15.768249
_cell_angle_alpha 31.435249
_cell_angle_beta 112.309357
_cell_angle_gamma 96.724871
_cell_volume 703.675792
_symmetry_space_group_name_H-M "P -1"
_symmetry_group_IT_number 2
_symmetry_cell_setting 'triclinic'
loop_
_space_group_symop_operation_xyz
x,y,z
-x,-y,-z
loop_
_atom_site_type_symbol
_atom_site_label
_atom_site_fract_x
_atom_site_fract_y
_atom_site_fract_z
Si Si1 0.251827 0.534628 0.486687
Si Si2 0.343045 0.757116 0.206800
Si Si3 0.866865 0.388926 0.876381
Si Si4 0.302550 0.074945 0.446992
Si Si5 0.958272 0.194451 0.204132
Si Si6 0.679043 0.395876 0.157698
Si Si7 0.201797 0.296679 0.895218
Si Si8 0.982453 0.707161 0.462132
O O1 0.244929 0.676859 0.309982
O O2 0.447087 0.427789 0.638373
O O3 0.104284 0.728511 0.397066
O O4 0.197346 0.310518 0.597844
O O5 0.250604 0.741083 0.108635
O O6 0.324589 0.028922 0.051189
O O7 0.759000 0.684124 0.656775
O O8 0.061957 0.279785 0.943523
O O9 0.886715 0.338725 0.011953
O O10 0.167726 0.131666 0.302485
O O11 0.500000 0.000000 0.500000
O O12 0.293288 0.857707 0.635173
O O13 0.847311 0.358668 0.156588
O O14 0.924888 0.949908 0.353738
O O15 0.668784 0.594878 0.101841
O O16 0.500000 0.500000 0.000000
O O17 0.097808 0.463200 0.690866
#
# Coordination Sequence:
#
# PCOD8028249 Si02
#       8
#     2   2   2   2   2   2   2   2
#     4  10  25  45  66 103 136 186 229 284 348 412
#     4  11  26  45  71 102 139 181 233 288 345 411
#     4  12  26  45  73 104 142 186 235 285 352 411
#     4  12  27  48  72 104 142 184 236 289 350 419
#     4  12  26  47  73 103 141 189 233 289 351 413
#     4  12  28  47  73 107 141 185 234 289 351 416
#     4  12  25  46  70 101 143 182 233 287 345 417
#     4  11  24  44  70  98 141 183 232 283 349 412
#
# _framework density 22.737742999999998
#
# number of rings (size 3 to 8) (size 9 to 14) (size 15 to 20)
#    0.000    0.500    3.750    3.375    8.750    2.500 
#    0.000    0.000    0.000    0.000    0.000    0.000 
#    0.000    0.000    0.000    0.000    0.000    0.000 
#
# Total GULP energy -198508.831224 kJ/mol
# GULP energy per Si atom -12406.801952 kJ/mol
# Density = 2.268599 g / cm^3
# Si number density = 22.737743 Si / 1000 Ang^3
#
#
#
# Elastic Constant Matrix: (Units=GPa)
#
#
# Indices 1 2 3 4 5 6 
#
# 1 90.6319 24.7693 28.9862 18.9676 -1.9321 18.7035
# 2 24.7693 136.9676 44.7668 -4.3234 4.4425 23.4394
# 3 28.9862 44.7668 104.5314 3.3913 -3.3188 8.5871
# 4 18.9676 -4.3234 3.3913 48.2572 1.6895 0.0381
# 5 -1.9321 4.4425 -3.3188 1.6895 31.4128 6.9545
# 6 18.7035 23.4394 8.5871 0.0381 6.9545 30.3267
#
#
#
# Elastic Compliance Matrix: (Units=1/GPa)
#
#
# Indices 1 2 3 4 5 6 
#
# 1 0.015265 -0.000562 -0.002981 -0.005938 0.002973 -0.008810
# 2 -0.000562 0.009645 -0.003543 0.001357 -0.000521 -0.005987
# 3 -0.002981 -0.003543 0.011882 -0.000030 0.001376 0.000898
# 4 -0.005938 0.001357 -0.000030 0.023265 -0.002513 0.003169
# 5 0.002973 -0.000521 0.001376 -0.002513 0.034526 -0.009735
# 6 -0.008810 -0.005987 0.000898 0.003169 -0.009735 0.045009
#
#
# Mechanical properties :
#
#
# Convention : Reuss Voigt Hill
#
# Bulk Modulus (GPa) = 44.21339 58.79728 51.50534
# Shear Modulus (GPa) = 30.99693 37.57324 34.28509
#
# Velocity S-wave (km/s) = 3.69621 4.06946 3.88732
# Velocity P-wave (km/s) = 6.14028 6.92789 6.54594
#
# Compressibility (1/GPa) = 0.02261758
#
# Stress axis : x y z
#
# Youngs Moduli (GPa) = 65.50924 103.67962 84.16336
#
# Poissons Ratio (x) = 0.05830 0.25092
# Poissons Ratio (y) = 0.03684 0.29823
# Poissons Ratio (z) = 0.19531 0.36738
#
# Static dielectric constant tensor:
#      x y z
#    x 4.176830 0.070760 0.017140 
#    y 0.070760 4.271400 -0.072830 
#    z 0.017140 -0.072830 4.149650 
# 
# 
# High freq. dielectric constant tensor:
#      x y z
#    x 1.897230 0.009300 -0.004020 
#    y 0.009300 1.912110 -0.000560 
#    z -0.004020 -0.000560 1.901120 
# 
# From -- ./inp_files/179908.got.cif
#   From: 2010.06.25/outbox.cif.g09.slc.cpg/sg2_90_cif.got.tgz:179908.got - 2010.06.27 13:26:56.
