data_PCOD8028548
_publ_section_title
;
Structure prediction by ZEFSAII (Michael W. Deem and Ramdas Pophale) SiO2 
 PCOD8028548
Probable space group: P -1
;
_chemical_formula_sum "Si O2"
_cell_formula_units_Z 12
_cell_length_a 8.118738
_cell_length_b 14.652355
_cell_length_c 10.120542
_cell_angle_alpha 151.483251
_cell_angle_beta 107.205525
_cell_angle_gamma 63.909032
_cell_volume 504.535757
_symmetry_space_group_name_H-M "P -1"
_symmetry_group_IT_number 2
_symmetry_cell_setting 'triclinic'
loop_
_space_group_symop_operation_xyz
x,y,z
-x,-y,-z
loop_
_atom_site_type_symbol
_atom_site_label
_atom_site_fract_x
_atom_site_fract_y
_atom_site_fract_z
Si Si1 0.903934 0.046030 0.676360
Si Si2 0.535756 0.450024 0.596115
Si Si3 0.861341 0.003709 0.089704
Si Si4 0.861897 0.643615 0.256727
Si Si5 0.495983 0.230737 0.800966
Si Si6 0.830812 0.615693 0.508739
O O1 0.864455 0.867305 0.516083
O O2 0.024309 0.110219 0.894739
O O3 0.702877 0.227088 0.823333
O O4 0.000000 0.000000 0.500000
O O5 0.500000 0.500000 0.500000
O O6 0.715386 0.234595 0.385684
O O7 0.345367 0.446470 0.605370
O O8 0.577132 0.638442 0.913390
O O9 0.751956 0.863009 0.835924
O O10 0.000000 0.000000 0.000000
O O11 0.653262 0.644884 0.188610
O O12 0.922157 0.567416 0.322460
O O13 0.000000 0.500000 0.000000
O O14 0.500000 0.000000 0.500000
O O15 0.000000 0.500000 0.500000
#
# Coordination Sequence:
#
# PCOD8028548 Si02
#       6
#     2   2   2   2   2   2
#     4  11  25  44  76 105 144 193 246 311 375 440
#     4  12  28  47  80 109 151 201 253 313 380 448
#     4  12  25  50  75 109 153 197 253 312 378 450
#     4  11  26  46  72 106 151 193 251 309 375 447
#     4  10  25  47  74 107 147 192 252 309 382 444
#     4  12  28  47  75 111 153 203 254 309 377 448
#
# _framework density 23.78424
#
# number of rings (size 3 to 8) (size 9 to 14) (size 15 to 20)
#    0.000    0.667    1.667    4.500   11.667    2.000 
#    0.000    0.000    0.000    0.000    0.000    0.000 
#    0.000    0.000    0.000    0.000    0.000    0.000 
#
# Total GULP energy -148697.950952 kJ/mol
# GULP energy per Si atom -12391.495913 kJ/mol
# Density = 2.373011 g / cm^3
# Si number density = 23.784240 Si / 1000 Ang^3
#
#
#
# Elastic Constant Matrix: (Units=GPa)
#
#
# Indices 1 2 3 4 5 6 
#
# 1 107.9326 60.6701 44.8328 -9.3732 -17.5578 -9.2039
# 2 60.6701 149.1649 49.1166 -37.3083 -16.4520 -7.2964
# 3 44.8328 49.1166 184.8944 -15.8397 -1.5177 -1.0453
# 4 -9.3732 -37.3083 -15.8397 47.3457 1.7888 -8.7167
# 5 -17.5578 -16.4520 -1.5177 1.7888 42.9543 1.1553
# 6 -9.2039 -7.2964 -1.0453 -8.7167 1.1553 47.3902
#
#
#
# Elastic Compliance Matrix: (Units=1/GPa)
#
#
# Indices 1 2 3 4 5 6 
#
# 1 0.013328 -0.004665 -0.002092 -0.001609 0.003615 0.001440
# 2 -0.004665 0.011292 -0.001161 0.007919 0.001988 0.002215
# 3 -0.002092 -0.001161 0.006279 0.000761 -0.001102 -0.000280
# 4 -0.001609 0.007919 0.000761 0.028384 0.001056 0.006119
# 5 0.003615 0.001988 -0.001102 0.001056 0.025422 0.000558
# 6 0.001440 0.002215 -0.000280 0.006119 0.000558 0.022828
#
#
# Mechanical properties :
#
#
# Convention : Reuss Voigt Hill
#
# Bulk Modulus (GPa) = 66.39654 83.47009 74.93331
# Shear Modulus (GPa) = 38.94390 46.69619 42.82005
#
# Velocity S-wave (km/s) = 4.05085 4.43575 4.24766
# Velocity P-wave (km/s) = 7.06088 7.83616 7.45860
#
# Compressibility (1/GPa) = 0.01506103
#
# Stress axis : x y z
#
# Youngs Moduli (GPa) = 75.03200 88.55865 159.26216
#
# Poissons Ratio (x) = 0.41313 0.33325
# Poissons Ratio (y) = 0.35003 0.18495
# Poissons Ratio (z) = 0.15700 0.10284
#
# Static dielectric constant tensor:
#      x y z
#    x 4.559570 -0.442520 0.299030 
#    y -0.442520 4.631070 0.081700 
#    z 0.299030 0.081700 4.894480 
# 
# 
# High freq. dielectric constant tensor:
#      x y z
#    x 1.939940 -0.018760 0.005930 
#    y -0.018760 1.945540 -0.007310 
#    z 0.005930 -0.007310 1.970470 
# 
# From -- ./inp_files/160202.got.cif
#   From: 2010.06.25/outbox.cif.g09.slc.cpg/sg2_81_cif.got.tgz:160202.got - 2010.06.27 13:26:56.
