data_PCOD8028572
_publ_section_title
;
Structure prediction by ZEFSAII (Michael W. Deem and Ramdas Pophale) SiO2 
 PCOD8028572
Probable space group: P -1
;
_chemical_formula_sum "Si O2"
_cell_formula_units_Z 14
_cell_length_a 6.488107
_cell_length_b 13.757327
_cell_length_c 9.354387
_cell_angle_alpha 67.958760
_cell_angle_beta 129.067045
_cell_angle_gamma 101.457026
_cell_volume 600.060583
_symmetry_space_group_name_H-M "P -1"
_symmetry_group_IT_number 2
_symmetry_cell_setting 'triclinic'
loop_
_space_group_symop_operation_xyz
x,y,z
-x,-y,-z
loop_
_atom_site_type_symbol
_atom_site_label
_atom_site_fract_x
_atom_site_fract_y
_atom_site_fract_z
Si Si1 0.283185 0.706154 0.241206
Si Si2 0.780109 0.135376 0.299939
Si Si3 0.810414 0.868748 0.962938
Si Si4 0.844718 0.702249 0.562432
Si Si5 0.272140 0.494659 0.201086
Si Si6 0.816128 0.405499 0.452092
Si Si7 0.992057 0.024464 0.733731
O O1 0.567494 0.760472 0.355118
O O2 0.330375 0.613580 0.198417
O O3 0.192822 0.651166 0.372408
O O4 0.050369 0.791123 0.051792
O O5 0.475896 0.183655 0.136125
O O6 0.827647 0.093653 0.506030
O O7 0.000292 0.220655 0.307192
O O8 0.804800 0.048308 0.233667
O O9 0.797517 0.962745 0.788438
O O10 0.851810 0.903812 0.126298
O O11 0.766253 0.587044 0.642171
O O12 0.066169 0.684425 0.548891
O O13 0.524189 0.448427 0.245320
O O14 0.000000 0.500000 0.000000
O O15 0.000000 0.500000 0.500000
#
# Coordination Sequence:
#
# PCOD8028572 Si02
#       7
#     2   2   2   2   2   2   2
#     4  11  24  42  64  97 132 173 218 269 325 388
#     4  11  25  44  73 100 132 174 229 271 338 403
#     4  11  25  44  73 100 132 176 223 276 339 400
#     4  11  24  43  65  96 131 176 216 269 323 392
#     4  11  25  40  61  96 138 170 216 267 319 385
#     4  11  20  42  66  84 129 180 217 257 322 380
#     4  10  25  48  68  99 137 170 218 287 340 394
#
# _framework density 23.330977000000001
#
# number of rings (size 3 to 8) (size 9 to 14) (size 15 to 20)
#    0.000    1.143    2.857    2.571    4.000   10.857 
#    0.000    0.000    0.000    0.000    0.000    0.000 
#    0.000    0.000    0.000    0.000    0.000    0.000 
#
# Total GULP energy -173450.849291 kJ/mol
# GULP energy per Si atom -12389.346378 kJ/mol
# Density = 2.327787 g / cm^3
# Si number density = 23.330977 Si / 1000 Ang^3
#
#
#
# Elastic Constant Matrix: (Units=GPa)
#
#
# Indices 1 2 3 4 5 6 
#
# 1 119.8047 34.4069 52.6473 7.1971 36.5811 0.1848
# 2 34.4069 94.6233 32.3898 0.2637 16.3264 5.2637
# 3 52.6473 32.3898 101.8092 11.3514 22.4882 -1.6116
# 4 7.1971 0.2637 11.3514 24.5379 -1.6251 5.9191
# 5 36.5811 16.3264 22.4882 -1.6251 57.6193 9.3014
# 6 0.1848 5.2637 -1.6116 5.9191 9.3014 38.0505
#
#
#
# Elastic Compliance Matrix: (Units=1/GPa)
#
#
# Indices 1 2 3 4 5 6 
#
# 1 0.012959 -0.002273 -0.004243 -0.002726 -0.006334 0.002044
# 2 -0.002273 0.012635 -0.003024 0.002401 -0.000549 -0.002104
# 3 -0.004243 -0.003024 0.014285 -0.006142 -0.002624 0.002641
# 4 -0.002726 0.002401 -0.006142 0.047063 0.006299 -0.009440
# 5 -0.006334 -0.000549 -0.002624 0.006299 0.023834 -0.006810
# 6 0.002044 -0.002104 0.002641 -0.009440 -0.006810 0.029807
#
#
# Mechanical properties :
#
#
# Convention : Reuss Voigt Hill
#
# Bulk Modulus (GPa) = 48.07863 61.68056 54.87960
# Shear Modulus (GPa) = 30.01300 37.16107 33.58704
#
# Velocity S-wave (km/s) = 3.59054 3.99529 3.79831
# Velocity P-wave (km/s) = 6.15152 6.91214 6.54289
#
# Compressibility (1/GPa) = 0.02079926
#
# Stress axis : x y z
#
# Youngs Moduli (GPa) = 77.16747 79.14525 70.00575
#
# Poissons Ratio (x) = 0.17990 0.29701
# Poissons Ratio (y) = 0.17540 0.21169
# Poissons Ratio (z) = 0.32739 0.23933
#
# Static dielectric constant tensor:
#      x y z
#    x 4.412660 -0.224960 0.341150 
#    y -0.224960 4.139060 -0.256690 
#    z 0.341150 -0.256690 4.533690 
# 
# 
# High freq. dielectric constant tensor:
#      x y z
#    x 1.932080 0.000600 0.010780 
#    y 0.000600 1.922480 0.000740 
#    z 0.010780 0.000740 1.917300 
# 
# From -- ./inp_files/135052.got.cif
#   From: 2010.06.25/outbox.cif.g09.slc.cpg/sg2_68_cif.got.tgz:135052.got - 2010.06.27 13:26:56.
