data_PCOD8028128
_publ_section_title
;
Structure prediction by ZEFSAII (Michael W. Deem and Ramdas Pophale) SiO2 
 PCOD8028128
Probable space group: P -1
;
_chemical_formula_sum "Si O2"
_cell_formula_units_Z 14
_cell_length_a 11.801795
_cell_length_b 7.987120
_cell_length_c 9.029054
_cell_angle_alpha 130.084635
_cell_angle_beta 117.253089
_cell_angle_gamma 66.456726
_cell_volume 572.003169
_symmetry_space_group_name_H-M "P -1"
_symmetry_group_IT_number 2
_symmetry_cell_setting 'triclinic'
loop_
_space_group_symop_operation_xyz
x,y,z
-x,-y,-z
loop_
_atom_site_type_symbol
_atom_site_label
_atom_site_fract_x
_atom_site_fract_y
_atom_site_fract_z
Si Si1 0.554036 0.487563 0.711398
Si Si2 0.938155 0.163522 0.429594
Si Si3 0.126217 0.119377 0.239537
Si Si4 0.996872 0.454188 0.145209
Si Si5 0.328656 0.827101 0.865099
Si Si6 0.362507 0.243526 0.319739
Si Si7 0.742024 0.370993 0.011770
O O1 0.445745 0.710189 0.768560
O O2 0.493933 0.269144 0.502650
O O3 0.659839 0.546436 0.688803
O O4 0.614653 0.450768 0.887304
O O5 0.913460 0.404441 0.628126
O O6 0.801880 0.090981 0.259021
O O7 0.035153 0.179416 0.359904
O O8 0.000000 0.000000 0.500000
O O9 0.045580 0.196142 0.080757
O O10 0.248612 0.253734 0.378682
O O11 0.185542 0.864193 0.136490
O O12 0.000000 0.500000 0.000000
O O13 0.847860 0.533697 0.148432
O O14 0.298167 0.631814 0.844092
O O15 0.372527 0.020255 0.101102
#
# Coordination Sequence:
#
# PCOD8028128 Si02
#       7
#     2   2   2   2   2   2   2
#     4  11  24  48  68 109 141 196 254 286 366 436
#     4  12  28  45  73 112 144 190 244 299 375 434
#     4  11  24  47  71 104 147 183 242 301 365 435
#     4  12  25  43  72 106 146 190 235 301 370 432
#     4  11  25  47  70 104 148 190 242 308 357 436
#     4  10  25  43  76  98 147 195 238 308 357 421
#     4  11  25  41  73 103 144 192 237 299 361 430
#
# _framework density 24.475389
#
# number of rings (size 3 to 8) (size 9 to 14) (size 15 to 20)
#    0.000    0.857    1.429    4.286   10.000    5.714 
#    2.571    0.000    0.000    0.000    0.000    0.000 
#    0.000    0.000    0.000    0.000    0.000    0.000 
#
# Total GULP energy -173468.289441 kJ/mol
# GULP energy per Si atom -12390.592103 kJ/mol
# Density = 2.441968 g / cm^3
# Si number density = 24.475389 Si / 1000 Ang^3
#
#
#
# Elastic Constant Matrix: (Units=GPa)
#
#
# Indices 1 2 3 4 5 6 
#
# 1 96.7055 29.7003 12.1232 4.3411 13.8839 13.5117
# 2 29.7003 101.1311 17.8791 -28.3017 1.6175 -1.2428
# 3 12.1232 17.8791 91.8896 4.9677 15.0339 -9.5384
# 4 4.3411 -28.3017 4.9677 42.0259 -0.2702 -5.6457
# 5 13.8839 1.6175 15.0339 -0.2702 38.7120 -4.7779
# 6 13.5117 -1.2428 -9.5384 -5.6457 -4.7779 40.0694
#
#
#
# Elastic Compliance Matrix: (Units=1/GPa)
#
#
# Indices 1 2 3 4 5 6 
#
# 1 0.014185 -0.005908 -0.000137 -0.006346 -0.005642 -0.006566
# 2 -0.005908 0.015489 -0.003005 0.011930 0.003193 0.003819
# 3 -0.000137 -0.003005 0.012601 -0.003265 -0.004500 0.001956
# 4 -0.006346 0.011930 -0.003265 0.033836 0.004145 0.006994
# 5 -0.005642 0.003193 -0.004500 0.004145 0.030129 0.005107
# 6 -0.006566 0.003819 0.001956 0.006994 0.005107 0.029349
#
#
# Mechanical properties :
#
#
# Convention : Reuss Voigt Hill
#
# Bulk Modulus (GPa) = 41.36687 45.45903 43.41295
# Shear Modulus (GPa) = 30.91232 39.49636 35.20434
#
# Velocity S-wave (km/s) = 3.55772 4.02147 3.79668
# Velocity P-wave (km/s) = 5.81503 6.33850 6.08240
#
# Compressibility (1/GPa) = 0.02417394
#
# Stress axis : x y z
#
# Youngs Moduli (GPa) = 70.49946 64.56257 79.35652
#
# Poissons Ratio (x) = 0.38142 0.01090
# Poissons Ratio (y) = 0.41649 0.23849
# Poissons Ratio (z) = 0.00969 0.19403
#
# Static dielectric constant tensor:
#      x y z
#    x 4.904500 0.282390 0.320960 
#    y 0.282390 4.362100 0.066130 
#    z 0.320960 0.066130 4.471790 
# 
# 
# High freq. dielectric constant tensor:
#      x y z
#    x 1.993480 0.016610 0.013250 
#    y 0.016610 1.959970 -0.005110 
#    z 0.013250 -0.005110 1.974580 
# 
# From -- ./inp_files/246163.got.cif
#   From: 2010.06.25/outbox.cif.g09.slc.cpg/sg2_124_cif.got.tgz:246163.got - 2010.06.27 13:26:56.
