data_PCOD8028690
_publ_section_title
;
Structure prediction by ZEFSAII (Michael W. Deem and Ramdas Pophale) SiO2 
 PCOD8028690
Probable space group: P -1
;
_chemical_formula_sum "Si O2"
_cell_formula_units_Z 16
_cell_length_a 14.634809
_cell_length_b 9.261356
_cell_length_c 11.413070
_cell_angle_alpha 64.253438
_cell_angle_beta 29.736481
_cell_angle_gamma 74.406495
_cell_volume 670.468292
_symmetry_space_group_name_H-M "P -1"
_symmetry_group_IT_number 2
_symmetry_cell_setting 'triclinic'
loop_
_space_group_symop_operation_xyz
x,y,z
-x,-y,-z
loop_
_atom_site_type_symbol
_atom_site_label
_atom_site_fract_x
_atom_site_fract_y
_atom_site_fract_z
Si Si1 0.710817 0.482639 0.154549
Si Si2 0.121115 0.879123 0.190182
Si Si3 0.861297 0.774315 0.034237
Si Si4 0.697526 0.689727 0.713445
Si Si5 0.466424 0.951144 0.921976
Si Si6 0.174704 0.548853 0.198828
Si Si7 0.680623 0.575308 0.509125
Si Si8 0.735114 0.270558 0.426118
O O1 0.521485 0.405194 0.319522
O O2 0.743706 0.353589 0.259735
O O3 0.703473 0.653340 0.168738
O O4 0.871712 0.516882 0.860097
O O5 0.222909 0.747187 0.062823
O O6 0.897998 0.810852 0.487941
O O7 0.159286 0.039450 0.008533
O O8 0.240567 0.925008 0.161422
O O9 0.062507 0.765441 0.760447
O O10 0.840556 0.707422 0.213081
O O11 0.531305 0.783125 0.880599
O O12 0.658410 0.529568 0.901933
O O13 0.718315 0.625522 0.583135
O O14 0.578793 0.097985 0.661402
O O15 0.500000 0.000000 0.000000
O O16 0.000000 0.500000 0.500000
O O17 0.696964 0.389238 0.530984
#
# Coordination Sequence:
#
# PCOD8028690 Si02
#       8
#     2   2   2   2   2   2   2   2
#     4  11  23  44  73 104 138 187 242 293 349 424
#     4  11  25  47  69 101 143 184 233 291 356 411
#     4  11  24  44  73 103 142 188 241 294 356 414
#     4  11  27  48  68 108 141 189 237 282 367 425
#     4  12  28  47  74 107 145 184 235 299 352 427
#     4  10  26  44  71 101 143 186 232 288 355 423
#     4  11  24  43  74 103 144 186 238 295 350 430
#     4  11  25  45  71 106 140 188 243 291 356 417
#
# _framework density 23.863917000000001
#
# number of rings (size 3 to 8) (size 9 to 14) (size 15 to 20)
#    0.000    1.000    1.250    5.250   12.250    4.000 
#    0.000    2.500    0.000    0.000    0.000    0.000 
#    0.000    0.000    0.000    0.000    0.000    0.000 
#
# Total GULP energy -198370.698005 kJ/mol
# GULP energy per Si atom -12398.168625 kJ/mol
# Density = 2.380960 g / cm^3
# Si number density = 23.863917 Si / 1000 Ang^3
#
#
#
# Elastic Constant Matrix: (Units=GPa)
#
#
# Indices 1 2 3 4 5 6 
#
# 1 129.2556 51.1806 31.4741 3.1496 10.5309 13.4606
# 2 51.1806 158.0240 25.0379 -11.2674 22.7412 -20.9301
# 3 31.4741 25.0379 69.7116 -0.0737 -0.1982 5.0996
# 4 3.1496 -11.2674 -0.0737 35.4657 1.1250 6.1239
# 5 10.5309 22.7412 -0.1982 1.1250 51.4973 7.2218
# 6 13.4606 -20.9301 5.0996 6.1239 7.2218 41.2511
#
#
#
# Elastic Compliance Matrix: (Units=1/GPa)
#
#
# Indices 1 2 3 4 5 6 
#
# 1 0.010427 -0.003626 -0.003062 -0.001277 0.000144 -0.004699
# 2 -0.003626 0.009579 -0.002309 0.002334 -0.004498 0.006770
# 3 -0.003062 -0.002309 0.016753 -0.000044 0.002076 -0.002600
# 4 -0.001277 0.002334 -0.000044 0.029532 -0.001051 -0.002594
# 5 0.000144 -0.004498 0.002076 -0.001051 0.022294 -0.006333
# 6 -0.004699 0.006770 -0.002600 -0.002594 -0.006333 0.031025
#
#
# Mechanical properties :
#
#
# Convention : Reuss Voigt Hill
#
# Bulk Modulus (GPa) = 53.29403 63.59738 58.44570
# Shear Modulus (GPa) = 34.75629 42.26273 38.50951
#
# Velocity S-wave (km/s) = 3.82047 4.21288 4.02146
# Velocity P-wave (km/s) = 6.46856 7.09735 6.79024
#
# Compressibility (1/GPa) = 0.01876383
#
# Stress axis : x y z
#
# Youngs Moduli (GPa) = 95.90613 104.39891 59.69168
#
# Poissons Ratio (x) = 0.37855 0.18280
# Poissons Ratio (y) = 0.34776 0.13781
# Poissons Ratio (z) = 0.29371 0.24103
#
# Static dielectric constant tensor:
#      x y z
#    x 4.388720 -0.173460 -0.066270 
#    y -0.173460 4.728660 -0.086720 
#    z -0.066270 -0.086720 4.467630 
# 
# 
# High freq. dielectric constant tensor:
#      x y z
#    x 1.952340 -0.010630 -0.005960 
#    y -0.010630 1.951180 -0.001590 
#    z -0.005960 -0.001590 1.946980 
# 
# From -- ./inp_files/447048.got.cif
#   From: 2010.06.25/outbox.cif.g09.slc.cpg/sg2_224_cif.got.tgz:447048.got - 2010.06.27 13:26:56.
