data_PCOD8028283
_publ_section_title
;
Structure prediction by ZEFSAII (Michael W. Deem and Ramdas Pophale) SiO2 
 PCOD8028283
Probable space group: P -1
;
_chemical_formula_sum "Si O2"
_cell_formula_units_Z 16
_cell_length_a 11.523659
_cell_length_b 9.460502
_cell_length_c 9.237980
_cell_angle_alpha 62.686965
_cell_angle_beta 125.264238
_cell_angle_gamma 110.305263
_cell_volume 725.940808
_symmetry_space_group_name_H-M "P -1"
_symmetry_group_IT_number 2
_symmetry_cell_setting 'triclinic'
loop_
_space_group_symop_operation_xyz
x,y,z
-x,-y,-z
loop_
_atom_site_type_symbol
_atom_site_label
_atom_site_fract_x
_atom_site_fract_y
_atom_site_fract_z
Si Si1 0.619370 0.116955 0.763930
Si Si2 0.716675 0.850791 0.149000
Si Si3 0.211506 0.639419 0.021426
Si Si4 0.313850 0.781739 0.556951
Si Si5 0.720925 0.940734 0.423646
Si Si6 0.452158 0.657966 0.958215
Si Si7 0.861077 0.552471 0.444907
Si Si8 0.898574 0.660692 0.743253
O O1 0.686783 0.274070 0.823624
O O2 0.649488 0.137911 0.606651
O O3 0.449629 0.097880 0.667789
O O4 0.702641 0.969245 0.949055
O O5 0.755732 0.958176 0.269329
O O6 0.564661 0.742086 0.115438
O O7 0.828141 0.719443 0.267180
O O8 0.297478 0.630109 0.937224
O O9 0.159723 0.457999 0.115373
O O10 0.066647 0.724805 0.854531
O O11 0.258717 0.595072 0.598309
O O12 0.216826 0.897990 0.520861
O O13 0.450457 0.781501 0.762987
O O14 0.802684 0.804401 0.616890
O O15 0.500000 0.500000 0.000000
O O16 0.878143 0.570361 0.619230
O O17 0.000000 0.500000 0.500000
#
# Coordination Sequence:
#
# PCOD8028283 Si02
#       8
#     2   2   2   2   2   2   2   2
#     4  12  24  43  71 103 137 176 227 293 336 403
#     4  11  24  43  69 100 134 180 228 274 345 406
#     4  11  24  46  71  97 141 180 236 275 340 417
#     4  12  25  42  68 105 137 174 227 288 342 398
#     4  11  24  43  70  99 140 174 230 278 348 399
#     4  12  24  40  70 103 135 180 231 278 343 401
#     4  11  24  46  67 100 141 180 228 282 341 408
#     4  10  25  45  69 100 134 189 225 281 343 407
#
# _framework density 22.040365000000001
#
# number of rings (size 3 to 8) (size 9 to 14) (size 15 to 20)
#    0.000    0.750    5.000    2.250    1.750    1.500 
#    2.250    4.375    0.000    0.000    0.000    0.000 
#    0.000    0.000    0.000    0.000    0.000    0.000 
#
# Total GULP energy -198296.349313 kJ/mol
# GULP energy per Si atom -12393.521832 kJ/mol
# Density = 2.199020 g / cm^3
# Si number density = 22.040365 Si / 1000 Ang^3
#
#
#
# Elastic Constant Matrix: (Units=GPa)
#
#
# Indices 1 2 3 4 5 6 
#
# 1 97.1091 33.0303 61.3673 -16.4151 6.3748 -18.1036
# 2 33.0303 81.5045 28.3026 -0.8697 -4.9348 -27.8446
# 3 61.3673 28.3026 145.8816 -20.2893 -0.6789 -20.1360
# 4 -16.4151 -0.8697 -20.2893 36.5605 -1.8692 5.8512
# 5 6.3748 -4.9348 -0.6789 -1.8692 36.7902 0.9734
# 6 -18.1036 -27.8446 -20.1360 5.8512 0.9734 34.5248
#
#
#
# Elastic Compliance Matrix: (Units=1/GPa)
#
#
# Indices 1 2 3 4 5 6 
#
# 1 0.016273 -0.004492 -0.005272 0.003899 -0.003355 0.001269
# 2 -0.004492 0.018875 -0.000471 -0.003794 0.002761 0.013158
# 3 -0.005272 -0.000471 0.009849 0.002810 0.001120 0.002092
# 4 0.003899 -0.003794 0.002810 0.031355 0.000585 -0.004707
# 5 -0.003355 0.002761 0.001120 0.000585 0.028177 0.000227
# 6 0.001269 0.013158 0.002092 -0.004707 0.000227 0.042254
#
#
# Mechanical properties :
#
#
# Convention : Reuss Voigt Hill
#
# Bulk Modulus (GPa) = 40.77187 63.32174 52.04681
# Shear Modulus (GPa) = 28.50159 35.02810 31.76485
#
# Velocity S-wave (km/s) = 3.59995 3.99089 3.80045
# Velocity P-wave (km/s) = 5.98485 7.07309 6.55160
#
# Compressibility (1/GPa) = 0.02452671
#
# Stress axis : x y z
#
# Youngs Moduli (GPa) = 61.45037 52.97994 101.53476
#
# Poissons Ratio (x) = 0.23799 0.53532
# Poissons Ratio (y) = 0.27604 0.04782
# Poissons Ratio (z) = 0.32398 0.02495
#
# Static dielectric constant tensor:
#      x y z
#    x 3.820370 -0.123690 0.129760 
#    y -0.123690 4.248540 0.112300 
#    z 0.129760 0.112300 4.267190 
# 
# 
# High freq. dielectric constant tensor:
#      x y z
#    x 1.846240 -0.009410 0.007220 
#    y -0.009410 1.883690 0.002160 
#    z 0.007220 0.002160 1.884640 
# 
# From -- ./inp_files/242717.got.cif
#   From: 2010.06.25/outbox.cif.g09.slc.cpg/sg2_122_cif.got.tgz:242717.got - 2010.06.27 13:26:56.
