data_PCOD8028569
_publ_section_title
;
Structure prediction by ZEFSAII (Michael W. Deem and Ramdas Pophale) SiO2 
 PCOD8028569
Probable space group: P -1
;
_chemical_formula_sum "Si O2"
_cell_formula_units_Z 16
_cell_length_a 6.552979
_cell_length_b 7.861382
_cell_length_c 15.479781
_cell_angle_alpha 80.607305
_cell_angle_beta 114.177763
_cell_angle_gamma 90.051008
_cell_volume 715.812345
_symmetry_space_group_name_H-M "P -1"
_symmetry_group_IT_number 2
_symmetry_cell_setting 'triclinic'
loop_
_space_group_symop_operation_xyz
x,y,z
-x,-y,-z
loop_
_atom_site_type_symbol
_atom_site_label
_atom_site_fract_x
_atom_site_fract_y
_atom_site_fract_z
Si Si1 0.973795 0.813934 0.975046
Si Si2 0.043393 0.368034 0.838269
Si Si3 0.250284 0.204255 0.719150
Si Si4 0.474187 0.214936 0.381402
Si Si5 0.775702 0.108197 0.592330
Si Si6 0.527908 0.859923 0.803105
Si Si7 0.312467 0.642102 0.924211
Si Si8 0.588386 0.394782 0.667397
O O1 0.793525 0.826394 0.865669
O O2 0.206013 0.731178 0.983978
O O3 0.894141 0.701709 0.049908
O O4 0.000000 0.000000 0.000000
O O5 0.778737 0.372750 0.775934
O O6 0.178140 0.254920 0.798928
O O7 0.127171 0.559733 0.838545
O O8 0.345642 0.364778 0.670234
O O9 0.040790 0.129845 0.639214
O O10 0.459827 0.063289 0.769606
O O11 0.691649 0.134239 0.477299
O O12 0.536349 0.229774 0.290024
O O13 0.409020 0.410759 0.386887
O O14 0.274120 0.085075 0.368769
O O15 0.639599 0.255565 0.612701
O O16 0.405035 0.788751 0.869741
O O17 0.500000 0.500000 0.000000
#
# Coordination Sequence:
#
# PCOD8028569 Si02
#       8
#     2   2   2   2   2   2   2   2
#     4  12  27  43  67  97 140 187 228 290 348 409
#     4  11  25  42  69  98 141 178 231 292 343 411
#     4  11  25  44  72 103 139 181 238 292 344 426
#     4  11  24  46  74  98 143 182 228 295 357 415
#     4  10  25  48  67 107 137 180 234 293 354 419
#     4  12  26  43  69 101 138 185 236 283 352 417
#     4  12  27  44  67 103 137 184 241 285 344 419
#     4  11  23  45  71 102 139 183 232 287 356 415
#
# _framework density 22.352226000000002
#
# number of rings (size 3 to 8) (size 9 to 14) (size 15 to 20)
#    0.000    0.750    2.500    3.750   10.500    2.000 
#    0.000    0.000    0.000    0.000    0.000    0.000 
#    0.000    0.000    0.000    0.000    0.000    0.000 
#
# Total GULP energy -198452.708046 kJ/mol
# GULP energy per Si atom -12403.294253 kJ/mol
# Density = 2.230135 g / cm^3
# Si number density = 22.352226 Si / 1000 Ang^3
#
#
#
# Elastic Constant Matrix: (Units=GPa)
#
#
# Indices 1 2 3 4 5 6 
#
# 1 118.2131 46.9042 40.3895 1.1742 5.3383 2.3458
# 2 46.9042 137.7179 26.4350 -5.8656 3.7468 8.7224
# 3 40.3895 26.4350 115.9319 2.8063 2.5406 1.4516
# 4 1.1742 -5.8656 2.8063 33.3031 2.7449 2.2970
# 5 5.3383 3.7468 2.5406 2.7449 25.9989 2.3990
# 6 2.3458 8.7224 1.4516 2.2970 2.3990 36.5408
#
#
#
# Elastic Compliance Matrix: (Units=1/GPa)
#
#
# Indices 1 2 3 4 5 6 
#
# 1 0.010781 -0.003099 -0.003008 -0.000574 -0.001440 0.000298
# 2 -0.003099 0.008710 -0.000916 0.001899 -0.000552 -0.001927
# 3 -0.003008 -0.000916 0.009906 -0.000885 -0.000133 0.000083
# 4 -0.000574 0.001899 -0.000885 0.030861 -0.003132 -0.002116
# 5 -0.001440 -0.000552 -0.000133 -0.003132 0.039381 -0.002159
# 6 0.000298 -0.001927 0.000083 -0.002116 -0.002159 0.028079
#
#
# Mechanical properties :
#
#
# Convention : Reuss Voigt Hill
#
# Bulk Modulus (GPa) = 65.13847 66.59114 65.86481
# Shear Modulus (GPa) = 34.04108 36.37752 35.20930
#
# Velocity S-wave (km/s) = 3.90672 4.03856 3.97319
# Velocity P-wave (km/s) = 7.03953 7.18353 7.11190
#
# Compressibility (1/GPa) = 0.01535191
#
# Stress axis : x y z
#
# Youngs Moduli (GPa) = 92.75341 114.80492 100.95023
#
# Poissons Ratio (x) = 0.35575 0.30364
# Poissons Ratio (y) = 0.28741 0.09251
# Poissons Ratio (z) = 0.27898 0.10520
#
# Static dielectric constant tensor:
#      x y z
#    x 3.901860 0.025460 0.245700 
#    y 0.025460 4.109390 0.130020 
#    z 0.245700 0.130020 4.245320 
# 
# 
# High freq. dielectric constant tensor:
#      x y z
#    x 1.874530 0.007410 0.001400 
#    y 0.007410 1.894620 0.006170 
#    z 0.001400 0.006170 1.885700 
# 
# From -- ./inp_files/480456.got.cif
#   From: 2010.06.25/outbox.cif.g09.slc.cpg/sg2_241_cif.got.tgz:480456.got - 2010.06.27 13:26:56.
