data_PCOD8028459
_publ_section_title
;
Structure prediction by ZEFSAII (Michael W. Deem and Ramdas Pophale) SiO2 
 PCOD8028459
Probable space group: P -1
;
_chemical_formula_sum "Si O2"
_cell_formula_units_Z 14
_cell_length_a 14.492838
_cell_length_b 5.495481
_cell_length_c 24.124671
_cell_angle_alpha 89.824551
_cell_angle_beta 158.801941
_cell_angle_gamma 79.746395
_cell_volume 601.613065
_symmetry_space_group_name_H-M "P -1"
_symmetry_group_IT_number 2
_symmetry_cell_setting 'triclinic'
loop_
_space_group_symop_operation_xyz
x,y,z
-x,-y,-z
loop_
_atom_site_type_symbol
_atom_site_label
_atom_site_fract_x
_atom_site_fract_y
_atom_site_fract_z
Si Si1 0.215533 0.602001 0.505953
Si Si2 0.496237 0.169043 0.746418
Si Si3 0.118750 0.428364 0.779203
Si Si4 0.770562 0.663382 0.823284
Si Si5 0.769847 0.063587 0.322573
Si Si6 0.775066 0.122680 0.103824
Si Si7 0.768104 0.332589 0.983921
O O1 0.220697 0.453616 0.567621
O O2 0.540316 0.559834 0.679840
O O3 0.138692 0.469152 0.410860
O O4 0.947590 0.922603 0.365160
O O5 0.755984 0.215203 0.915840
O O6 0.584107 0.977768 0.741483
O O7 0.422838 0.064369 0.761957
O O8 0.071989 0.707576 0.784450
O O9 0.085203 0.202538 0.799201
O O10 0.431855 0.281887 0.924943
O O11 0.000000 0.500000 0.000000
O O12 0.946919 0.629190 0.864571
O O13 0.544608 0.385142 0.180439
O O14 0.000000 0.000000 0.500000
O O15 0.822755 0.119927 0.064635
#
# Coordination Sequence:
#
# PCOD8028459 Si02
#       7
#     2   2   2   2   2   2   2
#     4  12  26  41  70 102 139 182 228 293 354 418
#     4  12  23  40  69  98 139 180 229 285 354 427
#     4  10  25  47  71 102 138 184 239 297 353 409
#     4  12  24  45  62 101 146 185 223 278 358 434
#     4  12  23  39  62 104 141 167 228 291 351 419
#     4  10  25  46  72 101 139 184 241 295 350 412
#     4  12  26  42  69 100 138 185 233 284 353 423
#
# _framework density 23.270769999999999
#
# number of rings (size 3 to 8) (size 9 to 14) (size 15 to 20)
#    0.000    0.571    5.714    1.714   12.000    0.000 
#    0.000    1.429    0.000    0.000    0.000    0.000 
#    0.000    0.000    0.000    0.000    0.000    0.000 
#
# Total GULP energy -173488.614756 kJ/mol
# GULP energy per Si atom -12392.043911 kJ/mol
# Density = 2.321780 g / cm^3
# Si number density = 23.270770 Si / 1000 Ang^3
#
#
#
# Elastic Constant Matrix: (Units=GPa)
#
#
# Indices 1 2 3 4 5 6 
#
# 1 105.2305 29.4239 43.4793 2.8568 -15.4477 22.3042
# 2 29.4239 109.4015 43.2900 23.1477 -11.3992 10.9533
# 3 43.4793 43.2900 102.9554 30.9763 -9.4348 -0.3432
# 4 2.8568 23.1477 30.9763 23.3424 -9.3876 -5.7477
# 5 -15.4477 -11.3992 -9.4348 -9.3876 36.2554 -1.6154
# 6 22.3042 10.9533 -0.3432 -5.7477 -1.6154 37.0104
#
#
#
# Elastic Compliance Matrix: (Units=1/GPa)
#
#
# Indices 1 2 3 4 5 6 
#
# 1 0.016062 -0.002110 -0.009432 0.013813 0.007004 -0.006692
# 2 -0.002110 0.013224 -0.000748 -0.013262 -0.000581 -0.004734
# 3 -0.009432 -0.000748 0.022538 -0.030205 -0.006158 0.001155
# 4 0.013813 -0.013262 -0.030205 0.106371 0.021968 0.012799
# 5 0.007004 -0.000581 -0.006158 0.021968 0.034506 0.000812
# 6 -0.006692 -0.004734 0.001155 0.012799 0.000812 0.034487
#
#
# Mechanical properties :
#
#
# Convention : Reuss Voigt Hill
#
# Bulk Modulus (GPa) = 36.70703 61.10819 48.90761
# Shear Modulus (GPa) = 19.16823 32.74793 25.95808
#
# Velocity S-wave (km/s) = 2.87314 3.75541 3.34350
# Velocity P-wave (km/s) = 5.17829 6.71720 5.99731
#
# Compressibility (1/GPa) = 0.02724274
#
# Stress axis : x y z
#
# Youngs Moduli (GPa) = 62.26001 75.62266 44.36952
#
# Poissons Ratio (x) = 0.15960 0.41849
# Poissons Ratio (y) = 0.13140 0.03318
# Poissons Ratio (z) = 0.58724 0.05655
#
# Static dielectric constant tensor:
#      x y z
#    x 5.749500 -0.046150 1.136160 
#    y -0.046150 4.672340 -0.094410 
#    z 1.136160 -0.094410 4.907620 
# 
# 
# High freq. dielectric constant tensor:
#      x y z
#    x 1.904930 0.016330 -0.000640 
#    y 0.016330 1.926930 0.012740 
#    z -0.000640 0.012740 1.911730 
# 
# From -- ./inp_files/27024.got.cif
#   From: 2010.06.25/outbox.cif.g09.slc.cpg/sg2_14_cif.got.tgz:27024.got - 2010.06.27 13:26:56.
