data_PCOD8028312
_publ_section_title
;
Structure prediction by ZEFSAII (Michael W. Deem and Ramdas Pophale) SiO2 
 PCOD8028312
Probable space group: P -1
;
_chemical_formula_sum "Si O2"
_cell_formula_units_Z 16
_cell_length_a 9.380982
_cell_length_b 11.709810
_cell_length_c 14.891473
_cell_angle_alpha 131.179135
_cell_angle_beta 115.948445
_cell_angle_gamma 35.032790
_cell_volume 686.964453
_symmetry_space_group_name_H-M "P -1"
_symmetry_group_IT_number 2
_symmetry_cell_setting 'triclinic'
loop_
_space_group_symop_operation_xyz
x,y,z
-x,-y,-z
loop_
_atom_site_type_symbol
_atom_site_label
_atom_site_fract_x
_atom_site_fract_y
_atom_site_fract_z
Si Si1 0.901089 0.419509 0.199945
Si Si2 0.780398 0.322892 0.950478
Si Si3 0.559136 0.035117 0.628155
Si Si4 0.862157 0.475061 0.893943
Si Si5 0.426139 0.595693 0.430480
Si Si6 0.298756 0.372162 0.249356
Si Si7 0.671722 0.019729 0.326918
Si Si8 0.965462 0.187532 0.273944
O O1 0.604757 0.687347 0.268037
O O2 0.059907 0.456702 0.265029
O O3 0.996635 0.240089 0.212655
O O4 0.937166 0.304050 0.056404
O O5 0.736435 0.448638 0.911697
O O6 0.947691 0.050845 0.834012
O O7 0.500000 0.500000 0.000000
O O8 0.500000 0.000000 0.500000
O O9 0.499946 0.971544 0.662862
O O10 0.856177 0.859596 0.628409
O O11 0.654047 0.700903 0.882549
O O12 0.058140 0.253004 0.762927
O O13 0.000000 0.500000 0.000000
O O14 0.500000 0.500000 0.500000
O O15 0.241026 0.598114 0.350057
O O16 0.291352 0.861441 0.536384
O O17 0.674884 0.417866 0.343850
O O18 0.545110 0.151829 0.263456
#
# Coordination Sequence:
#
# PCOD8028312 Si02
#       8
#     2   2   2   2   2   2   2   2
#     4  12  25  49  71 106 145 195 238 299 369 429
#     4  12  26  48  74 108 147 188 248 301 362 432
#     4  12  26  42  75 108 144 194 241 296 363 431
#     4  12  26  47  74 104 146 191 242 298 362 429
#     4  10  25  45  70 105 141 187 243 293 359 425
#     4  11  24  46  75 102 143 189 239 297 363 426
#     4  11  24  48  70 108 146 189 242 296 361 433
#     4  12  27  49  73 105 152 192 239 302 366 435
#
# _framework density 23.290870000000002
#
# number of rings (size 3 to 8) (size 9 to 14) (size 15 to 20)
#    0.000    0.500    5.000    2.625    5.250    3.000 
#    4.500    0.000    0.000    0.000    0.000    0.000 
#    0.000    0.000    0.000    0.000    0.000    0.000 
#
# Total GULP energy -198352.638174 kJ/mol
# GULP energy per Si atom -12397.039886 kJ/mol
# Density = 2.323786 g / cm^3
# Si number density = 23.290870 Si / 1000 Ang^3
#
#
#
# Elastic Constant Matrix: (Units=GPa)
#
#
# Indices 1 2 3 4 5 6 
#
# 1 137.9380 28.9419 43.1895 -8.5828 -2.2514 6.4933
# 2 28.9419 74.9528 31.6506 -26.5502 4.8364 21.4558
# 3 43.1895 31.6506 124.9254 -13.5258 6.2433 1.2606
# 4 -8.5828 -26.5502 -13.5258 46.7089 2.2377 -4.2163
# 5 -2.2514 4.8364 6.2433 2.2377 40.8536 -9.4040
# 6 6.4933 21.4558 1.2606 -4.2163 -9.4040 39.2782
#
#
#
# Elastic Compliance Matrix: (Units=1/GPa)
#
#
# Indices 1 2 3 4 5 6 
#
# 1 0.008533 -0.002722 -0.002405 -0.000702 0.001287 0.000386
# 2 -0.002722 0.023834 -0.003460 0.011187 -0.005976 -0.012688
# 3 -0.002405 -0.003460 0.009805 0.000637 -0.000832 0.001842
# 4 -0.000702 0.011187 0.000637 0.027651 -0.003891 -0.003978
# 5 0.001287 -0.005976 -0.000832 -0.003891 0.027737 0.009302
# 6 0.000386 -0.012688 0.001842 -0.003978 0.009302 0.034067
#
#
# Mechanical properties :
#
#
# Convention : Reuss Voigt Hill
#
# Bulk Modulus (GPa) = 40.00114 60.59780 50.29947
# Shear Modulus (GPa) = 31.82039 40.97043 36.39541
#
# Velocity S-wave (km/s) = 3.70025 4.19868 3.95732
# Velocity P-wave (km/s) = 5.95547 7.04128 6.52101
#
# Compressibility (1/GPa) = 0.02499929
#
# Stress axis : x y z
#
# Youngs Moduli (GPa) = 117.19538 41.95694 101.99296
#
# Poissons Ratio (x) = 0.11420 0.24526
# Poissons Ratio (y) = 0.31898 0.35285
# Poissons Ratio (z) = 0.28182 0.14515
#
# Static dielectric constant tensor:
#      x y z
#    x 4.601200 0.153630 0.431340 
#    y 0.153630 4.293070 -0.345320 
#    z 0.431340 -0.345320 5.191520 
# 
# 
# High freq. dielectric constant tensor:
#      x y z
#    x 1.935530 0.012590 0.010860 
#    y 0.012590 1.924870 -0.019770 
#    z 0.010860 -0.019770 1.925720 
# 
# From -- ./inp_files/462571.got.cif
#   From: 2010.06.25/outbox.cif.g09.slc.cpg/sg2_232_cif.got.tgz:462571.got - 2010.06.27 13:26:56.
