data_PCOD8028954
_publ_section_title
;
Structure prediction by ZEFSAII (Michael W. Deem and Ramdas Pophale) SiO2 
 PCOD8028954
Probable space group: P -1
;
_chemical_formula_sum "Si O2"
_cell_formula_units_Z 16
_cell_length_a 17.414610
_cell_length_b 12.067108
_cell_length_c 8.097033
_cell_angle_alpha 53.016154
_cell_angle_beta 33.884825
_cell_angle_gamma 49.924574
_cell_volume 716.862060
_symmetry_space_group_name_H-M "P -1"
_symmetry_group_IT_number 2
_symmetry_cell_setting 'triclinic'
loop_
_space_group_symop_operation_xyz
x,y,z
-x,-y,-z
loop_
_atom_site_type_symbol
_atom_site_label
_atom_site_fract_x
_atom_site_fract_y
_atom_site_fract_z
Si Si1 0.838940 0.393411 0.111960
Si Si2 0.804934 0.706083 0.790538
Si Si3 0.503723 0.796812 0.086004
Si Si4 0.427276 0.567989 0.240241
Si Si5 0.679369 0.068015 0.228982
Si Si6 0.069553 0.123513 0.826416
Si Si7 0.374026 0.061383 0.870258
Si Si8 0.638603 0.322735 0.274696
O O1 0.742695 0.413926 0.435443
O O2 0.759098 0.369631 0.110110
O O3 0.884352 0.537144 0.857819
O O4 0.972389 0.241691 0.026958
O O5 0.915786 0.779812 0.445087
O O6 0.675955 0.725362 0.870030
O O7 0.742621 0.788519 0.996989
O O8 0.457645 0.719953 0.077539
O O9 0.418759 0.784484 0.414364
O O10 0.443270 0.967297 0.993541
O O11 0.506283 0.466500 0.341969
O O12 0.500000 0.500000 0.000000
O O13 0.506388 0.097516 0.516177
O O14 0.702257 0.225777 0.082234
O O15 0.776783 0.950858 0.290685
O O16 0.716240 0.011605 0.026161
O O17 0.000000 0.000000 0.000000
#
# Coordination Sequence:
#
# PCOD8028954 Si02
#       8
#     2   2   2   2   2   2   2   2
#     4  11  23  43  67  95 136 177 222 267 326 407
#     4  12  22  42  66  97 130 175 232 269 332 391
#     4  11  19  35  65  97 126 166 222 277 328 388
#     4  11  22  37  65 103 134 167 215 283 343 384
#     4  11  22  40  63  99 135 167 223 279 337 389
#     4  12  26  44  69  93 133 187 230 265 318 410
#     4  11  23  37  66 100 130 166 216 297 338 371
#     4  11  19  39  66  95 129 169 223 281 325 387
#
# _framework density 22.319495
#
# number of rings (size 3 to 8) (size 9 to 14) (size 15 to 20)
#    0.000    0.750    6.250    3.000    1.750    1.000 
#    0.000    2.500    0.000    0.000    0.000    0.000 
#    0.000    0.000    0.000    0.000    0.000    0.000 
#
# Total GULP energy -198277.107905 kJ/mol
# GULP energy per Si atom -12392.319244 kJ/mol
# Density = 2.226870 g / cm^3
# Si number density = 22.319495 Si / 1000 Ang^3
#
#
#
# Elastic Constant Matrix: (Units=GPa)
#
#
# Indices 1 2 3 4 5 6 
#
# 1 61.6507 4.6211 11.8191 5.0823 4.2229 22.6293
# 2 4.6211 111.8072 28.3866 2.8005 0.0663 8.1330
# 3 11.8191 28.3866 92.6822 0.3732 3.9234 10.9916
# 4 5.0823 2.8005 0.3732 38.5698 -0.2841 2.4437
# 5 4.2229 0.0663 3.9234 -0.2841 16.6368 1.4111
# 6 22.6293 8.1330 10.9916 2.4437 1.4111 35.1808
#
#
#
# Elastic Compliance Matrix: (Units=1/GPa)
#
#
# Indices 1 2 3 4 5 6 
#
# 1 0.021800 0.000418 -0.001128 -0.002070 -0.004163 -0.013456
# 2 0.000418 0.009792 -0.002887 -0.000631 0.000662 -0.001614
# 3 -0.001128 -0.002887 0.012195 0.000372 -0.002373 -0.002348
# 4 -0.002070 -0.000631 0.000372 0.026281 0.000932 -0.000501
# 5 -0.004163 0.000662 -0.002373 0.000932 0.061676 0.000728
# 6 -0.013456 -0.001614 -0.002348 -0.000501 0.000728 0.038192
#
#
# Mechanical properties :
#
#
# Convention : Reuss Voigt Hill
#
# Bulk Modulus (GPa) = 27.32575 39.53263 33.42919
# Shear Modulus (GPa) = 26.40941 32.83170 29.62055
#
# Velocity S-wave (km/s) = 3.44356 3.83951 3.64691
# Velocity P-wave (km/s) = 5.29910 6.11607 5.72218
#
# Compressibility (1/GPa) = 0.03659552
#
# Stress axis : x y z
#
# Youngs Moduli (GPa) = 45.87098 102.12047 82.00161
#
# Poissons Ratio (x) = -0.04273 0.09248
# Poissons Ratio (y) = -0.01919 0.23671
# Poissons Ratio (z) = 0.05173 0.29478
#
# Static dielectric constant tensor:
#      x y z
#    x 3.935250 0.271730 -0.039640 
#    y 0.271730 4.544770 0.035000 
#    z -0.039640 0.035000 3.837210 
# 
# 
# High freq. dielectric constant tensor:
#      x y z
#    x 1.858260 0.015890 0.005130 
#    y 0.015890 1.904660 -0.005210 
#    z 0.005130 -0.005210 1.853300 
# 
# From -- ./inp_files/263202.got.cif
#   From: 2010.06.25/outbox.cif.g09.slc.cpg/sg2_132_cif.got.tgz:263202.got - 2010.06.27 13:26:56.
