data_PCOD8028830
_publ_section_title
;
Structure prediction by ZEFSAII (Michael W. Deem and Ramdas Pophale) SiO2 
 PCOD8028830
Probable space group: P -1
;
_chemical_formula_sum "Si O2"
_cell_formula_units_Z 12
_cell_length_a 6.748672
_cell_length_b 12.680305
_cell_length_c 9.355539
_cell_angle_alpha 128.258667
_cell_angle_beta 67.301953
_cell_angle_gamma 91.571272
_cell_volume 554.689779
_symmetry_space_group_name_H-M "P -1"
_symmetry_group_IT_number 2
_symmetry_cell_setting 'triclinic'
loop_
_space_group_symop_operation_xyz
x,y,z
-x,-y,-z
loop_
_atom_site_type_symbol
_atom_site_label
_atom_site_fract_x
_atom_site_fract_y
_atom_site_fract_z
Si Si1 0.996711 0.948322 0.798277
Si Si2 0.647571 0.143122 0.851794
Si Si3 0.327283 0.226106 0.259954
Si Si4 0.495417 0.895842 0.615277
Si Si5 0.719162 0.412712 0.945552
Si Si6 0.804645 0.605721 0.308735
O O1 0.905439 0.813520 0.716822
O O2 0.251053 0.904203 0.629784
O O3 0.854744 0.066362 0.829931
O O4 0.000000 0.000000 0.000000
O O5 0.429657 0.964203 0.322987
O O6 0.435083 0.231859 0.080791
O O7 0.723142 0.251630 0.822630
O O8 0.503405 0.109378 0.213149
O O9 0.265100 0.376395 0.488096
O O10 0.676672 0.753802 0.387735
O O11 0.728820 0.478541 0.155721
O O12 0.500000 0.500000 0.000000
O O13 0.929946 0.423300 0.803730
#
# Coordination Sequence:
#
# PCOD8028830 Si02
#       6
#     2   2   2   2   2   2
#     4  11  16  33  65  95 126 149 176 252 319 343
#     4  11  21  37  63  98 118 146 204 246 290 363
#     4   9  19  36  61  95 121 141 198 249 291 355
#     4   9  19  35  64  93 118 146 189 250 303 347
#     4  11  26  45  59  77 124 172 200 241 293 346
#     4   9  23  44  60  83 124 157 202 249 289 356
#
# _framework density 21.633716
#
# number of rings (size 3 to 8) (size 9 to 14) (size 15 to 20)
#    1.000    1.000    3.333    1.000    2.333    4.000 
#    0.000    2.500    0.000    0.000    0.000    0.000 
#    0.000    0.000    0.000    0.000    0.000    0.000 
#
# Total GULP energy -148727.322010 kJ/mol
# GULP energy per Si atom -12393.943501 kJ/mol
# Density = 2.158448 g / cm^3
# Si number density = 21.633716 Si / 1000 Ang^3
#
#
#
# Elastic Constant Matrix: (Units=GPa)
#
#
# Indices 1 2 3 4 5 6 
#
# 1 134.4379 17.1910 19.1418 7.8931 -30.4435 2.6987
# 2 17.1910 42.9527 -10.0881 7.1105 -10.4790 6.4958
# 3 19.1418 -10.0881 59.0520 20.3557 -11.0712 0.6293
# 4 7.8931 7.1105 20.3557 20.2586 0.1839 0.7631
# 5 -30.4435 -10.4790 -11.0712 0.1839 29.5571 10.9134
# 6 2.6987 6.4958 0.6293 0.7631 10.9134 26.4182
#
#
#
# Elastic Compliance Matrix: (Units=1/GPa)
#
#
# Indices 1 2 3 4 5 6 
#
# 1 0.011116 0.003150 0.003111 -0.008386 0.017023 -0.008774
# 2 0.003150 0.062318 0.043060 -0.065447 0.055850 -0.037852
# 3 0.003111 0.043060 0.059602 -0.075487 0.053112 -0.032085
# 4 -0.008386 -0.065447 -0.075487 0.150399 -0.078315 0.046755
# 5 0.017023 0.055850 0.053112 -0.078315 0.114333 -0.061705
# 6 -0.008774 -0.037852 -0.032085 0.046755 -0.061705 0.072960
#
#
# Mechanical properties :
#
#
# Convention : Reuss Voigt Hill
#
# Bulk Modulus (GPa) = 4.31635 32.10356 18.20996
# Shear Modulus (GPa) = 11.12807 29.25998 20.19403
#
# Velocity S-wave (km/s) = 2.27047 3.68165 3.05856
# Velocity P-wave (km/s) = 2.97874 5.73973 4.57260
#
# Compressibility (1/GPa) = 0.23167697
#
# Stress axis : x y z
#
# Youngs Moduli (GPa) = 89.95956 16.04667 16.77783
#
# Poissons Ratio (x) = -0.05054 -0.05219
# Poissons Ratio (y) = -0.28336 -0.72245
# Poissons Ratio (z) = -0.27983 -0.69096
#
# Static dielectric constant tensor:
#      x y z
#    x 4.232420 0.178910 -0.009490 
#    y 0.178910 3.411540 0.185560 
#    z -0.009490 0.185560 3.808040 
# 
# 
# High freq. dielectric constant tensor:
#      x y z
#    x 1.865060 0.012400 -0.000250 
#    y 0.012400 1.801070 0.014310 
#    z -0.000250 0.014310 1.849130 
# 
# From -- ./inp_files/134545.got.cif
#   From: 2010.06.25/outbox.cif.g09.slc.cpg/sg2_68_cif.got.tgz:134545.got - 2010.06.27 13:26:56.
