data_PCOD8028052
_publ_section_title
;
Structure prediction by ZEFSAII (Michael W. Deem and Ramdas Pophale) SiO2 
 PCOD8028052
Probable space group: P -1
;
_chemical_formula_sum "Si O2"
_cell_formula_units_Z 16
_cell_length_a 12.158244
_cell_length_b 15.522606
_cell_length_c 15.825500
_cell_angle_alpha 35.953066
_cell_angle_beta 125.493825
_cell_angle_gamma 152.753163
_cell_volume 687.037102
_symmetry_space_group_name_H-M "P -1"
_symmetry_group_IT_number 2
_symmetry_cell_setting 'triclinic'
loop_
_space_group_symop_operation_xyz
x,y,z
-x,-y,-z
loop_
_atom_site_type_symbol
_atom_site_label
_atom_site_fract_x
_atom_site_fract_y
_atom_site_fract_z
Si Si1 0.274808 0.747531 0.672789
Si Si2 0.420391 0.435166 0.878688
Si Si3 0.824007 0.751367 0.522162
Si Si4 0.183287 0.339544 0.008546
Si Si5 0.385780 0.896473 0.125459
Si Si6 0.512159 0.297860 0.601576
Si Si7 0.611851 0.783676 0.118792
Si Si8 0.402877 0.165635 0.475604
O O1 0.332598 0.640653 0.822460
O O2 0.322811 0.918742 0.629103
O O3 0.949547 0.448424 0.736819
O O4 0.500000 0.000000 0.500000
O O5 0.241094 0.276158 0.009723
O O6 0.283896 0.207079 0.924447
O O7 0.442228 0.624329 0.705083
O O8 0.716852 0.639808 0.875398
O O9 0.767622 0.597537 0.536166
O O10 0.762308 0.861075 0.381088
O O11 0.632810 0.531330 0.692030
O O12 0.135200 0.019582 0.480565
O O13 0.848702 0.036970 0.095592
O O14 0.558864 0.936370 0.219954
O O15 0.500000 0.000000 0.000000
O O16 0.475719 0.137699 0.014398
O O17 0.595077 0.375275 0.477659
#
# Coordination Sequence:
#
# PCOD8028052 Si02
#       8
#     2   2   2   2   2   2   2   2
#     4  11  23  45  68  95 135 177 217 277 331 391
#     4  11  24  42  65  94 127 168 224 264 326 388
#     4  11  24  42  64  98 131 168 215 272 326 391
#     4  10  25  43  64  91 128 175 211 274 325 385
#     4  11  23  45  66  98 137 176 217 273 334 397
#     4  11  24  40  66  97 131 176 213 272 331 389
#     4  11  23  42  65  92 131 167 216 265 325 389
#     4  12  24  41  68  97 132 167 223 268 330 398
#
# _framework density 23.288405999999998
#
# number of rings (size 3 to 8) (size 9 to 14) (size 15 to 20)
#    0.000    1.000    5.000    0.750    5.250    0.000 
#    0.000    1.875    0.000    0.000    0.000    0.000 
#    0.000    0.000    0.000    0.000    0.000    0.000 
#
# Total GULP energy -198291.095359 kJ/mol
# GULP energy per Si atom -12393.193460 kJ/mol
# Density = 2.323540 g / cm^3
# Si number density = 23.288406 Si / 1000 Ang^3
#
#
#
# Elastic Constant Matrix: (Units=GPa)
#
#
# Indices 1 2 3 4 5 6 
#
# 1 96.5694 17.8455 32.2494 7.9698 28.0306 -4.6022
# 2 17.8455 83.3857 37.4117 19.6295 12.0603 -11.1480
# 3 32.2494 37.4117 77.2181 17.8183 10.9673 -2.5657
# 4 7.9698 19.6295 17.8183 38.7840 8.1167 -0.9005
# 5 28.0306 12.0603 10.9673 8.1167 49.6550 -2.4325
# 6 -4.6022 -11.1480 -2.5657 -0.9005 -2.4325 33.6728
#
#
#
# Elastic Compliance Matrix: (Units=1/GPa)
#
#
# Indices 1 2 3 4 5 6 
#
# 1 0.014023 0.000272 -0.005158 0.000826 -0.006922 0.001136
# 2 0.000272 0.017099 -0.006811 -0.005105 -0.001727 0.004918
# 3 -0.005158 -0.006811 0.019272 -0.004589 0.000984 -0.001543
# 4 0.000826 -0.005105 -0.004589 0.030974 -0.003341 -0.001340
# 5 -0.006922 -0.001727 0.000984 -0.003341 0.024807 0.000260
# 6 0.001136 0.004918 -0.001543 -0.001340 0.000260 0.031346
#
#
# Mechanical properties :
#
#
# Convention : Reuss Voigt Hill
#
# Bulk Modulus (GPa) = 37.03747 48.02071 42.52909
# Shear Modulus (GPa) = 29.42615 35.73346 32.57981
#
# Velocity S-wave (km/s) = 3.55851 3.92138 3.74434
# Velocity P-wave (km/s) = 5.72908 6.41621 6.08235
#
# Compressibility (1/GPa) = 0.02699969
#
# Stress axis : x y z
#
# Youngs Moduli (GPa) = 71.31319 58.48190 51.88805
#
# Poissons Ratio (x) = -0.01589 0.26762
# Poissons Ratio (y) = -0.01937 0.35342
# Poissons Ratio (z) = 0.36781 0.39833
#
# Static dielectric constant tensor:
#      x y z
#    x 4.411310 0.069810 0.333340 
#    y 0.069810 4.129040 0.215860 
#    z 0.333340 0.215860 4.205580 
# 
# 
# High freq. dielectric constant tensor:
#      x y z
#    x 1.936050 -0.005300 0.017440 
#    y -0.005300 1.903280 0.014470 
#    z 0.017440 0.014470 1.915220 
# 
# From -- ./inp_files/522283.got.cif
#   From: 2010.06.25/outbox.cif.g09.slc.cpg/sg2_262_cif.got.tgz:522283.got - 2010.06.27 13:26:56.
