data_PCOD8028460
_publ_section_title
;
Structure prediction by ZEFSAII (Michael W. Deem and Ramdas Pophale) SiO2 
 PCOD8028460
Probable space group: P -1
;
_chemical_formula_sum "Si O2"
_cell_formula_units_Z 16
_cell_length_a 20.104961
_cell_length_b 16.826881
_cell_length_c 11.502889
_cell_angle_alpha 157.033845
_cell_angle_beta 43.516077
_cell_angle_gamma 149.727888
_cell_volume 715.320740
_symmetry_space_group_name_H-M "P -1"
_symmetry_group_IT_number 2
_symmetry_cell_setting 'triclinic'
loop_
_space_group_symop_operation_xyz
x,y,z
-x,-y,-z
loop_
_atom_site_type_symbol
_atom_site_label
_atom_site_fract_x
_atom_site_fract_y
_atom_site_fract_z
Si Si1 0.843773 0.765271 0.434113
Si Si2 0.265126 0.119650 0.585759
Si Si3 0.107453 0.485815 0.334582
Si Si4 0.286324 0.779995 0.278437
Si Si5 0.971908 0.854969 0.624161
Si Si6 0.352995 0.187299 0.309248
Si Si7 0.566279 0.385255 0.790553
Si Si8 0.250288 0.636147 0.585794
O O1 0.854431 0.702845 0.468248
O O2 0.779259 0.892553 0.685152
O O3 0.732682 0.456838 0.088431
O O4 0.000000 0.000000 0.500000
O O5 0.345948 0.181023 0.449486
O O6 0.267107 0.940479 0.433438
O O7 0.341844 0.440432 0.973634
O O8 0.102877 0.925907 0.503206
O O9 0.168884 0.600701 0.283510
O O10 0.225419 0.684781 0.553084
O O11 0.000000 0.500000 0.500000
O O12 0.024588 0.148863 0.002654
O O13 0.439256 0.025992 0.479122
O O14 0.898574 0.623484 0.510824
O O15 0.500000 0.500000 0.500000
O O16 0.344356 0.940812 0.947745
O O17 0.667021 0.452931 0.651170
O O18 0.500000 0.500000 0.000000
#
# Coordination Sequence:
#
# PCOD8028460 Si02
#       8
#     2   2   2   2   2   2   2   2
#     4  12  24  45  69 104 144 186 243 296 360 425
#     4  11  24  47  74 105 141 197 238 296 364 440
#     4  12  25  40  67 106 143 179 233 300 357 416
#     4  11  25  44  72 100 142 191 241 288 358 435
#     4  12  25  44  74 103 148 185 246 297 366 431
#     4  12  28  48  73 107 149 191 248 301 361 435
#     4  10  25  46  72 102 141 188 240 292 364 434
#     4  12  27  44  73 109 141 190 241 302 360 426
#
# _framework density 22.367588000000001
#
# number of rings (size 3 to 8) (size 9 to 14) (size 15 to 20)
#    0.000    0.500    3.750    3.375    7.000    3.500 
#    0.000    4.375    0.000    0.000    0.000    0.000 
#    0.000    0.000    0.000    0.000    0.000    0.000 
#
# Total GULP energy -198448.809202 kJ/mol
# GULP energy per Si atom -12403.050575 kJ/mol
# Density = 2.231668 g / cm^3
# Si number density = 22.367588 Si / 1000 Ang^3
#
#
#
# Elastic Constant Matrix: (Units=GPa)
#
#
# Indices 1 2 3 4 5 6 
#
# 1 94.5730 37.6730 28.9307 -6.6086 8.6098 -7.2388
# 2 37.6730 106.8204 60.1390 -4.2975 0.8888 1.6792
# 3 28.9307 60.1390 150.7246 -4.0819 20.2077 -7.1685
# 4 -6.6086 -4.2975 -4.0819 42.2753 0.8721 -1.1641
# 5 8.6098 0.8888 20.2077 0.8721 37.1338 -4.1964
# 6 -7.2388 1.6792 -7.1685 -1.1641 -4.1964 39.4632
#
#
#
# Elastic Compliance Matrix: (Units=1/GPa)
#
#
# Indices 1 2 3 4 5 6 
#
# 1 0.012909 -0.004364 -0.000242 0.001666 -0.002537 0.002289
# 2 -0.004364 0.013848 -0.005221 0.000099 0.003295 -0.001985
# 3 -0.000242 -0.005221 0.009493 0.000486 -0.004838 0.001402
# 4 0.001666 0.000099 0.000486 0.024022 -0.001107 0.000981
# 5 -0.002537 0.003295 -0.004838 -0.001107 0.030290 0.001704
# 6 0.002289 -0.001985 0.001402 0.000981 0.001704 0.026309
#
#
# Mechanical properties :
#
#
# Convention : Reuss Voigt Hill
#
# Bulk Modulus (GPa) = 60.26095 67.28928 63.77512
# Shear Modulus (GPa) = 35.19701 38.79946 36.99824
#
# Velocity S-wave (km/s) = 3.97113 4.16941 4.07148
# Velocity P-wave (km/s) = 6.93009 7.30255 7.11876
#
# Compressibility (1/GPa) = 0.01659449
#
# Stress axis : x y z
#
# Youngs Moduli (GPa) = 77.46511 72.21360 105.34292
#
# Poissons Ratio (x) = 0.31515 0.02554
# Poissons Ratio (y) = 0.33806 0.55001
# Poissons Ratio (z) = 0.01878 0.37703
#
# Static dielectric constant tensor:
#      x y z
#    x 4.067830 0.192960 0.180260 
#    y 0.192960 3.943390 0.228180 
#    z 0.180260 0.228180 3.692750 
# 
# 
# High freq. dielectric constant tensor:
#      x y z
#    x 1.882410 0.004240 0.006780 
#    y 0.004240 1.883400 -0.004520 
#    z 0.006780 -0.004520 1.896430 
# 
# From -- ./inp_files/472539.got.cif
#   From: 2010.06.25/outbox.cif.g09.slc.cpg/sg2_237_cif.got.tgz:472539.got - 2010.06.27 13:26:56.
