data_PCOD8028252
_publ_section_title
;
Structure prediction by ZEFSAII (Michael W. Deem and Ramdas Pophale) SiO2 
 PCOD8028252
Probable space group: P -1
;
_chemical_formula_sum "Si O2"
_cell_formula_units_Z 14
_cell_length_a 11.828389
_cell_length_b 16.842118
_cell_length_c 9.637376
_cell_angle_alpha 105.297988
_cell_angle_beta 141.365580
_cell_angle_gamma 44.842570
_cell_volume 635.944298
_symmetry_space_group_name_H-M "P -1"
_symmetry_group_IT_number 2
_symmetry_cell_setting 'triclinic'
loop_
_space_group_symop_operation_xyz
x,y,z
-x,-y,-z
loop_
_atom_site_type_symbol
_atom_site_label
_atom_site_fract_x
_atom_site_fract_y
_atom_site_fract_z
Si Si1 0.201628 0.322943 0.840646
Si Si2 0.661772 0.144463 0.954027
Si Si3 0.908769 0.872306 0.681669
Si Si4 0.129811 0.163488 0.686385
Si Si5 0.219042 0.394318 0.291164
Si Si6 0.337104 0.177367 0.413104
Si Si7 0.759830 0.172823 0.509301
O O1 0.064989 0.283264 0.710666
O O2 0.888965 0.502758 0.642483
O O3 0.337935 0.285100 0.798948
O O4 0.489667 0.228222 0.184785
O O5 0.789068 0.180445 0.022153
O O6 0.580875 0.110139 0.741127
O O7 0.937718 0.003500 0.256928
O O8 0.943566 0.827200 0.538942
O O9 0.926570 0.788931 0.767232
O O10 0.559930 0.052011 0.448759
O O11 0.877863 0.209660 0.562278
O O12 0.500000 0.000000 0.000000
O O13 0.144942 0.329187 0.239978
O O14 0.599971 0.257900 0.544948
O O15 0.000000 0.500000 0.000000
#
# Coordination Sequence:
#
# PCOD8028252 Si02
#       7
#     2   2   2   2   2   2   2
#     4  11  23  41  65  96 134 173 212 265 326 385
#     4  12  21  40  69  98 126 170 222 267 324 374
#     4  11  23  39  66 100 128 162 218 278 314 373
#     4  12  22  37  67 103 128 166 222 271 319 376
#     4  10  25  45  66  92 136 177 208 263 335 392
#     4  11  24  43  65  97 131 168 218 271 324 380
#     4  11  22  41  67  97 134 170 216 273 314 383
#
# _framework density 22.014506999999998
#
# number of rings (size 3 to 8) (size 9 to 14) (size 15 to 20)
#    0.000    0.857    5.714    1.714    2.000    1.143 
#    0.000    3.571    0.000    0.000    0.000    0.000 
#    0.000    0.000    0.000    0.000    0.000    0.000 
#
# Total GULP energy -173630.978270 kJ/mol
# GULP energy per Si atom -12402.212734 kJ/mol
# Density = 2.196440 g / cm^3
# Si number density = 22.014507 Si / 1000 Ang^3
#
#
#
# Elastic Constant Matrix: (Units=GPa)
#
#
# Indices 1 2 3 4 5 6 
#
# 1 182.5338 85.5376 21.6668 2.2371 24.6154 16.3766
# 2 85.5376 152.3877 17.5854 -7.2071 16.0711 13.5061
# 3 21.6668 17.5854 30.5556 12.7127 5.4703 0.4002
# 4 2.2371 -7.2071 12.7127 26.2571 10.1338 7.5073
# 5 24.6154 16.0711 5.4703 10.1338 34.0156 -1.4807
# 6 16.3766 13.5061 0.4002 7.5073 -1.4807 42.7936
#
#
#
# Elastic Compliance Matrix: (Units=1/GPa)
#
#
# Indices 1 2 3 4 5 6 
#
# 1 0.008442 -0.003275 -0.004565 0.003334 -0.004948 -0.002911
# 2 -0.003275 0.010371 -0.006585 0.009039 -0.004325 -0.003694
# 3 -0.004565 -0.006585 0.051562 -0.032161 0.008107 0.009266
# 4 0.003334 0.009039 -0.032161 0.069521 -0.022955 -0.016818
# 5 -0.004948 -0.004325 0.008107 -0.022955 0.040933 0.008626
# 6 -0.002911 -0.003694 0.009266 -0.016818 0.008626 0.028810
#
#
# Mechanical properties :
#
#
# Convention : Reuss Voigt Hill
#
# Bulk Modulus (GPa) = 24.08116 68.33964 46.21040
# Shear Modulus (GPa) = 19.81530 36.65908 28.23719
#
# Velocity S-wave (km/s) = 3.00342 4.08514 3.58531
# Velocity P-wave (km/s) = 4.79478 7.30490 6.17865
#
# Compressibility (1/GPa) = 0.04152624
#
# Stress axis : x y z
#
# Youngs Moduli (GPa) = 118.45062 96.42079 19.39423
#
# Poissons Ratio (x) = 0.31573 0.08853
# Poissons Ratio (y) = 0.38787 0.12771
# Poissons Ratio (z) = 0.54073 0.63493
#
# Static dielectric constant tensor:
#      x y z
#    x 4.484880 -0.278800 0.233930 
#    y -0.278800 4.607430 0.004660 
#    z 0.233930 0.004660 3.650170 
# 
# 
# High freq. dielectric constant tensor:
#      x y z
#    x 1.889750 -0.005600 0.004130 
#    y -0.005600 1.874290 0.013030 
#    z 0.004130 0.013030 1.830790 
# 
# From -- ./inp_files/270509.got.cif
#   From: 2010.06.25/outbox.cif.g09.slc.cpg/sg2_136_cif.got.tgz:270509.got - 2010.06.27 13:26:56.
