data_PCOD8028929
_publ_section_title
;
Structure prediction by ZEFSAII (Michael W. Deem and Ramdas Pophale) SiO2 
 PCOD8028929
Probable space group: P -1
;
_chemical_formula_sum "Si O2"
_cell_formula_units_Z 12
_cell_length_a 13.289863
_cell_length_b 4.952282
_cell_length_c 12.211329
_cell_angle_alpha 102.765400
_cell_angle_beta 123.346873
_cell_angle_gamma 102.657503
_cell_volume 594.814825
_symmetry_space_group_name_H-M "P -1"
_symmetry_group_IT_number 2
_symmetry_cell_setting 'triclinic'
loop_
_space_group_symop_operation_xyz
x,y,z
-x,-y,-z
loop_
_atom_site_type_symbol
_atom_site_label
_atom_site_fract_x
_atom_site_fract_y
_atom_site_fract_z
Si Si1 0.171693 0.130937 0.701753
Si Si2 0.033961 0.378968 0.898869
Si Si3 0.517172 0.920624 0.878516
Si Si4 0.683071 0.566465 0.980399
Si Si5 0.769718 0.400848 0.394545
Si Si6 0.046307 0.242720 0.287334
O O1 0.292411 0.356824 0.868788
O O2 0.138110 0.346190 0.615979
O O3 0.215504 0.911616 0.637457
O O4 0.049770 0.936140 0.687548
O O5 0.017471 0.569317 0.803399
O O6 0.183321 0.405754 0.997005
O O7 0.935412 0.018408 0.797281
O O8 0.000000 0.500000 0.000000
O O9 0.632049 0.803466 0.920444
O O10 0.383483 0.669416 0.722868
O O11 0.567549 0.230559 0.866772
O O12 0.500000 0.000000 0.000000
O O13 0.814616 0.527261 0.555664
#
# Coordination Sequence:
#
# PCOD8028929 Si02
#       6
#     2   2   2   2   2   2
#     4  11  19  34  54  84 124 158 188 229 277 355
#     4  11  24  44  67  82 107 150 205 268 298 322
#     4  12  21  35  56  86 128 163 188 218 274 361
#     4  11  21  37  57  87 115 153 205 235 275 342
#     4  12  22  33  56  85 129 163 180 224 288 358
#     4  11  23  38  58  89 116 148 201 243 298 346
#
# _framework density 20.174344000000001
#
# number of rings (size 3 to 8) (size 9 to 14) (size 15 to 20)
#    0.000    0.667    3.333    8.000    0.000    0.000 
#    0.000    0.000    0.000    6.000    0.000    0.000 
#    0.000    0.000    0.000    0.000    0.000    0.000 
#
# Total GULP energy -148798.734665 kJ/mol
# GULP energy per Si atom -12399.894555 kJ/mol
# Density = 2.012843 g / cm^3
# Si number density = 20.174344 Si / 1000 Ang^3
#
#
#
# Elastic Constant Matrix: (Units=GPa)
#
#
# Indices 1 2 3 4 5 6 
#
# 1 102.5095 29.4302 60.5272 14.0838 -4.4639 -20.2686
# 2 29.4302 90.9742 24.4846 10.3163 2.9958 -16.5662
# 3 60.5272 24.4846 115.6177 13.7996 6.8632 -4.3379
# 4 14.0838 10.3163 13.7996 22.2465 -7.3211 -1.6633
# 5 -4.4639 2.9958 6.8632 -7.3211 22.4027 2.7404
# 6 -20.2686 -16.5662 -4.3379 -1.6633 2.7404 28.9740
#
#
#
# Elastic Compliance Matrix: (Units=1/GPa)
#
#
# Indices 1 2 3 4 5 6 
#
# 1 0.017706 -0.001450 -0.008454 -0.003227 0.004068 0.009721
# 2 -0.001450 0.013773 -0.000923 -0.005904 -0.004611 0.006819
# 3 -0.008454 -0.000923 0.014245 -0.005762 -0.007325 -0.003947
# 4 -0.003227 -0.005904 -0.005762 0.060236 0.022225 -0.005140
# 5 0.004068 -0.004611 -0.007325 0.022225 0.056174 -0.004925
# 6 0.009721 0.006819 -0.003947 -0.005140 -0.004925 0.044793
#
#
# Mechanical properties :
#
#
# Convention : Reuss Voigt Hill
#
# Bulk Modulus (GPa) = 41.54729 59.77613 50.66171
# Shear Modulus (GPa) = 21.13243 27.70191 24.41717
#
# Velocity S-wave (km/s) = 3.24001 3.70959 3.48272
# Velocity P-wave (km/s) = 5.88521 6.93125 6.42954
#
# Compressibility (1/GPa) = 0.02406896
#
# Stress axis : x y z
#
# Youngs Moduli (GPa) = 56.47926 72.60636 70.20174
#
# Poissons Ratio (x) = 0.10531 0.59345
# Poissons Ratio (y) = 0.08192 0.06481
# Poissons Ratio (z) = 0.47745 0.06702
#
# Static dielectric constant tensor:
#      x y z
#    x 3.334070 -0.325000 0.051700 
#    y -0.325000 3.964810 0.269860 
#    z 0.051700 0.269860 3.865320 
# 
# 
# High freq. dielectric constant tensor:
#      x y z
#    x 1.748150 -0.028130 0.015380 
#    y -0.028130 1.808000 0.016090 
#    z 0.015380 0.016090 1.781870 
# 
# From -- ./inp_files/83722.got.cif
#   From: 2010.06.25/outbox.cif.g09.slc.cpg/sg2_42_cif.got.tgz:83722.got - 2010.06.27 13:26:56.
