data_PCOD8028848
_publ_section_title
;
Structure prediction by ZEFSAII (Michael W. Deem and Ramdas Pophale) SiO2 
 PCOD8028848
Probable space group: P -1
;
_chemical_formula_sum "Si O2"
_cell_formula_units_Z 16
_cell_length_a 19.929895
_cell_length_b 10.442334
_cell_length_c 11.334666
_cell_angle_alpha 128.552381
_cell_angle_beta 151.979806
_cell_angle_gamma 63.215238
_cell_volume 834.223121
_symmetry_space_group_name_H-M "P -1"
_symmetry_group_IT_number 2
_symmetry_cell_setting 'triclinic'
loop_
_space_group_symop_operation_xyz
x,y,z
-x,-y,-z
loop_
_atom_site_type_symbol
_atom_site_label
_atom_site_fract_x
_atom_site_fract_y
_atom_site_fract_z
Si Si1 0.450251 0.131981 0.700905
Si Si2 0.727966 0.130022 0.566555
Si Si3 0.012836 0.084732 0.863695
Si Si4 0.768290 0.305347 0.221237
Si Si5 0.765953 0.423970 0.633736
Si Si6 0.722798 0.610088 0.460412
Si Si7 0.791743 0.150253 0.930979
Si Si8 0.988003 0.291678 0.739899
O O1 0.408782 0.312099 0.742146
O O2 0.410318 0.031914 0.707120
O O3 0.623587 0.166095 0.965837
O O4 0.352953 0.014779 0.379297
O O5 0.852164 0.056065 0.656264
O O6 0.673358 0.262856 0.474655
O O7 0.796220 0.227700 0.850516
O O8 0.006221 0.120816 0.733370
O O9 0.061289 0.912646 0.856147
O O10 0.126718 0.244849 0.195468
O O11 0.761553 0.495205 0.349993
O O12 0.780424 0.289893 0.090215
O O13 0.910434 0.258373 0.472892
O O14 0.667193 0.495836 0.427480
O O15 0.885643 0.366387 0.709407
O O16 0.851211 0.571263 0.941360
#
# Coordination Sequence:
#
# PCOD8028848 Si02
#       8
#     2   2   2   2   2   2   2   2
#     4   9  20  32  50  72  94 135 159 192 233 283
#     4   9  17  30  53  72  95 128 158 195 236 290
#     4   9  16  35  51  73  94 123 168 190 245 282
#     4  11  18  32  46  77  99 121 167 193 236 285
#     4   8  14  31  49  73  93 118 166 196 239 277
#     4   9  18  31  55  73  90 127 162 207 227 274
#     4   9  20  29  50  73  95 132 151 205 236 277
#     4   8  16  27  51  70  95 127 153 204 231 280
#
# _framework density 19.179523
#
# number of rings (size 3 to 8) (size 9 to 14) (size 15 to 20)
#    0.750    2.250    0.000    3.375    0.000    0.500 
#    0.000    8.125    0.000    0.750    0.000    0.000 
#    0.000    0.000    0.000    0.000    0.000    0.000 
#
# Total GULP energy -198218.946351 kJ/mol
# GULP energy per Si atom -12388.684147 kJ/mol
# Density = 1.913587 g / cm^3
# Si number density = 19.179523 Si / 1000 Ang^3
#
#
#
# Elastic Constant Matrix: (Units=GPa)
#
#
# Indices 1 2 3 4 5 6 
#
# 1 59.6759 39.1054 7.7185 8.1167 -6.7177 6.7725
# 2 39.1054 80.9559 11.2788 2.0378 -10.8169 18.7736
# 3 7.7185 11.2788 30.6975 0.0614 -7.4839 -7.5282
# 4 8.1167 2.0378 0.0614 11.8335 -1.5789 -3.7520
# 5 -6.7177 -10.8169 -7.4839 -1.5789 26.7281 5.1136
# 6 6.7725 18.7736 -7.5282 -3.7520 5.1136 28.3045
#
#
#
# Elastic Compliance Matrix: (Units=1/GPa)
#
#
# Indices 1 2 3 4 5 6 
#
# 1 0.027629 -0.012025 -0.002782 -0.017350 0.000615 -0.001786
# 2 -0.012025 0.024205 -0.008098 -0.000159 0.007700 -0.016743
# 3 -0.002782 -0.008098 0.041715 0.009282 0.004909 0.017476
# 4 -0.017350 -0.000159 0.009282 0.102870 0.000368 0.020296
# 5 0.000615 0.007700 0.004909 0.000368 0.044360 -0.011914
# 6 -0.001786 -0.016743 0.017476 0.020296 -0.011914 0.056354
#
#
# Mechanical properties :
#
#
# Convention : Reuss Voigt Hill
#
# Bulk Modulus (GPa) = 20.94788 31.94829 26.44808
# Shear Modulus (GPa) = 13.93316 20.92164 17.42740
#
# Velocity S-wave (km/s) = 2.69822 3.30636 3.01765
# Velocity P-wave (km/s) = 4.54454 5.59193 5.09522
#
# Compressibility (1/GPa) = 0.04773754
#
# Stress axis : x y z
#
# Youngs Moduli (GPa) = 36.19396 41.31365 23.97235
#
# Poissons Ratio (x) = 0.49681 0.06669
# Poissons Ratio (y) = 0.43525 0.19414
# Poissons Ratio (z) = 0.10069 0.33457
#
# Static dielectric constant tensor:
#      x y z
#    x 3.171050 0.278670 -0.160160 
#    y 0.278670 3.589550 -0.188410 
#    z -0.160160 -0.188410 3.461740 
# 
# 
# High freq. dielectric constant tensor:
#      x y z
#    x 1.710070 0.018370 -0.008290 
#    y 0.018370 1.733000 -0.005520 
#    z -0.008290 -0.005520 1.732460 
# 
# From -- ./inp_files/281082.got.cif
#   From: 2010.06.25/outbox.cif.g09.slc.cpg/sg2_141_cif.got.tgz:281082.got - 2010.06.27 13:26:56.
