data_PCOD8028775
_publ_section_title
;
Structure prediction by ZEFSAII (Michael W. Deem and Ramdas Pophale) SiO2 
 PCOD8028775
Probable space group: P -1
;
_chemical_formula_sum "Si O2"
_cell_formula_units_Z 16
_cell_length_a 9.571788
_cell_length_b 5.226819
_cell_length_c 13.106645
_cell_angle_alpha 97.193996
_cell_angle_beta 73.874802
_cell_angle_gamma 102.391470
_cell_volume 613.745783
_symmetry_space_group_name_H-M "P -1"
_symmetry_group_IT_number 2
_symmetry_cell_setting 'triclinic'
loop_
_space_group_symop_operation_xyz
x,y,z
-x,-y,-z
loop_
_atom_site_type_symbol
_atom_site_label
_atom_site_fract_x
_atom_site_fract_y
_atom_site_fract_z
Si Si1 0.241406 0.354294 0.379350
Si Si2 0.553504 0.938134 0.159360
Si Si3 0.135983 0.530228 0.117372
Si Si4 0.741383 0.590436 0.399464
Si Si5 0.402838 0.371540 0.144244
Si Si6 0.088097 0.775045 0.344357
Si Si7 0.411493 0.984284 0.622851
Si Si8 0.879486 0.168838 0.065354
O O1 0.325967 0.377491 0.471838
O O2 0.367238 0.384517 0.271272
O O3 0.154739 0.596425 0.402859
O O4 0.125649 0.079977 0.380692
O O5 0.488691 0.129855 0.103377
O O6 0.490368 0.963867 0.289720
O O7 0.732159 0.000487 0.135289
O O8 0.507506 0.647782 0.106418
O O9 0.253092 0.334290 0.103816
O O10 0.154875 0.738949 0.216359
O O11 0.966386 0.370180 0.142053
O O12 0.173415 0.675877 0.010665
O O13 0.696865 0.294122 0.355443
O O14 0.915291 0.676578 0.376681
O O15 0.682640 0.784598 0.343688
O O16 0.500000 0.000000 0.500000
O O17 0.000000 0.000000 0.000000
#
# Coordination Sequence:
#
# PCOD8028775 Si02
#       8
#     2   2   2   2   2   2   2   2
#     4  11  22  41  65 102 142 183 226 289 348 412
#     4  12  27  47  72 107 142 190 237 294 348 422
#     4  10  26  47  72 105 138 189 231 294 361 419
#     4  12  23  39  66  97 138 184 238 287 344 419
#     4  11  25  46  74 102 143 185 238 286 353 424
#     4  11  23  39  69  98 139 180 236 286 349 418
#     4  12  25  42  66  97 140 186 232 287 349 414
#     4  11  28  47  76 101 147 180 238 296 360 422
#
# _framework density 26.069424999999999
#
# number of rings (size 3 to 8) (size 9 to 14) (size 15 to 20)
#    0.000    0.750    0.000    7.125   10.500    1.000 
#    0.000    0.000    0.000    0.000    0.000    0.000 
#    0.000    0.000    0.000    0.000    0.000    0.000 
#
# Total GULP energy -198458.293601 kJ/mol
# GULP energy per Si atom -12403.643350 kJ/mol
# Density = 2.601009 g / cm^3
# Si number density = 26.069425 Si / 1000 Ang^3
#
#
#
# Elastic Constant Matrix: (Units=GPa)
#
#
# Indices 1 2 3 4 5 6 
#
# 1 105.7865 46.8422 12.5380 -15.2010 16.5450 -18.6666
# 2 46.8422 180.7246 12.3719 -2.7874 16.8520 -11.2566
# 3 12.5380 12.3719 65.9320 1.0940 26.8132 -12.5832
# 4 -15.2010 -2.7874 1.0940 29.3166 2.9842 5.5991
# 5 16.5450 16.8520 26.8132 2.9842 42.7823 -5.5216
# 6 -18.6666 -11.2566 -12.5832 5.5991 -5.5216 45.0839
#
#
#
# Elastic Compliance Matrix: (Units=1/GPa)
#
#
# Indices 1 2 3 4 5 6 
#
# 1 0.012691 -0.002625 0.000269 0.006076 -0.004024 0.003427
# 2 -0.002625 0.006358 -0.000054 -0.000694 -0.001355 0.000406
# 3 0.000269 -0.000054 0.021172 -0.000211 -0.012760 0.004470
# 4 0.006076 -0.000694 -0.000211 0.038303 -0.005014 -0.003088
# 5 -0.004024 -0.001355 -0.012760 -0.005014 0.033706 -0.000815
# 6 0.003427 0.000406 0.004470 -0.003088 -0.000815 0.025232
#
#
# Mechanical properties :
#
#
# Convention : Reuss Voigt Hill
#
# Bulk Modulus (GPa) = 28.24850 55.10526 41.67688
# Shear Modulus (GPa) = 32.45003 42.14931 37.29967
#
# Velocity S-wave (km/s) = 3.53193 4.02532 3.78667
# Velocity P-wave (km/s) = 5.24330 6.54126 5.92791
#
# Compressibility (1/GPa) = 0.03540011
#
# Stress axis : x y z
#
# Youngs Moduli (GPa) = 78.79812 157.27399 47.23171
#
# Poissons Ratio (x) = 0.41290 -0.01270
# Poissons Ratio (y) = 0.20687 0.00255
# Poissons Ratio (z) = -0.02118 0.00849
#
# Static dielectric constant tensor:
#      x y z
#    x 4.765410 -0.220050 0.208010 
#    y -0.220050 5.045650 -0.080420 
#    z 0.208010 -0.080420 4.892400 
# 
# 
# High freq. dielectric constant tensor:
#      x y z
#    x 2.047260 -0.003890 0.011240 
#    y -0.003890 2.055960 -0.004600 
#    z 0.011240 -0.004600 2.046450 
# 
# From -- ./inp_files/488566.got.cif
#   From: 2010.06.25/outbox.cif.g09.slc.cpg/sg2_245_cif.got.tgz:488566.got - 2010.06.27 13:26:56.
