data_PCOD8028476
_publ_section_title
;
Structure prediction by ZEFSAII (Michael W. Deem and Ramdas Pophale) SiO2 
 PCOD8028476
Probable space group: P -1
;
_chemical_formula_sum "Si O2"
_cell_formula_units_Z 16
_cell_length_a 12.141940
_cell_length_b 8.452651
_cell_length_c 14.565438
_cell_angle_alpha 108.130807
_cell_angle_beta 74.321168
_cell_angle_gamma 148.837150
_cell_volume 735.123815
_symmetry_space_group_name_H-M "P -1"
_symmetry_group_IT_number 2
_symmetry_cell_setting 'triclinic'
loop_
_space_group_symop_operation_xyz
x,y,z
-x,-y,-z
loop_
_atom_site_type_symbol
_atom_site_label
_atom_site_fract_x
_atom_site_fract_y
_atom_site_fract_z
Si Si1 0.615687 0.624631 0.398331
Si Si2 0.685768 0.591754 0.722612
Si Si3 0.100508 0.810771 0.460945
Si Si4 0.295215 0.732314 0.438298
Si Si5 0.105982 0.597253 0.870356
Si Si6 0.936803 0.748848 0.309435
Si Si7 0.514100 0.341271 0.918907
Si Si8 0.733259 0.340574 0.978304
O O1 0.500000 0.500000 0.500000
O O2 0.470897 0.496379 0.322816
O O3 0.710185 0.557341 0.345871
O O4 0.815364 0.992936 0.430909
O O5 0.712704 0.438259 0.653537
O O6 0.585832 0.463280 0.821882
O O7 0.916187 0.964879 0.742160
O O8 0.256089 0.847820 0.404728
O O9 0.871597 0.464475 0.476831
O O10 0.080315 0.911306 0.398192
O O11 0.500000 0.000000 0.500000
O O12 0.120180 0.506908 0.758329
O O13 0.129478 0.489439 0.927923
O O14 0.289416 0.964548 0.900630
O O15 0.867775 0.382825 0.888807
O O16 0.500000 0.500000 0.000000
O O17 0.701590 0.474222 0.955486
O O18 0.500000 0.000000 0.000000
#
# Coordination Sequence:
#
# PCOD8028476 Si02
#       8
#     2   2   2   2   2   2   2   2
#     4  12  24  44  68  99 141 185 230 286 341 405
#     4  12  27  43  69 104 141 185 237 286 353 407
#     4  11  24  42  66  96 139 183 228 283 344 408
#     4  11  24  42  66  95 140 182 226 287 348 407
#     4  10  25  46  74 101 133 187 228 283 355 416
#     4  12  27  42  71 101 139 181 245 277 339 427
#     4  11  28  46  72 104 144 176 232 296 352 411
#     4   9  22  48  73  96 136 174 233 281 352 411
#
# _framework density 21.765041
#
# number of rings (size 3 to 8) (size 9 to 14) (size 15 to 20)
#    0.000    1.000    3.750    1.125   10.500    2.500 
#    0.000    0.000    0.000    0.000    0.000    0.000 
#    0.000    0.000    0.000    0.000    0.000    0.000 
#
# Total GULP energy -198295.031198 kJ/mol
# GULP energy per Si atom -12393.439450 kJ/mol
# Density = 2.171550 g / cm^3
# Si number density = 21.765041 Si / 1000 Ang^3
#
#
#
# Elastic Constant Matrix: (Units=GPa)
#
#
# Indices 1 2 3 4 5 6 
#
# 1 173.3876 35.0326 75.1268 -9.3515 -13.5991 20.4191
# 2 35.0326 100.2786 45.5924 -4.5587 -14.4166 9.8579
# 3 75.1268 45.5924 126.8992 -7.0193 -15.2893 0.2303
# 4 -9.3515 -4.5587 -7.0193 38.3866 -9.2665 -5.8904
# 5 -13.5991 -14.4166 -15.2893 -9.2665 48.8540 -1.7298
# 6 20.4191 9.8579 0.2303 -5.8904 -1.7298 30.6529
#
#
#
# Elastic Compliance Matrix: (Units=1/GPa)
#
#
# Indices 1 2 3 4 5 6 
#
# 1 0.008688 -0.000092 -0.004983 0.000515 0.000732 -0.005580
# 2 -0.000092 0.012633 -0.004146 0.000736 0.002413 -0.003693
# 3 -0.004983 -0.004146 0.012637 0.001825 0.001868 0.005014
# 4 0.000515 0.000736 0.001825 0.029019 0.006625 0.005357
# 5 0.000732 0.002413 0.001868 0.006625 0.023273 0.001309
# 6 -0.005580 -0.003693 0.005014 0.005357 0.001309 0.038593
#
#
# Mechanical properties :
#
#
# Convention : Reuss Voigt Hill
#
# Bulk Modulus (GPa) = 64.45669 79.11879 71.78774
# Shear Modulus (GPa) = 33.67998 39.89961 36.78980
#
# Velocity S-wave (km/s) = 3.93801 4.28623 4.11581
# Velocity P-wave (km/s) = 7.09622 7.80551 7.45930
#
# Compressibility (1/GPa) = 0.01551429
#
# Stress axis : x y z
#
# Youngs Moduli (GPa) = 115.10777 79.15878 79.13316
#
# Poissons Ratio (x) = 0.00730 0.39435
# Poissons Ratio (y) = 0.01062 0.32808
# Poissons Ratio (z) = 0.57362 0.32819
#
# Static dielectric constant tensor:
#      x y z
#    x 4.396310 0.138870 0.127820 
#    y 0.138870 4.133380 -0.065510 
#    z 0.127820 -0.065510 3.690440 
# 
# 
# High freq. dielectric constant tensor:
#      x y z
#    x 1.873300 0.010420 -0.003000 
#    y 0.010420 1.861750 -0.006300 
#    z -0.003000 -0.006300 1.845050 
# 
# From -- ./inp_files/89894.got.cif
#   From: 2010.06.25/outbox.cif.g09.slc.cpg/sg2_45_cif.got.tgz:89894.got - 2010.06.27 13:26:56.
