data_PCOD8028320
_publ_section_title
;
Structure prediction by ZEFSAII (Michael W. Deem and Ramdas Pophale) SiO2 
 PCOD8028320
Probable space group: P -1
;
_chemical_formula_sum "Si O2"
_cell_formula_units_Z 14
_cell_length_a 26.111757
_cell_length_b 5.263050
_cell_length_c 28.728028
_cell_angle_alpha 113.204072
_cell_angle_beta 9.174517
_cell_angle_gamma 112.958010
_cell_volume 578.544442
_symmetry_space_group_name_H-M "P -1"
_symmetry_group_IT_number 2
_symmetry_cell_setting 'triclinic'
loop_
_space_group_symop_operation_xyz
x,y,z
-x,-y,-z
loop_
_atom_site_type_symbol
_atom_site_label
_atom_site_fract_x
_atom_site_fract_y
_atom_site_fract_z
Si Si1 0.619790 0.811373 0.420713
Si Si2 0.362987 0.810604 0.148415
Si Si3 0.694126 0.769925 0.937603
Si Si4 0.784880 0.598206 0.605353
Si Si5 0.422666 0.450551 0.377026
Si Si6 0.741063 0.263670 0.985388
Si Si7 0.364382 0.928662 0.759130
O O1 0.500000 0.500000 0.500000
O O2 0.488245 0.918549 0.594961
O O3 0.500000 0.000000 0.500000
O O4 0.999602 0.832110 0.081961
O O5 0.974968 0.801991 0.485933
O O6 0.500000 0.500000 0.000000
O O7 0.502755 0.940702 0.080804
O O8 0.500000 0.000000 0.000000
O O9 0.960978 0.574707 0.664211
O O10 0.866346 0.958336 0.836774
O O11 0.410126 0.599512 0.201648
O O12 0.568736 0.726570 0.768506
O O13 0.455961 0.287158 0.384230
O O14 0.033304 0.472923 0.723935
O O15 0.580769 0.753459 0.253000
O O16 0.613431 0.280882 0.153985
#
# Coordination Sequence:
#
# PCOD8028320 Si02
#       7
#     2   2   2   2   2   2   2
#     4  12  24  45  80 116 150 191 240 291 352 415
#     4  10  25  45  71 101 138 178 226 307 391 465
#     4  11  26  46  71 101 138 179 242 306 384 445
#     4  11  26  46  71 101 138 179 242 306 384 445
#     4  12  28  47  72 103 150 202 248 293 354 417
#     4  12  28  44  74 100 138 197 254 304 354 434
#     4  12  26  49  72 110 156 195 240 293 352 415
#
# _framework density 24.198661999999999
#
# number of rings (size 3 to 8) (size 9 to 14) (size 15 to 20)
#    0.000    0.571    0.000    6.429   16.000    0.571 
#    0.000    0.000    0.000    0.000    0.000    0.000 
#    0.000    0.000    0.000    0.000    0.000    0.000 
#
# Total GULP energy -173530.027349 kJ/mol
# GULP energy per Si atom -12395.001953 kJ/mol
# Density = 2.414358 g / cm^3
# Si number density = 24.198662 Si / 1000 Ang^3
#
#
#
# Elastic Constant Matrix: (Units=GPa)
#
#
# Indices 1 2 3 4 5 6 
#
# 1 128.5959 50.8685 41.1561 -6.3170 17.6040 3.9842
# 2 50.8685 124.7555 35.8990 -30.7983 -7.4814 -4.2424
# 3 41.1561 35.8990 151.3268 -25.5990 15.1628 13.5715
# 4 -6.3170 -30.7983 -25.5990 42.3476 -4.8681 1.0084
# 5 17.6040 -7.4814 15.1628 -4.8681 51.8251 -1.8153
# 6 3.9842 -4.2424 13.5715 1.0084 -1.8153 50.3327
#
#
#
# Elastic Compliance Matrix: (Units=1/GPa)
#
#
# Indices 1 2 3 4 5 6 
#
# 1 0.010794 -0.005051 -0.001854 -0.003650 -0.004226 -0.000860
# 2 -0.005051 0.012753 -0.000830 0.008515 0.004659 0.001696
# 3 -0.001854 -0.000830 0.008366 0.004043 -0.001639 -0.002319
# 4 -0.003650 0.008515 0.004043 0.032214 0.004292 -0.000574
# 5 -0.004226 0.004659 -0.001639 0.004292 0.022353 0.001889
# 6 -0.000860 0.001696 -0.002319 -0.000574 0.001889 0.020784
#
#
# Mechanical properties :
#
#
# Convention : Reuss Voigt Hill
#
# Bulk Modulus (GPa) = 60.82113 73.39171 67.10642
# Shear Modulus (GPa) = 38.99725 47.35139 43.17432
#
# Velocity S-wave (km/s) = 4.01876 4.42835 4.22852
# Velocity P-wave (km/s) = 6.83539 7.51942 7.18555
#
# Compressibility (1/GPa) = 0.01644165
#
# Stress axis : x y z
#
# Youngs Moduli (GPa) = 92.64711 78.41083 119.53671
#
# Poissons Ratio (x) = 0.39607 0.22163
# Poissons Ratio (y) = 0.46798 0.09924
# Poissons Ratio (z) = 0.17178 0.06510
#
# Static dielectric constant tensor:
#      x y z
#    x 5.819140 1.120730 -0.690680 
#    y 1.120730 5.207570 -0.447850 
#    z -0.690680 -0.447850 4.868250 
# 
# 
# High freq. dielectric constant tensor:
#      x y z
#    x 1.980570 0.009490 0.001590 
#    y 0.009490 1.977060 -0.000820 
#    z 0.001590 -0.000820 1.985290 
# 
# From -- ./inp_files/620870.got.cif
#   From: 2010.06.25/outbox.cif.g09.slc.cpg/sg2_311_cif.got.tgz:620870.got - 2010.06.27 13:26:56.
