data_PCOD8028480
_publ_section_title
;
Structure prediction by ZEFSAII (Michael W. Deem and Ramdas Pophale) SiO2 
 PCOD8028480
Probable space group: P -1
;
_chemical_formula_sum "Si O2"
_cell_formula_units_Z 16
_cell_length_a 13.988060
_cell_length_b 11.743722
_cell_length_c 16.679545
_cell_angle_alpha 55.744421
_cell_angle_beta 145.959248
_cell_angle_gamma 149.317342
_cell_volume 666.492584
_symmetry_space_group_name_H-M "P -1"
_symmetry_group_IT_number 2
_symmetry_cell_setting 'triclinic'
loop_
_space_group_symop_operation_xyz
x,y,z
-x,-y,-z
loop_
_atom_site_type_symbol
_atom_site_label
_atom_site_fract_x
_atom_site_fract_y
_atom_site_fract_z
Si Si1 0.673164 0.399195 0.311343
Si Si2 0.198892 0.983290 0.462069
Si Si3 0.259889 0.321917 0.977725
Si Si4 0.172840 0.475893 0.989134
Si Si5 0.776295 0.214527 0.170583
Si Si6 0.429908 0.113241 0.405588
Si Si7 0.478792 0.946946 0.768183
Si Si8 0.128700 0.020732 0.661407
O O1 0.691286 0.374932 0.428866
O O2 0.720022 0.290066 0.336827
O O3 0.937314 0.696885 0.356729
O O4 0.329294 0.226710 0.111123
O O5 0.385687 0.039934 0.643312
O O6 0.030462 0.008669 0.362653
O O7 0.438790 0.179810 0.475716
O O8 0.316648 0.486079 0.012752
O O9 0.500000 0.500000 0.000000
O O10 0.897650 0.076429 0.792361
O O11 0.030413 0.521125 0.834430
O O12 0.475936 0.703880 0.170603
O O13 0.869073 0.195366 0.933584
O O14 0.621543 0.153205 0.171798
O O15 0.987806 0.219368 0.321949
O O16 0.500000 0.000000 0.000000
O O17 0.500000 0.000000 0.500000
O O18 0.000000 0.000000 0.500000
#
# Coordination Sequence:
#
# PCOD8028480 Si02
#       8
#     2   2   2   2   2   2   2   2
#     4  12  25  42  74 106 145 188 226 286 361 422
#     4  12  25  46  69 105 145 187 227 296 349 418
#     4  12  22  42  68 101 144 186 225 282 344 425
#     4  11  24  46  71 104 135 183 234 290 345 421
#     4  10  25  46  74  99 134 186 238 291 354 403
#     4  12  25  42  66 106 147 180 236 275 350 433
#     4  12  25  43  75 105 142 182 237 284 356 422
#     4  11  23  49  73  98 138 182 239 293 349 411
#
# _framework density 24.006269
#
# number of rings (size 3 to 8) (size 9 to 14) (size 15 to 20)
#    0.000    0.500    6.250    1.500    0.000    4.000 
#    0.000    1.875    0.000    0.000    0.000    0.000 
#    0.000    0.000    0.000    0.000    0.000    0.000 
#
# Total GULP energy -198385.777610 kJ/mol
# GULP energy per Si atom -12399.111101 kJ/mol
# Density = 2.395163 g / cm^3
# Si number density = 24.006269 Si / 1000 Ang^3
#
#
#
# Elastic Constant Matrix: (Units=GPa)
#
#
# Indices 1 2 3 4 5 6 
#
# 1 133.9907 41.6115 17.1875 -10.0382 1.0968 -3.0144
# 2 41.6115 65.2343 2.8323 -19.1364 3.9217 -5.0273
# 3 17.1875 2.8323 84.4207 -22.2480 1.8121 2.0543
# 4 -10.0382 -19.1364 -22.2480 44.5019 -3.6003 3.6465
# 5 1.0968 3.9217 1.8121 -3.6003 44.1252 -12.1194
# 6 -3.0144 -5.0273 2.0543 3.6465 -12.1194 29.5962
#
#
#
# Elastic Compliance Matrix: (Units=1/GPa)
#
#
# Indices 1 2 3 4 5 6 
#
# 1 0.009666 -0.006580 -0.002231 -0.001765 0.000403 0.000404
# 2 -0.006580 0.022328 0.003069 0.009472 -0.000784 0.001422
# 3 -0.002231 0.003069 0.014401 0.008123 -0.000692 -0.001990
# 4 -0.001765 0.009472 0.008123 0.030473 0.000633 -0.002630
# 5 0.000403 -0.000784 -0.000692 0.000633 0.025654 0.010383
# 6 0.000404 0.001422 -0.001990 -0.002630 0.010383 0.038785
#
#
# Mechanical properties :
#
#
# Convention : Reuss Voigt Hill
#
# Bulk Modulus (GPa) = 28.64367 45.21204 36.92786
# Shear Modulus (GPa) = 30.40826 38.44561 34.42694
#
# Velocity S-wave (km/s) = 3.56291 4.00619 3.79103
# Velocity P-wave (km/s) = 5.37433 6.34616 5.88035
#
# Compressibility (1/GPa) = 0.03491173
#
# Stress axis : x y z
#
# Youngs Moduli (GPa) = 103.45161 44.78592 69.44145
#
# Poissons Ratio (x) = 0.29469 0.15491
# Poissons Ratio (y) = 0.68070 -0.21311
# Poissons Ratio (z) = 0.23078 -0.13744
#
# Static dielectric constant tensor:
#      x y z
#    x 3.772450 -0.240190 0.180690 
#    y -0.240190 4.644540 -0.430700 
#    z 0.180690 -0.430700 4.633900 
# 
# 
# High freq. dielectric constant tensor:
#      x y z
#    x 1.954060 0.001310 0.003060 
#    y 0.001310 1.939010 -0.012480 
#    z 0.003060 -0.012480 1.973010 
# 
# From -- ./inp_files/515826.got.cif
#   From: 2010.06.25/outbox.cif.g09.slc.cpg/sg2_258_cif.got.tgz:515826.got - 2010.06.27 13:26:56.
