data_PCOD8028726
_publ_section_title
;
Structure prediction by ZEFSAII (Michael W. Deem and Ramdas Pophale) SiO2 
 PCOD8028726
Probable space group: P -1
;
_chemical_formula_sum "Si O2"
_cell_formula_units_Z 16
_cell_length_a 13.253807
_cell_length_b 15.337462
_cell_length_c 8.858289
_cell_angle_alpha 76.959225
_cell_angle_beta 112.813154
_cell_angle_gamma 45.385373
_cell_volume 769.444443
_symmetry_space_group_name_H-M "P -1"
_symmetry_group_IT_number 2
_symmetry_cell_setting 'triclinic'
loop_
_space_group_symop_operation_xyz
x,y,z
-x,-y,-z
loop_
_atom_site_type_symbol
_atom_site_label
_atom_site_fract_x
_atom_site_fract_y
_atom_site_fract_z
Si Si1 0.847064 0.198530 0.324188
Si Si2 0.530521 0.792389 0.436859
Si Si3 0.345382 0.239435 0.159026
Si Si4 0.864968 0.797765 0.891889
Si Si5 0.662974 0.509944 0.582051
Si Si6 0.850438 0.848431 0.519514
Si Si7 0.064582 0.405227 0.421088
Si Si8 0.494422 0.506159 0.240853
O O1 0.659509 0.330193 0.297207
O O2 0.003566 0.173317 0.447681
O O3 0.712923 0.298296 0.048048
O O4 0.000000 0.000000 0.500000
O O5 0.630994 0.719625 0.692436
O O6 0.491564 0.717593 0.395423
O O7 0.699689 0.722332 0.450580
O O8 0.280193 0.015897 0.198338
O O9 0.289053 0.179409 0.198199
O O10 0.581998 0.068195 0.268886
O O11 0.145169 0.430398 0.877800
O O12 0.928512 0.769038 0.766012
O O13 0.083910 0.630515 0.192557
O O14 0.643259 0.474651 0.424506
O O15 0.614214 0.480429 0.704319
O O16 0.899138 0.727770 0.487390
O O17 0.000000 0.500000 0.500000
#
# Coordination Sequence:
#
# PCOD8028726 Si02
#       8
#     2   2   2   2   2   2   2   2
#     4  11  26  46  68  92 130 175 222 264 324 380
#     4  11  22  39  67  95 126 171 212 254 320 389
#     4  11  22  40  67  95 129 166 215 253 310 390
#     4  11  20  40  69  98 126 165 216 263 312 385
#     4  11  23  42  69  96 128 166 215 278 322 366
#     4  11  23  42  65  96 128 170 212 266 313 387
#     4  12  25  39  60  97 138 169 203 255 326 389
#     4  10  26  46  65  95 127 168 225 272 319 378
#
# _framework density 20.794222000000001
#
# number of rings (size 3 to 8) (size 9 to 14) (size 15 to 20)
#    0.000    1.000    5.000    1.875    5.250    2.500 
#    2.250    2.500    0.000    0.000    0.000    0.000 
#    0.000    0.000    0.000    0.000    0.000    0.000 
#
# Total GULP energy -198467.328745 kJ/mol
# GULP energy per Si atom -12404.208047 kJ/mol
# Density = 2.074689 g / cm^3
# Si number density = 20.794222 Si / 1000 Ang^3
#
#
#
# Elastic Constant Matrix: (Units=GPa)
#
#
# Indices 1 2 3 4 5 6 
#
# 1 62.0840 35.3914 28.9961 3.6004 -3.5886 8.9028
# 2 35.3914 128.5849 31.2365 -4.4403 -6.0313 11.8916
# 3 28.9961 31.2365 44.3742 -9.9863 -1.0672 6.9788
# 4 3.6004 -4.4403 -9.9863 22.8337 5.5275 1.0851
# 5 -3.5886 -6.0313 -1.0672 5.5275 26.3434 -3.5213
# 6 8.9028 11.8916 6.9788 1.0851 -3.5213 34.4106
#
#
#
# Elastic Compliance Matrix: (Units=1/GPa)
#
#
# Indices 1 2 3 4 5 6 
#
# 1 0.028238 -0.003268 -0.019118 -0.014652 0.005224 -0.001302
# 2 -0.003268 0.010007 -0.004590 0.000184 0.001415 -0.001543
# 3 -0.019118 -0.004590 0.043930 0.023279 -0.007275 -0.003855
# 4 -0.014652 0.000184 0.023279 0.059959 -0.014171 -0.004335
# 5 0.005224 0.001415 -0.007275 -0.014171 0.042263 0.004407
# 6 -0.001302 -0.001543 -0.003855 -0.004335 0.004407 0.031300
#
#
# Mechanical properties :
#
#
# Convention : Reuss Voigt Hill
#
# Bulk Modulus (GPa) = 35.43475 47.36569 41.40022
# Shear Modulus (GPa) = 17.91741 26.01215 21.96478
#
# Velocity S-wave (km/s) = 2.93858 3.54069 3.25359
# Velocity P-wave (km/s) = 5.34708 6.28833 5.83671
#
# Compressibility (1/GPa) = 0.02822089
#
# Stress axis : x y z
#
# Youngs Moduli (GPa) = 35.41349 99.92922 22.76353
#
# Poissons Ratio (x) = 0.32660 0.43520
# Poissons Ratio (y) = 0.11574 0.10450
# Poissons Ratio (z) = 0.67704 0.45872
#
# Static dielectric constant tensor:
#      x y z
#    x 3.733000 0.086020 0.082180 
#    y 0.086020 3.959240 -0.024450 
#    z 0.082180 -0.024450 3.764420 
# 
# 
# High freq. dielectric constant tensor:
#      x y z
#    x 1.814000 0.006100 0.004650 
#    y 0.006100 1.823330 -0.010350 
#    z 0.004650 -0.010350 1.810960 
# 
# From -- ./inp_files/272440.got.cif
#   From: 2010.06.25/outbox.cif.g09.slc.cpg/sg2_137_cif.got.tgz:272440.got - 2010.06.27 13:26:56.
