data_PCOD8028358
_publ_section_title
;
Structure prediction by ZEFSAII (Michael W. Deem and Ramdas Pophale) SiO2 
 PCOD8028358
Probable space group: P -1
;
_chemical_formula_sum "Si O2"
_cell_formula_units_Z 14
_cell_length_a 9.148093
_cell_length_b 8.448728
_cell_length_c 11.467080
_cell_angle_alpha 109.774844
_cell_angle_beta 125.460551
_cell_angle_gamma 49.730566
_cell_volume 549.855692
_symmetry_space_group_name_H-M "P -1"
_symmetry_group_IT_number 2
_symmetry_cell_setting 'triclinic'
loop_
_space_group_symop_operation_xyz
x,y,z
-x,-y,-z
loop_
_atom_site_type_symbol
_atom_site_label
_atom_site_fract_x
_atom_site_fract_y
_atom_site_fract_z
Si Si1 0.967318 0.846668 0.511924
Si Si2 0.597015 0.220847 0.055674
Si Si3 0.620301 0.968473 0.198190
Si Si4 0.347693 0.447787 0.479985
Si Si5 0.735006 0.067289 0.686732
Si Si6 0.197367 0.267272 0.198485
Si Si7 0.765042 0.323606 0.950010
O O1 0.191695 0.614662 0.548175
O O2 0.763000 0.869810 0.357089
O O3 0.922857 0.903769 0.641611
O O4 0.000000 0.000000 0.500000
O O5 0.471923 0.452764 0.107549
O O6 0.411639 0.201257 0.907856
O O7 0.727084 0.041431 0.171112
O O8 0.772116 0.189236 0.030274
O O9 0.379163 0.187982 0.161618
O O10 0.500000 0.500000 0.500000
O O11 0.501952 0.221081 0.551512
O O12 0.185776 0.446583 0.311178
O O13 0.702013 0.940382 0.732284
O O14 0.799821 0.205042 0.815916
O O15 0.958339 0.355165 0.057773
#
# Coordination Sequence:
#
# PCOD8028358 Si02
#       7
#     2   2   2   2   2   2   2
#     4  12  27  45  77 110 149 196 250 305 378 439
#     4  10  25  45  74 104 151 196 256 305 372 441
#     4  11  24  46  72 110 150 196 251 312 366 442
#     4  12  27  51  77 109 148 200 251 306 374 449
#     4  12  27  47  75 110 156 192 245 311 369 447
#     4  12  26  48  74 110 154 196 251 310 375 436
#     4  11  26  46  75 110 149 200 249 308 376 440
#
# _framework density 25.46123
#
# number of rings (size 3 to 8) (size 9 to 14) (size 15 to 20)
#    0.000    0.571    4.286    1.714    6.000    3.429 
#    0.000    0.000    0.000    0.000    0.000    0.000 
#    0.000    0.000    0.000    0.000    0.000    0.000 
#
# Total GULP energy -173650.832214 kJ/mol
# GULP energy per Si atom -12403.630872 kJ/mol
# Density = 2.540328 g / cm^3
# Si number density = 25.461230 Si / 1000 Ang^3
#
#
#
# Elastic Constant Matrix: (Units=GPa)
#
#
# Indices 1 2 3 4 5 6 
#
# 1 72.4031 9.0667 26.9468 14.0284 5.0688 -18.7514
# 2 9.0667 88.2969 19.5264 32.7291 -5.1819 -25.4528
# 3 26.9468 19.5264 128.2985 32.8911 3.8342 -13.7559
# 4 14.0284 32.7291 32.8911 44.1159 -3.2361 -5.1688
# 5 5.0688 -5.1819 3.8342 -3.2361 38.2458 6.9818
# 6 -18.7514 -25.4528 -13.7559 -5.1688 6.9818 47.6808
#
#
#
# Elastic Compliance Matrix: (Units=1/GPa)
#
#
# Indices 1 2 3 4 5 6 
#
# 1 0.017460 0.002692 -0.001688 -0.005653 -0.003672 0.007741
# 2 0.002692 0.019216 0.001519 -0.015119 -0.001060 0.010271
# 3 -0.001688 0.001519 0.010319 -0.008119 -0.001748 0.002500
# 4 -0.005653 -0.015119 -0.008119 0.041034 0.004605 -0.008862
# 5 -0.003672 -0.001060 -0.001748 0.004605 0.028176 -0.006140
# 6 0.007741 0.010271 0.002500 -0.008862 -0.006140 0.030160
#
#
# Mechanical properties :
#
#
# Convention : Reuss Voigt Hill
#
# Bulk Modulus (GPa) = 19.21571 44.45313 31.83442
# Shear Modulus (GPa) = 31.51283 41.57242 36.54262
#
# Velocity S-wave (km/s) = 3.52188 4.04514 3.79255
# Velocity P-wave (km/s) = 4.90934 6.27014 5.63100
#
# Compressibility (1/GPa) = 0.05204074
#
# Stress axis : x y z
#
# Youngs Moduli (GPa) = 57.27408 52.04098 96.90454
#
# Poissons Ratio (x) = -0.14009 0.16356
# Poissons Ratio (y) = -0.15418 -0.14718
# Poissons Ratio (z) = 0.09667 -0.07904
#
# Static dielectric constant tensor:
#      x y z
#    x 4.441670 0.081450 -0.118220 
#    y 0.081450 4.401740 0.222870 
#    z -0.118220 0.222870 4.965460 
# 
# 
# High freq. dielectric constant tensor:
#      x y z
#    x 2.017940 -0.001590 0.001640 
#    y -0.001590 2.012780 0.016520 
#    z 0.001640 0.016520 2.025390 
# 
# From -- ./inp_files/383014.got.cif
#   From: 2010.06.25/outbox.cif.g09.slc.cpg/sg2_192_cif.got.tgz:383014.got - 2010.06.27 13:26:56.
