data_PCOD8028076
_publ_section_title
;
Structure prediction by ZEFSAII (Michael W. Deem and Ramdas Pophale) SiO2 
 PCOD8028076
Probable space group: P -1
;
_chemical_formula_sum "Si O2"
_cell_formula_units_Z 14
_cell_length_a 8.654556
_cell_length_b 13.129670
_cell_length_c 20.027971
_cell_angle_alpha 148.335119
_cell_angle_beta 29.532878
_cell_angle_gamma 131.461626
_cell_volume 561.186177
_symmetry_space_group_name_H-M "P -1"
_symmetry_group_IT_number 2
_symmetry_cell_setting 'triclinic'
loop_
_space_group_symop_operation_xyz
x,y,z
-x,-y,-z
loop_
_atom_site_type_symbol
_atom_site_label
_atom_site_fract_x
_atom_site_fract_y
_atom_site_fract_z
Si Si1 0.154308 0.141953 0.441541
Si Si2 0.826793 0.861543 0.333965
Si Si3 0.255977 0.883677 0.712639
Si Si4 0.350161 0.065636 0.954333
Si Si5 0.246672 0.834320 0.037206
Si Si6 0.243709 0.448023 0.117759
Si Si7 0.653728 0.519293 0.290447
O O1 0.400888 0.069013 0.372259
O O2 0.905677 0.364667 0.671086
O O3 0.948851 0.989074 0.416254
O O4 0.407646 0.142232 0.284660
O O5 0.764144 0.672879 0.287821
O O6 0.105917 0.768908 0.122065
O O7 0.500000 0.000000 0.500000
O O8 0.347483 0.646773 0.522517
O O9 0.031456 0.923054 0.886570
O O10 0.074823 0.020009 0.796043
O O11 0.402110 0.249015 0.991862
O O12 0.472591 0.068817 0.987819
O O13 0.437988 0.645172 0.813169
O O14 0.959144 0.398210 0.154052
O O15 0.500000 0.500000 0.000000
#
# Coordination Sequence:
#
# PCOD8028076 Si02
#       7
#     2   2   2   2   2   2   2
#     4  10  25  43  67  95 130 175 218 271 331 383
#     4  11  23  42  67  95 133 170 218 273 334 384
#     4  11  24  45  65  96 134 174 226 268 323 397
#     4  11  25  43  68  97 131 178 219 269 328 390
#     4  11  24  41  67  96 134 173 219 275 329 387
#     4  11  25  42  68  98 134 167 221 272 328 396
#     4  11  25  41  65  99 131 174 218 273 333 388
#
# _framework density 24.947158999999999
#
# number of rings (size 3 to 8) (size 9 to 14) (size 15 to 20)
#    0.000    1.143    1.429    3.857    4.000    9.143 
#    0.000    0.000    0.000    0.000    0.000    0.000 
#    0.000    0.000    0.000    0.000    0.000    0.000 
#
# Total GULP energy -173529.772140 kJ/mol
# GULP energy per Si atom -12394.983724 kJ/mol
# Density = 2.489038 g / cm^3
# Si number density = 24.947159 Si / 1000 Ang^3
#
#
#
# Elastic Constant Matrix: (Units=GPa)
#
#
# Indices 1 2 3 4 5 6 
#
# 1 117.1829 13.8334 39.8177 17.2864 -4.6334 1.5839
# 2 13.8334 31.8440 18.3189 -2.3255 -2.7123 0.4358
# 3 39.8177 18.3189 163.3634 -7.3533 29.1954 5.0307
# 4 17.2864 -2.3255 -7.3533 35.5922 -2.1878 5.0704
# 5 -4.6334 -2.7123 29.1954 -2.1878 49.5844 3.2276
# 6 1.5839 0.4358 5.0307 5.0704 3.2276 36.5672
#
#
#
# Elastic Compliance Matrix: (Units=1/GPa)
#
#
# Indices 1 2 3 4 5 6 
#
# 1 0.010919 -0.003276 -0.002997 -0.006083 0.002297 0.000619
# 2 -0.003276 0.035582 -0.003737 0.003478 0.004034 -0.000606
# 3 -0.002997 -0.003737 0.008356 0.002744 -0.005225 -0.000894
# 4 -0.006083 0.003478 0.002744 0.032490 -0.000259 -0.004638
# 5 0.002297 0.004034 -0.005225 -0.000259 0.023765 -0.001490
# 6 0.000619 -0.000606 -0.000894 -0.004638 -0.001490 0.028225
#
#
# Mechanical properties :
#
#
# Convention : Reuss Voigt Hill
#
# Bulk Modulus (GPa) = 28.70640 50.70337 39.70489
# Shear Modulus (GPa) = 29.24506 40.37678 34.81092
#
# Velocity S-wave (km/s) = 3.42757 4.02741 3.73954
# Velocity P-wave (km/s) = 5.21500 6.48037 5.88181
#
# Compressibility (1/GPa) = 0.03483544
#
# Stress axis : x y z
#
# Youngs Moduli (GPa) = 91.58570 28.10416 119.67687
#
# Poissons Ratio (x) = 0.09207 0.35872
# Poissons Ratio (y) = 0.30003 0.44725
# Poissons Ratio (z) = 0.27452 0.10503
#
# Static dielectric constant tensor:
#      x y z
#    x 4.324210 0.269560 0.245550 
#    y 0.269560 3.983050 -0.223310 
#    z 0.245550 -0.223310 4.914530 
# 
# 
# High freq. dielectric constant tensor:
#      x y z
#    x 2.020630 0.002620 0.007880 
#    y 0.002620 1.963580 -0.017440 
#    z 0.007880 -0.017440 2.013940 
# 
# From -- ./inp_files/345653.got.cif
#   From: 2010.06.25/outbox.cif.g09.slc.cpg/sg2_173_cif.got.tgz:345653.got - 2010.06.27 13:26:56.
