data_PCOD8028029
_publ_section_title
;
Structure prediction by ZEFSAII (Michael W. Deem and Ramdas Pophale) SiO2 
 PCOD8028029
Probable space group: P -1
;
_chemical_formula_sum "Si O2"
_cell_formula_units_Z 16
_cell_length_a 15.425997
_cell_length_b 8.185505
_cell_length_c 11.794158
_cell_angle_alpha 121.923566
_cell_angle_beta 112.284403
_cell_angle_gamma 114.576468
_cell_volume 724.719736
_symmetry_space_group_name_H-M "P -1"
_symmetry_group_IT_number 2
_symmetry_cell_setting 'triclinic'
loop_
_space_group_symop_operation_xyz
x,y,z
-x,-y,-z
loop_
_atom_site_type_symbol
_atom_site_label
_atom_site_fract_x
_atom_site_fract_y
_atom_site_fract_z
Si Si1 0.731152 0.715523 0.742790
Si Si2 0.969349 0.338332 0.224325
Si Si3 0.629746 0.140562 0.201260
Si Si4 0.770478 0.955530 0.183730
Si Si5 0.737081 0.713838 0.483621
Si Si6 0.943118 0.120736 0.543517
Si Si7 0.305316 0.775963 0.491823
Si Si8 0.490809 0.595819 0.288325
O O1 0.730519 0.769568 0.630906
O O2 0.742533 0.504673 0.688306
O O3 0.578359 0.528950 0.664653
O O4 0.877633 0.063521 0.988832
O O5 0.929883 0.505433 0.260626
O O6 0.148979 0.620460 0.398406
O O7 0.925243 0.192844 0.274512
O O8 0.752682 0.510843 0.397334
O O9 0.582506 0.055040 0.280563
O O10 0.704474 0.062518 0.173642
O O11 0.500000 0.000000 0.000000
O O12 0.805769 0.949278 0.326080
O O13 0.645910 0.608144 0.944213
O O14 0.582161 0.546544 0.291156
O O15 0.880883 0.034017 0.608930
O O16 0.000000 0.000000 0.500000
O O17 0.393132 0.038378 0.535079
#
# Coordination Sequence:
#
# PCOD8028029 Si02
#       8
#     2   2   2   2   2   2   2   2
#     4  10  25  42  67  97 134 180 230 268 331 392
#     4  11  23  45  67  94 135 183 220 275 330 393
#     4  11  22  38  66  99 136 176 218 271 341 403
#     4  11  24  42  68  98 138 172 221 273 337 404
#     4  11  23  41  67  97 136 176 222 279 329 391
#     4  12  26  43  69 102 139 171 222 276 337 399
#     4  11  23  42  68  96 132 179 224 275 330 393
#     4  11  22  44  66  98 133 177 219 282 330 392
#
# _framework density 22.077501999999999
#
# number of rings (size 3 to 8) (size 9 to 14) (size 15 to 20)
#    0.000    1.000    3.750    2.250    5.250    1.500 
#    0.000    0.000    0.000    0.000    0.000    0.000 
#    0.000    0.000    0.000    0.000    0.000    0.000 
#
# Total GULP energy -198268.405536 kJ/mol
# GULP energy per Si atom -12391.775346 kJ/mol
# Density = 2.202725 g / cm^3
# Si number density = 22.077502 Si / 1000 Ang^3
#
#
#
# Elastic Constant Matrix: (Units=GPa)
#
#
# Indices 1 2 3 4 5 6 
#
# 1 105.0245 38.8006 40.9866 6.2296 -4.4807 -8.6589
# 2 38.8006 132.4006 55.3752 6.8659 -0.1187 10.5830
# 3 40.9866 55.3752 108.1704 2.6016 -13.3255 1.2682
# 4 6.2296 6.8659 2.6016 32.6921 -3.1038 -0.7862
# 5 -4.4807 -0.1187 -13.3255 -3.1038 34.3245 1.3688
# 6 -8.6589 10.5830 1.2682 -0.7862 1.3688 38.9425
#
#
#
# Elastic Compliance Matrix: (Units=1/GPa)
#
#
# Indices 1 2 3 4 5 6 
#
# 1 0.012066 -0.002311 -0.003396 -0.001464 -0.000019 0.003393
# 2 -0.002311 0.010536 -0.004701 -0.001676 -0.002115 -0.003183
# 3 -0.003396 -0.004701 0.013515 0.001021 0.004882 -0.000069
# 4 -0.001464 -0.001676 0.001021 0.031440 0.003017 0.000625
# 5 -0.000019 -0.002115 0.004882 0.003017 0.031317 -0.000628
# 6 0.003393 -0.003183 -0.000069 0.000625 -0.000628 0.027335
#
#
# Mechanical properties :
#
#
# Convention : Reuss Voigt Hill
#
# Bulk Modulus (GPa) = 65.34959 68.43558 66.89259
# Shear Modulus (GPa) = 32.86760 35.22070 34.04415
#
# Velocity S-wave (km/s) = 3.86260 3.99848 3.93113
# Velocity P-wave (km/s) = 7.03969 7.23756 7.13931
#
# Compressibility (1/GPa) = 0.01530231
#
# Stress axis : x y z
#
# Youngs Moduli (GPa) = 82.87458 94.91668 73.98927
#
# Poissons Ratio (x) = 0.21937 0.25125
# Poissons Ratio (y) = 0.19154 0.34779
# Poissons Ratio (z) = 0.28143 0.44617
#
# Static dielectric constant tensor:
#      x y z
#    x 4.084120 -0.061640 -0.149350 
#    y -0.061640 4.147350 -0.007730 
#    z -0.149350 -0.007730 3.796890 
# 
# 
# High freq. dielectric constant tensor:
#      x y z
#    x 1.874220 -0.001060 -0.014630 
#    y -0.001060 1.878280 0.005600 
#    z -0.014630 0.005600 1.852570 
# 
# From -- ./inp_files/448066.got.cif
#   From: 2010.06.25/outbox.cif.g09.slc.cpg/sg2_225_cif.got.tgz:448066.got - 2010.06.27 13:26:56.
