data_PCOD8028852
_publ_section_title
;
Structure prediction by ZEFSAII (Michael W. Deem and Ramdas Pophale) SiO2 
 PCOD8028852
Probable space group: P -1
;
_chemical_formula_sum "Si O2"
_cell_formula_units_Z 16
_cell_length_a 11.434311
_cell_length_b 13.558880
_cell_length_c 11.950217
_cell_angle_alpha 48.263500
_cell_angle_beta 138.513536
_cell_angle_gamma 145.239581
_cell_volume 693.524613
_symmetry_space_group_name_H-M "P -1"
_symmetry_group_IT_number 2
_symmetry_cell_setting 'triclinic'
loop_
_space_group_symop_operation_xyz
x,y,z
-x,-y,-z
loop_
_atom_site_type_symbol
_atom_site_label
_atom_site_fract_x
_atom_site_fract_y
_atom_site_fract_z
Si Si1 0.734490 0.322366 0.744729
Si Si2 0.165048 0.358741 0.339977
Si Si3 0.581708 0.893438 0.786819
Si Si4 0.841096 0.964311 0.707929
Si Si5 0.294817 0.312258 0.876269
Si Si6 0.449666 0.535579 0.612260
Si Si7 0.701742 0.039891 0.342117
Si Si8 0.037837 0.243655 0.952596
O O1 0.795200 0.461415 0.778110
O O2 0.652319 0.363503 0.542230
O O3 0.968261 0.349901 0.876695
O O4 0.515787 0.118234 0.769808
O O5 0.291011 0.370833 0.536548
O O6 0.283082 0.344226 0.330217
O O7 0.893406 0.186467 0.280980
O O8 0.362640 0.875120 0.679941
O O9 0.616802 0.896061 0.675781
O O10 0.815054 0.072928 0.863221
O O11 0.547153 0.734599 0.940369
O O12 0.798727 0.970351 0.542313
O O13 0.066407 0.152673 0.768093
O O14 0.868580 0.818497 0.844764
O O15 0.444383 0.480024 0.776506
O O16 0.229560 0.362698 0.903127
#
# Coordination Sequence:
#
# PCOD8028852 Si02
#       8
#     2   2   2   2   2   2   2   2
#     4   9  19  34  52  80 107 127 172 217 250 309
#     4   9  20  36  53  76 100 139 174 214 252 300
#     4   8  17  28  48  80 108 133 172 209 252 313
#     4   9  15  28  50  78 107 139 169 202 257 317
#     4   9  15  31  53  74 106 143 165 207 263 301
#     4   9  18  36  53  72 102 139 175 209 252 307
#     4  11  18  32  56  77 102 136 171 214 257 294
#     4   8  16  29  50  79 109 134 166 209 258 310
#
# _framework density 23.070557999999998
#
# number of rings (size 3 to 8) (size 9 to 14) (size 15 to 20)
#    0.750    2.250    1.250    1.875    0.000    1.000 
#    0.000    1.875    0.000   15.000    0.000    0.875 
#    0.000    0.000    0.000    0.000    0.000    0.000 
#
# Total GULP energy -198234.229150 kJ/mol
# GULP energy per Si atom -12389.639322 kJ/mol
# Density = 2.301805 g / cm^3
# Si number density = 23.070558 Si / 1000 Ang^3
#
#
#
# Elastic Constant Matrix: (Units=GPa)
#
#
# Indices 1 2 3 4 5 6 
#
# 1 74.6389 31.9489 49.5301 -3.8671 31.3042 21.5480
# 2 31.9489 88.3679 26.5383 -10.6762 3.3667 23.6881
# 3 49.5301 26.5383 67.8306 -13.0347 32.4477 13.4294
# 4 -3.8671 -10.6762 -13.0347 12.5347 -4.8902 -0.1652
# 5 31.3042 3.3667 32.4477 -4.8902 34.1879 4.5040
# 6 21.5480 23.6881 13.4294 -0.1652 4.5040 35.6025
#
#
#
# Elastic Compliance Matrix: (Units=1/GPa)
#
#
# Indices 1 2 3 4 5 6 
#
# 1 0.038041 -0.007833 -0.018063 -0.021166 -0.018797 -0.008719
# 2 -0.007833 0.018290 -0.001952 0.015096 0.010429 -0.007941
# 3 -0.018063 -0.001952 0.045586 0.031663 -0.021733 -0.002068
# 4 -0.021166 0.015096 0.031663 0.121426 0.006454 -0.009430
# 5 -0.018797 0.010429 -0.021733 0.006454 0.066422 0.004262
# 6 -0.008719 -0.007941 -0.002068 -0.009430 0.004262 0.038846
#
#
# Mechanical properties :
#
#
# Convention : Reuss Voigt Hill
#
# Bulk Modulus (GPa) = 21.63493 49.65245 35.64369
# Shear Modulus (GPa) = 12.50899 24.65302 18.58100
#
# Velocity S-wave (km/s) = 2.33106 3.27248 2.84103
# Velocity P-wave (km/s) = 4.07961 5.98728 5.12302
#
# Compressibility (1/GPa) = 0.04622155
#
# Stress axis : x y z
#
# Youngs Moduli (GPa) = 26.28747 54.67567 21.93667
#
# Poissons Ratio (x) = 0.42826 0.39623
# Poissons Ratio (y) = 0.20590 0.04282
# Poissons Ratio (z) = 0.47482 0.10673
#
# Static dielectric constant tensor:
#      x y z
#    x 4.221800 0.128870 0.465220 
#    y 0.128870 3.901230 -0.007130 
#    z 0.465220 -0.007130 4.066670 
# 
# 
# High freq. dielectric constant tensor:
#      x y z
#    x 1.892510 -0.001860 0.016800 
#    y -0.001860 1.907660 -0.000370 
#    z 0.016800 -0.000370 1.891980 
# 
# From -- ./inp_files/523247.got.cif
#   From: 2010.06.25/outbox.cif.g09.slc.cpg/sg2_262_cif.got.tgz:523247.got - 2010.06.27 13:26:56.
