data_PCOD8028607
_publ_section_title
;
Structure prediction by ZEFSAII (Michael W. Deem and Ramdas Pophale) SiO2 
 PCOD8028607
Probable space group: P -1
;
_chemical_formula_sum "Si O2"
_cell_formula_units_Z 16
_cell_length_a 5.709078
_cell_length_b 17.370208
_cell_length_c 8.338678
_cell_angle_alpha 67.245086
_cell_angle_beta 108.353345
_cell_angle_gamma 118.145506
_cell_volume 663.418924
_symmetry_space_group_name_H-M "P -1"
_symmetry_group_IT_number 2
_symmetry_cell_setting 'triclinic'
loop_
_space_group_symop_operation_xyz
x,y,z
-x,-y,-z
loop_
_atom_site_type_symbol
_atom_site_label
_atom_site_fract_x
_atom_site_fract_y
_atom_site_fract_z
Si Si1 0.541396 0.289117 0.296902
Si Si2 0.227108 0.551094 0.282131
Si Si3 0.962303 0.169259 0.234821
Si Si4 0.776483 0.162664 0.557827
Si Si5 0.754485 0.974338 0.347423
Si Si6 0.625059 0.471137 0.312464
Si Si7 0.626662 0.266481 0.987065
Si Si8 0.139715 0.102816 0.878557
O O1 0.724680 0.256069 0.480376
O O2 0.475518 0.366762 0.307789
O O3 0.279357 0.199162 0.270440
O O4 0.662337 0.319569 0.121563
O O5 0.394717 0.513486 0.221798
O O6 0.279412 0.521482 0.491266
O O7 0.350220 0.660673 0.204449
O O8 0.897422 0.514569 0.222916
O O9 0.912275 0.165164 0.416162
O O10 0.794045 0.070842 0.197001
O O11 0.881510 0.239295 0.058593
O O12 0.511325 0.069872 0.569789
O O13 0.939536 0.153032 0.756447
O O14 0.733427 0.902825 0.261134
O O15 0.000000 0.000000 0.500000
O O16 0.359620 0.172759 0.988259
O O17 0.000000 0.000000 0.000000
#
# Coordination Sequence:
#
# PCOD8028607 Si02
#       8
#     2   2   2   2   2   2   2   2
#     4  11  25  45  71 104 136 192 232 292 361 442
#     4  10  25  48  75 111 143 189 239 309 363 441
#     4  11  24  44  67 101 141 180 244 290 355 435
#     4  11  24  41  71  97 134 192 236 294 349 435
#     4  12  23  42  68  96 134 191 237 285 352 426
#     4  10  25  48  77 106 148 187 243 297 376 440
#     4  11  28  44  69 105 144 185 236 299 362 425
#     4  12  27  44  66 105 144 184 238 300 354 415
#
# _framework density 24.117488999999999
#
# number of rings (size 3 to 8) (size 9 to 14) (size 15 to 20)
#    0.000    1.000    2.500    1.875   10.500    6.000 
#    0.000    0.000    0.000    0.000    0.000    0.000 
#    0.000    0.000    0.000    0.000    0.000    0.000 
#
# Total GULP energy -198209.424098 kJ/mol
# GULP energy per Si atom -12388.089006 kJ/mol
# Density = 2.406260 g / cm^3
# Si number density = 24.117489 Si / 1000 Ang^3
#
#
#
# Elastic Constant Matrix: (Units=GPa)
#
#
# Indices 1 2 3 4 5 6 
#
# 1 117.8693 30.4434 34.7561 -8.6513 10.6795 -6.6905
# 2 30.4434 105.3416 25.1770 -13.1639 1.3435 -14.4244
# 3 34.7561 25.1770 83.7988 -17.5708 24.0863 -5.9631
# 4 -8.6513 -13.1639 -17.5708 38.9885 0.3038 -2.7369
# 5 10.6795 1.3435 24.0863 0.3038 25.5910 -5.1285
# 6 -6.6905 -14.4244 -5.9631 -2.7369 -5.1285 40.1448
#
#
#
# Elastic Compliance Matrix: (Units=1/GPa)
#
#
# Indices 1 2 3 4 5 6 
#
# 1 0.010088 -0.002071 -0.003227 0.000117 -0.000998 0.000339
# 2 -0.002071 0.011593 -0.002925 0.002390 0.003788 0.004033
# 3 -0.003227 -0.002925 0.021122 0.007940 -0.018529 -0.000277
# 4 0.000117 0.002390 0.007940 0.030341 -0.007369 0.003185
# 5 -0.000998 0.003788 -0.018529 -0.007369 0.057890 0.005336
# 6 0.000339 0.004033 -0.000277 0.003185 0.005336 0.027273
#
#
# Mechanical properties :
#
#
# Convention : Reuss Voigt Hill
#
# Bulk Modulus (GPa) = 37.93889 54.19585 46.06737
# Shear Modulus (GPa) = 27.24232 35.38707 31.31470
#
# Velocity S-wave (km/s) = 3.36455 3.83466 3.60727
# Velocity P-wave (km/s) = 5.55505 6.49050 6.04091
#
# Compressibility (1/GPa) = 0.02635818
#
# Stress axis : x y z
#
# Youngs Moduli (GPa) = 99.12330 86.25886 47.34507
#
# Poissons Ratio (x) = 0.17861 0.15277
# Poissons Ratio (y) = 0.20525 0.13849
# Poissons Ratio (z) = 0.31984 0.25231
#
# Static dielectric constant tensor:
#      x y z
#    x 4.807030 -0.257200 0.162700 
#    y -0.257200 4.514730 -0.221760 
#    z 0.162700 -0.221760 4.276360 
# 
# 
# High freq. dielectric constant tensor:
#      x y z
#    x 1.967040 -0.006930 0.003170 
#    y -0.006930 1.945960 -0.012330 
#    z 0.003170 -0.012330 1.954400 
# 
# From -- ./inp_files/89804.got.cif
#   From: 2010.06.25/outbox.cif.g09.slc.cpg/sg2_45_cif.got.tgz:89804.got - 2010.06.27 13:26:56.
