data_PCOD8028956
_publ_section_title
;
Structure prediction by ZEFSAII (Michael W. Deem and Ramdas Pophale) SiO2 
 PCOD8028956
Probable space group: P -1
;
_chemical_formula_sum "Si O2"
_cell_formula_units_Z 16
_cell_length_a 11.202194
_cell_length_b 19.800788
_cell_length_c 18.438512
_cell_angle_alpha 150.098528
_cell_angle_beta 30.439359
_cell_angle_gamma 158.083557
_cell_volume 723.184486
_symmetry_space_group_name_H-M "P -1"
_symmetry_group_IT_number 2
_symmetry_cell_setting 'triclinic'
loop_
_space_group_symop_operation_xyz
x,y,z
-x,-y,-z
loop_
_atom_site_type_symbol
_atom_site_label
_atom_site_fract_x
_atom_site_fract_y
_atom_site_fract_z
Si Si1 0.548264 0.192680 0.765627
Si Si2 0.264272 0.135270 0.706443
Si Si3 0.936763 0.483661 0.101789
Si Si4 0.752158 0.120227 0.913328
Si Si5 0.741953 0.191099 0.391096
Si Si6 0.139085 0.286291 0.473026
Si Si7 0.644798 0.882179 0.613705
Si Si8 0.382385 0.486166 0.395782
O O1 0.409179 0.206609 0.778762
O O2 0.700674 0.357448 0.899189
O O3 0.869797 0.234466 0.619364
O O4 0.279669 0.979853 0.742895
O O5 0.542434 0.197762 0.562277
O O6 0.127105 0.226424 0.839920
O O7 0.924237 0.901420 0.665511
O O8 0.692760 0.512057 0.263142
O O9 0.750531 0.276267 0.037558
O O10 0.000000 0.500000 0.000000
O O11 0.647296 0.992259 0.778469
O O12 0.500000 0.000000 0.000000
O O13 0.609789 0.168264 0.359539
O O14 0.145545 0.392920 0.361528
O O15 0.500000 0.500000 0.500000
O O16 0.081095 0.313861 0.447413
O O17 0.523911 0.690901 0.533286
O O18 0.000000 0.000000 0.500000
#
# Coordination Sequence:
#
# PCOD8028956 Si02
#       8
#     2   2   2   2   2   2   2   2
#     4  11  22  40  70  99 140 176 224 295 354 411
#     4  11  22  42  69 103 143 174 230 301 356 404
#     4  12  28  48  67 100 146 196 232 283 369 435
#     4  12  28  46  70 104 148 187 240 292 354 433
#     4  11  22  42  72 108 135 173 239 300 346 412
#     4  11  19  35  68 105 126 167 228 288 339 398
#     4  12  25  46  73 102 140 189 236 296 355 414
#     4  12  23  42  74 100 132 177 243 284 337 428
#
# _framework density 22.124368
#
# number of rings (size 3 to 8) (size 9 to 14) (size 15 to 20)
#    0.000    0.500    5.000    4.875    1.750    0.500 
#    2.250    1.250    0.000    0.000    0.000    0.000 
#    0.000    0.000    0.000    0.000    0.000    0.000 
#
# Total GULP energy -198244.567342 kJ/mol
# GULP energy per Si atom -12390.285459 kJ/mol
# Density = 2.207401 g / cm^3
# Si number density = 22.124368 Si / 1000 Ang^3
#
#
#
# Elastic Constant Matrix: (Units=GPa)
#
#
# Indices 1 2 3 4 5 6 
#
# 1 137.7073 15.1268 47.5663 6.2109 5.4891 26.7467
# 2 15.1268 76.3320 18.3043 11.8979 5.1903 16.5185
# 3 47.5663 18.3043 67.3458 13.4533 7.7691 8.6319
# 4 6.2109 11.8979 13.4533 26.5215 0.0988 2.4331
# 5 5.4891 5.1903 7.7691 0.0988 41.2504 1.2157
# 6 26.7467 16.5185 8.6319 2.4331 1.2157 51.0151
#
#
#
# Elastic Compliance Matrix: (Units=1/GPa)
#
#
# Indices 1 2 3 4 5 6 
#
# 1 0.010534 0.000398 -0.007268 0.001453 0.000046 -0.004492
# 2 0.000398 0.015564 -0.002724 -0.005275 -0.001353 -0.004503
# 3 -0.007268 -0.002724 0.022623 -0.008664 -0.002970 0.001349
# 4 0.001453 -0.005275 -0.008664 0.044095 0.001989 0.000262
# 5 0.000046 -0.001353 -0.002970 0.001989 0.024954 0.000227
# 6 -0.004492 -0.004503 0.001349 0.000262 0.000227 0.023169
#
#
# Mechanical properties :
#
#
# Convention : Reuss Voigt Hill
#
# Bulk Modulus (GPa) = 33.86130 49.26442 41.56286
# Shear Modulus (GPa) = 29.41666 37.11658 33.26662
#
# Velocity S-wave (km/s) = 3.65033 4.10034 3.88186
# Velocity P-wave (km/s) = 5.75367 6.68823 6.23847
#
# Compressibility (1/GPa) = 0.02953224
#
# Stress axis : x y z
#
# Youngs Moduli (GPa) = 94.93376 64.25147 44.20268
#
# Poissons Ratio (x) = -0.02556 0.32126
# Poissons Ratio (y) = -0.03777 0.12041
# Poissons Ratio (z) = 0.68997 0.17502
#
# Static dielectric constant tensor:
#      x y z
#    x 5.624840 -0.833190 0.700840 
#    y -0.833190 5.213490 -0.155580 
#    z 0.700840 -0.155580 4.500080 
# 
# 
# High freq. dielectric constant tensor:
#      x y z
#    x 1.902050 0.007250 0.000860 
#    y 0.007250 1.873740 0.009960 
#    z 0.000860 0.009960 1.846610 
# 
# From -- ./inp_files/596246.got.cif
#   From: 2010.06.25/outbox.cif.g09.slc.cpg/sg2_299_cif.got.tgz:596246.got - 2010.06.27 13:26:56.
