data_PCOD8028077
_publ_section_title
;
Structure prediction by ZEFSAII (Michael W. Deem and Ramdas Pophale) SiO2 
 PCOD8028077
Probable space group: P -1
;
_chemical_formula_sum "Si O2"
_cell_formula_units_Z 14
_cell_length_a 8.680165
_cell_length_b 16.677937
_cell_length_c 7.149823
_cell_angle_alpha 96.943266
_cell_angle_beta 53.073144
_cell_angle_gamma 124.127998
_cell_volume 647.352888
_symmetry_space_group_name_H-M "P -1"
_symmetry_group_IT_number 2
_symmetry_cell_setting 'triclinic'
loop_
_space_group_symop_operation_xyz
x,y,z
-x,-y,-z
loop_
_atom_site_type_symbol
_atom_site_label
_atom_site_fract_x
_atom_site_fract_y
_atom_site_fract_z
Si Si1 0.216125 0.581741 0.999395
Si Si2 0.853582 0.864712 0.187783
Si Si3 0.290737 0.490512 0.261704
Si Si4 0.973230 0.308354 0.694151
Si Si5 0.752523 0.018884 0.354518
Si Si6 0.225237 0.918189 0.244147
Si Si7 0.428033 0.357412 0.562694
O O1 0.185138 0.530660 0.209475
O O2 0.210901 0.676078 0.069622
O O3 0.463996 0.624622 0.720655
O O4 0.000000 0.500000 0.000000
O O5 0.727488 0.919687 0.277739
O O6 0.632830 0.744823 0.332152
O O7 0.034706 0.909465 0.242498
O O8 0.018932 0.883106 0.894295
O O9 0.080724 0.373121 0.440909
O O10 0.389028 0.551658 0.403335
O O11 0.500000 0.500000 0.000000
O O12 0.182533 0.345510 0.707641
O O13 0.825353 0.189738 0.717836
O O14 0.500000 0.000000 0.500000
O O15 0.819187 0.042102 0.527450
O O16 0.500000 0.000000 0.000000
#
# Coordination Sequence:
#
# PCOD8028077 Si02
#       7
#     2   2   2   2   2   2   2
#     4  12  25  44  67  97 135 174 222 269 326 398
#     4  10  25  43  67  98 129 178 219 274 336 389
#     4  12  24  44  67  97 136 172 218 273 326 395
#     4  11  25  45  67  98 132 176 221 270 337 390
#     4  11  23  44  66  95 133 172 227 273 326 394
#     4  11  24  45  67  98 134 171 220 277 332 391
#     4  11  25  44  67  98 134 173 221 272 331 395
#
# _framework density 21.626536000000002
#
# number of rings (size 3 to 8) (size 9 to 14) (size 15 to 20)
#    0.000    0.857    4.286    2.143    4.000    1.143 
#    0.000    0.000    0.000    0.000    0.000    0.000 
#    0.000    0.000    0.000    0.000    0.000    0.000 
#
# Total GULP energy -173639.270438 kJ/mol
# GULP energy per Si atom -12402.805031 kJ/mol
# Density = 2.157731 g / cm^3
# Si number density = 21.626536 Si / 1000 Ang^3
#
#
#
# Elastic Constant Matrix: (Units=GPa)
#
#
# Indices 1 2 3 4 5 6 
#
# 1 86.5881 23.7504 27.4454 -0.0343 -4.1666 -14.4272
# 2 23.7504 94.6518 49.2596 -22.5329 -5.0586 -14.6039
# 3 27.4454 49.2596 149.4545 -0.2512 7.3438 -6.8732
# 4 -0.0343 -22.5329 -0.2512 39.4572 -6.4296 3.1561
# 5 -4.1666 -5.0586 7.3438 -6.4296 36.2513 3.2767
# 6 -14.4272 -14.6039 -6.8732 3.1561 3.2767 32.1218
#
#
#
# Elastic Compliance Matrix: (Units=1/GPa)
#
#
# Indices 1 2 3 4 5 6 
#
# 1 0.013477 -0.002097 -0.001609 -0.001435 0.000894 0.004805
# 2 -0.002097 0.017177 -0.005292 0.010191 0.004650 0.004260
# 3 -0.001609 -0.005292 0.008860 -0.003457 -0.003281 -0.000558
# 4 -0.001435 0.010191 -0.003457 0.032467 0.007782 -0.000735
# 5 0.000894 0.004650 -0.003281 0.007782 0.030569 -0.002069
# 6 0.004805 0.004260 -0.000558 -0.000735 -0.002069 0.035390
#
#
# Mechanical properties :
#
#
# Convention : Reuss Voigt Hill
#
# Bulk Modulus (GPa) = 46.47023 59.06724 52.76874
# Shear Modulus (GPa) = 30.65422 36.91532 33.78477
#
# Velocity S-wave (km/s) = 3.76897 4.13600 3.95674
# Velocity P-wave (km/s) = 6.36195 7.08381 6.73256
#
# Compressibility (1/GPa) = 0.02151915
#
# Stress axis : x y z
#
# Youngs Moduli (GPa) = 74.19949 58.21727 112.86107
#
# Poissons Ratio (x) = 0.12206 0.18162
# Poissons Ratio (y) = 0.15557 0.59726
# Poissons Ratio (z) = 0.11940 0.30808
#
# Static dielectric constant tensor:
#      x y z
#    x 3.991630 -0.180860 0.085450 
#    y -0.180860 3.855080 -0.049410 
#    z 0.085450 -0.049410 4.302290 
# 
# 
# High freq. dielectric constant tensor:
#      x y z
#    x 1.857300 -0.012890 0.000350 
#    y -0.012890 1.843010 -0.001870 
#    z 0.000350 -0.001870 1.867480 
# 
# From -- ./inp_files/48172.got.cif
#   From: 2010.06.25/outbox.cif.g09.slc.cpg/sg2_25_cif.got.tgz:48172.got - 2010.06.27 13:26:56.
