data_PCOD8028221
_publ_section_title
;
Structure prediction by ZEFSAII (Michael W. Deem and Ramdas Pophale) SiO2 
 PCOD8028221
Probable space group: P -1
;
_chemical_formula_sum "Si O2"
_cell_formula_units_Z 14
_cell_length_a 13.205860
_cell_length_b 12.703632
_cell_length_c 5.077511
_cell_angle_alpha 50.007081
_cell_angle_beta 98.019375
_cell_angle_gamma 105.771045
_cell_volume 627.314382
_symmetry_space_group_name_H-M "P -1"
_symmetry_group_IT_number 2
_symmetry_cell_setting 'triclinic'
loop_
_space_group_symop_operation_xyz
x,y,z
-x,-y,-z
loop_
_atom_site_type_symbol
_atom_site_label
_atom_site_fract_x
_atom_site_fract_y
_atom_site_fract_z
Si Si1 0.947371 0.913859 0.867462
Si Si2 0.232305 0.573169 0.594185
Si Si3 0.532793 0.425718 0.378584
Si Si4 0.580324 0.898635 0.192203
Si Si5 0.822336 0.282072 0.168467
Si Si6 0.724371 0.962251 0.643662
Si Si7 0.030576 0.369470 0.862636
O O1 0.820585 0.887490 0.843481
O O2 0.974575 0.760829 0.129537
O O3 0.000000 0.000000 0.500000
O O4 0.000000 0.000000 0.000000
O O5 0.343254 0.538989 0.665815
O O6 0.226656 0.696244 0.601865
O O7 0.150745 0.430570 0.902830
O O8 0.206727 0.616225 0.224403
O O9 0.500000 0.500000 0.500000
O O10 0.485089 0.258702 0.643166
O O11 0.500000 0.500000 0.000000
O O12 0.641489 0.893827 0.496948
O O13 0.664657 0.954387 0.908921
O O14 0.500000 0.000000 0.000000
O O15 0.773630 0.122782 0.319391
O O16 0.950726 0.315312 0.165763
O O17 0.000000 0.500000 0.500000
#
# Coordination Sequence:
#
# PCOD8028221 Si02
#       7
#     2   2   2   2   2   2   2
#     4  12  27  46  71 105 151 188 232 295 358 426
#     4  11  25  44  70 100 140 186 229 292 355 413
#     4  12  27  48  71 102 143 183 237 296 355 417
#     4  12  27  48  76 105 142 188 247 294 351 424
#     4  11  22  43  71 105 138 178 235 287 348 429
#     4  12  25  44  76 105 145 186 238 292 366 411
#     4  10  25  44  73 104 140 184 238 281 356 430
#
# _framework density 22.317357999999999
#
# number of rings (size 3 to 8) (size 9 to 14) (size 15 to 20)
#    0.000    0.571    1.429    6.000    8.000    2.286 
#    0.000    0.000    0.000    0.000    0.000    0.000 
#    0.000    0.000    0.000    0.000    0.000    0.000 
#
# Total GULP energy -173583.356515 kJ/mol
# GULP energy per Si atom -12398.811180 kJ/mol
# Density = 2.226656 g / cm^3
# Si number density = 22.317358 Si / 1000 Ang^3
#
#
#
# Elastic Constant Matrix: (Units=GPa)
#
#
# Indices 1 2 3 4 5 6 
#
# 1 195.4682 61.8133 53.3874 -1.5991 -6.0870 -14.1958
# 2 61.8133 148.5824 49.8394 -5.1411 11.7624 -14.4432
# 3 53.3874 49.8394 96.7208 -6.1928 -0.2509 -8.1940
# 4 -1.5991 -5.1411 -6.1928 43.2094 -4.7957 2.7772
# 5 -6.0870 11.7624 -0.2509 -4.7957 37.0420 3.1110
# 6 -14.1958 -14.4432 -8.1940 2.7772 3.1110 40.6908
#
#
#
# Elastic Compliance Matrix: (Units=1/GPa)
#
#
# Indices 1 2 3 4 5 6 
#
# 1 0.006531 -0.001894 -0.002557 -0.000242 0.001543 0.000990
# 2 -0.001894 0.009176 -0.003510 0.000000 -0.003429 0.002152
# 3 -0.002557 -0.003510 0.013697 0.001527 0.000948 0.000444
# 4 -0.000242 0.000000 0.001527 0.023813 0.003192 -0.001646
# 5 0.001543 -0.003429 0.000948 0.003192 0.029004 -0.002924
# 6 0.000990 0.002152 0.000444 -0.001646 -0.002924 0.026110
#
#
# Mechanical properties :
#
#
# Convention : Reuss Voigt Hill
#
# Bulk Modulus (GPa) = 74.16530 85.65018 79.90774
# Shear Modulus (GPa) = 38.83626 42.57054 40.70340
#
# Velocity S-wave (km/s) = 4.17607 4.37224 4.27528
# Velocity P-wave (km/s) = 7.52044 7.99689 7.76232
#
# Compressibility (1/GPa) = 0.01348339
#
# Stress axis : x y z
#
# Youngs Moduli (GPa) = 153.11448 108.98015 73.01043
#
# Poissons Ratio (x) = 0.20637 0.18668
# Poissons Ratio (y) = 0.28995 0.25624
# Poissons Ratio (z) = 0.39149 0.38248
#
# Static dielectric constant tensor:
#      x y z
#    x 8.146270 5.068650 -2.486560 
#    y 5.068650 11.330760 -3.542740 
#    z -2.486560 -3.542740 5.585630 
# 
# 
# High freq. dielectric constant tensor:
#      x y z
#    x 1.901820 -0.002600 -0.011120 
#    y -0.002600 1.887310 -0.006010 
#    z -0.011120 -0.006010 1.883360 
# 
# From -- ./inp_files/68163.got.cif
#   From: 2010.06.25/outbox.cif.g09.slc.cpg/sg2_35_cif.got.tgz:68163.got - 2010.06.27 13:26:56.
