data_PCOD8028547
_publ_section_title
;
Structure prediction by ZEFSAII (Michael W. Deem and Ramdas Pophale) SiO2 
 PCOD8028547
Probable space group: P -1
;
_chemical_formula_sum "Si O2"
_cell_formula_units_Z 16
_cell_length_a 6.323354
_cell_length_b 10.762550
_cell_length_c 13.665862
_cell_angle_alpha 108.763493
_cell_angle_beta 130.216890
_cell_angle_gamma 91.177335
_cell_volume 638.054733
_symmetry_space_group_name_H-M "P -1"
_symmetry_group_IT_number 2
_symmetry_cell_setting 'triclinic'
loop_
_space_group_symop_operation_xyz
x,y,z
-x,-y,-z
loop_
_atom_site_type_symbol
_atom_site_label
_atom_site_fract_x
_atom_site_fract_y
_atom_site_fract_z
Si Si1 0.445733 0.197164 0.094425
Si Si2 0.644840 0.411911 0.637579
Si Si3 0.079563 0.885222 0.556693
Si Si4 0.295206 0.467665 0.106577
Si Si5 0.151194 0.063158 0.803031
Si Si6 0.886173 0.680687 0.663770
Si Si7 0.846816 0.695928 0.277391
Si Si8 0.712946 0.903883 0.774441
O O1 0.274107 0.307635 0.045581
O O2 0.292652 0.087432 0.106733
O O3 0.771714 0.278690 0.249110
O O4 0.444651 0.110950 0.970804
O O5 0.629373 0.496459 0.750081
O O6 0.782836 0.519912 0.620053
O O7 0.316616 0.311230 0.488567
O O8 0.865676 0.323473 0.690301
O O9 0.400902 0.883063 0.627267
O O10 0.875130 0.739296 0.412836
O O11 0.076796 0.916381 0.682871
O O12 0.000000 0.000000 0.500000
O O13 0.561772 0.563279 0.144237
O O14 0.000000 0.500000 0.000000
O O15 0.188154 0.178059 0.763039
O O16 0.910569 0.042333 0.812666
O O17 0.827951 0.774695 0.756414
#
# Coordination Sequence:
#
# PCOD8028547 Si02
#       8
#     2   2   2   2   2   2   2   2
#     4  12  27  47  73 110 154 190 245 303 362 441
#     4  11  24  46  76 110 144 194 238 304 370 438
#     4  10  25  47  74 107 143 197 246 303 355 433
#     4  12  28  45  76 112 150 189 238 303 374 440
#     4  11  28  47  73 104 150 199 244 299 360 434
#     4  11  25  44  77 106 147 194 244 298 368 430
#     4  11  25  48  78 107 148 187 246 306 363 437
#     4  12  25  47  72 107 146 196 248 298 363 426
#
# _framework density 25.076218999999998
#
# number of rings (size 3 to 8) (size 9 to 14) (size 15 to 20)
#    0.000    0.750    3.750    1.875    5.250   10.500 
#    0.000    0.000    0.000    0.000    0.000    0.000 
#    0.000    0.000    0.000    0.000    0.000    0.000 
#
# Total GULP energy -198248.627856 kJ/mol
# GULP energy per Si atom -12390.539241 kJ/mol
# Density = 2.501914 g / cm^3
# Si number density = 25.076219 Si / 1000 Ang^3
#
#
#
# Elastic Constant Matrix: (Units=GPa)
#
#
# Indices 1 2 3 4 5 6 
#
# 1 89.9148 26.0465 50.9783 -6.4489 -5.5777 5.4279
# 2 26.0465 85.8011 24.8947 -7.2840 6.8013 5.5412
# 3 50.9783 24.8947 133.2792 7.5710 -1.1099 10.6763
# 4 -6.4489 -7.2840 7.5710 31.8676 -9.1930 7.6711
# 5 -5.5777 6.8013 -1.1099 -9.1930 53.7042 -2.1459
# 6 5.4279 5.5412 10.6763 7.6711 -2.1459 41.4699
#
#
#
# Elastic Compliance Matrix: (Units=1/GPa)
#
#
# Indices 1 2 3 4 5 6 
#
# 1 0.015737 -0.002869 -0.005660 0.004883 0.002677 -0.000984
# 2 -0.002869 0.013414 -0.001447 0.002756 -0.001620 -0.001638
# 3 -0.005660 -0.001447 0.010235 -0.003923 -0.000905 -0.001022
# 4 0.004883 0.002756 -0.003923 0.037301 0.006199 -0.006577
# 5 0.002677 -0.001620 -0.000905 0.006199 0.020146 -0.000005
# 6 -0.000984 -0.001638 -0.001022 -0.006577 -0.000005 0.025941
#
#
# Mechanical properties :
#
#
# Convention : Reuss Voigt Hill
#
# Bulk Modulus (GPa) = 51.45453 56.98157 54.21805
# Shear Modulus (GPa) = 33.51088 39.21336 36.36212
#
# Velocity S-wave (km/s) = 3.65959 3.95874 3.81210
# Velocity P-wave (km/s) = 6.19844 6.60819 6.40659
#
# Compressibility (1/GPa) = 0.01943463
#
# Stress axis : x y z
#
# Youngs Moduli (GPa) = 63.54289 74.54947 97.70139
#
# Poissons Ratio (x) = 0.21391 0.55296
# Poissons Ratio (y) = 0.18233 0.14136
# Poissons Ratio (z) = 0.35963 0.10786
#
# Static dielectric constant tensor:
#      x y z
#    x 4.473550 -0.115020 -0.123680 
#    y -0.115020 4.521940 0.113820 
#    z -0.123680 0.113820 4.955400 
# 
# 
# High freq. dielectric constant tensor:
#      x y z
#    x 1.991520 0.004180 -0.004550 
#    y 0.004180 2.009190 -0.000770 
#    z -0.004550 -0.000770 2.019340 
# 
# From -- ./inp_files/370522.got.cif
#   From: 2010.06.25/outbox.cif.g09.slc.cpg/sg2_186_cif.got.tgz:370522.got - 2010.06.27 13:26:56.
