data_PCOD8028855
_publ_section_title
;
Structure prediction by ZEFSAII (Michael W. Deem and Ramdas Pophale) SiO2 
 PCOD8028855
Probable space group: P -1
;
_chemical_formula_sum "Si O2"
_cell_formula_units_Z 14
_cell_length_a 8.872534
_cell_length_b 15.729795
_cell_length_c 7.572902
_cell_angle_alpha 40.172488
_cell_angle_beta 94.650883
_cell_angle_gamma 76.990477
_cell_volume 608.058258
_symmetry_space_group_name_H-M "P -1"
_symmetry_group_IT_number 2
_symmetry_cell_setting 'triclinic'
loop_
_space_group_symop_operation_xyz
x,y,z
-x,-y,-z
loop_
_atom_site_type_symbol
_atom_site_label
_atom_site_fract_x
_atom_site_fract_y
_atom_site_fract_z
Si Si1 0.744232 0.413012 0.527274
Si Si2 0.915076 0.816422 0.986778
Si Si3 0.705678 0.279370 0.376597
Si Si4 0.962199 0.967523 0.244408
Si Si5 0.393671 0.974453 0.181465
Si Si6 0.674773 0.978948 0.411028
Si Si7 0.560964 0.308939 0.958417
O O1 0.718635 0.378358 0.377445
O O2 0.664366 0.335477 0.770043
O O3 0.641036 0.590653 0.258904
O O4 0.944664 0.351839 0.691982
O O5 0.785307 0.881112 0.036809
O O6 0.806232 0.841945 0.757896
O O7 0.021203 0.910628 0.822787
O O8 0.635094 0.168855 0.624993
O O9 0.891002 0.193179 0.441528
O O10 0.592918 0.368299 0.057574
O O11 0.776139 0.976852 0.241764
O O12 0.000000 0.000000 0.000000
O O13 0.510652 0.953280 0.400591
O O14 0.500000 0.000000 0.000000
O O15 0.613234 0.136332 0.252466
#
# Coordination Sequence:
#
# PCOD8028855 Si02
#       7
#     2   2   2   2   2   2   2
#     4  11  23  39  61  96 122 157 206 250 303 359
#     4  11  21  36  59  89 117 154 200 254 299 345
#     4  11  22  39  63  90 121 161 203 252 305 357
#     4  11  18  32  60  89 117 146 198 262 295 343
#     4  11  24  37  61  91 122 157 199 258 306 357
#     4  12  21  38  61  92 120 156 202 248 309 363
#     4  11  22  38  63  91 125 161 197 253 302 364
#
# _framework density 23.024107999999998
#
# number of rings (size 3 to 8) (size 9 to 14) (size 15 to 20)
#    0.000    0.857    5.714    4.714    0.000    0.000 
#    0.000    0.714    0.000    0.857    0.000    0.000 
#    0.000    0.000    0.000    0.000    0.000    0.000 
#
# Total GULP energy -173474.545702 kJ/mol
# GULP energy per Si atom -12391.038979 kJ/mol
# Density = 2.297170 g / cm^3
# Si number density = 23.024108 Si / 1000 Ang^3
#
#
#
# Elastic Constant Matrix: (Units=GPa)
#
#
# Indices 1 2 3 4 5 6 
#
# 1 112.6592 15.2231 25.8930 -16.9564 30.2312 -16.9586
# 2 15.2231 62.0808 25.9314 6.9765 8.4789 -11.5198
# 3 25.8930 25.9314 93.5206 -8.0279 45.5913 -17.5200
# 4 -16.9564 6.9765 -8.0279 22.5249 -7.2085 5.4158
# 5 30.2312 8.4789 45.5913 -7.2085 44.0055 0.7271
# 6 -16.9586 -11.5198 -17.5200 5.4158 0.7271 36.8169
#
#
#
# Elastic Compliance Matrix: (Units=1/GPa)
#
#
# Indices 1 2 3 4 5 6 
#
# 1 0.013952 -0.003462 0.005903 0.007458 -0.013933 0.007330
# 2 -0.003462 0.021307 -0.007148 -0.011331 0.003768 0.003263
# 3 0.005903 -0.007148 0.031118 0.002905 -0.034698 0.015548
# 4 0.007458 -0.011331 0.002905 0.057443 0.003580 -0.007248
# 5 -0.013933 0.003768 -0.034698 0.003580 0.068495 -0.023630
# 6 0.007330 0.003263 0.015548 -0.007248 -0.023630 0.040491
#
#
# Mechanical properties :
#
#
# Convention : Reuss Voigt Hill
#
# Bulk Modulus (GPa) = 17.55519 44.70618 31.13069
# Shear Modulus (GPa) = 19.14185 34.08366 26.61275
#
# Velocity S-wave (km/s) = 2.88650 3.85170 3.40349
# Velocity P-wave (km/s) = 4.33018 6.26419 5.38472
#
# Compressibility (1/GPa) = 0.05696321
#
# Stress axis : x y z
#
# Youngs Moduli (GPa) = 71.67384 46.93316 32.13564
#
# Poissons Ratio (x) = 0.16247 -0.18968
# Poissons Ratio (y) = 0.24811 0.22970
# Poissons Ratio (z) = -0.42306 0.33547
#
# Static dielectric constant tensor:
#      x y z
#    x 4.447380 -0.123560 0.751580 
#    y -0.123560 4.133910 0.258590 
#    z 0.751580 0.258590 4.268160 
# 
# 
# High freq. dielectric constant tensor:
#      x y z
#    x 1.908010 -0.027960 0.033900 
#    y -0.027960 1.901680 0.030530 
#    z 0.033900 0.030530 1.901360 
# 
# From -- ./inp_files/211713.got.cif
#   From: 2010.06.25/outbox.cif.g09.slc.cpg/sg2_106_cif.got.tgz:211713.got - 2010.06.27 13:26:56.
