data_PCOD8028864
_publ_section_title
;
Structure prediction by ZEFSAII (Michael W. Deem and Ramdas Pophale) SiO2 
 PCOD8028864
Probable space group: P -1
;
_chemical_formula_sum "Si O2"
_cell_formula_units_Z 14
_cell_length_a 16.728859
_cell_length_b 13.159974
_cell_length_c 13.371702
_cell_angle_alpha 137.934510
_cell_angle_beta 154.149435
_cell_angle_gamma 35.034126
_cell_volume 736.674064
_symmetry_space_group_name_H-M "P -1"
_symmetry_group_IT_number 2
_symmetry_cell_setting 'triclinic'
loop_
_space_group_symop_operation_xyz
x,y,z
-x,-y,-z
loop_
_atom_site_type_symbol
_atom_site_label
_atom_site_fract_x
_atom_site_fract_y
_atom_site_fract_z
Si Si1 0.497911 0.479020 0.793669
Si Si2 0.871767 0.533479 0.533746
Si Si3 0.615921 0.362926 0.617801
Si Si4 0.762162 0.084173 0.832023
Si Si5 0.493781 0.903922 0.638758
Si Si6 0.903156 0.776591 0.905508
Si Si7 0.309775 0.296435 0.751677
O O1 0.258502 0.537696 0.602569
O O2 0.515758 0.458790 0.679826
O O3 0.666053 0.291578 0.898799
O O4 0.549385 0.627359 0.990930
O O5 0.939997 0.643967 0.760381
O O6 0.724134 0.661776 0.373288
O O7 0.085788 0.369483 0.610144
O O8 0.500000 0.500000 0.500000
O O9 0.580080 0.198074 0.444623
O O10 0.868300 0.282774 0.834622
O O11 0.617096 0.064374 0.571383
O O12 0.774594 0.980124 0.870393
O O13 0.000000 0.000000 0.000000
O O14 0.749974 0.776381 0.819279
O O15 0.438252 0.086785 0.760933
#
# Coordination Sequence:
#
# PCOD8028864 Si02
#       7
#     2   2   2   2   2   2   2
#     4  11  22  39  57  90 128 159 197 244 299 361
#     4  11  21  35  60  93 129 162 185 235 311 373
#     4  11  25  43  64  87 115 160 218 259 291 347
#     4  11  18  33  60  87 124 158 187 240 303 359
#     4  11  23  38  62  92 121 154 207 247 301 363
#     4  12  20  39  65  88 122 163 200 250 298 360
#     4  11  23  35  58  95 131 155 186 240 310 372
#
# _framework density 19.004335000000001
#
# number of rings (size 3 to 8) (size 9 to 14) (size 15 to 20)
#    0.000    0.857    8.571    1.714    2.000    1.714 
#    0.000    0.714    0.000    1.714    0.000    0.000 
#    0.000    0.000    0.000    0.000    0.000    0.000 
#
# Total GULP energy -173633.461862 kJ/mol
# GULP energy per Si atom -12402.390133 kJ/mol
# Density = 1.896108 g / cm^3
# Si number density = 19.004335 Si / 1000 Ang^3
#
#
#
# Elastic Constant Matrix: (Units=GPa)
#
#
# Indices 1 2 3 4 5 6 
#
# 1 81.5490 41.1802 61.7310 -11.1665 20.5599 -0.6789
# 2 41.1802 116.6827 64.3002 16.6673 -5.2617 6.6053
# 3 61.7310 64.3002 104.3172 4.7368 26.3406 14.9779
# 4 -11.1665 16.6673 4.7368 35.2473 0.0317 -2.1944
# 5 20.5599 -5.2617 26.3406 0.0317 32.2770 -5.0416
# 6 -0.6789 6.6053 14.9779 -2.1944 -5.0416 26.6577
#
#
#
# Elastic Compliance Matrix: (Units=1/GPa)
#
#
# Indices 1 2 3 4 5 6 
#
# 1 0.030034 -0.005047 -0.015452 0.014657 -0.005666 0.010833
# 2 -0.005047 0.020586 -0.015284 -0.008898 0.020055 0.006418
# 3 -0.015452 -0.015284 0.038943 -0.004382 -0.028202 -0.024182
# 4 0.014657 -0.008898 -0.004382 0.038254 -0.006151 0.007026
# 5 -0.005666 0.020055 -0.028202 -0.006151 0.064380 0.022402
# 6 0.010833 0.006418 -0.024182 0.007026 0.022402 0.054600
#
#
# Mechanical properties :
#
#
# Convention : Reuss Voigt Hill
#
# Bulk Modulus (GPa) = 55.56507 70.77466 63.16987
# Shear Modulus (GPa) = 15.41486 27.85892 21.63689
#
# Velocity S-wave (km/s) = 2.85111 3.83289 3.37786
# Velocity P-wave (km/s) = 6.33562 7.54389 6.96600
#
# Compressibility (1/GPa) = 0.01799692
#
# Stress axis : x y z
#
# Youngs Moduli (GPa) = 33.29568 48.57713 25.67827
#
# Poissons Ratio (x) = 0.24516 0.39679
# Poissons Ratio (y) = 0.16804 0.39246
# Poissons Ratio (z) = 0.51450 0.74245
#
# Static dielectric constant tensor:
#      x y z
#    x 3.506180 0.010180 0.345720 
#    y 0.010180 3.532440 0.162360 
#    z 0.345720 0.162360 3.568870 
# 
# 
# High freq. dielectric constant tensor:
#      x y z
#    x 1.731610 -0.012380 0.037310 
#    y -0.012380 1.727750 0.016170 
#    z 0.037310 0.016170 1.732840 
# 
# From -- ./inp_files/180851.got.cif
#   From: 2010.06.25/outbox.cif.g09.slc.cpg/sg2_91_cif.got.tgz:180851.got - 2010.06.27 13:26:56.
