data_PCOD8028041
_publ_section_title
;
Structure prediction by ZEFSAII (Michael W. Deem and Ramdas Pophale) SiO2 
 PCOD8028041
Probable space group: P -1
;
_chemical_formula_sum "Si O2"
_cell_formula_units_Z 14
_cell_length_a 15.721115
_cell_length_b 8.476583
_cell_length_c 9.135481
_cell_angle_alpha 58.452933
_cell_angle_beta 40.949468
_cell_angle_gamma 79.146749
_cell_volume 631.602024
_symmetry_space_group_name_H-M "P -1"
_symmetry_group_IT_number 2
_symmetry_cell_setting 'triclinic'
loop_
_space_group_symop_operation_xyz
x,y,z
-x,-y,-z
loop_
_atom_site_type_symbol
_atom_site_label
_atom_site_fract_x
_atom_site_fract_y
_atom_site_fract_z
Si Si1 0.093296 0.588889 0.639989
Si Si2 0.095147 0.191929 0.690882
Si Si3 0.781089 0.415518 0.217713
Si Si4 0.538254 0.072826 0.579605
Si Si5 0.595769 0.713962 0.716249
Si Si6 0.332180 0.259455 0.725090
Si Si7 0.069703 0.912485 0.327404
O O1 0.109716 0.388753 0.664929
O O2 0.188039 0.659503 0.627462
O O3 0.143071 0.768426 0.370869
O O4 0.929896 0.549633 0.892780
O O5 0.250072 0.198288 0.458821
O O6 0.041663 0.207547 0.590606
O O7 0.000000 0.000000 0.000000
O O8 0.699534 0.225838 0.313448
O O9 0.680493 0.542158 0.289522
O O10 0.435641 0.179376 0.723156
O O11 0.500000 0.000000 0.500000
O O12 0.523473 0.869965 0.783012
O O13 0.606656 0.696949 0.536950
O O14 0.500000 0.500000 0.000000
O O15 0.180444 0.088071 0.005945
O O16 0.000000 0.000000 0.500000
#
# Coordination Sequence:
#
# PCOD8028041 Si02
#       7
#     2   2   2   2   2   2   2
#     4  11  25  41  73 107 138 187 237 295 361 420
#     4  12  24  47  77 101 146 188 238 298 357 421
#     4  11  22  45  71 104 142 181 240 295 358 425
#     4  10  25  42  70  98 138 187 236 288 354 423
#     4  11  25  46  71 102 138 184 242 288 355 428
#     4  11  23  47  68 101 141 184 232 299 355 418
#     4  12  26  44  70 111 143 180 242 296 358 426
#
# _framework density 22.165856000000002
#
# number of rings (size 3 to 8) (size 9 to 14) (size 15 to 20)
#    0.000    0.857    4.286    1.714    8.000    2.286 
#    2.571    1.429    0.000    0.000    0.000    0.000 
#    0.000    0.000    0.000    0.000    0.000    0.000 
#
# Total GULP energy -173553.293499 kJ/mol
# GULP energy per Si atom -12396.663821 kJ/mol
# Density = 2.211541 g / cm^3
# Si number density = 22.165856 Si / 1000 Ang^3
#
#
#
# Elastic Constant Matrix: (Units=GPa)
#
#
# Indices 1 2 3 4 5 6 
#
# 1 124.9010 56.2703 39.8894 -11.5837 -10.2515 -0.3341
# 2 56.2703 112.3255 35.6924 -15.4919 -4.7150 -18.5914
# 3 39.8894 35.6924 105.2473 -17.2994 -1.3486 -10.1646
# 4 -11.5837 -15.4919 -17.2994 38.9726 -3.5342 -2.4803
# 5 -10.2515 -4.7150 -1.3486 -3.5342 36.8867 -1.9303
# 6 -0.3341 -18.5914 -10.1646 -2.4803 -1.9303 53.0444
#
#
#
# Elastic Compliance Matrix: (Units=1/GPa)
#
#
# Indices 1 2 3 4 5 6 
#
# 1 0.011357 -0.005044 -0.002731 0.000234 0.002323 -0.002124
# 2 -0.005044 0.013165 -0.001552 0.003401 0.000784 0.004472
# 3 -0.002731 -0.001552 0.011899 0.003970 -0.000042 0.001903
# 4 0.000234 0.003401 0.003970 0.029393 0.003642 0.003461
# 5 0.002323 0.000784 -0.000042 0.003642 0.028281 0.001481
# 6 -0.002124 0.004472 0.001903 0.003461 0.001481 0.020987
#
#
# Mechanical properties :
#
#
# Convention : Reuss Voigt Hill
#
# Bulk Modulus (GPa) = 56.28200 67.35311 61.81755
# Shear Modulus (GPa) = 35.80187 39.82217 37.81202
#
# Velocity S-wave (km/s) = 4.02329 4.24318 4.13470
# Velocity P-wave (km/s) = 6.85776 7.37957 7.12344
#
# Compressibility (1/GPa) = 0.01776767
#
# Stress axis : x y z
#
# Youngs Moduli (GPa) = 88.04786 75.96087 84.04303
#
# Poissons Ratio (x) = 0.38311 0.22952
# Poissons Ratio (y) = 0.44407 0.13044
# Poissons Ratio (z) = 0.24046 0.11789
#
# Static dielectric constant tensor:
#      x y z
#    x 4.326680 -0.460420 -0.141450 
#    y -0.460420 4.360640 0.018980 
#    z -0.141450 0.018980 3.854410 
# 
# 
# High freq. dielectric constant tensor:
#      x y z
#    x 1.882380 -0.017170 -0.011160 
#    y -0.017170 1.888480 -0.009950 
#    z -0.011160 -0.009950 1.853760 
# 
# From -- ./inp_files/158889.got.cif
#   From: 2010.06.25/outbox.cif.g09.slc.cpg/sg2_80_cif.got.tgz:158889.got - 2010.06.27 13:26:56.
