data_PCOD8028845
_publ_section_title
;
Structure prediction by ZEFSAII (Michael W. Deem and Ramdas Pophale) SiO2 
 PCOD8028845
Probable space group: P -1
;
_chemical_formula_sum "Si O2"
_cell_formula_units_Z 14
_cell_length_a 11.696160
_cell_length_b 8.422122
_cell_length_c 13.817586
_cell_angle_alpha 32.322506
_cell_angle_beta 100.759694
_cell_angle_gamma 88.587280
_cell_volume 670.478237
_symmetry_space_group_name_H-M "P -1"
_symmetry_group_IT_number 2
_symmetry_cell_setting 'triclinic'
loop_
_space_group_symop_operation_xyz
x,y,z
-x,-y,-z
loop_
_atom_site_type_symbol
_atom_site_label
_atom_site_fract_x
_atom_site_fract_y
_atom_site_fract_z
Si Si1 0.256134 0.363350 0.534836
Si Si2 0.924409 0.162099 0.619571
Si Si3 0.204054 0.483594 0.764838
Si Si4 0.317248 0.825553 0.180965
Si Si5 0.586647 0.497303 0.338928
Si Si6 0.290354 0.098704 0.240846
Si Si7 0.194833 0.768423 0.823209
O O1 0.116482 0.551881 0.455592
O O2 0.272759 0.530833 0.350825
O O3 0.353788 0.384235 0.620377
O O4 0.273506 0.000094 0.703628
O O5 0.900029 0.316318 0.429239
O O6 0.842034 0.942559 0.740130
O O7 0.066655 0.950264 0.763814
O O8 0.342253 0.472862 0.762697
O O9 0.165879 0.646567 0.778424
O O10 0.213471 0.112501 0.959635
O O11 0.442194 0.698072 0.202293
O O12 0.344171 0.980730 0.203882
O O13 0.609154 0.122294 0.553485
O O14 0.272475 0.469680 0.056588
#
# Coordination Sequence:
#
# PCOD8028845 Si02
#       7
#     2   2   2   2   2   2   2
#     4   9  19  31  49  74  94 121 163 195 231 281
#     4   9  18  34  50  68  96 131 158 186 231 288
#     4   9  19  31  49  73  92 124 165 187 230 292
#     4   9  16  33  53  67  93 130 159 191 231 285
#     4   9  17  35  52  68  93 128 160 192 231 287
#     4   8  17  29  49  73  90 121 164 187 227 287
#     4  11  18  31  49  73 101 121 151 206 236 262
#
# _framework density 20.880617000000001
#
# number of rings (size 3 to 8) (size 9 to 14) (size 15 to 20)
#    0.000    3.429    0.000    3.429    0.000    0.000 
#    0.000   13.571    0.000    0.000    0.000    0.000 
#    0.000    0.000    0.000    0.000    0.000    0.000 
#
# Total GULP energy -173481.705940 kJ/mol
# GULP energy per Si atom -12391.550424 kJ/mol
# Density = 2.083309 g / cm^3
# Si number density = 20.880617 Si / 1000 Ang^3
#
#
#
# Elastic Constant Matrix: (Units=GPa)
#
#
# Indices 1 2 3 4 5 6 
#
# 1 46.8400 9.1220 16.5346 -12.3940 3.5934 -14.6962
# 2 9.1220 20.9324 21.2885 -12.7609 -0.8026 -2.9969
# 3 16.5346 21.2885 133.2871 -36.2539 -16.3876 6.8574
# 4 -12.3940 -12.7609 -36.2539 33.2620 -0.4790 -7.1911
# 5 3.5934 -0.8026 -16.3876 -0.4790 29.7891 -3.3216
# 6 -14.6962 -2.9969 6.8574 -7.1911 -3.3216 19.0003
#
#
#
# Elastic Compliance Matrix: (Units=1/GPa)
#
#
# Indices 1 2 3 4 5 6 
#
# 1 0.040489 0.004496 -0.001305 0.024387 -0.000445 0.041650
# 2 0.004496 0.074137 -0.005261 0.030706 0.002299 0.029093
# 3 -0.001305 -0.005261 0.012349 0.010840 0.006873 -0.000992
# 4 0.024387 0.030706 0.010840 0.073599 0.010551 0.049494
# 5 -0.000445 0.002299 0.006873 0.010551 0.038558 0.008272
# 6 0.041650 0.029093 -0.000992 0.049494 0.008272 0.109970
#
#
# Mechanical properties :
#
#
# Convention : Reuss Voigt Hill
#
# Bulk Modulus (GPa) = 8.14098 32.77219 20.45658
# Shear Modulus (GPa) = 12.68429 26.68458 19.68443
#
# Velocity S-wave (km/s) = 2.46736 3.57873 3.07369
# Velocity P-wave (km/s) = 3.46763 5.72761 4.73445
#
# Compressibility (1/GPa) = 0.12283531
#
# Stress axis : x y z
#
# Youngs Moduli (GPa) = 24.69788 13.48856 80.97631
#
# Poissons Ratio (x) = -0.06064 0.10567
# Poissons Ratio (y) = -0.11103 0.42600
# Poissons Ratio (z) = 0.03223 0.07096
#
# Static dielectric constant tensor:
#      x y z
#    x 3.483400 -0.371550 -0.182870 
#    y -0.371550 3.316650 -0.177100 
#    z -0.182870 -0.177100 4.222390 
# 
# 
# High freq. dielectric constant tensor:
#      x y z
#    x 1.794700 -0.038070 -0.012150 
#    y -0.038070 1.770520 -0.012750 
#    z -0.012150 -0.012750 1.840120 
# 
# From -- ./inp_files/172453.got.cif
#   From: 2010.06.25/outbox.cif.g09.slc.cpg/sg2_87_cif.got.tgz:172453.got - 2010.06.27 13:26:56.
