data_PCOD8028049
_publ_section_title
;
Structure prediction by ZEFSAII (Michael W. Deem and Ramdas Pophale) SiO2 
 PCOD8028049
Probable space group: P -1
;
_chemical_formula_sum "Si O2"
_cell_formula_units_Z 12
_cell_length_a 6.445055
_cell_length_b 12.893556
_cell_length_c 9.261362
_cell_angle_alpha 53.485619
_cell_angle_beta 104.996299
_cell_angle_gamma 114.418397
_cell_volume 563.132141
_symmetry_space_group_name_H-M "P -1"
_symmetry_group_IT_number 2
_symmetry_cell_setting 'triclinic'
loop_
_space_group_symop_operation_xyz
x,y,z
-x,-y,-z
loop_
_atom_site_type_symbol
_atom_site_label
_atom_site_fract_x
_atom_site_fract_y
_atom_site_fract_z
Si Si1 0.373983 0.800192 0.623119
Si Si2 0.545043 0.368453 0.788864
Si Si3 0.930002 0.348657 0.064333
Si Si4 0.414122 0.324248 0.476598
Si Si5 0.774726 0.798526 0.899630
Si Si6 0.034949 0.935965 0.407205
O O1 0.152856 0.726623 0.739072
O O2 0.410861 0.714885 0.563538
O O3 0.587205 0.831322 0.740444
O O4 0.291393 0.924690 0.450824
O O5 0.528720 0.341854 0.639038
O O6 0.599505 0.529775 0.699543
O O7 0.745855 0.319298 0.927044
O O8 0.313314 0.270374 0.905168
O O9 0.144646 0.311228 0.080359
O O10 0.000000 0.500000 0.000000
O O11 0.167554 0.206663 0.538077
O O12 0.969100 0.950609 0.811959
O O13 0.000000 0.000000 0.500000
#
# Coordination Sequence:
#
# PCOD8028049 Si02
#       6
#     2   2   2   2   2   2
#     4  11  21  38  66  92 122 165 206 258 305 364
#     4  10  25  43  62  93 128 167 203 256 313 367
#     4  11  21  38  64  94 123 162 210 257 306 364
#     4  11  24  43  64  91 129 165 208 253 312 372
#     4  11  23  40  64  94 127 159 212 257 306 366
#     4  12  23  40  65  97 123 163 210 257 309 367
#
# _framework density 21.309387999999998
#
# number of rings (size 3 to 8) (size 9 to 14) (size 15 to 20)
#    0.000    1.000    3.333    3.500    0.000    4.667 
#    0.000    5.833    0.000    0.000    0.000    0.000 
#    0.000    0.000    0.000    0.000    0.000    0.000 
#
# Total GULP energy -148669.132766 kJ/mol
# GULP energy per Si atom -12389.094397 kJ/mol
# Density = 2.126089 g / cm^3
# Si number density = 21.309388 Si / 1000 Ang^3
#
#
#
# Elastic Constant Matrix: (Units=GPa)
#
#
# Indices 1 2 3 4 5 6 
#
# 1 77.7286 18.5735 9.9051 7.8169 6.8941 -13.9506
# 2 18.5735 78.6399 37.8513 -7.9346 3.7914 -7.0217
# 3 9.9051 37.8513 97.8378 -9.9742 -13.9272 -1.9364
# 4 7.8169 -7.9346 -9.9742 34.9441 -3.3854 -7.4970
# 5 6.8941 3.7914 -13.9272 -3.3854 30.3527 -5.4299
# 6 -13.9506 -7.0217 -1.9364 -7.4970 -5.4299 33.6638
#
#
#
# Elastic Compliance Matrix: (Units=1/GPa)
#
#
# Indices 1 2 3 4 5 6 
#
# 1 0.015130 -0.002838 -0.001206 -0.003784 -0.003300 0.004234
# 2 -0.002838 0.017205 -0.006604 0.002713 -0.003872 0.002012
# 3 -0.001206 -0.006604 0.014528 0.003992 0.008426 0.001207
# 4 -0.003784 0.002713 0.003992 0.033651 0.007525 0.007935
# 5 -0.003300 -0.003872 0.008426 0.007525 0.040037 0.006443
# 6 0.004234 0.002012 0.001207 0.007935 0.006443 0.034756
#
#
# Mechanical properties :
#
#
# Convention : Reuss Voigt Hill
#
# Bulk Modulus (GPa) = 39.10988 42.98514 41.04751
# Shear Modulus (GPa) = 27.00878 32.31721 29.66300
#
# Velocity S-wave (km/s) = 3.56400 3.89854 3.73502
# Velocity P-wave (km/s) = 5.94385 6.36243 6.15670
#
# Compressibility (1/GPa) = 0.02556899
#
# Stress axis : x y z
#
# Youngs Moduli (GPa) = 66.09298 58.12224 68.83159
#
# Poissons Ratio (x) = 0.16495 0.08298
# Poissons Ratio (y) = 0.18757 0.45454
# Poissons Ratio (z) = 0.07968 0.38382
#
# Static dielectric constant tensor:
#      x y z
#    x 4.302660 0.135050 0.061900 
#    y 0.135050 3.781700 -0.269190 
#    z 0.061900 -0.269190 4.319910 
# 
# 
# High freq. dielectric constant tensor:
#      x y z
#    x 1.841830 -0.006260 -0.002290 
#    y -0.006260 1.827660 -0.028390 
#    z -0.002290 -0.028390 1.850320 
# 
# From -- ./inp_files/20486.got.cif
#   From: 2010.06.25/outbox.cif.g09.slc.cpg/sg2_11_cif.got.tgz:20486.got - 2010.06.27 13:26:56.
