data_PCOD8028621
_publ_section_title
;
Structure prediction by ZEFSAII (Michael W. Deem and Ramdas Pophale) SiO2 
 PCOD8028621
Probable space group: P -1
;
_chemical_formula_sum "Si O2"
_cell_formula_units_Z 14
_cell_length_a 6.433659
_cell_length_b 19.324398
_cell_length_c 9.015359
_cell_angle_alpha 142.114265
_cell_angle_beta 115.894709
_cell_angle_gamma 82.811361
_cell_volume 568.199954
_symmetry_space_group_name_H-M "P -1"
_symmetry_group_IT_number 2
_symmetry_cell_setting 'triclinic'
loop_
_space_group_symop_operation_xyz
x,y,z
-x,-y,-z
loop_
_atom_site_type_symbol
_atom_site_label
_atom_site_fract_x
_atom_site_fract_y
_atom_site_fract_z
Si Si1 0.705642 0.003521 0.269209
Si Si2 0.966812 0.480724 0.781312
Si Si3 0.720815 0.914045 0.803250
Si Si4 0.707488 0.659252 0.364976
Si Si5 0.253163 0.185083 0.813388
Si Si6 0.621457 0.386232 0.069556
Si Si7 0.404967 0.393079 0.438637
O O1 0.675282 0.917632 0.257654
O O2 0.485575 0.053745 0.297300
O O3 0.667885 0.918498 0.969239
O O4 0.977385 0.118415 0.541997
O O5 0.695519 0.451691 0.579608
O O6 0.037476 0.363166 0.570336
O O7 0.141060 0.601066 0.939973
O O8 0.000000 0.500000 0.000000
O O9 0.723433 0.788803 0.527727
O O10 0.000000 0.000000 0.000000
O O11 0.587969 0.661216 0.490039
O O12 0.544174 0.571314 0.031223
O O13 0.471219 0.253939 0.875174
O O14 0.237880 0.286927 0.094921
O O15 0.694094 0.495936 0.399724
#
# Coordination Sequence:
#
# PCOD8028621 Si02
#       7
#     2   2   2   2   2   2   2
#     4  10  25  49  72 101 146 194 234 300 360 414
#     4  11  21  40  71 104 143 186 236 294 356 416
#     4  11  24  45  75 107 132 188 255 293 344 428
#     4  11  22  40  69 104 138 182 243 291 345 435
#     4  11  24  46  72 106 151 187 232 296 373 425
#     4  11  23  41  66 108 142 183 241 286 354 444
#     4  11  22  42  69 101 149 185 228 294 359 433
#
# _framework density 24.639215
#
# number of rings (size 3 to 8) (size 9 to 14) (size 15 to 20)
#    0.000    1.143    4.286    2.143    2.000    2.857 
#    0.000   13.571    0.000    0.000    0.000    0.000 
#    0.000    0.000    0.000    0.000    0.000    0.000 
#
# Total GULP energy -173432.893460 kJ/mol
# GULP energy per Si atom -12388.063819 kJ/mol
# Density = 2.458314 g / cm^3
# Si number density = 24.639215 Si / 1000 Ang^3
#
#
#
# Elastic Constant Matrix: (Units=GPa)
#
#
# Indices 1 2 3 4 5 6 
#
# 1 111.3533 39.3522 20.0155 9.6061 4.2503 21.5247
# 2 39.3522 116.6061 20.5965 4.7709 -0.7390 31.0415
# 3 20.0155 20.5965 91.8971 -8.3140 -7.3505 16.0892
# 4 9.6061 4.7709 -8.3140 33.6476 1.4447 1.6572
# 5 4.2503 -0.7390 -7.3505 1.4447 31.8740 4.4164
# 6 21.5247 31.0415 16.0892 1.6572 4.4164 23.4165
#
#
#
# Elastic Compliance Matrix: (Units=1/GPa)
#
#
# Indices 1 2 3 4 5 6 
#
# 1 0.011441 -0.001613 -0.001189 -0.002946 -0.000703 -0.007221
# 2 -0.001613 0.013786 0.000561 -0.000618 0.003148 -0.017728
# 3 -0.001189 0.000561 0.013484 0.003893 0.004496 -0.010040
# 4 -0.002946 -0.000618 0.003893 0.031678 0.000034 -0.001397
# 5 -0.000703 0.003148 0.004496 0.000034 0.034391 -0.013105
# 6 -0.007221 -0.017728 -0.010040 -0.001397 -0.013105 0.082311
#
#
# Mechanical properties :
#
#
# Convention : Reuss Voigt Hill
#
# Bulk Modulus (GPa) = 29.21431 53.30944 41.26187
# Shear Modulus (GPa) = 24.63278 33.78043 29.20660
#
# Velocity S-wave (km/s) = 3.16529 3.70672 3.44666
# Velocity P-wave (km/s) = 5.02408 6.32477 5.71157
#
# Compressibility (1/GPa) = 0.03422980
#
# Stress axis : x y z
#
# Youngs Moduli (GPa) = 87.40661 72.53998 74.15957
#
# Poissons Ratio (x) = 0.11699 0.08817
# Poissons Ratio (y) = 0.14097 -0.04162
# Poissons Ratio (z) = 0.10392 -0.04071
#
# Static dielectric constant tensor:
#      x y z
#    x 4.360430 0.231160 -0.066690 
#    y 0.231160 4.488080 -0.119490 
#    z -0.066690 -0.119490 4.693590 
# 
# 
# High freq. dielectric constant tensor:
#      x y z
#    x 1.968500 0.013820 -0.007020 
#    y 0.013820 1.997970 -0.011040 
#    z -0.007020 -0.011040 1.985480 
# 
# From -- ./inp_files/141759.got.cif
#   From: 2010.06.25/outbox.cif.g09.slc.cpg/sg2_71_cif.got.tgz:141759.got - 2010.06.27 13:26:56.
