data_PCOD8028910
_publ_section_title
;
Structure prediction by ZEFSAII (Michael W. Deem and Ramdas Pophale) SiO2 
 PCOD8028910
Probable space group: P -1
;
_chemical_formula_sum "Si O2"
_cell_formula_units_Z 16
_cell_length_a 16.208339
_cell_length_b 10.876514
_cell_length_c 11.536956
_cell_angle_alpha 108.694709
_cell_angle_beta 129.175011
_cell_angle_gamma 30.691385
_cell_volume 665.218192
_symmetry_space_group_name_H-M "P -1"
_symmetry_group_IT_number 2
_symmetry_cell_setting 'triclinic'
loop_
_space_group_symop_operation_xyz
x,y,z
-x,-y,-z
loop_
_atom_site_type_symbol
_atom_site_label
_atom_site_fract_x
_atom_site_fract_y
_atom_site_fract_z
Si Si1 0.594095 0.565230 0.186836
Si Si2 0.627858 0.732968 0.446680
Si Si3 0.203913 0.356015 0.204197
Si Si4 0.875084 0.246063 0.113580
Si Si5 0.944992 0.878762 0.131032
Si Si6 0.378754 0.801048 0.398460
Si Si7 0.839310 0.061648 0.332933
Si Si8 0.474210 0.417266 0.289111
O O1 0.741406 0.500409 0.388703
O O2 0.689646 0.495783 0.122628
O O3 0.623530 0.377718 0.173297
O O4 0.314579 0.898731 0.061121
O O5 0.810760 0.613924 0.656241
O O6 0.440406 0.864601 0.405491
O O7 0.467244 0.008467 0.308558
O O8 0.155328 0.555689 0.172154
O O9 0.000000 0.500000 0.000000
O O10 0.983958 0.982894 0.153670
O O11 0.755043 0.385208 0.923343
O O12 0.096197 0.102985 0.263131
O O13 0.973729 0.834669 0.284068
O O14 0.465791 0.583604 0.333814
O O15 0.522846 0.645444 0.599964
O O16 0.718753 0.110801 0.344230
O O17 0.000000 0.000000 0.500000
#
# Coordination Sequence:
#
# PCOD8028910 Si02
#       8
#     2   2   2   2   2   2   2   2
#     4  11  19  38  64  93 129 159 209 268 310 371
#     4  11  24  45  64  95 127 161 218 268 300 377
#     4  11  25  41  67  91 119 172 218 263 309 355
#     4  11  22  39  63 100 132 163 196 257 329 384
#     4  11  20  36  64  95 125 159 214 262 309 369
#     4  11  25  37  60  93 135 171 198 248 324 388
#     4  11  19  32  57  92 128 163 200 256 319 367
#     4  11  21  36  55  92 133 170 196 237 316 389
#
# _framework density 24.052257999999998
#
# number of rings (size 3 to 8) (size 9 to 14) (size 15 to 20)
#    0.000    1.000    5.000    3.375    3.500    1.000 
#    0.000    0.000    0.000    7.500    0.000    0.000 
#    0.000    0.000    0.000    0.000    0.000    0.000 
#
# Total GULP energy -198229.656047 kJ/mol
# GULP energy per Si atom -12389.353503 kJ/mol
# Density = 2.399751 g / cm^3
# Si number density = 24.052258 Si / 1000 Ang^3
#
#
#
# Elastic Constant Matrix: (Units=GPa)
#
#
# Indices 1 2 3 4 5 6 
#
# 1 58.3164 26.4929 20.8450 -2.3746 2.0951 -8.2605
# 2 26.4929 78.4447 6.7125 8.8790 0.7160 13.5065
# 3 20.8450 6.7125 155.5330 19.7635 -0.1005 2.6750
# 4 -2.3746 8.8790 19.7635 39.3239 -5.6503 -4.0085
# 5 2.0951 0.7160 -0.1005 -5.6503 27.1905 0.3573
# 6 -8.2605 13.5065 2.6750 -4.0085 0.3573 23.2982
#
#
#
# Elastic Compliance Matrix: (Units=1/GPa)
#
#
# Indices 1 2 3 4 5 6 
#
# 1 0.028228 -0.013612 -0.004703 0.009154 -0.000195 0.020018
# 2 -0.013612 0.021447 0.002364 -0.008955 -0.001118 -0.019055
# 3 -0.004703 0.002364 0.007712 -0.005287 -0.000707 -0.004822
# 4 0.009154 -0.008955 -0.005287 0.033042 0.006185 0.014635
# 5 -0.000195 -0.001118 -0.000707 0.006185 0.038090 0.001140
# 6 0.020018 -0.019055 -0.004822 0.014635 0.001140 0.064120
#
#
# Mechanical properties :
#
#
# Convention : Reuss Voigt Hill
#
# Bulk Modulus (GPa) = 39.23991 44.48832 41.86411
# Shear Modulus (GPa) = 21.45581 33.84543 27.65062
#
# Velocity S-wave (km/s) = 2.98996 3.75529 3.39426
# Velocity P-wave (km/s) = 5.31692 6.11061 5.72753
#
# Compressibility (1/GPa) = 0.02548426
#
# Stress axis : x y z
#
# Youngs Moduli (GPa) = 35.42568 46.62577 129.66604
#
# Poissons Ratio (x) = 0.63467 0.60987
# Poissons Ratio (y) = 0.48221 -0.30648
# Poissons Ratio (z) = 0.16662 -0.11021
#
# Static dielectric constant tensor:
#      x y z
#    x 3.823750 0.015400 -0.155020 
#    y 0.015400 4.664030 0.062680 
#    z -0.155020 0.062680 4.750790 
# 
# 
# High freq. dielectric constant tensor:
#      x y z
#    x 1.899850 -0.010350 -0.007790 
#    y -0.010350 1.942240 0.001360 
#    z -0.007790 0.001360 1.997620 
# 
# From -- ./inp_files/457035.got.cif
#   From: 2010.06.25/outbox.cif.g09.slc.cpg/sg2_229_cif.got.tgz:457035.got - 2010.06.27 13:26:56.
