data_PCOD8028230
_publ_section_title
;
Structure prediction by ZEFSAII (Michael W. Deem and Ramdas Pophale) SiO2 
 PCOD8028230
Probable space group: P -1
;
_chemical_formula_sum "Si O2"
_cell_formula_units_Z 12
_cell_length_a 12.570694
_cell_length_b 9.978494
_cell_length_c 8.309790
_cell_angle_alpha 76.804585
_cell_angle_beta 56.271468
_cell_angle_gamma 39.407198
_cell_volume 508.998542
_symmetry_space_group_name_H-M "P -1"
_symmetry_group_IT_number 2
_symmetry_cell_setting 'triclinic'
loop_
_space_group_symop_operation_xyz
x,y,z
-x,-y,-z
loop_
_atom_site_type_symbol
_atom_site_label
_atom_site_fract_x
_atom_site_fract_y
_atom_site_fract_z
Si Si1 0.938506 0.919773 0.475625
Si Si2 0.811105 0.226850 0.996678
Si Si3 0.439192 0.823187 0.882231
Si Si4 0.895903 0.495784 0.453709
Si Si5 0.528026 0.708892 0.206180
Si Si6 0.312830 0.189614 0.729047
O O1 0.694559 0.141037 0.564049
O O2 0.000000 0.000000 0.500000
O O3 0.089701 0.773523 0.234803
O O4 0.966551 0.761309 0.608665
O O5 0.652324 0.248309 0.057401
O O6 0.680197 0.445611 0.155368
O O7 0.000000 0.000000 0.000000
O O8 0.657371 0.656435 0.650387
O O9 0.271796 0.083618 0.891369
O O10 0.481290 0.802387 0.040982
O O11 0.893033 0.584058 0.263318
O O12 0.000000 0.500000 0.500000
O O13 0.632483 0.740029 0.209540
O O14 0.500000 0.000000 0.500000
#
# Coordination Sequence:
#
# PCOD8028230 Si02
#       6
#     2   2   2   2   2   2
#     4  12  25  46  75 106 147 191 244 294 372 426
#     4  12  29  47  74 112 148 191 245 301 360 445
#     4  11  23  49  72 106 153 187 244 303 359 432
#     4  11  25  46  74 105 148 190 243 305 359 429
#     4  12  25  48  77 106 148 196 239 307 363 429
#     4  10  25  44  74 107 144 193 245 300 358 430
#
# _framework density 23.575707000000001
#
# number of rings (size 3 to 8) (size 9 to 14) (size 15 to 20)
#    0.000    0.667    3.333    4.000    9.333    0.667 
#    0.000    2.500    0.000    0.000    0.000    0.000 
#    0.000    0.000    0.000    0.000    0.000    0.000 
#
# Total GULP energy -148835.725068 kJ/mol
# GULP energy per Si atom -12402.977089 kJ/mol
# Density = 2.352205 g / cm^3
# Si number density = 23.575707 Si / 1000 Ang^3
#
#
#
# Elastic Constant Matrix: (Units=GPa)
#
#
# Indices 1 2 3 4 5 6 
#
# 1 100.1373 58.7510 24.8675 0.1265 26.9345 12.2587
# 2 58.7510 194.1690 34.8597 -3.0865 9.5043 12.7946
# 3 24.8675 34.8597 59.6660 7.3484 -4.9006 4.1951
# 4 0.1265 -3.0865 7.3484 40.1225 -6.3604 6.3203
# 5 26.9345 9.5043 -4.9006 -6.3604 37.0875 3.7589
# 6 12.2587 12.7946 4.1951 6.3203 3.7589 45.0413
#
#
#
# Elastic Compliance Matrix: (Units=1/GPa)
#
#
# Indices 1 2 3 4 5 6 
#
# 1 0.016916 -0.003359 -0.005841 -0.000856 -0.012143 -0.001972
# 2 -0.003359 0.006669 -0.002523 0.001253 0.000711 -0.000980
# 3 -0.005841 -0.002523 0.021624 -0.003010 0.007219 0.000112
# 4 -0.000856 0.001253 -0.003010 0.026994 0.004942 -0.004043
# 5 -0.012143 0.000711 0.007219 0.004942 0.037543 -0.001396
# 6 -0.001972 -0.000980 0.000112 -0.004043 -0.001396 0.023690
#
#
# Mechanical properties :
#
#
# Convention : Reuss Voigt Hill
#
# Bulk Modulus (GPa) = 45.95012 65.65873 55.80442
# Shear Modulus (GPa) = 30.46191 40.14987 35.30589
#
# Velocity S-wave (km/s) = 3.59846 4.13124 3.87402
# Velocity P-wave (km/s) = 6.06614 7.11806 6.61305
#
# Compressibility (1/GPa) = 0.02176273
#
# Stress axis : x y z
#
# Youngs Moduli (GPa) = 59.11415 149.94087 46.24408
#
# Poissons Ratio (x) = 0.50367 0.27012
# Poissons Ratio (y) = 0.19857 0.11670
# Poissons Ratio (z) = 0.34529 0.37837
#
# Static dielectric constant tensor:
#      x y z
#    x 4.154130 -0.052950 -0.097560 
#    y -0.052950 4.934310 -0.231200 
#    z -0.097560 -0.231200 4.510110 
# 
# 
# High freq. dielectric constant tensor:
#      x y z
#    x 1.937850 0.002150 0.000950 
#    y 0.002150 1.957920 -0.000320 
#    z 0.000950 -0.000320 1.930110 
# 
# From -- ./inp_files/147184.got.cif
#   From: 2010.06.25/outbox.cif.g09.slc.cpg/sg2_74_cif.got.tgz:147184.got - 2010.06.27 13:26:56.
