data_PCOD8028456
_publ_section_title
;
Structure prediction by ZEFSAII (Michael W. Deem and Ramdas Pophale) SiO2 
 PCOD8028456
Probable space group: P -1
;
_chemical_formula_sum "Si O2"
_cell_formula_units_Z 16
_cell_length_a 14.541685
_cell_length_b 11.959368
_cell_length_c 5.008087
_cell_angle_alpha 111.346042
_cell_angle_beta 61.913231
_cell_angle_gamma 115.027278
_cell_volume 681.279332
_symmetry_space_group_name_H-M "P -1"
_symmetry_group_IT_number 2
_symmetry_cell_setting 'triclinic'
loop_
_space_group_symop_operation_xyz
x,y,z
-x,-y,-z
loop_
_atom_site_type_symbol
_atom_site_label
_atom_site_fract_x
_atom_site_fract_y
_atom_site_fract_z
Si Si1 0.223992 0.672952 0.623254
Si Si2 0.938665 0.580331 0.322221
Si Si3 0.855695 0.228828 0.664101
Si Si4 0.737585 0.957077 0.631735
Si Si5 0.552280 0.335527 0.732164
Si Si6 0.633410 0.578413 0.127848
Si Si7 0.764953 0.697660 0.538908
Si Si8 0.591424 0.931931 0.287151
O O1 0.161283 0.527141 0.495849
O O2 0.232426 0.753988 0.412654
O O3 0.346347 0.692126 0.582857
O O4 0.161116 0.726727 0.977775
O O5 0.881355 0.670508 0.320121
O O6 0.022589 0.676987 0.497206
O O7 0.000000 0.500000 0.000000
O O8 0.843627 0.079753 0.542497
O O9 0.780711 0.841064 0.552740
O O10 0.655281 0.924372 0.466143
O O11 0.675631 0.999018 0.000022
O O12 0.609987 0.430945 0.972349
O O13 0.469009 0.209089 0.857781
O O14 0.484515 0.397418 0.681632
O O15 0.716329 0.670569 0.881334
O O16 0.680448 0.600557 0.378182
O O17 0.500000 0.000000 0.500000
#
# Coordination Sequence:
#
# PCOD8028456 Si02
#       8
#     2   2   2   2   2   2   2   2
#     4  11  24  42  70 100 136 170 226 281 334 399
#     4  10  25  46  72 100 133 173 227 290 346 390
#     4  11  25  44  68  99 129 181 227 278 335 394
#     4  12  24  45  66  95 140 178 228 272 326 404
#     4  11  23  42  67  99 134 180 214 268 336 402
#     4  11  26  40  67  99 137 176 221 271 337 407
#     4  12  24  47  66  99 139 177 222 287 330 398
#     4  12  25  43  65 100 138 182 222 269 325 400
#
# _framework density 23.485227999999999
#
# number of rings (size 3 to 8) (size 9 to 14) (size 15 to 20)
#    0.000    0.750    3.750    3.000    3.500    7.500 
#    0.000    0.000    0.000    6.750    0.000    0.000 
#    0.000    0.000    0.000    0.000    0.000    0.000 
#
# Total GULP energy -198333.570759 kJ/mol
# GULP energy per Si atom -12395.848172 kJ/mol
# Density = 2.343177 g / cm^3
# Si number density = 23.485228 Si / 1000 Ang^3
#
#
#
# Elastic Constant Matrix: (Units=GPa)
#
#
# Indices 1 2 3 4 5 6 
#
# 1 117.8398 32.6789 38.6425 8.4019 -15.1379 -12.7634
# 2 32.6789 136.3871 16.9744 14.6183 -3.2344 -2.8025
# 3 38.6425 16.9744 62.9735 3.8749 2.7855 -9.1325
# 4 8.4019 14.6183 3.8749 31.3658 -4.1159 -5.1878
# 5 -15.1379 -3.2344 2.7855 -4.1159 34.4978 1.5707
# 6 -12.7634 -2.8025 -9.1325 -5.1878 1.5707 34.8541
#
#
#
# Elastic Compliance Matrix: (Units=1/GPa)
#
#
# Indices 1 2 3 4 5 6 
#
# 1 0.012263 -0.001848 -0.006926 -0.000467 0.005611 0.002205
# 2 -0.001848 0.008236 -0.000973 -0.003392 -0.000330 -0.000759
# 3 -0.006926 -0.000973 0.021087 -0.000448 -0.005027 0.003070
# 4 -0.000467 -0.003392 -0.000448 0.034837 0.003466 0.004468
# 5 0.005611 -0.000330 -0.005027 0.003466 0.032248 -0.000226
# 6 0.002205 -0.000759 0.003070 0.004468 -0.000226 0.030917
#
#
# Mechanical properties :
#
#
# Convention : Reuss Voigt Hill
#
# Bulk Modulus (GPa) = 45.26544 54.86577 50.06561
# Shear Modulus (GPa) = 30.03960 35.40385 32.72172
#
# Velocity S-wave (km/s) = 3.58031 3.88686 3.73673
# Velocity P-wave (km/s) = 6.03385 6.59970 6.32311
#
# Compressibility (1/GPa) = 0.02209191
#
# Stress axis : x y z
#
# Youngs Moduli (GPa) = 81.54786 121.41751 47.42156
#
# Poissons Ratio (x) = 0.22435 0.32846
# Poissons Ratio (y) = 0.15068 0.04614
# Poissons Ratio (z) = 0.56484 0.11814
#
# Static dielectric constant tensor:
#      x y z
#    x 4.353310 0.154480 -0.229270 
#    y 0.154480 4.599520 0.103650 
#    z -0.229270 0.103650 3.970830 
# 
# 
# High freq. dielectric constant tensor:
#      x y z
#    x 1.931450 0.002870 -0.005790 
#    y 0.002870 1.947170 0.009020 
#    z -0.005790 0.009020 1.905120 
# 
# From -- ./inp_files/95242.got.cif
#   From: 2010.06.25/outbox.cif.g09.slc.cpg/sg2_48_cif.got.tgz:95242.got - 2010.06.27 13:26:56.
