data_PCOD8028691
_publ_section_title
;
Structure prediction by ZEFSAII (Michael W. Deem and Ramdas Pophale) SiO2 
 PCOD8028691
Probable space group: P -1
;
_chemical_formula_sum "Si O2"
_cell_formula_units_Z 16
_cell_length_a 14.108205
_cell_length_b 10.814949
_cell_length_c 15.440718
_cell_angle_alpha 123.104144
_cell_angle_beta 142.626657
_cell_angle_gamma 31.684165
_cell_volume 685.751527
_symmetry_space_group_name_H-M "P -1"
_symmetry_group_IT_number 2
_symmetry_cell_setting 'triclinic'
loop_
_space_group_symop_operation_xyz
x,y,z
-x,-y,-z
loop_
_atom_site_type_symbol
_atom_site_label
_atom_site_fract_x
_atom_site_fract_y
_atom_site_fract_z
Si Si1 0.837808 0.992228 0.701681
Si Si2 0.971253 0.751285 0.390840
Si Si3 0.363241 0.385057 0.380892
Si Si4 0.568124 0.640529 0.767894
Si Si5 0.952603 0.661622 0.899001
Si Si6 0.312047 0.835254 0.039548
Si Si7 0.831173 0.526314 0.202602
Si Si8 0.478738 0.427574 0.733446
O O1 0.665050 0.147203 0.548467
O O2 0.637186 0.166901 0.705191
O O3 0.949872 0.738696 0.685813
O O4 0.083146 0.919142 0.856387
O O5 0.874337 0.663081 0.309157
O O6 0.145015 0.627091 0.380169
O O7 0.155430 0.662623 0.571205
O O8 0.715220 0.055683 0.310907
O O9 0.389627 0.453499 0.335552
O O10 0.275316 0.287536 0.253702
O O11 0.588184 0.489513 0.790664
O O12 0.825249 0.545746 0.943354
O O13 0.131796 0.533154 0.893737
O O14 0.806904 0.929206 0.911192
O O15 0.525708 0.716462 0.076543
O O16 0.457698 0.620555 0.136554
#
# Coordination Sequence:
#
# PCOD8028691 Si02
#       8
#     2   2   2   2   2   2   2   2
#     4  11  23  45  67 106 140 174 228 284 346 399
#     4  10  26  45  67 107 137 180 229 282 341 404
#     4  10  26  44  71 103 136 185 225 282 341 405
#     4  12  24  47  69  99 143 184 229 272 342 414
#     4  11  24  46  73 100 139 179 230 285 335 409
#     4  12  24  45  72 104 136 181 229 281 349 399
#     4  11  25  43  71 104 136 179 227 290 340 401
#     4  11  24  44  72  99 140 182 226 284 335 412
#
# _framework density 23.332066000000001
#
# number of rings (size 3 to 8) (size 9 to 14) (size 15 to 20)
#    0.000    1.000    2.500    3.000    3.500    7.000 
#    4.500    0.000    0.000    0.000    0.000    0.000 
#    0.000    0.000    0.000    0.000    0.000    0.000 
#
# Total GULP energy -198446.775026 kJ/mol
# GULP energy per Si atom -12402.923439 kJ/mol
# Density = 2.327896 g / cm^3
# Si number density = 23.332066 Si / 1000 Ang^3
#
#
#
# Elastic Constant Matrix: (Units=GPa)
#
#
# Indices 1 2 3 4 5 6 
#
# 1 77.3311 20.4601 30.7967 -5.1306 2.5764 -9.6371
# 2 20.4601 84.2308 33.9106 -18.3683 0.9699 -1.0269
# 3 30.7967 33.9106 169.2340 -12.2327 -4.4943 -4.7110
# 4 -5.1306 -18.3683 -12.2327 26.5589 -3.2718 -4.6820
# 5 2.5764 0.9699 -4.4943 -3.2718 22.5240 0.6451
# 6 -9.6371 -1.0269 -4.7110 -4.6820 0.6451 17.2851
#
#
#
# Elastic Compliance Matrix: (Units=1/GPa)
#
#
# Indices 1 2 3 4 5 6 
#
# 1 0.015648 -0.002500 -0.002050 0.001594 -0.002104 0.008527
# 2 -0.002500 0.015341 -0.001863 0.009624 0.000606 0.001594
# 3 -0.002050 -0.001863 0.006874 0.001908 0.001933 0.001065
# 4 0.001594 0.009624 0.001908 0.048934 0.006463 0.014994
# 5 -0.002104 0.000606 0.001933 0.006463 0.045952 -0.000575
# 6 0.008527 0.001594 0.001065 0.014994 -0.000575 0.067075
#
#
# Mechanical properties :
#
#
# Convention : Reuss Voigt Hill
#
# Bulk Modulus (GPa) = 39.94061 55.68120 47.81090
# Shear Modulus (GPa) = 22.62492 29.64885 26.13689
#
# Velocity S-wave (km/s) = 3.11737 3.56860 3.35059
# Velocity P-wave (km/s) = 5.48751 6.39503 5.95857
#
# Compressibility (1/GPa) = 0.02503717
#
# Stress axis : x y z
#
# Youngs Moduli (GPa) = 63.90728 65.18643 145.47297
#
# Poissons Ratio (x) = 0.16296 0.29821
# Poissons Ratio (y) = 0.15976 0.27099
# Poissons Ratio (z) = 0.13100 0.12143
#
# Static dielectric constant tensor:
#      x y z
#    x 4.200100 -0.019770 0.025320 
#    y -0.019770 4.275040 -0.016570 
#    z 0.025320 -0.016570 4.411340 
# 
# 
# High freq. dielectric constant tensor:
#      x y z
#    x 1.921940 -0.003540 0.005300 
#    y -0.003540 1.924280 -0.002800 
#    z 0.005300 -0.002800 1.938970 
# 
# From -- ./inp_files/532614.got.cif
#   From: 2010.06.25/outbox.cif.g09.slc.cpg/sg2_267_cif.got.tgz:532614.got - 2010.06.27 13:26:56.
