data_PCOD8028390
_publ_section_title
;
Structure prediction by ZEFSAII (Michael W. Deem and Ramdas Pophale) SiO2 
 PCOD8028390
Probable space group: P -1
;
_chemical_formula_sum "Si O2"
_cell_formula_units_Z 14
_cell_length_a 8.983217
_cell_length_b 10.005154
_cell_length_c 20.596066
_cell_angle_alpha 50.056524
_cell_angle_beta 149.670112
_cell_angle_gamma 133.897464
_cell_volume 668.745761
_symmetry_space_group_name_H-M "P -1"
_symmetry_group_IT_number 2
_symmetry_cell_setting 'triclinic'
loop_
_space_group_symop_operation_xyz
x,y,z
-x,-y,-z
loop_
_atom_site_type_symbol
_atom_site_label
_atom_site_fract_x
_atom_site_fract_y
_atom_site_fract_z
Si Si1 0.338374 0.601012 0.454887
Si Si2 0.387158 0.071879 0.998964
Si Si3 0.684480 0.062902 0.734637
Si Si4 0.601931 0.362431 0.260271
Si Si5 0.692984 0.487882 0.013499
Si Si6 0.649702 0.495965 0.372674
Si Si7 0.366326 0.783967 0.192412
O O1 0.500000 0.500000 0.500000
O O2 0.398808 0.809957 0.389534
O O3 0.497319 0.614383 0.581836
O O4 0.967703 0.482158 0.352795
O O5 0.367593 0.933723 0.093207
O O6 0.644058 0.273670 0.048663
O O7 0.048277 0.087422 0.856223
O O8 0.500000 0.000000 0.000000
O O9 0.610440 0.119846 0.759865
O O10 0.450713 0.853991 0.698941
O O11 0.403917 0.419558 0.113670
O O12 0.470919 0.396077 0.271089
O O13 0.500000 0.500000 0.000000
O O14 0.057889 0.597495 0.130632
O O15 0.651915 0.708230 0.311995
O O16 0.000000 0.500000 0.500000
#
# Coordination Sequence:
#
# PCOD8028390 Si02
#       7
#     2   2   2   2   2   2   2
#     4  11  23  47  70  94 133 179 229 271 327 401
#     4  12  26  40  65 104 137 172 220 279 338 398
#     4  12  24  44  69 100 133 175 226 277 330 402
#     4  11  24  43  68  98 136 172 222 281 338 388
#     4  12  23  42  71 100 137 179 221 275 342 402
#     4  10  25  46  67  94 137 179 217 278 332 392
#     4  12  24  45  70  99 137 177 223 275 338 404
#
# _framework density 20.934709999999999
#
# number of rings (size 3 to 8) (size 9 to 14) (size 15 to 20)
#    0.000    0.571    5.714    2.143    4.000    2.286 
#    0.000    0.000    0.000    0.000    0.000    0.000 
#    0.000    0.000    0.000    0.000    0.000    0.000 
#
# Total GULP energy -173638.382974 kJ/mol
# GULP energy per Si atom -12402.741641 kJ/mol
# Density = 2.088706 g / cm^3
# Si number density = 20.934710 Si / 1000 Ang^3
#
#
#
# Elastic Constant Matrix: (Units=GPa)
#
#
# Indices 1 2 3 4 5 6 
#
# 1 145.3355 50.6881 38.3877 -15.3593 -25.0740 -32.7378
# 2 50.6881 142.7508 9.6120 -21.9909 -7.7363 -11.2892
# 3 38.3877 9.6120 70.4228 -31.7044 -14.2244 -9.5834
# 4 -15.3593 -21.9909 -31.7044 38.8645 -0.1717 -2.0618
# 5 -25.0740 -7.7363 -14.2244 -0.1717 46.2064 -3.7223
# 6 -32.7378 -11.2892 -9.5834 -2.0618 -3.7223 45.1947
#
#
#
# Elastic Compliance Matrix: (Units=1/GPa)
#
#
# Indices 1 2 3 4 5 6 
#
# 1 0.011405 -0.002915 -0.003687 0.000254 0.005145 0.007186
# 2 -0.002915 0.009113 0.004229 0.007542 0.001397 0.001521
# 3 -0.003687 0.004229 0.029771 0.025608 0.008496 0.006566
# 4 0.000254 0.007542 0.025608 0.051602 0.010338 0.010703
# 5 0.005145 0.001397 0.008496 0.010338 0.028019 0.008657
# 6 0.007186 0.001521 0.006566 0.010703 0.008657 0.030306
#
#
# Mechanical properties :
#
#
# Convention : Reuss Voigt Hill
#
# Bulk Modulus (GPa) = 21.95718 61.76497 41.86107
# Shear Modulus (GPa) = 27.75576 43.37455 35.56515
#
# Velocity S-wave (km/s) = 3.64514 4.55675 4.12620
# Velocity P-wave (km/s) = 5.31293 7.56657 6.53759
#
# Compressibility (1/GPa) = 0.04554318
#
# Stress axis : x y z
#
# Youngs Moduli (GPa) = 87.68434 109.73053 33.58948
#
# Poissons Ratio (x) = 0.31986 0.12385
# Poissons Ratio (y) = 0.25560 -0.14206
# Poissons Ratio (z) = 0.32332 -0.46409
#
# Static dielectric constant tensor:
#      x y z
#    x 5.053220 -0.085740 -0.391140 
#    y -0.085740 3.991030 -0.095040 
#    z -0.391140 -0.095040 4.398330 
# 
# 
# High freq. dielectric constant tensor:
#      x y z
#    x 1.842590 -0.010280 -0.009870 
#    y -0.010280 1.820500 -0.016700 
#    z -0.009870 -0.016700 1.827870 
# 
# From -- ./inp_files/178611.got.cif
#   From: 2010.06.25/outbox.cif.g09.slc.cpg/sg2_90_cif.got.tgz:178611.got - 2010.06.27 13:26:56.
