data_PCOD8028399
_publ_section_title
;
Structure prediction by ZEFSAII (Michael W. Deem and Ramdas Pophale) SiO2 
 PCOD8028399
Probable space group: P -1
;
_chemical_formula_sum "Si O2"
_cell_formula_units_Z 16
_cell_length_a 26.199789
_cell_length_b 15.746177
_cell_length_c 8.927872
_cell_angle_alpha 146.702325
_cell_angle_beta 130.034638
_cell_angle_gamma 25.368822
_cell_volume 761.843618
_symmetry_space_group_name_H-M "P -1"
_symmetry_group_IT_number 2
_symmetry_cell_setting 'triclinic'
loop_
_space_group_symop_operation_xyz
x,y,z
-x,-y,-z
loop_
_atom_site_type_symbol
_atom_site_label
_atom_site_fract_x
_atom_site_fract_y
_atom_site_fract_z
Si Si1 0.895769 0.315329 0.357823
Si Si2 0.864468 0.338397 0.675834
Si Si3 0.277318 0.593156 0.279483
Si Si4 0.759663 0.878156 0.366340
Si Si5 0.379627 0.826815 0.172609
Si Si6 0.529902 0.532784 0.455560
Si Si7 0.369961 0.182731 0.592278
Si Si8 0.921834 0.790075 0.362552
O O1 0.870337 0.303557 0.458526
O O2 0.747581 0.622545 0.459608
O O3 0.964870 0.344230 0.530571
O O4 0.000000 0.000000 0.000000
O O5 0.748597 0.461584 0.705531
O O6 0.848880 0.549974 0.004554
O O7 0.000000 0.000000 0.500000
O O8 0.407270 0.431282 0.326710
O O9 0.151562 0.954236 0.522783
O O10 0.305801 0.424495 0.947493
O O11 0.815341 0.926709 0.476479
O O12 0.753858 0.911139 0.585780
O O13 0.609079 0.151565 0.425680
O O14 0.422674 0.917601 0.371225
O O15 0.500000 0.500000 0.000000
O O16 0.363608 0.776833 0.905998
O O17 0.500000 0.500000 0.500000
O O18 0.500000 0.000000 0.500000
O O19 0.000000 0.500000 0.000000
#
# Coordination Sequence:
#
# PCOD8028399 Si02
#       8
#     2   2   2   2   2   2   2   2
#     4  12  27  46  73 106 144 189 243 291 358 429
#     4  12  24  46  70 102 143 182 237 297 351 419
#     4  12  25  45  71 103 142 187 236 297 357 420
#     4  11  24  45  73  98 145 185 231 296 354 421
#     4  10  25  46  68 103 145 181 234 293 350 424
#     4  11  24  42  72 105 138 181 237 286 356 425
#     4  12  27  46  74 103 147 189 237 292 358 423
#     4  12  24  44  72  98 137 189 238 283 358 421
#
# _framework density 21.001685999999999
#
# number of rings (size 3 to 8) (size 9 to 14) (size 15 to 20)
#    0.000    0.500    6.250    0.750    7.000    3.500 
#    0.000    0.625    0.000    0.000    0.000    0.000 
#    0.000    0.000    0.000    0.000    0.000    0.000 
#
# Total GULP energy -198397.183701 kJ/mol
# GULP energy per Si atom -12399.823981 kJ/mol
# Density = 2.095388 g / cm^3
# Si number density = 21.001686 Si / 1000 Ang^3
#
#
#
# Elastic Constant Matrix: (Units=GPa)
#
#
# Indices 1 2 3 4 5 6 
#
# 1 166.9928 49.2404 51.2314 -14.1663 -1.4542 0.7746
# 2 49.2404 119.6369 49.6525 -8.8379 3.8014 -16.5005
# 3 51.2314 49.6525 144.2731 -5.8573 -1.9137 16.0431
# 4 -14.1663 -8.8379 -5.8573 37.7058 3.4385 3.5699
# 5 -1.4542 3.8014 -1.9137 3.4385 45.4511 -9.2138
# 6 0.7746 -16.5005 16.0431 3.5699 -9.2138 37.8202
#
#
#
# Elastic Compliance Matrix: (Units=1/GPa)
#
#
# Indices 1 2 3 4 5 6 
#
# 1 0.007345 -0.002261 -0.001681 0.002018 0.000080 -0.000595
# 2 -0.002261 0.011983 -0.004068 0.000657 0.000117 0.006966
# 3 -0.001681 -0.004068 0.009610 0.000528 -0.000566 -0.006004
# 4 0.002018 0.000657 0.000528 0.028080 -0.002762 -0.003302
# 5 0.000080 0.000117 -0.000566 -0.002762 0.023449 0.006263
# 6 -0.000595 0.006966 -0.006004 -0.003302 0.006263 0.033877
#
#
# Mechanical properties :
#
#
# Convention : Reuss Voigt Hill
#
# Bulk Modulus (GPa) = 77.40690 81.23905 79.32298
# Shear Modulus (GPa) = 37.12805 42.91400 40.02103
#
# Velocity S-wave (km/s) = 4.20915 4.52526 4.37007
# Velocity P-wave (km/s) = 7.78204 8.12835 7.95708
#
# Compressibility (1/GPa) = 0.01291874
#
# Stress axis : x y z
#
# Youngs Moduli (GPa) = 136.14097 83.45160 104.06146
#
# Poissons Ratio (x) = 0.18869 0.17493
# Poissons Ratio (y) = 0.30782 0.42327
# Poissons Ratio (z) = 0.22886 0.33944
#
# Static dielectric constant tensor:
#      x y z
#    x 4.973500 0.318070 0.043660 
#    y 0.318070 3.775850 -0.110600 
#    z 0.043660 -0.110600 4.282280 
# 
# 
# High freq. dielectric constant tensor:
#      x y z
#    x 1.843950 0.002180 -0.003180 
#    y 0.002180 1.810030 0.001520 
#    z -0.003180 0.001520 1.843570 
# 
# From -- ./inp_files/343439.got.cif
#   From: 2010.06.25/outbox.cif.g09.slc.cpg/sg2_172_cif.got.tgz:343439.got - 2010.06.27 13:26:56.
