data_PCOD8028634
_publ_section_title
;
Structure prediction by ZEFSAII (Michael W. Deem and Ramdas Pophale) SiO2 
 PCOD8028634
Probable space group: P -1
;
_chemical_formula_sum "Si O2"
_cell_formula_units_Z 16
_cell_length_a 22.072720
_cell_length_b 5.147960
_cell_length_c 9.666559
_cell_angle_alpha 98.436456
_cell_angle_beta 58.515862
_cell_angle_gamma 132.488475
_cell_volume 652.608115
_symmetry_space_group_name_H-M "P -1"
_symmetry_group_IT_number 2
_symmetry_cell_setting 'triclinic'
loop_
_space_group_symop_operation_xyz
x,y,z
-x,-y,-z
loop_
_atom_site_type_symbol
_atom_site_label
_atom_site_fract_x
_atom_site_fract_y
_atom_site_fract_z
Si Si1 0.769780 0.913809 0.245466
Si Si2 0.875092 0.943999 0.874607
Si Si3 0.429392 0.758713 0.695074
Si Si4 0.572293 0.900189 0.767071
Si Si5 0.203817 0.812596 0.195653
Si Si6 0.929274 0.678926 0.448471
Si Si7 0.592994 0.913433 0.036868
Si Si8 0.778088 0.475577 0.412807
O O1 0.660585 0.664209 0.281875
O O2 0.760895 0.706057 0.374978
O O3 0.805499 0.301092 0.267374
O O4 0.852340 0.987544 0.058124
O O5 0.843949 0.558292 0.860908
O O6 0.812893 0.956578 0.842064
O O7 0.995933 0.298593 0.734769
O O8 0.494498 0.835214 0.752971
O O9 0.500000 0.000000 0.500000
O O10 0.373948 0.861946 0.840041
O O11 0.521157 0.487476 0.833903
O O12 0.676434 0.126135 0.583900
O O13 0.590979 0.086168 0.910722
O O14 0.153590 0.709622 0.399988
O O15 0.323971 0.095393 0.088576
O O16 0.870325 0.741189 0.431699
O O17 0.000000 0.000000 0.500000
#
# Coordination Sequence:
#
# PCOD8028634 Si02
#       8
#     2   2   2   2   2   2   2   2
#     4  12  27  44  72 105 145 193 235 295 356 437
#     4  11  24  43  73 103 138 183 238 290 359 426
#     4  12  24  42  69 100 145 194 235 285 357 431
#     4  11  25  44  68 104 145 192 243 299 350 424
#     4  11  22  44  72 105 137 181 239 294 353 427
#     4  10  25  49  76 106 138 188 237 303 367 426
#     4  11  24  43  69 105 140 194 241 299 352 427
#     4  12  27  48  70 107 146 185 242 298 357 425
#
# _framework density 24.517011
#
# number of rings (size 3 to 8) (size 9 to 14) (size 15 to 20)
#    0.000    0.750    3.750    3.000    1.750    6.000 
#    0.000    0.000    0.000    0.000    0.000    0.000 
#    0.000    0.000    0.000    0.000    0.000    0.000 
#
# Total GULP energy -198302.499905 kJ/mol
# GULP energy per Si atom -12393.906244 kJ/mol
# Density = 2.446121 g / cm^3
# Si number density = 24.517011 Si / 1000 Ang^3
#
#
#
# Elastic Constant Matrix: (Units=GPa)
#
#
# Indices 1 2 3 4 5 6 
#
# 1 126.7017 14.9481 21.6955 -7.7035 7.8143 25.2750
# 2 14.9481 46.5642 5.7543 8.8933 -2.3091 12.9975
# 3 21.6955 5.7543 138.2549 -9.8499 -0.1406 15.3461
# 4 -7.7035 8.8933 -9.8499 28.8383 9.7201 -4.7224
# 5 7.8143 -2.3091 -0.1406 9.7201 42.6805 -4.3375
# 6 25.2750 12.9975 15.3461 -4.7224 -4.3375 40.3270
#
#
#
# Elastic Compliance Matrix: (Units=1/GPa)
#
#
# Indices 1 2 3 4 5 6 
#
# 1 0.009686 -0.002443 -0.000626 0.003383 -0.003185 -0.004991
# 2 -0.002443 0.026980 -0.000701 -0.011778 0.003787 -0.007870
# 3 -0.000626 -0.000701 0.007779 0.002597 -0.000704 -0.002113
# 4 0.003383 -0.011778 0.002597 0.044552 -0.010914 0.004731
# 5 -0.003185 0.003787 -0.000704 -0.010914 0.026972 0.002667
# 6 -0.004991 -0.007870 -0.002113 0.004731 0.002667 0.032107
#
#
# Mechanical properties :
#
#
# Convention : Reuss Voigt Hill
#
# Bulk Modulus (GPa) = 27.09685 44.03518 35.56601
# Shear Modulus (GPa) = 29.77617 40.31069 35.04343
#
# Velocity S-wave (km/s) = 3.48876 4.05926 3.78478
# Velocity P-wave (km/s) = 5.22541 6.32220 5.79979
#
# Compressibility (1/GPa) = 0.03690466
#
# Stress axis : x y z
#
# Youngs Moduli (GPa) = 103.24335 37.06382 128.54459
#
# Poissons Ratio (x) = 0.09054 0.08053
# Poissons Ratio (y) = 0.25220 0.09015
# Poissons Ratio (z) = 0.06468 0.02599
#
# Static dielectric constant tensor:
#      x y z
#    x 4.446020 0.296410 0.010100 
#    y 0.296410 4.185230 -0.103080 
#    z 0.010100 -0.103080 5.160700 
# 
# 
# High freq. dielectric constant tensor:
#      x y z
#    x 1.975360 0.018690 0.000850 
#    y 0.018690 1.950550 -0.007210 
#    z 0.000850 -0.007210 2.001260 
# 
# From -- ./inp_files/117051.got.cif
#   From: 2010.06.25/outbox.cif.g09.slc.cpg/sg2_59_cif.got.tgz:117051.got - 2010.06.27 13:26:56.
