data_PCOD8028620
_publ_section_title
;
Structure prediction by ZEFSAII (Michael W. Deem and Ramdas Pophale) SiO2 
 PCOD8028620
Probable space group: P -1
;
_chemical_formula_sum "Si O2"
_cell_formula_units_Z 16
_cell_length_a 15.495960
_cell_length_b 8.445346
_cell_length_c 12.580900
_cell_angle_alpha 76.776690
_cell_angle_beta 27.274875
_cell_angle_gamma 75.028983
_cell_volume 728.888676
_symmetry_space_group_name_H-M "P -1"
_symmetry_group_IT_number 2
_symmetry_cell_setting 'triclinic'
loop_
_space_group_symop_operation_xyz
x,y,z
-x,-y,-z
loop_
_atom_site_type_symbol
_atom_site_label
_atom_site_fract_x
_atom_site_fract_y
_atom_site_fract_z
Si Si1 0.942672 0.663021 0.653556
Si Si2 0.350780 0.028477 0.803697
Si Si3 0.536089 0.270002 0.421627
Si Si4 0.411990 0.878636 0.976462
Si Si5 0.701082 0.450726 0.839244
Si Si6 0.792830 0.447163 0.255982
Si Si7 0.968110 0.185309 0.256719
Si Si8 0.785340 0.941491 0.640585
O O1 0.756098 0.571435 0.853186
O O2 0.938640 0.821284 0.556555
O O3 0.137453 0.550148 0.428538
O O4 0.938089 0.707426 0.774761
O O5 0.488372 0.151374 0.587875
O O6 0.395177 0.845761 0.734977
O O7 0.133179 0.105841 0.008197
O O8 0.379683 0.019671 0.901030
O O9 0.705530 0.372180 0.257351
O O10 0.351354 0.395981 0.571355
O O11 0.315548 0.724815 0.062410
O O12 0.318314 0.928718 0.184145
O O13 0.636665 0.836616 0.761055
O O14 0.500000 0.500000 0.000000
O O15 0.810860 0.305145 0.347275
O O16 0.000000 0.500000 0.000000
O O17 0.880472 0.036880 0.430179
#
# Coordination Sequence:
#
# PCOD8028620 Si02
#       8
#     2   2   2   2   2   2   2   2
#     4  11  23  41  65  92 135 180 221 269 318 396
#     4  11  23  44  71 102 132 174 225 287 334 396
#     4  10  25  49  71  98 137 168 227 291 339 403
#     4  11  22  40  67  97 136 181 219 269 329 392
#     4  11  23  41  60  92 138 179 217 267 324 382
#     4  11  24  48  73  98 132 178 222 281 351 403
#     4  12  23  41  72 102 134 176 232 273 338 405
#     4  11  22  41  66  96 138 182 223 265 320 405
#
# _framework density 21.951225000000001
#
# number of rings (size 3 to 8) (size 9 to 14) (size 15 to 20)
#    0.000    1.000    5.000    1.875    0.000    2.500 
#    4.500    0.000    0.000    0.000    0.000    0.000 
#    0.000    0.000    0.000    0.000    0.000    0.000 
#
# Total GULP energy -198398.784546 kJ/mol
# GULP energy per Si atom -12399.924034 kJ/mol
# Density = 2.190126 g / cm^3
# Si number density = 21.951225 Si / 1000 Ang^3
#
#
#
# Elastic Constant Matrix: (Units=GPa)
#
#
# Indices 1 2 3 4 5 6 
#
# 1 82.6367 35.9223 36.4834 5.7073 -22.3141 -1.8472
# 2 35.9223 98.4571 30.3914 12.3823 -10.6422 3.6516
# 3 36.4834 30.3914 98.3453 5.3500 -16.9708 9.6055
# 4 5.7073 12.3823 5.3500 40.3024 -4.2907 -6.0023
# 5 -22.3141 -10.6422 -16.9708 -4.2907 37.0951 -6.0351
# 6 -1.8472 3.6516 9.6055 -6.0023 -6.0351 42.0911
#
#
#
# Elastic Compliance Matrix: (Units=1/GPa)
#
#
# Indices 1 2 3 4 5 6 
#
# 1 0.018315 -0.004688 -0.004288 0.000830 0.008378 0.003509
# 2 -0.004688 0.012894 -0.002042 -0.003310 -0.000670 -0.001427
# 3 -0.004288 -0.002042 0.013093 -0.000671 0.002297 -0.002765
# 4 0.000830 -0.003310 -0.000671 0.026841 0.003121 0.004752
# 5 0.008378 -0.000670 0.002297 0.003121 0.034068 0.005231
# 6 0.003509 -0.001427 -0.002765 0.004752 0.005231 0.026094
#
#
# Mechanical properties :
#
#
# Convention : Reuss Voigt Hill
#
# Bulk Modulus (GPa) = 44.90894 53.89258 49.40076
# Shear Modulus (GPa) = 31.10160 35.67387 33.38773
#
# Velocity S-wave (km/s) = 3.76819 4.03568 3.90423
# Velocity P-wave (km/s) = 6.27975 6.80588 6.54810
#
# Compressibility (1/GPa) = 0.02226728
#
# Stress axis : x y z
#
# Youngs Moduli (GPa) = 54.59899 77.55457 76.37698
#
# Poissons Ratio (x) = 0.36356 0.32751
# Poissons Ratio (y) = 0.25595 0.15594
# Poissons Ratio (z) = 0.23412 0.15835
#
# Static dielectric constant tensor:
#      x y z
#    x 3.895740 0.052270 -0.275350 
#    y 0.052270 4.235640 -0.033030 
#    z -0.275350 -0.033030 3.907960 
# 
# 
# High freq. dielectric constant tensor:
#      x y z
#    x 1.851360 -0.001740 -0.019890 
#    y -0.001740 1.875900 -0.002610 
#    z -0.019890 -0.002610 1.861090 
# 
# From -- ./inp_files/447032.got.cif
#   From: 2010.06.25/outbox.cif.g09.slc.cpg/sg2_224_cif.got.tgz:447032.got - 2010.06.27 13:26:56.
