data_PCOD8028354
_publ_section_title
;
Structure prediction by ZEFSAII (Michael W. Deem and Ramdas Pophale) SiO2 
 PCOD8028354
Probable space group: P -1
;
_chemical_formula_sum "Si O2"
_cell_formula_units_Z 16
_cell_length_a 18.416652
_cell_length_b 10.228965
_cell_length_c 5.094404
_cell_angle_alpha 88.530060
_cell_angle_beta 103.558604
_cell_angle_gamma 138.267605
_cell_volume 604.267771
_symmetry_space_group_name_H-M "P -1"
_symmetry_group_IT_number 2
_symmetry_cell_setting 'triclinic'
loop_
_space_group_symop_operation_xyz
x,y,z
-x,-y,-z
loop_
_atom_site_type_symbol
_atom_site_label
_atom_site_fract_x
_atom_site_fract_y
_atom_site_fract_z
Si Si1 0.719755 0.303634 0.500856
Si Si2 0.680140 0.683412 0.021007
Si Si3 0.994520 0.143381 0.912322
Si Si4 0.498934 0.635646 0.731182
Si Si5 0.242714 0.491615 0.964934
Si Si6 0.598773 0.891171 0.319988
Si Si7 0.972868 0.567783 0.742951
Si Si8 0.168857 0.932619 0.581079
O O1 0.702749 0.398170 0.273932
O O2 0.839747 0.384123 0.553383
O O3 0.614250 0.065851 0.367719
O O4 0.710421 0.347989 0.782149
O O5 0.627722 0.579775 0.273232
O O6 0.725812 0.614379 0.923315
O O7 0.784993 0.926238 0.131766
O O8 0.578000 0.610357 0.763251
O O9 0.105986 0.323460 0.819888
O O10 0.880602 0.023842 0.657898
O O11 0.002552 0.249072 0.163023
O O12 0.000000 0.000000 0.000000
O O13 0.501581 0.716974 0.455950
O O14 0.554204 0.801001 0.996659
O O15 0.723201 0.991129 0.474201
O O16 0.069446 0.688167 0.580559
O O17 0.000000 0.500000 0.000000
#
# Coordination Sequence:
#
# PCOD8028354 Si02
#       8
#     2   2   2   2   2   2   2   2
#     4  11  25  44  66 100 142 182 226 280 338 419
#     4  10  25  45  73  98 139 175 236 284 362 401
#     4  11  25  40  63 101 147 186 229 283 340 430
#     4  10  25  48  70 106 127 178 232 308 334 412
#     4  11  25  43  67  99 141 185 219 281 346 419
#     4  11  25  44  74  98 139 176 240 285 351 397
#     4  11  25  41  64 101 144 188 235 280 340 422
#     4  11  25  41  72 102 138 188 229 287 347 422
#
# _framework density 26.478325000000002
#
# number of rings (size 3 to 8) (size 9 to 14) (size 15 to 20)
#    0.000    1.250    1.250    2.250   15.750    8.500 
#    0.000    3.750    0.000    0.000    0.000    0.000 
#    0.000    0.000    0.000    0.000    0.000    0.000 
#
# Total GULP energy -198429.962752 kJ/mol
# GULP energy per Si atom -12401.872672 kJ/mol
# Density = 2.641806 g / cm^3
# Si number density = 26.478325 Si / 1000 Ang^3
#
#
#
# Elastic Constant Matrix: (Units=GPa)
#
#
# Indices 1 2 3 4 5 6 
#
# 1 36.4861 -18.8760 -9.7917 9.8911 0.4054 1.5976
# 2 -18.8760 102.1400 -5.0356 -1.2908 2.2230 3.8666
# 3 -9.7917 -5.0356 62.1587 -9.5656 -0.9561 -3.5253
# 4 9.8911 -1.2908 -9.5656 42.4770 3.4317 -1.9199
# 5 0.4054 2.2230 -0.9561 3.4317 28.8682 -1.4112
# 6 1.5976 3.8666 -3.5253 -1.9199 -1.4112 42.5316
#
#
#
# Elastic Compliance Matrix: (Units=1/GPa)
#
#
# Indices 1 2 3 4 5 6 
#
# 1 0.033934 0.006490 0.004736 -0.006710 -0.000109 -0.001779
# 2 0.006490 0.011128 0.001726 -0.000768 -0.000857 -0.001176
# 3 0.004736 0.001726 0.017498 0.002939 0.000092 0.001251
# 4 -0.006710 -0.000768 0.002939 0.026041 -0.002764 0.001649
# 5 -0.000109 -0.000857 0.000092 -0.002764 0.035095 0.001129
# 6 -0.001779 -0.001176 0.001251 0.001649 0.001129 0.023901
#
#
# Mechanical properties :
#
#
# Convention : Reuss Voigt Hill
#
# Bulk Modulus (GPa) = 11.30407 14.81983 13.06195
# Shear Modulus (GPa) = 33.07261 38.40789 35.74025
#
# Velocity S-wave (km/s) = 3.53802 3.81273 3.67794
# Velocity P-wave (km/s) = 4.57914 4.99916 4.79376
#
# Compressibility (1/GPa) = 0.08846375
#
# Stress axis : x y z
#
# Youngs Moduli (GPa) = 29.46891 89.86091 57.14800
#
# Poissons Ratio (x) = -0.58316 -0.27066
# Poissons Ratio (y) = -0.19124 -0.09862
# Poissons Ratio (z) = -0.13957 -0.15508
#
# Static dielectric constant tensor:
#      x y z
#    x 4.938050 0.095520 -0.091440 
#    y 0.095520 5.080610 0.164970 
#    z -0.091440 0.164970 4.319450 
# 
# 
# High freq. dielectric constant tensor:
#      x y z
#    x 2.067460 -0.002110 -0.007860 
#    y -0.002110 2.081600 0.012230 
#    z -0.007860 0.012230 2.047340 
# 
# From -- ./inp_files/106996.got.cif
#   From: 2010.06.25/outbox.cif.g09.slc.cpg/sg2_54_cif.got.tgz:106996.got - 2010.06.27 13:26:56.
