data_PCOD8028703
_publ_section_title
;
Structure prediction by ZEFSAII (Michael W. Deem and Ramdas Pophale) SiO2 
 PCOD8028703
Probable space group: P -1
;
_chemical_formula_sum "Si O2"
_cell_formula_units_Z 10
_cell_length_a 8.754690
_cell_length_b 10.047901
_cell_length_c 12.482312
_cell_angle_alpha 50.321073
_cell_angle_beta 54.150463
_cell_angle_gamma 96.333073
_cell_volume 431.841588
_symmetry_space_group_name_H-M "P -1"
_symmetry_group_IT_number 2
_symmetry_cell_setting 'triclinic'
loop_
_space_group_symop_operation_xyz
x,y,z
-x,-y,-z
loop_
_atom_site_type_symbol
_atom_site_label
_atom_site_fract_x
_atom_site_fract_y
_atom_site_fract_z
Si Si1 0.250983 0.966358 0.134549
Si Si2 0.657787 0.057082 0.665074
Si Si3 0.362924 0.084634 0.479659
Si Si4 0.980243 0.638893 0.213732
Si Si5 0.210389 0.311729 0.939461
O O1 0.381144 0.249068 0.906689
O O2 0.154883 0.887695 0.339581
O O3 0.983590 0.730063 0.283256
O O4 0.500000 0.000000 0.000000
O O5 0.743763 0.316314 0.476713
O O6 0.740062 0.999564 0.558287
O O7 0.302812 0.795436 0.966157
O O8 0.500000 0.000000 0.500000
O O9 0.609066 0.408986 0.220488
O O10 0.092774 0.939037 0.742294
O O11 0.862310 0.696496 0.149052
#
# Coordination Sequence:
#
# PCOD8028703 Si02
#       5
#     2   2   2   2   2
#     4  10  26  45  64  96 134 170 214 266 319 378
#     4  11  23  41  67  93 133 170 204 267 324 372
#     4  12  23  42  68  99 130 162 218 268 316 381
#     4  11  21  42  67  94 127 170 215 261 315 381
#     4  12  24  41  71  97 125 173 215 261 322 380
#
# _framework density 23.156637
#
# number of rings (size 3 to 8) (size 9 to 14) (size 15 to 20)
#    0.000    0.800    4.000    3.000    0.000    8.000 
#    0.000    7.000    0.000    0.000    0.000    0.000 
#    0.000    0.000    0.000    0.000    0.000    0.000 
#
# Total GULP energy -124024.108692 kJ/mol
# GULP energy per Si atom -12402.410869 kJ/mol
# Density = 2.310393 g / cm^3
# Si number density = 23.156637 Si / 1000 Ang^3
#
#
#
# Elastic Constant Matrix: (Units=GPa)
#
#
# Indices 1 2 3 4 5 6 
#
# 1 138.5550 76.6589 32.7981 0.2144 40.3498 16.7607
# 2 76.6589 135.6269 14.7932 -11.2972 16.9802 34.2907
# 3 32.7981 14.7932 71.2854 -7.1210 6.8737 3.2943
# 4 0.2144 -11.2972 -7.1210 33.1246 6.7517 18.8664
# 5 40.3498 16.9802 6.8737 6.7517 28.9781 2.9856
# 6 16.7607 34.2907 3.2943 18.8664 2.9856 55.0468
#
#
#
# Elastic Compliance Matrix: (Units=1/GPa)
#
#
# Indices 1 2 3 4 5 6 
#
# 1 0.018215 -0.007316 -0.004927 0.000224 -0.019992 0.000313
# 2 -0.007316 0.015481 0.002084 0.012756 -0.001130 -0.011852
# 3 -0.004927 0.002084 0.016500 0.005741 0.000675 -0.002790
# 4 0.000224 0.012756 0.005741 0.054482 -0.019165 -0.025992
# 5 -0.019992 -0.001130 0.000675 -0.019165 0.066312 0.009723
# 6 0.000313 -0.011852 -0.002790 -0.025992 0.009723 0.034002
#
#
# Mechanical properties :
#
#
# Convention : Reuss Voigt Hill
#
# Bulk Modulus (GPa) = 33.46778 65.99642 49.73210
# Shear Modulus (GPa) = 21.25232 38.17772 29.71502
#
# Velocity S-wave (km/s) = 3.03275 4.06479 3.58609
# Velocity P-wave (km/s) = 5.17181 7.11280 6.21850
#
# Compressibility (1/GPa) = 0.02987948
#
# Stress axis : x y z
#
# Youngs Moduli (GPa) = 54.89991 64.59405 60.60698
#
# Poissons Ratio (x) = 0.47254 0.29860
# Poissons Ratio (y) = 0.40163 -0.12631
# Poissons Ratio (z) = 0.27048 -0.13462
#
# Static dielectric constant tensor:
#      x y z
#    x 4.599090 0.429130 0.404450 
#    y 0.429130 4.850400 0.037890 
#    z 0.404450 0.037890 4.123190 
# 
# 
# High freq. dielectric constant tensor:
#      x y z
#    x 1.915080 0.018740 0.019510 
#    y 0.018740 1.929920 -0.006400 
#    z 0.019510 -0.006400 1.912140 
# 
# From -- ./inp_files/15480.got.cif
#   From: 2010.06.25/outbox.cif.g09.slc.cpg/sg2_8_cif.got.tgz:15480.got - 2010.06.27 13:26:56.
