data_PCOD8028238
_publ_section_title
;
Structure prediction by ZEFSAII (Michael W. Deem and Ramdas Pophale) SiO2 
 PCOD8028238
Probable space group: P -1
;
_chemical_formula_sum "Si O2"
_cell_formula_units_Z 16
_cell_length_a 8.921357
_cell_length_b 13.544819
_cell_length_c 8.496741
_cell_angle_alpha 104.686275
_cell_angle_beta 118.566294
_cell_angle_gamma 56.638626
_cell_volume 753.088739
_symmetry_space_group_name_H-M "P -1"
_symmetry_group_IT_number 2
_symmetry_cell_setting 'triclinic'
loop_
_space_group_symop_operation_xyz
x,y,z
-x,-y,-z
loop_
_atom_site_type_symbol
_atom_site_label
_atom_site_fract_x
_atom_site_fract_y
_atom_site_fract_z
Si Si1 0.993835 0.007359 0.814379
Si Si2 0.585846 0.692661 0.700286
Si Si3 0.602297 0.058352 0.168727
Si Si4 0.165723 0.116599 0.526900
Si Si5 0.747930 0.490367 0.253150
Si Si6 0.662205 0.475051 0.847835
Si Si7 0.184807 0.755874 0.354871
Si Si8 0.819683 0.675660 0.506884
O O1 0.849085 0.141928 0.743276
O O2 0.917285 0.923151 0.675725
O O3 0.212705 0.957068 0.841039
O O4 0.000000 0.000000 0.000000
O O5 0.552162 0.803271 0.833027
O O6 0.676258 0.578601 0.810161
O O7 0.383036 0.716146 0.533160
O O8 0.746638 0.669337 0.640457
O O9 0.665742 0.999699 0.349104
O O10 0.500000 0.000000 0.000000
O O11 0.263054 0.190365 0.537400
O O12 0.996193 0.196852 0.597604
O O13 0.562844 0.496776 0.252930
O O14 0.743012 0.614425 0.319732
O O15 0.942319 0.388601 0.395516
O O16 0.747555 0.460791 0.059168
O O17 0.801435 0.353409 0.777911
#
# Coordination Sequence:
#
# PCOD8028238 Si02
#       8
#     2   2   2   2   2   2   2   2
#     4  11  25  44  71  98 129 175 221 267 324 391
#     4  12  24  43  67  97 131 172 220 263 327 386
#     4  11  26  45  67 100 133 170 221 270 326 386
#     4  11  24  46  69  91 136 178 211 272 326 390
#     4  10  25  45  60 101 131 169 217 266 323 391
#     4  11  25  42  72  92 130 175 219 266 319 391
#     4  11  22  45  68  95 127 177 222 257 325 397
#     4  11  26  41  66  95 136 168 214 269 333 375
#
# _framework density 21.245836000000001
#
# number of rings (size 3 to 8) (size 9 to 14) (size 15 to 20)
#    0.000    1.000    3.750    1.875    8.750    4.000 
#    0.000    0.000    0.000    0.000    0.000    0.000 
#    0.000    0.000    0.000    0.000    0.000    0.000 
#
# Total GULP energy -198510.897105 kJ/mol
# GULP energy per Si atom -12406.931069 kJ/mol
# Density = 2.119748 g / cm^3
# Si number density = 21.245836 Si / 1000 Ang^3
#
#
#
# Elastic Constant Matrix: (Units=GPa)
#
#
# Indices 1 2 3 4 5 6 
#
# 1 52.5217 29.7846 19.7479 4.1015 -3.0301 15.7418
# 2 29.7846 148.2612 35.6352 28.9795 -15.4500 13.0744
# 3 19.7479 35.6352 98.3628 29.7877 -7.6835 7.8451
# 4 4.1015 28.9795 29.7877 40.4922 6.6242 -2.7968
# 5 -3.0301 -15.4500 -7.6835 6.6242 32.1055 -0.1141
# 6 15.7418 13.0744 7.8451 -2.7968 -0.1141 37.1644
#
#
#
# Elastic Compliance Matrix: (Units=1/GPa)
#
#
# Indices 1 2 3 4 5 6 
#
# 1 0.024917 -0.004032 -0.003829 0.002800 -0.001112 -0.008120
# 2 -0.004032 0.009913 0.000351 -0.008118 0.006140 -0.002445
# 3 -0.003829 0.000351 0.015165 -0.012171 0.005939 -0.002601
# 4 0.002800 -0.008118 -0.012171 0.042176 -0.015231 0.007366
# 5 -0.001112 0.006140 0.005939 -0.015231 0.038547 -0.003971
# 6 -0.008120 -0.002445 -0.002601 0.007366 -0.003971 0.032298
#
#
# Mechanical properties :
#
#
# Convention : Reuss Voigt Hill
#
# Bulk Modulus (GPa) = 28.59164 52.16457 40.37810
# Shear Modulus (GPa) = 26.35831 36.21761 31.28796
#
# Velocity S-wave (km/s) = 3.52608 4.13327 3.84169
# Velocity P-wave (km/s) = 5.48310 6.88366 6.22291
#
# Compressibility (1/GPa) = 0.03497526
#
# Stress axis : x y z
#
# Youngs Moduli (GPa) = 40.13311 100.88086 65.94195
#
# Poissons Ratio (x) = 0.40679 0.25247
# Poissons Ratio (y) = 0.16183 -0.02317
# Poissons Ratio (z) = 0.15365 -0.03544
#
# Static dielectric constant tensor:
#      x y z
#    x 4.101810 0.040500 0.101710 
#    y 0.040500 4.143400 0.068080 
#    z 0.101710 0.068080 3.829820 
# 
# 
# High freq. dielectric constant tensor:
#      x y z
#    x 1.835070 0.002800 -0.002440 
#    y 0.002800 1.847510 0.009440 
#    z -0.002440 0.009440 1.836760 
# 
# From -- ./inp_files/178239.got.cif
#   From: 2010.06.25/outbox.cif.g09.slc.cpg/sg2_90_cif.got.tgz:178239.got - 2010.06.27 13:26:56.
