data_PCOD8028742
_publ_section_title
;
Structure prediction by ZEFSAII (Michael W. Deem and Ramdas Pophale) SiO2 
 PCOD8028742
Probable space group: P -1
;
_chemical_formula_sum "Si O2"
_cell_formula_units_Z 16
_cell_length_a 8.559017
_cell_length_b 9.376880
_cell_length_c 12.609063
_cell_angle_alpha 58.105825
_cell_angle_beta 101.920905
_cell_angle_gamma 71.406714
_cell_volume 720.498549
_symmetry_space_group_name_H-M "P -1"
_symmetry_group_IT_number 2
_symmetry_cell_setting 'triclinic'
loop_
_space_group_symop_operation_xyz
x,y,z
-x,-y,-z
loop_
_atom_site_type_symbol
_atom_site_label
_atom_site_fract_x
_atom_site_fract_y
_atom_site_fract_z
Si Si1 0.852757 0.015248 0.560717
Si Si2 0.510693 0.043009 0.805052
Si Si3 0.056149 0.787444 0.132821
Si Si4 0.665785 0.279029 0.621510
Si Si5 0.269442 0.265282 0.875834
Si Si6 0.578111 0.148106 0.299881
Si Si7 0.195739 0.648911 0.808127
Si Si8 0.815749 0.511091 0.922771
O O1 0.778297 0.199882 0.557640
O O2 0.673341 0.031142 0.468861
O O3 0.000000 0.000000 0.500000
O O4 0.975747 0.815847 0.722956
O O5 0.601839 0.128324 0.706105
O O6 0.420310 0.188487 0.833961
O O7 0.369618 0.008218 0.727013
O O8 0.658555 0.833083 0.959411
O O9 0.207501 0.712992 0.273611
O O10 0.131228 0.636475 0.107374
O O11 0.883855 0.784996 0.163225
O O12 0.000000 0.000000 0.000000
O O13 0.500000 0.500000 0.500000
O O14 0.197519 0.493177 0.787382
O O15 0.667136 0.282452 0.241532
O O16 0.351723 0.275989 0.224619
O O17 0.270184 0.558450 0.969666
O O18 0.000000 0.500000 0.000000
#
# Coordination Sequence:
#
# PCOD8028742 Si02
#       8
#     2   2   2   2   2   2   2   2
#     4  10  26  46  71 102 145 187 245 293 355 431
#     4  11  26  44  70 108 147 183 242 300 356 428
#     4  12  25  42  72 100 141 187 232 294 363 417
#     4  12  28  48  72 104 148 192 239 297 360 433
#     4  11  25  44  70 110 145 182 240 300 356 432
#     4  11  25  45  71 100 139 192 230 296 365 419
#     4  11  24  43  73 100 143 186 238 298 355 431
#     4  12  24  42  69 105 137 179 245 297 353 425
#
# _framework density 22.206845999999999
#
# number of rings (size 3 to 8) (size 9 to 14) (size 15 to 20)
#    0.000    0.750    3.750    1.875   12.250    1.500 
#    0.000    1.250    0.000    0.000    0.000    0.000 
#    0.000    0.000    0.000    0.000    0.000    0.000 
#
# Total GULP energy -198356.693490 kJ/mol
# GULP energy per Si atom -12397.293343 kJ/mol
# Density = 2.215630 g / cm^3
# Si number density = 22.206846 Si / 1000 Ang^3
#
#
#
# Elastic Constant Matrix: (Units=GPa)
#
#
# Indices 1 2 3 4 5 6 
#
# 1 97.6938 37.2638 28.6739 7.6613 13.8656 8.3642
# 2 37.2638 151.0300 59.2137 14.7137 14.9538 -3.4091
# 3 28.6739 59.2137 116.7615 15.0670 35.7735 -1.6740
# 4 7.6613 14.7137 15.0670 34.3303 -0.3297 8.9307
# 5 13.8656 14.9538 35.7735 -0.3297 45.5263 3.7571
# 6 8.3642 -3.4091 -1.6740 8.9307 3.7571 41.3268
#
#
#
# Elastic Compliance Matrix: (Units=1/GPa)
#
#
# Indices 1 2 3 4 5 6 
#
# 1 0.011964 -0.002311 -0.001190 -0.000555 -0.001757 -0.002381
# 2 -0.002311 0.008860 -0.003872 -0.001939 0.000707 0.001396
# 3 -0.001190 -0.003872 0.014636 -0.005265 -0.010117 0.002572
# 4 -0.000555 -0.001939 -0.005265 0.034603 0.005876 -0.008273
# 5 -0.001757 0.000707 -0.010117 0.005876 0.030594 -0.004047
# 6 -0.002381 0.001396 0.002572 -0.008273 -0.004047 0.027054
#
#
# Mechanical properties :
#
#
# Convention : Reuss Voigt Hill
#
# Bulk Modulus (GPa) = 48.27860 68.42090 58.34975
# Shear Modulus (GPa) = 33.47584 40.25894 36.86739
#
# Velocity S-wave (km/s) = 3.88681 4.26244 4.07895
# Velocity P-wave (km/s) = 6.47539 7.42308 6.96537
#
# Compressibility (1/GPa) = 0.02071311
#
# Stress axis : x y z
#
# Youngs Moduli (GPa) = 83.58740 112.86880 68.32348
#
# Poissons Ratio (x) = 0.26082 0.08133
# Poissons Ratio (y) = 0.19316 0.26455
# Poissons Ratio (z) = 0.09950 0.43703
#
# Static dielectric constant tensor:
#      x y z
#    x 3.644280 -0.246920 0.007580 
#    y -0.246920 3.939160 -0.247260 
#    z 0.007580 -0.247260 4.528210 
# 
# 
# High freq. dielectric constant tensor:
#      x y z
#    x 1.869240 -0.002800 0.007680 
#    y -0.002800 1.888250 0.005600 
#    z 0.007680 0.005600 1.884480 
# 
# From -- ./inp_files/381751.got.cif
#   From: 2010.06.25/outbox.cif.g09.slc.cpg/sg2_191_cif.got.tgz:381751.got - 2010.06.27 13:26:56.
