data_PCOD8028998
_publ_section_title
;
Structure prediction by ZEFSAII (Michael W. Deem and Ramdas Pophale) SiO2 
 PCOD8028998
Probable space group: P -1
;
_chemical_formula_sum "Si O2"
_cell_formula_units_Z 16
_cell_length_a 15.600049
_cell_length_b 11.483754
_cell_length_c 17.331915
_cell_angle_alpha 19.690900
_cell_angle_beta 136.627133
_cell_angle_gamma 136.328387
_cell_volume 708.240147
_symmetry_space_group_name_H-M "P -1"
_symmetry_group_IT_number 2
_symmetry_cell_setting 'triclinic'
loop_
_space_group_symop_operation_xyz
x,y,z
-x,-y,-z
loop_
_atom_site_type_symbol
_atom_site_label
_atom_site_fract_x
_atom_site_fract_y
_atom_site_fract_z
Si Si1 0.678749 0.845157 0.995206
Si Si2 0.772722 0.924016 0.559706
Si Si3 0.428942 0.104263 0.687141
Si Si4 0.251799 0.759071 0.355664
Si Si5 0.643965 0.077823 0.519448
Si Si6 0.371970 0.101880 0.819167
Si Si7 0.008966 0.320410 0.535594
Si Si8 0.169454 0.769907 0.009328
O O1 0.530782 0.862038 0.884034
O O2 0.742133 0.943995 0.891401
O O3 0.687053 0.457803 0.270915
O O4 0.751386 0.129027 0.924393
O O5 0.676318 0.976768 0.396547
O O6 0.683585 0.809420 0.648832
O O7 0.858662 0.647980 0.756978
O O8 0.874888 0.266676 0.436365
O O9 0.500000 0.500000 0.500000
O O10 0.359246 0.983676 0.796176
O O11 0.275348 0.951432 0.332986
O O12 0.360209 0.515928 0.562711
O O13 0.111383 0.531784 0.412182
O O14 0.500000 0.000000 0.500000
O O15 0.254887 0.886155 0.919545
O O16 0.500000 0.000000 0.000000
O O17 0.000000 0.500000 0.500000
O O18 0.043360 0.939327 0.817451
#
# Coordination Sequence:
#
# PCOD8028998 Si02
#       8
#     2   2   2   2   2   2   2   2
#     4  12  23  45  72 106 145 185 239 291 365 430
#     4  12  25  44  69 106 141 186 246 292 349 428
#     4  12  22  38  69 103 144 180 231 297 360 419
#     4  11  23  43  73  98 139 195 235 288 358 420
#     4  12  27  44  69 106 150 185 231 297 362 431
#     4  11  19  37  67 103 138 186 228 283 365 421
#     4  11  23  50  72  97 145 195 239 292 355 427
#     4  11  23  41  73 102 136 186 239 293 350 421
#
# _framework density 22.591208999999999
#
# number of rings (size 3 to 8) (size 9 to 14) (size 15 to 20)
#    0.000    0.500    7.500    1.125    3.500    2.000 
#    0.000    9.375    0.000    0.000    0.000    0.000 
#    0.000    0.000    0.000    0.000    0.000    0.000 
#
# Total GULP energy -198317.846829 kJ/mol
# GULP energy per Si atom -12394.865427 kJ/mol
# Density = 2.253979 g / cm^3
# Si number density = 22.591209 Si / 1000 Ang^3
#
#
#
# Elastic Constant Matrix: (Units=GPa)
#
#
# Indices 1 2 3 4 5 6 
#
# 1 130.5114 54.3134 41.6979 21.0578 -7.6312 -17.3188
# 2 54.3134 166.0131 32.2337 28.7667 -9.0584 -12.4865
# 3 41.6979 32.2337 58.6251 4.4739 -12.1459 -16.6283
# 4 21.0578 28.7667 4.4739 27.8296 -7.3661 -3.3572
# 5 -7.6312 -9.0584 -12.1459 -7.3661 45.6493 6.9087
# 6 -17.3188 -12.4865 -16.6283 -3.3572 6.9087 40.8074
#
#
#
# Elastic Compliance Matrix: (Units=1/GPa)
#
#
# Indices 1 2 3 4 5 6 
#
# 1 0.011560 -0.001282 -0.006919 -0.006519 -0.001426 0.001400
# 2 -0.001282 0.008292 -0.003162 -0.007229 -0.000609 0.000213
# 3 -0.006919 -0.003162 0.026121 0.006462 0.005242 0.006384
# 4 -0.006519 -0.007229 0.006462 0.049229 0.007062 0.000509
# 5 -0.001426 -0.000609 0.005242 0.007062 0.024415 -0.002208
# 6 0.001400 0.000213 0.006384 0.000509 -0.002208 0.028182
#
#
# Mechanical properties :
#
#
# Convention : Reuss Voigt Hill
#
# Bulk Modulus (GPa) = 43.01219 67.95995 55.48607
# Shear Modulus (GPa) = 28.04684 37.98426 33.01555
#
# Velocity S-wave (km/s) = 3.52731 4.10490 3.82702
# Velocity P-wave (km/s) = 5.97243 7.25360 6.64397
#
# Compressibility (1/GPa) = 0.02324922
#
# Stress axis : x y z
#
# Youngs Moduli (GPa) = 86.50381 120.59464 38.28404
#
# Poissons Ratio (x) = 0.15456 0.26487
# Poissons Ratio (y) = 0.11087 0.12104
# Poissons Ratio (z) = 0.59848 0.38127
#
# Static dielectric constant tensor:
#      x y z
#    x 4.316990 -0.132460 0.082720 
#    y -0.132460 4.057510 0.120500 
#    z 0.082720 0.120500 4.085550 
# 
# 
# High freq. dielectric constant tensor:
#      x y z
#    x 1.905340 -0.012810 0.010880 
#    y -0.012810 1.888720 0.007840 
#    z 0.010880 0.007840 1.878820 
# 
# From -- ./inp_files/575890.got.cif
#   From: 2010.06.25/outbox.cif.g09.slc.cpg/sg2_288_cif.got.tgz:575890.got - 2010.06.27 13:26:56.
