data_PCOD8028314
_publ_section_title
;
Structure prediction by ZEFSAII (Michael W. Deem and Ramdas Pophale) SiO2 
 PCOD8028314
Probable space group: P -1
;
_chemical_formula_sum "Si O2"
_cell_formula_units_Z 16
_cell_length_a 16.283297
_cell_length_b 11.502514
_cell_length_c 8.535266
_cell_angle_alpha 46.338504
_cell_angle_beta 48.497871
_cell_angle_gamma 31.760396
_cell_volume 596.621489
_symmetry_space_group_name_H-M "P -1"
_symmetry_group_IT_number 2
_symmetry_cell_setting 'triclinic'
loop_
_space_group_symop_operation_xyz
x,y,z
-x,-y,-z
loop_
_atom_site_type_symbol
_atom_site_label
_atom_site_fract_x
_atom_site_fract_y
_atom_site_fract_z
Si Si1 0.736141 0.002641 0.363244
Si Si2 0.398686 0.007612 0.001568
Si Si3 0.666459 0.703005 0.730205
Si Si4 0.949014 0.201703 0.772080
Si Si5 0.547546 0.499776 0.614440
Si Si6 0.802711 0.085732 0.877597
Si Si7 0.729952 0.587418 0.416706
Si Si8 0.065246 0.267310 0.206214
O O1 0.673860 0.887808 0.575191
O O2 0.889243 0.871535 0.405245
O O3 0.607491 0.275232 0.309706
O O4 0.784597 0.981811 0.141195
O O5 0.531923 0.768959 0.953311
O O6 0.297737 0.213052 0.812852
O O7 0.500000 0.000000 0.000000
O O8 0.251316 0.072780 0.216549
O O9 0.835369 0.439185 0.797965
O O10 0.627085 0.699633 0.602428
O O11 0.849297 0.220353 0.738321
O O12 0.000000 0.000000 0.000000
O O13 0.500000 0.500000 0.500000
O O14 0.636413 0.266078 0.819714
O O15 0.671321 0.516955 0.432504
O O16 0.938958 0.865029 0.800057
O O17 0.923579 0.370033 0.415239
O O18 0.000000 0.500000 0.000000
#
# Coordination Sequence:
#
# PCOD8028314 Si02
#       8
#     2   2   2   2   2   2   2   2
#     4  11  25  47  80 112 148 201 263 313 381 461
#     4  11  26  45  74 114 148 192 256 322 373 446
#     4  12  24  48  82 109 152 198 263 309 379 462
#     4  10  25  45  70 113 151 193 245 315 384 453
#     4  12  28  46  72 111 156 199 258 322 387 451
#     4  11  25  48  75 107 154 205 250 318 387 463
#     4  11  25  48  73 109 150 201 253 308 383 456
#     4  10  25  45  73 104 148 198 250 305 386 447
#
# _framework density 26.817672999999999
#
# number of rings (size 3 to 8) (size 9 to 14) (size 15 to 20)
#    0.000    1.000    2.500    2.625    5.250    9.500 
#    0.000    0.000    0.000    0.000    0.000    0.000 
#    0.000    0.000    0.000    0.000    0.000    0.000 
#
# Total GULP energy -198232.782121 kJ/mol
# GULP energy per Si atom -12389.548883 kJ/mol
# Density = 2.675663 g / cm^3
# Si number density = 26.817673 Si / 1000 Ang^3
#
#
#
# Elastic Constant Matrix: (Units=GPa)
#
#
# Indices 1 2 3 4 5 6 
#
# 1 167.5488 52.0689 17.5650 21.8842 6.0383 -12.0766
# 2 52.0689 191.7476 25.4852 27.2709 -3.5116 -8.3299
# 3 17.5650 25.4852 50.0791 18.3416 -4.7913 -8.9055
# 4 21.8842 27.2709 18.3416 60.7253 -6.7501 -1.9401
# 5 6.0383 -3.5116 -4.7913 -6.7501 39.9806 -2.7480
# 6 -12.0766 -8.3299 -8.9055 -1.9401 -2.7480 54.0289
#
#
#
# Elastic Compliance Matrix: (Units=1/GPa)
#
#
# Indices 1 2 3 4 5 6 
#
# 1 0.006877 -0.001482 -0.001022 -0.001638 -0.001499 0.001005
# 2 -0.001482 0.006117 -0.001941 -0.001588 0.000278 0.000249
# 3 -0.001022 -0.001941 0.024217 -0.005728 0.002151 0.003368
# 4 -0.001638 -0.001588 -0.005728 0.019780 0.002712 -0.000707
# 5 -0.001499 0.000278 0.002151 0.002712 0.026081 0.001486
# 6 0.001005 0.000249 0.003368 -0.000707 0.001486 0.019377
#
#
# Mechanical properties :
#
#
# Convention : Reuss Voigt Hill
#
# Bulk Modulus (GPa) = 35.31011 66.62376 50.96693
# Shear Modulus (GPa) = 41.39766 51.89741 46.64753
#
# Velocity S-wave (km/s) = 3.93322 4.40386 4.17518
# Velocity P-wave (km/s) = 5.81569 7.12431 6.50300
#
# Compressibility (1/GPa) = 0.02832050
#
# Stress axis : x y z
#
# Youngs Moduli (GPa) = 145.41941 163.46794 41.29314
#
# Poissons Ratio (x) = 0.24230 0.04221
# Poissons Ratio (y) = 0.21555 0.08014
# Poissons Ratio (z) = 0.14866 0.31725
#
# Static dielectric constant tensor:
#      x y z
#    x 5.465850 -0.401240 -0.110190 
#    y -0.401240 5.337460 -0.007190 
#    z -0.110190 -0.007190 5.287160 
# 
# 
# High freq. dielectric constant tensor:
#      x y z
#    x 2.089760 -0.011640 -0.009750 
#    y -0.011640 2.098440 -0.010190 
#    z -0.009750 -0.010190 2.089370 
# 
# From -- ./inp_files/332835.got.cif
#   From: 2010.06.25/outbox.cif.g09.slc.cpg/sg2_167_cif.got.tgz:332835.got - 2010.06.27 13:26:56.
