data_PCOD8028856
_publ_section_title
;
Structure prediction by ZEFSAII (Michael W. Deem and Ramdas Pophale) SiO2 
 PCOD8028856
Probable space group: P -1
;
_chemical_formula_sum "Si O2"
_cell_formula_units_Z 16
_cell_length_a 25.839024
_cell_length_b 12.934464
_cell_length_c 19.062042
_cell_angle_alpha 27.072504
_cell_angle_beta 19.078396
_cell_angle_gamma 27.846047
_cell_volume 907.872662
_symmetry_space_group_name_H-M "P -1"
_symmetry_group_IT_number 2
_symmetry_cell_setting 'triclinic'
loop_
_space_group_symop_operation_xyz
x,y,z
-x,-y,-z
loop_
_atom_site_type_symbol
_atom_site_label
_atom_site_fract_x
_atom_site_fract_y
_atom_site_fract_z
Si Si1 0.967234 0.023719 0.143388
Si Si2 0.191057 0.441571 0.779687
Si Si3 0.119526 0.269276 0.215361
Si Si4 0.914219 0.688107 0.303393
Si Si5 0.307636 0.535450 0.722636
Si Si6 0.193730 0.734865 0.467395
Si Si7 0.618374 0.683768 0.602636
Si Si8 0.722646 0.990832 0.164692
O O1 0.800007 0.192660 0.289861
O O2 0.931983 0.789764 0.296515
O O3 0.031535 0.159849 0.917919
O O4 0.109011 0.945150 0.068997
O O5 0.280500 0.453397 0.729821
O O6 0.230620 0.627816 0.562305
O O7 0.253217 0.172899 0.835448
O O8 0.000000 0.500000 0.000000
O O9 0.034408 0.420667 0.301168
O O10 0.983855 0.285436 0.318496
O O11 0.201597 0.002659 0.296893
O O12 0.262159 0.366894 0.941096
O O13 0.722709 0.692780 0.534461
O O14 0.500000 0.500000 0.500000
O O15 0.334416 0.584029 0.325535
O O16 0.669535 0.854977 0.378713
O O17 0.421486 0.770522 0.814769
#
# Coordination Sequence:
#
# PCOD8028856 Si02
#       8
#     2   2   2   2   2   2   2   2
#     4   9  16  29  45  69  97 130 163 203 245 291
#     4  11  18  33  52  77 100 132 171 205 250 299
#     4   9  17  34  54  78 101 133 168 206 252 294
#     4   8  15  27  47  69  97 126 164 200 244 295
#     4  11  22  33  50  77 106 133 165 207 254 300
#     4   9  17  32  58  77 100 129 170 214 244 294
#     4   8  15  27  45  75  94 121 164 209 245 280
#     4   9  16  27  47  70  99 123 163 211 243 286
#
# _framework density 17.623616999999999
#
# number of rings (size 3 to 8) (size 9 to 14) (size 15 to 20)
#    0.000    2.750    2.500    1.500    1.750    0.000 
#    6.750    0.625    0.000    3.000    0.000    0.000 
#    0.000    0.000    0.000    0.000    0.000    0.000 
#
# Total GULP energy -198326.998712 kJ/mol
# GULP energy per Si atom -12395.437420 kJ/mol
# Density = 1.758351 g / cm^3
# Si number density = 17.623617 Si / 1000 Ang^3
#
#
#
# Elastic Constant Matrix: (Units=GPa)
#
#
# Indices 1 2 3 4 5 6 
#
# 1 101.0782 59.8312 34.8233 9.7147 -25.3156 21.8284
# 2 59.8312 157.8550 55.7093 13.6966 -22.7170 14.3626
# 3 34.8233 55.7093 70.6681 19.5911 -21.5681 1.3540
# 4 9.7147 13.6966 19.5911 30.6116 -5.7275 -4.5719
# 5 -25.3156 -22.7170 -21.5681 -5.7275 23.0240 0.1356
# 6 21.8284 14.3626 1.3540 -4.5719 0.1356 24.8336
#
#
#
# Elastic Compliance Matrix: (Units=1/GPa)
#
#
# Indices 1 2 3 4 5 6 
#
# 1 0.020505 -0.003000 -0.000901 -0.003783 0.017902 -0.017034
# 2 -0.003000 0.010002 -0.006122 0.000144 0.000888 -0.002792
# 3 -0.000901 -0.006122 0.027404 -0.011464 0.015785 0.000641
# 4 -0.003783 0.000144 -0.011464 0.042062 -0.004362 0.011635
# 5 0.017902 0.000888 0.015785 -0.004362 0.077802 -0.018337
# 6 -0.017034 -0.002792 0.000641 0.011635 -0.018337 0.059063
#
#
# Mechanical properties :
#
#
# Convention : Reuss Voigt Hill
#
# Bulk Modulus (GPa) = 26.40888 70.03656 48.22272
# Shear Modulus (GPa) = 18.55259 27.64299 23.09779
#
# Velocity S-wave (km/s) = 3.24807 3.96475 3.62417
# Velocity P-wave (km/s) = 5.39297 7.79650 6.70334
#
# Compressibility (1/GPa) = 0.03786605
#
# Stress axis : x y z
#
# Youngs Moduli (GPa) = 48.76854 99.98284 36.49099
#
# Poissons Ratio (x) = 0.29992 0.03287
# Poissons Ratio (y) = 0.14629 0.22339
# Poissons Ratio (z) = 0.04393 0.61209
#
# Static dielectric constant tensor:
#      x y z
#    x 3.135120 0.205260 -0.195090 
#    y 0.205260 3.375980 0.110770 
#    z -0.195090 0.110770 2.980970 
# 
# 
# High freq. dielectric constant tensor:
#      x y z
#    x 1.665750 0.016250 -0.018880 
#    y 0.016250 1.688840 0.016830 
#    z -0.018880 0.016830 1.642650 
# 
# From -- ./inp_files/243563.got.cif
#   From: 2010.06.25/outbox.cif.g09.slc.cpg/sg2_122_cif.got.tgz:243563.got - 2010.06.27 13:26:56.
