data_PCOD8028185
_publ_section_title
;
Structure prediction by ZEFSAII (Michael W. Deem and Ramdas Pophale) SiO2 
 PCOD8028185
Probable space group: P -1
;
_chemical_formula_sum "Si O2"
_cell_formula_units_Z 16
_cell_length_a 11.615374
_cell_length_b 8.934487
_cell_length_c 8.645497
_cell_angle_alpha 91.750361
_cell_angle_beta 49.243253
_cell_angle_gamma 82.644656
_cell_volume 666.208640
_symmetry_space_group_name_H-M "P -1"
_symmetry_group_IT_number 2
_symmetry_cell_setting 'triclinic'
loop_
_space_group_symop_operation_xyz
x,y,z
-x,-y,-z
loop_
_atom_site_type_symbol
_atom_site_label
_atom_site_fract_x
_atom_site_fract_y
_atom_site_fract_z
Si Si1 0.293576 0.865022 0.335978
Si Si2 0.234313 0.682754 0.113376
Si Si3 0.893020 0.347182 0.319892
Si Si4 0.634126 0.811517 0.132481
Si Si5 0.886847 0.882254 0.082966
Si Si6 0.831640 0.617777 0.715085
Si Si7 0.115773 0.180957 0.580070
Si Si8 0.336718 0.496611 0.715805
O O1 0.333597 0.782629 0.131005
O O2 0.208225 0.766049 0.522382
O O3 0.454567 0.885956 0.272659
O O4 0.182063 0.029193 0.417200
O O5 0.232493 0.536755 0.220040
O O6 0.069304 0.794227 0.245003
O O7 0.301054 0.629142 0.884201
O O8 0.786861 0.477542 0.315073
O O9 0.992208 0.411111 0.369837
O O10 0.020458 0.267399 0.084784
O O11 0.727916 0.937302 0.124764
O O12 0.662549 0.666834 0.217561
O O13 0.712039 0.756340 0.900312
O O14 0.820341 0.842143 0.304304
O O15 0.000000 0.000000 0.000000
O O16 0.836126 0.670816 0.534771
O O17 0.500000 0.500000 0.500000
#
# Coordination Sequence:
#
# PCOD8028185 Si02
#       8
#     2   2   2   2   2   2   2   2
#     4  12  25  44  70 102 152 184 230 298 347 427
#     4  11  25  43  71 108 140 187 243 286 355 422
#     4  11  22  42  70 101 142 177 233 300 349 415
#     4  10  26  46  67 103 143 184 236 295 357 413
#     4  11  24  45  72  99 138 188 238 289 348 425
#     4  10  25  44  70 101 140 186 241 293 347 426
#     4  12  24  43  72 106 137 192 239 287 350 419
#     4  11  23  44  73 106 141 182 231 299 365 413
#
# _framework density 24.016501000000002
#
# number of rings (size 3 to 8) (size 9 to 14) (size 15 to 20)
#    0.000    1.000    5.000    0.750    1.750    4.500 
#    2.250    0.000    0.000    0.000    0.000    0.000 
#    0.000    0.000    0.000    0.000    0.000    0.000 
#
# Total GULP energy -198341.473740 kJ/mol
# GULP energy per Si atom -12396.342109 kJ/mol
# Density = 2.396184 g / cm^3
# Si number density = 24.016501 Si / 1000 Ang^3
#
#
#
# Elastic Constant Matrix: (Units=GPa)
#
#
# Indices 1 2 3 4 5 6 
#
# 1 129.4830 37.2744 48.5625 12.0934 -9.7588 12.2778
# 2 37.2744 66.7807 32.5206 14.0389 1.5177 -4.7673
# 3 48.5625 32.5206 122.1283 0.8320 0.1963 -3.9971
# 4 12.0934 14.0389 0.8320 29.3539 -0.9831 2.3666
# 5 -9.7588 1.5177 0.1963 -0.9831 43.1813 -1.6232
# 6 12.2778 -4.7673 -3.9971 2.3666 -1.6232 34.7492
#
#
#
# Elastic Compliance Matrix: (Units=1/GPa)
#
#
# Indices 1 2 3 4 5 6 
#
# 1 0.011093 -0.004572 -0.003338 -0.001828 0.002465 -0.004691
# 2 -0.004572 0.021543 -0.003703 -0.008750 -0.001798 0.004657
# 3 -0.003338 -0.003703 0.010539 0.002694 -0.000548 0.001675
# 4 -0.001828 -0.008750 0.002694 0.039183 0.000666 -0.002882
# 5 0.002465 -0.001798 -0.000548 0.000666 0.023792 -0.000115
# 6 -0.004691 0.004657 0.001675 -0.002882 -0.000115 0.031458
#
#
# Mechanical properties :
#
#
# Convention : Reuss Voigt Hill
#
# Bulk Modulus (GPa) = 50.13494 61.67856 55.90675
# Shear Modulus (GPa) = 29.85362 34.79251 32.32307
#
# Velocity S-wave (km/s) = 3.52951 3.81030 3.67259
# Velocity P-wave (km/s) = 6.12621 6.71531 6.42751
#
# Compressibility (1/GPa) = 0.01994617
#
# Stress axis : x y z
#
# Youngs Moduli (GPa) = 90.15013 46.41924 94.88560
#
# Poissons Ratio (x) = 0.21225 0.31676
# Poissons Ratio (y) = 0.41221 0.35140
# Poissons Ratio (z) = 0.30095 0.17191
#
# Static dielectric constant tensor:
#      x y z
#    x 4.556910 0.067860 0.192130 
#    y 0.067860 4.339930 -0.065190 
#    z 0.192130 -0.065190 4.711370 
# 
# 
# High freq. dielectric constant tensor:
#      x y z
#    x 1.949900 -0.002330 0.011300 
#    y -0.002330 1.942680 0.004650 
#    z 0.011300 0.004650 1.968510 
# 
# From -- ./inp_files/243834.got.cif
#   From: 2010.06.25/outbox.cif.g09.slc.cpg/sg2_122_cif.got.tgz:243834.got - 2010.06.27 13:26:56.
