data_PCOD8028853
_publ_section_title
;
Structure prediction by ZEFSAII (Michael W. Deem and Ramdas Pophale) SiO2 
 PCOD8028853
Probable space group: P -1
;
_chemical_formula_sum "Si O2"
_cell_formula_units_Z 16
_cell_length_a 10.747030
_cell_length_b 12.662419
_cell_length_c 13.756542
_cell_angle_alpha 51.817915
_cell_angle_beta 147.973687
_cell_angle_gamma 117.323321
_cell_volume 770.791064
_symmetry_space_group_name_H-M "P -1"
_symmetry_group_IT_number 2
_symmetry_cell_setting 'triclinic'
loop_
_space_group_symop_operation_xyz
x,y,z
-x,-y,-z
loop_
_atom_site_type_symbol
_atom_site_label
_atom_site_fract_x
_atom_site_fract_y
_atom_site_fract_z
Si Si1 0.933010 0.652358 0.484198
Si Si2 0.086650 0.888161 0.890042
Si Si3 0.092227 0.898141 0.204437
Si Si4 0.576781 0.797215 0.319136
Si Si5 0.236482 0.944518 0.745632
Si Si6 0.369749 0.798547 0.739204
Si Si7 0.611080 0.896019 0.494742
Si Si8 0.157707 0.346569 0.798914
O O1 0.744201 0.686818 0.427884
O O2 0.804433 0.669415 0.284185
O O3 0.142993 0.744831 0.572952
O O4 0.048602 0.498609 0.667073
O O5 0.175467 0.899101 0.835127
O O6 0.830205 0.837501 0.744539
O O7 0.295052 0.782202 0.140011
O O8 0.042225 0.036108 0.826587
O O9 0.376944 0.881060 0.408915
O O10 0.025751 0.749729 0.230840
O O11 0.000000 0.000000 0.000000
O O12 0.648077 0.800537 0.477606
O O13 0.589400 0.943547 0.195551
O O14 0.352869 0.814288 0.835880
O O15 0.000000 0.000000 0.500000
O O16 0.390860 0.944861 0.622580
O O17 0.610394 0.689634 0.957313
#
# Coordination Sequence:
#
# PCOD8028853 Si02
#       8
#     2   2   2   2   2   2   2   2
#     4  11  23  39  59  88 117 157 194 237 295 355
#     4  12  21  34  59  86 117 155 183 252 299 332
#     4  12  22  41  60  86 121 156 199 240 288 347
#     4  11  20  35  57  83 121 149 194 241 294 348
#     4  11  18  32  56  90 118 143 189 240 303 346
#     4  11  19  37  61  87 120 148 189 247 297 345
#     4  11  22  37  60  91 117 150 199 245 290 349
#     4  11  24  39  59  84 120 158 197 236 290 350
#
# _framework density 20.757895000000001
#
# number of rings (size 3 to 8) (size 9 to 14) (size 15 to 20)
#    0.000    0.750    6.250    4.125    0.000    0.000 
#    0.000    0.625    0.000    0.750    0.000    0.000 
#    0.000    0.000    0.000    0.000    0.000    0.000 
#
# Total GULP energy -198267.629430 kJ/mol
# GULP energy per Si atom -12391.726839 kJ/mol
# Density = 2.071065 g / cm^3
# Si number density = 20.757895 Si / 1000 Ang^3
#
#
#
# Elastic Constant Matrix: (Units=GPa)
#
#
# Indices 1 2 3 4 5 6 
#
# 1 49.1538 25.9167 7.8876 -7.5638 22.4114 -5.4345
# 2 25.9167 71.3659 31.0843 -6.4346 12.6854 -10.9567
# 3 7.8876 31.0843 114.4883 17.4365 26.8077 -1.1348
# 4 -7.5638 -6.4346 17.4365 25.7925 4.8518 4.0567
# 5 22.4114 12.6854 26.8077 4.8518 34.8491 2.5814
# 6 -5.4345 -10.9567 -1.1348 4.0567 2.5814 31.5807
#
#
#
# Elastic Compliance Matrix: (Units=1/GPa)
#
#
# Indices 1 2 3 4 5 6 
#
# 1 0.039177 -0.009940 0.004826 0.010142 -0.027025 0.004373
# 2 -0.009940 0.021171 -0.006462 0.005550 0.002552 0.004481
# 3 0.004826 -0.006462 0.013757 -0.007698 -0.010330 0.000916
# 4 0.010142 0.005550 -0.007698 0.050481 -0.009478 -0.002315
# 5 -0.027025 0.002552 -0.010330 -0.009478 0.054961 -0.007411
# 6 0.004373 0.004481 0.000916 -0.002315 -0.007411 0.034908
#
#
# Mechanical properties :
#
#
# Convention : Reuss Voigt Hill
#
# Bulk Modulus (GPa) = 19.62548 40.53169 30.07859
# Shear Modulus (GPa) = 19.63944 29.78574 24.71259
#
# Velocity S-wave (km/s) = 3.07924 3.79213 3.45413
# Velocity P-wave (km/s) = 4.70290 6.22431 5.51631
#
# Compressibility (1/GPa) = 0.05095416
#
# Stress axis : x y z
#
# Youngs Moduli (GPa) = 25.52544 47.23377 72.69192
#
# Poissons Ratio (x) = 0.46949 -0.35083
# Poissons Ratio (y) = 0.25372 0.46972
# Poissons Ratio (z) = -0.12319 0.30521
#
# Static dielectric constant tensor:
#      x y z
#    x 3.956530 -0.163950 0.452260 
#    y -0.163950 3.905540 0.211130 
#    z 0.452260 0.211130 4.039390 
# 
# 
# High freq. dielectric constant tensor:
#      x y z
#    x 1.814630 -0.020710 0.015810 
#    y -0.020710 1.783630 0.033620 
#    z 0.015810 0.033620 1.818050 
# 
# From -- ./inp_files/425394.got.cif
#   From: 2010.06.25/outbox.cif.g09.slc.cpg/sg2_213_cif.got.tgz:425394.got - 2010.06.27 13:26:56.
