data_PCOD8028656
_publ_section_title
;
Structure prediction by ZEFSAII (Michael W. Deem and Ramdas Pophale) SiO2 
 PCOD8028656
Probable space group: P -1
;
_chemical_formula_sum "Si O2"
_cell_formula_units_Z 16
_cell_length_a 11.839366
_cell_length_b 9.016845
_cell_length_c 17.901533
_cell_angle_alpha 52.372933
_cell_angle_beta 38.591140
_cell_angle_gamma 80.249693
_cell_volume 738.393819
_symmetry_space_group_name_H-M "P -1"
_symmetry_group_IT_number 2
_symmetry_cell_setting 'triclinic'
loop_
_space_group_symop_operation_xyz
x,y,z
-x,-y,-z
loop_
_atom_site_type_symbol
_atom_site_label
_atom_site_fract_x
_atom_site_fract_y
_atom_site_fract_z
Si Si1 0.825981 0.437182 0.932360
Si Si2 0.451481 0.271666 0.560294
Si Si3 0.824967 0.222297 0.696932
Si Si4 0.252012 0.599111 0.766657
Si Si5 0.012974 0.939319 0.682187
Si Si6 0.480458 0.081491 0.339765
Si Si7 0.953651 0.886929 0.902003
Si Si8 0.305202 0.909855 0.025533
O O1 0.819190 0.306728 0.902286
O O2 0.057575 0.550604 0.826274
O O3 0.831802 0.659774 0.836463
O O4 0.597638 0.249854 0.155866
O O5 0.500000 0.500000 0.500000
O O6 0.532762 0.338595 0.411766
O O7 0.580471 0.177669 0.563031
O O8 0.180385 0.067155 0.778275
O O9 0.783968 0.208215 0.810819
O O10 0.000000 0.500000 0.500000
O O11 0.925787 0.088328 0.658468
O O12 0.582256 0.085872 0.821310
O O13 0.347505 0.818147 0.707284
O O14 0.158724 0.381807 0.937125
O O15 0.036201 0.941510 0.757868
O O16 0.257550 0.062654 0.477781
O O17 0.767265 0.925448 0.005336
#
# Coordination Sequence:
#
# PCOD8028656 Si02
#       8
#     2   2   2   2   2   2   2   2
#     4  12  24  41  66 101 141 174 224 274 325 394
#     4  12  25  37  58  95 140 184 229 267 309 386
#     4  10  25  51  77  94 126 171 226 285 357 403
#     4  12  23  40  66  94 146 190 222 255 323 401
#     4  11  24  43  69  99 128 180 228 277 330 397
#     4  12  24  40  63  96 142 188 223 261 324 393
#     4  11  23  41  66  97 135 186 222 263 328 394
#     4  10  26  45  70 102 132 167 227 290 335 394
#
# _framework density 21.668652999999999
#
# number of rings (size 3 to 8) (size 9 to 14) (size 15 to 20)
#    0.000    0.750    5.000    2.250    3.500    3.500 
#    0.000    1.250    0.000    0.000    0.000    0.000 
#    0.000    0.000    0.000    0.000    0.000    0.000 
#
# Total GULP energy -198403.166957 kJ/mol
# GULP energy per Si atom -12400.197935 kJ/mol
# Density = 2.161933 g / cm^3
# Si number density = 21.668653 Si / 1000 Ang^3
#
#
#
# Elastic Constant Matrix: (Units=GPa)
#
#
# Indices 1 2 3 4 5 6 
#
# 1 47.4352 42.2906 20.3423 10.0423 -10.0869 -18.1225
# 2 42.2906 157.9277 51.4627 -9.5382 -7.9381 -16.3292
# 3 20.3423 51.4627 119.1918 3.1130 -1.0311 -22.3280
# 4 10.0423 -9.5382 3.1130 34.7277 -6.9147 0.2547
# 5 -10.0869 -7.9381 -1.0311 -6.9147 26.4688 2.2472
# 6 -18.1225 -16.3292 -22.3280 0.2547 2.2472 38.9394
#
#
#
# Elastic Compliance Matrix: (Units=1/GPa)
#
#
# Indices 1 2 3 4 5 6 
#
# 1 0.039007 -0.009525 0.000487 -0.012538 0.007556 0.014085
# 2 -0.009525 0.010158 -0.003317 0.006068 0.001057 -0.002176
# 3 0.000487 -0.003317 0.010742 -0.002338 -0.001434 0.005093
# 4 -0.012538 0.006068 -0.002338 0.035673 0.006716 -0.005252
# 5 0.007556 0.001057 -0.001434 0.006716 0.042622 0.000634
# 6 0.014085 -0.002176 0.005093 -0.005252 0.000634 0.034241
#
#
# Mechanical properties :
#
#
# Convention : Reuss Voigt Hill
#
# Bulk Modulus (GPa) = 28.41290 61.41622 44.91456
# Shear Modulus (GPa) = 23.93641 34.05780 28.99711
#
# Velocity S-wave (km/s) = 3.32724 3.96884 3.66212
# Velocity P-wave (km/s) = 5.28220 7.02902 6.21726
#
# Compressibility (1/GPa) = 0.03519528
#
# Stress axis : x y z
#
# Youngs Moduli (GPa) = 25.63645 98.44105 93.09456
#
# Poissons Ratio (x) = 0.93767 -0.04530
# Poissons Ratio (y) = 0.24419 0.30883
# Poissons Ratio (z) = -0.01248 0.32656
#
# Static dielectric constant tensor:
#      x y z
#    x 3.730990 -0.151750 -0.073620 
#    y -0.151750 4.215370 0.023960 
#    z -0.073620 0.023960 4.162090 
# 
# 
# High freq. dielectric constant tensor:
#      x y z
#    x 1.817860 -0.008160 -0.000010 
#    y -0.008160 1.869230 0.000590 
#    z -0.000010 0.000590 1.871310 
# 
# From -- ./inp_files/259246.got.cif
#   From: 2010.06.25/outbox.cif.g09.slc.cpg/sg2_130_cif.got.tgz:259246.got - 2010.06.27 13:26:56.
