data_PCOD8028549
_publ_section_title
;
Structure prediction by ZEFSAII (Michael W. Deem and Ramdas Pophale) SiO2 
 PCOD8028549
Probable space group: P -1
;
_chemical_formula_sum "Si O2"
_cell_formula_units_Z 14
_cell_length_a 8.943696
_cell_length_b 9.167608
_cell_length_c 11.759077
_cell_angle_alpha 75.241453
_cell_angle_beta 48.385842
_cell_angle_gamma 52.609818
_cell_volume 554.523584
_symmetry_space_group_name_H-M "P -1"
_symmetry_group_IT_number 2
_symmetry_cell_setting 'triclinic'
loop_
_space_group_symop_operation_xyz
x,y,z
-x,-y,-z
loop_
_atom_site_type_symbol
_atom_site_label
_atom_site_fract_x
_atom_site_fract_y
_atom_site_fract_z
Si Si1 0.898635 0.511348 0.170766
Si Si2 0.189458 0.626907 0.252986
Si Si3 0.336458 0.220011 0.567521
Si Si4 0.074716 0.793949 0.508275
Si Si5 0.277538 0.713070 0.661636
Si Si6 0.142510 0.930354 0.063480
Si Si7 0.687267 0.742459 0.802658
O O1 0.739658 0.718325 0.272320
O O2 0.717224 0.451785 0.249477
O O3 0.143002 0.353501 0.152121
O O4 0.000000 0.500000 0.000000
O O5 0.241471 0.686304 0.333376
O O6 0.204192 0.731153 0.114989
O O7 0.364052 0.400238 0.198204
O O8 0.913912 0.680520 0.396666
O O9 0.472222 0.307158 0.433837
O O10 0.500000 0.000000 0.500000
O O11 0.259847 0.684540 0.542042
O O12 0.822493 0.804385 0.641889
O O13 0.000000 0.000000 0.500000
O O14 0.036368 0.919746 0.779676
O O15 0.395077 0.919436 0.938320
O O16 0.000000 0.000000 0.000000
#
# Coordination Sequence:
#
# PCOD8028549 Si02
#       7
#     2   2   2   2   2   2   2
#     4  10  25  47  74 109 150 191 243 309 378 433
#     4  11  24  48  74 104 139 195 247 297 372 439
#     4  11  22  44  71 104 143 189 242 295 356 444
#     4  11  22  45  70 104 140 182 243 303 362 430
#     4  11  25  45  70 108 144 189 247 300 372 432
#     4  12  27  45  72 108 150 193 246 302 370 442
#     4  10  26  47  72 105 148 192 244 300 369 442
#
# _framework density 25.246894999999999
#
# number of rings (size 3 to 8) (size 9 to 14) (size 15 to 20)
#    0.000    1.143    2.857    1.286    6.000    4.571 
#    5.143    0.000    0.000    0.000    0.000    0.000 
#    0.000    0.000    0.000    0.000    0.000    0.000 
#
# Total GULP energy -173502.915333 kJ/mol
# GULP energy per Si atom -12393.065381 kJ/mol
# Density = 2.518943 g / cm^3
# Si number density = 25.246895 Si / 1000 Ang^3
#
#
#
# Elastic Constant Matrix: (Units=GPa)
#
#
# Indices 1 2 3 4 5 6 
#
# 1 86.0671 18.3016 52.2443 -13.4448 -7.6330 10.7192
# 2 18.3016 89.6658 46.5746 -16.7148 9.2920 30.9685
# 3 52.2443 46.5746 144.9098 -13.4136 6.2753 5.8472
# 4 -13.4448 -16.7148 -13.4136 48.6189 0.5180 -1.8307
# 5 -7.6330 9.2920 6.2753 0.5180 52.8660 6.2885
# 6 10.7192 30.9685 5.8472 -1.8307 6.2885 38.0248
#
#
#
# Elastic Compliance Matrix: (Units=1/GPa)
#
#
# Indices 1 2 3 4 5 6 
#
# 1 0.016504 0.002170 -0.006251 0.003328 0.003408 -0.005862
# 2 0.002170 0.020534 -0.006210 0.005351 -0.000707 -0.016006
# 3 -0.006251 -0.006210 0.010951 -0.000621 -0.001746 0.005395
# 4 0.003328 0.005351 -0.000621 0.023005 -0.000127 -0.004072
# 5 0.003408 -0.000707 -0.001746 -0.000127 0.020152 -0.003455
# 6 -0.005862 -0.016006 0.005395 -0.004072 -0.003455 0.040532
#
#
# Mechanical properties :
#
#
# Convention : Reuss Voigt Hill
#
# Bulk Modulus (GPa) = 36.48688 61.65375 49.07032
# Shear Modulus (GPa) = 30.97979 41.47009 36.22494
#
# Velocity S-wave (km/s) = 3.50676 4.05727 3.79202
# Velocity P-wave (km/s) = 5.55697 6.81337 6.21699
#
# Compressibility (1/GPa) = 0.02740711
#
# Stress axis : x y z
#
# Youngs Moduli (GPa) = 60.59188 48.69921 91.31699
#
# Poissons Ratio (x) = -0.10567 0.57078
# Poissons Ratio (y) = -0.13148 0.56711
# Poissons Ratio (z) = 0.37873 0.30244
#
# Static dielectric constant tensor:
#      x y z
#    x 4.614640 0.369580 -0.002260 
#    y 0.369580 5.254120 0.518280 
#    z -0.002260 0.518280 4.354300 
# 
# 
# High freq. dielectric constant tensor:
#      x y z
#    x 2.007740 0.018430 -0.007470 
#    y 0.018430 2.004980 0.007900 
#    z -0.007470 0.007900 2.018750 
# 
# From -- ./inp_files/205358.got.cif
#   From: 2010.06.25/outbox.cif.g09.slc.cpg/sg2_103_cif.got.tgz:205358.got - 2010.06.27 13:26:56.
