data_PCOD8028439
_publ_section_title
;
Structure prediction by ZEFSAII (Michael W. Deem and Ramdas Pophale) SiO2 
 PCOD8028439
Probable space group: P -1
;
_chemical_formula_sum "Si O2"
_cell_formula_units_Z 16
_cell_length_a 9.255469
_cell_length_b 11.343407
_cell_length_c 8.869628
_cell_angle_alpha 90.428135
_cell_angle_beta 129.218603
_cell_angle_gamma 101.299639
_cell_volume 696.804219
_symmetry_space_group_name_H-M "P -1"
_symmetry_group_IT_number 2
_symmetry_cell_setting 'triclinic'
loop_
_space_group_symop_operation_xyz
x,y,z
-x,-y,-z
loop_
_atom_site_type_symbol
_atom_site_label
_atom_site_fract_x
_atom_site_fract_y
_atom_site_fract_z
Si Si1 0.714600 0.010210 0.783160
Si Si2 0.274750 0.419037 0.173671
Si Si3 0.602330 0.407451 0.992732
Si Si4 0.340945 0.610159 0.451014
Si Si5 0.793260 0.769829 0.348978
Si Si6 0.882758 0.362658 0.419940
Si Si7 0.551401 0.838044 0.412995
Si Si8 0.095902 0.158667 0.914595
O O1 0.589601 0.901271 0.600461
O O2 0.582129 0.092015 0.768417
O O3 0.804113 0.946793 0.972926
O O4 0.869140 0.104153 0.782460
O O5 0.245174 0.510340 0.022416
O O6 0.222292 0.479955 0.295667
O O7 0.498580 0.417495 0.331452
O O8 0.150747 0.281734 0.054367
O O9 0.429600 0.309982 0.797885
O O10 0.500000 0.500000 0.000000
O O11 0.715069 0.340372 0.182816
O O12 0.203410 0.667349 0.467743
O O13 0.436742 0.698884 0.377755
O O14 0.757985 0.858719 0.460667
O O15 0.846735 0.822701 0.220722
O O16 0.962731 0.712861 0.517292
O O17 0.000000 0.500000 0.500000
#
# Coordination Sequence:
#
# PCOD8028439 Si02
#       8
#     2   2   2   2   2   2   2   2
#     4  10  25  46  70  93 135 180 231 276 335 394
#     4  11  21  39  71  99 139 174 218 276 345 404
#     4  12  21  42  65 101 142 175 215 274 344 413
#     4  11  22  39  69 102 134 182 217 273 347 406
#     4  12  25  44  69 101 136 176 227 283 339 401
#     4  12  24  40  64  98 146 182 214 267 342 415
#     4  11  24  47  69  96 134 180 226 281 335 404
#     4  11  22  45  70 101 133 176 226 285 331 400
#
# _framework density 22.961973
#
# number of rings (size 3 to 8) (size 9 to 14) (size 15 to 20)
#    0.000    0.750    6.250    0.750    1.750    1.000 
#    6.750    1.875    0.000    0.000    0.000    0.000 
#    0.000    0.000    0.000    0.000    0.000    0.000 
#
# Total GULP energy -198264.806811 kJ/mol
# GULP energy per Si atom -12391.550426 kJ/mol
# Density = 2.290971 g / cm^3
# Si number density = 22.961973 Si / 1000 Ang^3
#
#
#
# Elastic Constant Matrix: (Units=GPa)
#
#
# Indices 1 2 3 4 5 6 
#
# 1 127.4283 51.6793 35.0526 -23.0219 8.3561 -24.6932
# 2 51.6793 94.7538 29.0062 -15.4019 -0.1175 -1.8632
# 3 35.0526 29.0062 79.5851 -20.6248 10.4634 -7.5508
# 4 -23.0219 -15.4019 -20.6248 30.5996 -1.2015 9.8793
# 5 8.3561 -0.1175 10.4634 -1.2015 29.5549 -5.9511
# 6 -24.6932 -1.8632 -7.5508 9.8793 -5.9511 40.1057
#
#
#
# Elastic Compliance Matrix: (Units=1/GPa)
#
#
# Indices 1 2 3 4 5 6 
#
# 1 0.012494 -0.005597 -0.001818 0.003348 -0.001560 0.006034
# 2 -0.005597 0.014839 -0.002892 0.002561 0.002039 -0.003629
# 3 -0.001818 -0.002892 0.017378 0.009002 -0.005488 -0.001013
# 4 0.003348 0.002561 0.009002 0.044909 -0.003860 -0.007760
# 5 -0.001560 0.002039 -0.005488 -0.003860 0.036985 0.004540
# 6 0.006034 -0.003629 -0.001013 -0.007760 0.004540 0.030875
#
#
# Mechanical properties :
#
#
# Convention : Reuss Voigt Hill
#
# Bulk Modulus (GPa) = 41.49752 59.24927 50.37339
# Shear Modulus (GPa) = 26.86363 32.45398 29.65881
#
# Velocity S-wave (km/s) = 3.42412 3.76357 3.59785
# Velocity P-wave (km/s) = 5.80898 6.68919 6.26456
#
# Compressibility (1/GPa) = 0.02409783
#
# Stress axis : x y z
#
# Youngs Moduli (GPa) = 80.03920 67.39042 57.54418
#
# Poissons Ratio (x) = 0.37717 0.10460
# Poissons Ratio (y) = 0.44797 0.16641
# Poissons Ratio (z) = 0.14548 0.19489
#
# Static dielectric constant tensor:
#      x y z
#    x 4.059810 0.030510 -0.532130 
#    y 0.030510 3.956730 0.309100 
#    z -0.532130 0.309100 3.451460 
# 
# 
# High freq. dielectric constant tensor:
#      x y z
#    x 1.906430 -0.006680 -0.001270 
#    y -0.006680 1.901280 -0.008160 
#    z -0.001270 -0.008160 1.907840 
# 
# From -- ./inp_files/188082.got.cif
#   From: 2010.06.25/outbox.cif.g09.slc.cpg/sg2_95_cif.got.tgz:188082.got - 2010.06.27 13:26:56.
