data_PCOD8028364
_publ_section_title
;
Structure prediction by ZEFSAII (Michael W. Deem and Ramdas Pophale) SiO2 
 PCOD8028364
Probable space group: P -1
;
_chemical_formula_sum "Si O2"
_cell_formula_units_Z 12
_cell_length_a 5.922789
_cell_length_b 5.100327
_cell_length_c 20.381242
_cell_angle_alpha 91.209472
_cell_angle_beta 118.042550
_cell_angle_gamma 108.461377
_cell_volume 504.697239
_symmetry_space_group_name_H-M "P -1"
_symmetry_group_IT_number 2
_symmetry_cell_setting 'triclinic'
loop_
_space_group_symop_operation_xyz
x,y,z
-x,-y,-z
loop_
_atom_site_type_symbol
_atom_site_label
_atom_site_fract_x
_atom_site_fract_y
_atom_site_fract_z
Si Si1 0.543599 0.324744 0.272553
Si Si2 0.309759 0.628472 0.847319
Si Si3 0.222510 0.358194 0.009787
Si Si4 0.253554 0.083268 0.629611
Si Si5 0.958307 0.979793 0.135215
Si Si6 0.673675 0.815144 0.510448
O O1 0.736833 0.337251 0.236227
O O2 0.609725 0.642901 0.305967
O O3 0.596422 0.135013 0.336271
O O4 0.232252 0.196839 0.205567
O O5 0.103336 0.323076 0.840941
O O6 0.269556 0.885634 0.881678
O O7 0.631727 0.671209 0.902606
O O8 0.041994 0.069407 0.944529
O O9 0.500000 0.500000 0.000000
O O10 0.000000 0.500000 0.000000
O O11 0.255120 0.173516 0.555733
O O12 0.928969 0.917933 0.596820
O O13 0.500000 0.500000 0.500000
O O14 0.500000 0.000000 0.500000
#
# Coordination Sequence:
#
# PCOD8028364 Si02
#       6
#     2   2   2   2   2   2
#     4  12  26  42  72  96 150 178 230 298 358 434
#     4  11  26  45  68 102 139 190 243 301 368 433
#     4  10  25  45  75 103 144 194 260 317 369 439
#     4  11  26  44  66 111 132 182 236 285 350 438
#     4  11  26  45  68 102 139 190 243 301 368 433
#     4  11  24  45  74  98 140 181 228 285 349 427
#
# _framework density 23.776633
#
# number of rings (size 3 to 8) (size 9 to 14) (size 15 to 20)
#    0.000    1.000    0.000    4.500   11.667   11.333 
#    0.000    0.000    0.000    0.000    0.000    0.000 
#    0.000    0.000    0.000    0.000    0.000    0.000 
#
# Total GULP energy -148700.562111 kJ/mol
# GULP energy per Si atom -12391.713509 kJ/mol
# Density = 2.372252 g / cm^3
# Si number density = 23.776633 Si / 1000 Ang^3
#
#
#
# Elastic Constant Matrix: (Units=GPa)
#
#
# Indices 1 2 3 4 5 6 
#
# 1 97.5675 25.5251 33.9377 17.3355 10.3553 -22.6844
# 2 25.5251 124.7431 27.6673 18.2517 3.0313 -8.6198
# 3 33.9377 27.6673 128.1996 17.0914 16.1636 7.4233
# 4 17.3355 18.2517 17.0914 50.4756 1.5692 3.5654
# 5 10.3553 3.0313 16.1636 1.5692 42.6242 4.8501
# 6 -22.6844 -8.6198 7.4233 3.5654 4.8501 45.5737
#
#
#
# Elastic Compliance Matrix: (Units=1/GPa)
#
#
# Indices 1 2 3 4 5 6 
#
# 1 0.014584 -0.001044 -0.003189 -0.004037 -0.003046 0.008221
# 2 -0.001044 0.009030 -0.001436 -0.002536 0.000066 0.001614
# 3 -0.003189 -0.001436 0.009611 -0.001349 -0.002369 -0.003067
# 4 -0.004037 -0.002536 -0.001349 0.022828 0.001310 -0.004195
# 5 -0.003046 0.000066 -0.002369 0.001310 0.025494 -0.003934
# 6 0.008221 0.001614 -0.003067 -0.004195 -0.003934 0.027586
#
#
# Mechanical properties :
#
#
# Convention : Reuss Voigt Hill
#
# Bulk Modulus (GPa) = 45.69140 58.30784 51.99962
# Shear Modulus (GPa) = 39.13428 45.29337 42.21383
#
# Velocity S-wave (km/s) = 4.06139 4.36931 4.21816
# Velocity P-wave (km/s) = 6.42276 7.07325 6.75584
#
# Compressibility (1/GPa) = 0.02188596
#
# Stress axis : x y z
#
# Youngs Moduli (GPa) = 68.56917 110.74725 104.05140
#
# Poissons Ratio (x) = 0.11562 0.33183
# Poissons Ratio (y) = 0.07159 0.14941
# Poissons Ratio (z) = 0.21867 0.15902
#
# Static dielectric constant tensor:
#      x y z
#    x 4.535980 0.272710 0.082990 
#    y 0.272710 4.351320 0.113650 
#    z 0.082990 0.113650 4.649070 
# 
# 
# High freq. dielectric constant tensor:
#      x y z
#    x 1.947550 0.008940 0.003530 
#    y 0.008940 1.955820 0.005980 
#    z 0.003530 0.005980 1.963360 
# 
# From -- ./inp_files/581199.got.cif
#   From: 2010.06.25/outbox.cif.g09.slc.cpg/sg2_291_cif.got.tgz:581199.got - 2010.06.27 13:26:56.
