data_PCOD8028922
_publ_section_title
;
Structure prediction by ZEFSAII (Michael W. Deem and Ramdas Pophale) SiO2 
 PCOD8028922
Probable space group: P -1
;
_chemical_formula_sum "Si O2"
_cell_formula_units_Z 14
_cell_length_a 11.493380
_cell_length_b 11.579912
_cell_length_c 5.470493
_cell_angle_alpha 87.001910
_cell_angle_beta 108.714171
_cell_angle_gamma 61.136509
_cell_volume 584.779419
_symmetry_space_group_name_H-M "P -1"
_symmetry_group_IT_number 2
_symmetry_cell_setting 'triclinic'
loop_
_space_group_symop_operation_xyz
x,y,z
-x,-y,-z
loop_
_atom_site_type_symbol
_atom_site_label
_atom_site_fract_x
_atom_site_fract_y
_atom_site_fract_z
Si Si1 0.578906 0.635501 0.133402
Si Si2 0.307447 0.197024 0.910461
Si Si3 0.900968 0.873275 0.037333
Si Si4 0.954668 0.149863 0.380098
Si Si5 0.338377 0.650886 0.656955
Si Si6 0.405454 0.984717 0.634119
Si Si7 0.682740 0.162346 0.756328
O O1 0.716139 0.652578 0.157569
O O2 0.647250 0.494111 0.342567
O O3 0.469137 0.761956 0.216920
O O4 0.493344 0.629014 0.839939
O O5 0.286580 0.128943 0.660810
O O6 0.211223 0.181004 0.055667
O O7 0.480631 0.117434 0.080064
O O8 0.985191 0.837518 0.841825
O O9 0.815861 0.039343 0.013094
O O10 0.997773 0.799051 0.351651
O O11 0.780320 0.254091 0.227689
O O12 0.000000 0.000000 0.500000
O O13 0.286965 0.725781 0.349565
O O14 0.318351 0.921556 0.471536
O O15 0.500000 0.000000 0.500000
#
# Coordination Sequence:
#
# PCOD8028922 Si02
#       7
#     2   2   2   2   2   2   2
#     4  11  24  43  66  99 134 182 218 287 339 408
#     4  11  22  38  62  99 138 170 225 275 345 402
#     4  12  26  41  72 102 135 178 224 282 341 398
#     4  12  26  46  68 100 136 181 228 282 329 403
#     4  11  26  43  66  95 138 178 235 269 344 402
#     4  11  19  33  61 100 133 170 209 284 346 390
#     4  12  21  38  69 101 134 165 226 285 346 396
#
# _framework density 23.940653000000001
#
# number of rings (size 3 to 8) (size 9 to 14) (size 15 to 20)
#    0.000    0.571    5.714    3.429    2.000    0.000 
#    0.000    1.429    0.000    0.000    0.000    0.000 
#    0.000    0.000    0.000    0.000    0.000    0.000 
#
# Total GULP energy -173478.960704 kJ/mol
# GULP energy per Si atom -12391.354336 kJ/mol
# Density = 2.388616 g / cm^3
# Si number density = 23.940653 Si / 1000 Ang^3
#
#
#
# Elastic Constant Matrix: (Units=GPa)
#
#
# Indices 1 2 3 4 5 6 
#
# 1 120.8207 34.1983 30.7560 -13.3507 -43.3282 7.3774
# 2 34.1983 74.0572 27.1548 -13.7302 -17.8911 14.0805
# 3 30.7560 27.1548 90.5893 -2.1744 -23.7491 5.0814
# 4 -13.3507 -13.7302 -2.1744 34.0239 1.2585 -10.9099
# 5 -43.3282 -17.8911 -23.7491 1.2585 46.2078 -5.5474
# 6 7.3774 14.0805 5.0814 -10.9099 -5.5474 40.9891
#
#
#
# Elastic Compliance Matrix: (Units=1/GPa)
#
#
# Indices 1 2 3 4 5 6 
#
# 1 0.013758 -0.002741 -0.000815 0.004213 0.011454 0.001238
# 2 -0.002741 0.018197 -0.003673 0.004751 0.002006 -0.003766
# 3 -0.000815 -0.003673 0.013664 -0.001081 0.004877 0.000087
# 4 0.004213 0.004751 -0.001081 0.035207 0.005215 0.007820
# 5 0.011454 0.002006 0.004877 0.005215 0.035869 0.002887
# 6 0.001238 -0.003766 0.000087 0.007820 0.002887 0.027929
#
#
# Mechanical properties :
#
#
# Convention : Reuss Voigt Hill
#
# Bulk Modulus (GPa) = 32.09124 52.18727 42.13926
# Shear Modulus (GPa) = 29.50381 37.13472 33.31926
#
# Velocity S-wave (km/s) = 3.51433 3.94269 3.73466
# Velocity P-wave (km/s) = 5.46817 6.52475 6.01969
#
# Compressibility (1/GPa) = 0.03116115
#
# Stress axis : x y z
#
# Youngs Moduli (GPa) = 72.68692 54.95319 73.18478
#
# Poissons Ratio (x) = 0.15065 0.05961
# Poissons Ratio (y) = 0.19927 0.26880
# Poissons Ratio (z) = 0.05921 0.20183
#
# Static dielectric constant tensor:
#      x y z
#    x 4.883330 0.365630 0.637970 
#    y 0.365630 4.478520 0.267440 
#    z 0.637970 0.267440 5.398910 
# 
# 
# High freq. dielectric constant tensor:
#      x y z
#    x 1.950560 0.015920 -0.013590 
#    y 0.015920 1.913070 0.005760 
#    z -0.013590 0.005760 1.957020 
# 
# From -- ./inp_files/66273.got.cif
#   From: 2010.06.25/outbox.cif.g09.slc.cpg/sg2_34_cif.got.tgz:66273.got - 2010.06.27 13:26:56.
