data_PCOD8028465
_publ_section_title
;
Structure prediction by ZEFSAII (Michael W. Deem and Ramdas Pophale) SiO2 
 PCOD8028465
Probable space group: P -1
;
_chemical_formula_sum "Si O2"
_cell_formula_units_Z 14
_cell_length_a 5.401570
_cell_length_b 23.771768
_cell_length_c 11.397174
_cell_angle_alpha 149.727924
_cell_angle_beta 88.366464
_cell_angle_gamma 70.954415
_cell_volume 529.192083
_symmetry_space_group_name_H-M "P -1"
_symmetry_group_IT_number 2
_symmetry_cell_setting 'triclinic'
loop_
_space_group_symop_operation_xyz
x,y,z
-x,-y,-z
loop_
_atom_site_type_symbol
_atom_site_label
_atom_site_fract_x
_atom_site_fract_y
_atom_site_fract_z
Si Si1 0.226606 0.035740 0.425684
Si Si2 0.484704 0.308449 0.909061
Si Si3 0.254550 0.038849 0.176078
Si Si4 0.174021 0.252967 0.986854
Si Si5 0.497050 0.633830 0.240049
Si Si6 0.414317 0.290344 0.391774
Si Si7 0.264600 0.593545 0.514717
O O1 0.348545 0.055740 0.337142
O O2 0.199403 0.126516 0.698274
O O3 0.826729 0.122884 0.569918
O O4 0.482061 0.852563 0.122871
O O5 0.181855 0.348726 0.063176
O O6 0.347980 0.367165 0.884827
O O7 0.557916 0.408204 0.146559
O O8 0.886188 0.200311 0.436052
O O9 0.500000 0.000000 0.000000
O O10 0.280871 0.896203 0.929682
O O11 0.830965 0.376802 0.292150
O O12 0.712050 0.617204 0.315627
O O13 0.500000 0.500000 0.000000
O O14 0.588231 0.332046 0.385573
O O15 0.076932 0.336368 0.426478
#
# Coordination Sequence:
#
# PCOD8028465 Si02
#       7
#     2   2   2   2   2   2   2
#     4  10  25  46  72 109 152 196 262 315 387 443
#     4  11  26  46  72 111 148 204 255 319 385 453
#     4  11  25  47  79 112 153 206 254 313 385 466
#     4  11  25  46  75 108 148 207 255 323 370 466
#     4  11  25  47  75 113 154 196 252 323 384 450
#     4  12  27  51  77 114 153 206 254 315 382 462
#     4  12  28  48  81 108 157 202 258 311 388 450
#
# _framework density 26.455423
#
# number of rings (size 3 to 8) (size 9 to 14) (size 15 to 20)
#    0.000    0.857    2.857    2.143    6.000    5.714 
#    0.000    0.000    0.000    0.000    0.000    0.000 
#    0.000    0.000    0.000    0.000    0.000    0.000 
#
# Total GULP energy -173530.422560 kJ/mol
# GULP energy per Si atom -12395.030183 kJ/mol
# Density = 2.639521 g / cm^3
# Si number density = 26.455423 Si / 1000 Ang^3
#
#
#
# Elastic Constant Matrix: (Units=GPa)
#
#
# Indices 1 2 3 4 5 6 
#
# 1 80.8779 28.3320 10.2555 5.2987 -11.1497 15.3186
# 2 28.3320 132.3832 24.1326 -41.7693 -28.4393 39.7568
# 3 10.2555 24.1326 122.4126 -1.7884 -19.1246 3.5814
# 4 5.2987 -41.7693 -1.7884 62.0170 -0.9954 3.7811
# 5 -11.1497 -28.4393 -19.1246 -0.9954 28.6710 -3.4356
# 6 15.3186 39.7568 3.5814 3.7811 -3.4356 43.2374
#
#
#
# Elastic Compliance Matrix: (Units=1/GPa)
#
#
# Indices 1 2 3 4 5 6 
#
# 1 0.014283 -0.002960 -0.000274 -0.003074 0.002103 -0.001880
# 2 -0.002960 0.026144 -0.000447 0.019604 0.022421 -0.022886
# 3 -0.000274 -0.000447 0.009147 0.000064 0.005576 0.000188
# 4 -0.003074 0.019604 0.000064 0.030983 0.017177 -0.018286
# 5 0.002103 0.022421 0.005576 0.017177 0.060029 -0.018556
# 6 -0.001880 -0.022886 0.000188 -0.018286 -0.018556 0.044947
#
#
# Mechanical properties :
#
#
# Convention : Reuss Voigt Hill
#
# Bulk Modulus (GPa) = 23.69069 51.23488 37.46278
# Shear Modulus (GPa) = 24.15843 44.98200 34.57022
#
# Velocity S-wave (km/s) = 3.02516 4.12794 3.61880
# Velocity P-wave (km/s) = 4.60179 6.49063 5.62605
#
# Compressibility (1/GPa) = 0.04221068
#
# Stress axis : x y z
#
# Youngs Moduli (GPa) = 70.01092 38.24961 109.32828
#
# Poissons Ratio (x) = 0.11323 0.03000
# Poissons Ratio (y) = 0.20725 0.04889
# Poissons Ratio (z) = 0.01921 0.01710
#
# Static dielectric constant tensor:
#      x y z
#    x 4.299600 -0.337320 -0.147740 
#    y -0.337320 5.423310 0.010000 
#    z -0.147740 0.010000 5.449290 
# 
# 
# High freq. dielectric constant tensor:
#      x y z
#    x 2.029220 -0.015100 -0.012950 
#    y -0.015100 2.087240 -0.006990 
#    z -0.012950 -0.006990 2.091860 
# 
# From -- ./inp_files/60938.got.cif
#   From: 2010.06.25/outbox.cif.g09.slc.cpg/sg2_31_cif.got.tgz:60938.got - 2010.06.27 13:26:56.
