data_PCOD8028625
_publ_section_title
;
Structure prediction by ZEFSAII (Michael W. Deem and Ramdas Pophale) SiO2 
 PCOD8028625
Probable space group: P -1
;
_chemical_formula_sum "Si O2"
_cell_formula_units_Z 16
_cell_length_a 9.247561
_cell_length_b 11.955244
_cell_length_c 14.206355
_cell_angle_alpha 28.294371
_cell_angle_beta 96.536906
_cell_angle_gamma 106.599396
_cell_volume 679.874516
_symmetry_space_group_name_H-M "P -1"
_symmetry_group_IT_number 2
_symmetry_cell_setting 'triclinic'
loop_
_space_group_symop_operation_xyz
x,y,z
-x,-y,-z
loop_
_atom_site_type_symbol
_atom_site_label
_atom_site_fract_x
_atom_site_fract_y
_atom_site_fract_z
Si Si1 0.848869 0.572891 0.927211
Si Si2 0.561479 0.171395 0.716579
Si Si3 0.684287 0.659579 0.677343
Si Si4 0.727660 0.701106 0.430683
Si Si5 0.323954 0.837102 0.638488
Si Si6 0.922670 0.026640 0.729166
Si Si7 0.654802 0.734167 0.071042
Si Si8 0.244506 0.647615 0.570531
O O1 0.704186 0.373555 0.125778
O O2 0.786060 0.547819 0.833715
O O3 0.000000 0.500000 0.000000
O O4 0.896513 0.865612 0.749648
O O5 0.688460 0.439192 0.565492
O O6 0.384272 0.156659 0.718096
O O7 0.604558 0.147699 0.627208
O O8 0.583867 0.940931 0.947670
O O9 0.711849 0.623054 0.596880
O O10 0.495942 0.512932 0.795267
O O11 0.747057 0.961377 0.479685
O O12 0.902625 0.904086 0.268562
O O13 0.236533 0.688088 0.650535
O O14 0.500000 0.000000 0.500000
O O15 0.908529 0.304485 0.512002
O O16 0.789405 0.847829 0.920461
O O17 0.740330 0.629528 0.237184
#
# Coordination Sequence:
#
# PCOD8028625 Si02
#       8
#     2   2   2   2   2   2   2   2
#     4  12  28  41  65 108 146 182 230 280 351 422
#     4  10  25  49  74 100 136 183 242 290 340 418
#     4  12  26  42  70 103 140 189 225 280 348 417
#     4  11  25  50  72 100 143 183 230 296 353 401
#     4  12  23  41  68  97 138 182 226 276 340 410
#     4  11  25  43  69 101 145 179 227 294 345 412
#     4  11  24  44  71 103 136 184 238 280 341 414
#     4  11  22  44  69 100 141 177 232 287 339 408
#
# _framework density 23.533754999999999
#
# number of rings (size 3 to 8) (size 9 to 14) (size 15 to 20)
#    0.000    0.750    5.000    0.750    8.750    4.500 
#    0.000    1.250    0.000    0.000    0.000    0.000 
#    0.000    0.000    0.000    0.000    0.000    0.000 
#
# Total GULP energy -198236.311064 kJ/mol
# GULP energy per Si atom -12389.769442 kJ/mol
# Density = 2.348019 g / cm^3
# Si number density = 23.533755 Si / 1000 Ang^3
#
#
#
# Elastic Constant Matrix: (Units=GPa)
#
#
# Indices 1 2 3 4 5 6 
#
# 1 131.9301 27.1220 64.5184 -7.1546 13.9045 10.3236
# 2 27.1220 51.4948 33.0083 -5.0021 7.3562 7.9557
# 3 64.5184 33.0083 126.3481 -8.6234 35.8738 3.6609
# 4 -7.1546 -5.0021 -8.6234 27.5758 -0.0361 2.5878
# 5 13.9045 7.3562 35.8738 -0.0361 42.3452 -7.1535
# 6 10.3236 7.9557 3.6609 2.5878 -7.1535 25.0386
#
#
#
# Elastic Compliance Matrix: (Units=1/GPa)
#
#
# Indices 1 2 3 4 5 6 
#
# 1 0.010617 -0.001951 -0.004880 0.001159 0.000477 -0.003028
# 2 -0.001951 0.025101 -0.004942 0.003155 -0.000709 -0.006977
# 3 -0.004880 -0.004942 0.014910 0.002662 -0.010484 -0.001868
# 4 0.001159 0.003155 0.002662 0.038630 -0.004351 -0.007105
# 5 0.000477 -0.000709 -0.010484 -0.004351 0.034463 0.011857
# 6 -0.003028 -0.006977 -0.001868 -0.007105 0.011857 0.047798
#
#
# Mechanical properties :
#
#
# Convention : Reuss Voigt Hill
#
# Bulk Modulus (GPa) = 36.92740 62.11893 49.52317
# Shear Modulus (GPa) = 24.49844 31.33356 27.91600
#
# Velocity S-wave (km/s) = 3.22994 3.65284 3.44788
# Velocity P-wave (km/s) = 5.44383 6.65161 6.07780
#
# Compressibility (1/GPa) = 0.02708016
#
# Stress axis : x y z
#
# Youngs Moduli (GPa) = 94.18800 39.83916 67.06791
#
# Poissons Ratio (x) = 0.07775 0.32730
# Poissons Ratio (y) = 0.18381 0.33148
# Poissons Ratio (z) = 0.45965 0.19690
#
# Static dielectric constant tensor:
#      x y z
#    x 4.377890 -0.066310 0.379730 
#    y -0.066310 4.385340 0.084160 
#    z 0.379730 0.084160 4.614030 
# 
# 
# High freq. dielectric constant tensor:
#      x y z
#    x 1.937720 -0.013760 0.014300 
#    y -0.013760 1.909130 0.004540 
#    z 0.014300 0.004540 1.939420 
# 
# From -- ./inp_files/499745.got.cif
#   From: 2010.06.25/outbox.cif.g09.slc.cpg/sg2_250_cif.got.tgz:499745.got - 2010.06.27 13:26:56.
