data_PCOD8028002
_publ_section_title
;
Structure prediction by ZEFSAII (Michael W. Deem and Ramdas Pophale) SiO2 
 PCOD8028002
Probable space group: P -1
;
_chemical_formula_sum "Si O2"
_cell_formula_units_Z 12
_cell_length_a 7.636568
_cell_length_b 12.950164
_cell_length_c 9.274313
_cell_angle_alpha 127.457102
_cell_angle_beta 130.650907
_cell_angle_gamma 82.172383
_cell_volume 498.254428
_symmetry_space_group_name_H-M "P -1"
_symmetry_group_IT_number 2
_symmetry_cell_setting 'triclinic'
loop_
_space_group_symop_operation_xyz
x,y,z
-x,-y,-z
loop_
_atom_site_type_symbol
_atom_site_label
_atom_site_fract_x
_atom_site_fract_y
_atom_site_fract_z
Si Si1 0.201114 0.668640 0.240449
Si Si2 0.960902 0.082684 0.684101
Si Si3 0.070017 0.316441 0.382703
Si Si4 0.630937 0.718755 0.741434
Si Si5 0.600897 0.368330 0.168706
Si Si6 0.638099 0.793201 0.360907
O O1 0.060662 0.772491 0.252266
O O2 0.401128 0.718259 0.521634
O O3 0.364198 0.698461 0.206245
O O4 0.000000 0.500000 0.000000
O O5 0.706758 0.963318 0.526121
O O6 0.000000 0.000000 0.500000
O O7 0.204202 0.127573 0.960948
O O8 0.165336 0.316393 0.269788
O O9 0.226744 0.474952 0.670091
O O10 0.127123 0.207164 0.420567
O O11 0.770061 0.277003 0.193537
O O12 0.506781 0.608032 0.714315
O O13 0.368766 0.279333 0.860590
#
# Coordination Sequence:
#
# PCOD8028002 Si02
#       6
#     2   2   2   2   2   2
#     4  11  29  47  77 107 142 191 247 299 362 432
#     4  12  27  46  72 107 148 190 240 297 366 433
#     4  10  25  41  68 105 142 191 242 294 364 426
#     4  11  26  45  72 102 147 188 243 297 360 427
#     4  11  23  41  72 105 144 189 240 300 356 430
#     4  11  25  47  69 103 146 188 237 298 361 432
#
# _framework density 24.084078000000002
#
# number of rings (size 3 to 8) (size 9 to 14) (size 15 to 20)
#    0.000    1.000    1.667    2.500   14.000    4.667 
#    0.000    0.000    0.000    0.000    0.000    0.000 
#    0.000    0.000    0.000    0.000    0.000    0.000 
#
# Total GULP energy -148740.527712 kJ/mol
# GULP energy per Si atom -12395.043976 kJ/mol
# Density = 2.402926 g / cm^3
# Si number density = 24.084078 Si / 1000 Ang^3
#
#
#
# Elastic Constant Matrix: (Units=GPa)
#
#
# Indices 1 2 3 4 5 6 
#
# 1 89.1461 36.1268 25.3347 -9.6351 -6.6110 -1.9964
# 2 36.1268 115.8308 46.5828 22.0869 -0.6259 2.7121
# 3 25.3347 46.5828 150.8461 2.8573 -6.2368 9.5586
# 4 -9.6351 22.0869 2.8573 43.0830 10.3145 0.1642
# 5 -6.6110 -0.6259 -6.2368 10.3145 35.2194 6.5834
# 6 -1.9964 2.7121 9.5586 0.1642 6.5834 31.5925
#
#
#
# Elastic Compliance Matrix: (Units=1/GPa)
#
#
# Indices 1 2 3 4 5 6 
#
# 1 0.014304 -0.005211 -0.000983 0.005828 0.000426 0.001530
# 2 -0.005211 0.012944 -0.002874 -0.007896 0.001201 -0.000780
# 3 -0.000983 -0.002874 0.007898 0.000374 0.001525 -0.002525
# 4 0.005828 -0.007896 0.000374 0.030538 -0.008395 0.002524
# 5 0.000426 0.001201 0.001525 -0.008395 0.032585 -0.007284
# 6 0.001530 -0.000780 -0.002525 0.002524 -0.007284 0.034086
#
#
# Mechanical properties :
#
#
# Convention : Reuss Voigt Hill
#
# Bulk Modulus (GPa) = 58.78305 63.54574 61.16440
# Shear Modulus (GPa) = 32.01839 38.49755 35.25797
#
# Velocity S-wave (km/s) = 3.65011 4.00242 3.83032
# Velocity P-wave (km/s) = 6.49806 6.91385 6.70918
#
# Compressibility (1/GPa) = 0.01701171
#
# Stress axis : x y z
#
# Youngs Moduli (GPa) = 69.90876 77.25305 126.61897
#
# Poissons Ratio (x) = 0.40256 0.12446
# Poissons Ratio (y) = 0.36429 0.36384
# Poissons Ratio (z) = 0.06872 0.22199
#
# Static dielectric constant tensor:
#      x y z
#    x 4.387880 0.246730 0.073360 
#    y 0.246730 4.465230 0.055420 
#    z 0.073360 0.055420 4.466960 
# 
# 
# High freq. dielectric constant tensor:
#      x y z
#    x 1.959260 0.016170 0.002450 
#    y 0.016170 1.944190 -0.004050 
#    z 0.002450 -0.004050 1.969730 
# 
# From -- ./inp_files/182918.got.cif
#   From: 2010.06.25/outbox.cif.g09.slc.cpg/sg2_92_cif.got.tgz:182918.got - 2010.06.27 13:26:56.
