data_PCOD8028798
_publ_section_title
;
Structure prediction by ZEFSAII (Michael W. Deem and Ramdas Pophale) SiO2 
 PCOD8028798
Probable space group: P -1
;
_chemical_formula_sum "Si O2"
_cell_formula_units_Z 12
_cell_length_a 8.702551
_cell_length_b 12.550821
_cell_length_c 5.340029
_cell_angle_alpha 81.432989
_cell_angle_beta 54.297654
_cell_angle_gamma 68.916347
_cell_volume 440.501865
_symmetry_space_group_name_H-M "P -1"
_symmetry_group_IT_number 2
_symmetry_cell_setting 'triclinic'
loop_
_space_group_symop_operation_xyz
x,y,z
-x,-y,-z
loop_
_atom_site_type_symbol
_atom_site_label
_atom_site_fract_x
_atom_site_fract_y
_atom_site_fract_z
Si Si1 0.850967 0.912649 0.411580
Si Si2 0.108381 0.296563 0.863150
Si Si3 0.221046 0.460732 0.393666
Si Si4 0.331768 0.618235 0.533189
Si Si5 0.430381 0.252471 0.947881
Si Si6 0.263896 0.954515 0.029136
O O1 0.852449 0.784606 0.393589
O O2 0.079014 0.908240 0.218630
O O3 0.746256 0.959223 0.759203
O O4 0.729632 0.990349 0.267517
O O5 0.206805 0.394962 0.689487
O O6 0.240643 0.230611 0.999850
O O7 0.869635 0.343207 0.119474
O O8 0.271876 0.576804 0.338038
O O9 0.000000 0.500000 0.500000
O O10 0.374587 0.374937 0.092080
O O11 0.500000 0.500000 0.500000
O O12 0.400465 0.730573 0.410742
O O13 0.528366 0.150321 0.087634
#
# Coordination Sequence:
#
# PCOD8028798 Si02
#       6
#     2   2   2   2   2   2
#     4  10  26  48  77 112 154 196 256 319 379 460
#     4  12  28  47  76 112 151 196 256 317 376 457
#     4  12  26  48  72 109 152 195 253 314 374 453
#     4  12  26  48  74 105 154 201 247 313 379 451
#     4  12  28  46  78 111 147 203 254 309 388 453
#     4  10  26  48  77 113 150 202 253 314 389 457
#
# _framework density 27.241651999999998
#
# number of rings (size 3 to 8) (size 9 to 14) (size 15 to 20)
#    0.000    0.667    3.333    2.000   16.333    1.333 
#    0.000    0.000    0.000    0.000    0.000    0.000 
#    0.000    0.000    0.000    0.000    0.000    0.000 
#
# Total GULP energy -148691.239745 kJ/mol
# GULP energy per Si atom -12390.936645 kJ/mol
# Density = 2.717965 g / cm^3
# Si number density = 27.241652 Si / 1000 Ang^3
#
#
#
# Elastic Constant Matrix: (Units=GPa)
#
#
# Indices 1 2 3 4 5 6 
#
# 1 155.5351 50.4566 36.1840 18.7457 6.0185 -23.1359
# 2 50.4566 94.9783 6.9655 10.9635 3.6844 -1.9939
# 3 36.1840 6.9655 70.5793 14.6552 3.0248 3.5364
# 4 18.7457 10.9635 14.6552 51.0538 3.2020 7.1619
# 5 6.0185 3.6844 3.0248 3.2020 44.5436 2.7603
# 6 -23.1359 -1.9939 3.5364 7.1619 2.7603 52.1582
#
#
#
# Elastic Compliance Matrix: (Units=1/GPa)
#
#
# Indices 1 2 3 4 5 6 
#
# 1 0.009950 -0.004593 -0.004436 -0.002024 -0.000819 0.004860
# 2 -0.004593 0.012997 0.001428 -0.001289 -0.000369 -0.001441
# 3 -0.004436 0.001428 0.017111 -0.003204 -0.000288 -0.002618
# 4 -0.002024 -0.001289 -0.003204 0.022097 -0.000760 -0.003724
# 5 -0.000819 -0.000369 -0.000288 -0.000760 0.022756 -0.001458
# 6 0.004860 -0.001441 -0.002618 -0.003724 -0.001458 0.022039
#
#
# Mechanical properties :
#
#
# Convention : Reuss Voigt Hill
#
# Bulk Modulus (GPa) = 40.23330 56.47831 48.35581
# Shear Modulus (GPa) = 38.33275 44.71689 41.52482
#
# Velocity S-wave (km/s) = 3.75525 4.05593 3.90848
# Velocity P-wave (km/s) = 5.79687 6.53540 6.17718
#
# Compressibility (1/GPa) = 0.02485503
#
# Stress axis : x y z
#
# Youngs Moduli (GPa) = 100.50251 76.94101 58.44349
#
# Poissons Ratio (x) = 0.35340 0.25925
# Poissons Ratio (y) = 0.46162 -0.08344
# Poissons Ratio (z) = 0.44582 -0.10985
#
# Static dielectric constant tensor:
#      x y z
#    x 5.195350 -0.118920 -0.011670 
#    y -0.118920 4.567040 0.186330 
#    z -0.011670 0.186330 4.573010 
# 
# 
# High freq. dielectric constant tensor:
#      x y z
#    x 2.124350 0.001790 -0.008220 
#    y 0.001790 2.097170 -0.001390 
#    z -0.008220 -0.001390 2.094350 
# 
# From -- ./inp_files/27407.got.cif
#   From: 2010.06.25/outbox.cif.g09.slc.cpg/sg2_14_cif.got.tgz:27407.got - 2010.06.27 13:26:56.
