data_PCOD8028222
_publ_section_title
;
Structure prediction by ZEFSAII (Michael W. Deem and Ramdas Pophale) SiO2 
 PCOD8028222
Probable space group: P -1
;
_chemical_formula_sum "Si O2"
_cell_formula_units_Z 14
_cell_length_a 8.850154
_cell_length_b 15.547213
_cell_length_c 7.110383
_cell_angle_alpha 137.678208
_cell_angle_beta 45.962453
_cell_angle_gamma 115.189826
_cell_volume 465.589254
_symmetry_space_group_name_H-M "P -1"
_symmetry_group_IT_number 2
_symmetry_cell_setting 'triclinic'
loop_
_space_group_symop_operation_xyz
x,y,z
-x,-y,-z
loop_
_atom_site_type_symbol
_atom_site_label
_atom_site_fract_x
_atom_site_fract_y
_atom_site_fract_z
Si Si1 0.219343 0.548003 0.352257
Si Si2 0.542486 0.117396 0.824571
Si Si3 0.414866 0.402507 0.275852
Si Si4 0.256476 0.033903 0.199148
Si Si5 0.976671 0.344371 0.641661
Si Si6 0.120090 0.775842 0.077774
Si Si7 0.923089 0.912834 0.077437
O O1 0.407542 0.445133 0.126528
O O2 0.231691 0.567880 0.144615
O O3 0.000000 0.500000 0.500000
O O4 0.215386 0.682922 0.680252
O O5 0.713050 0.125574 0.865295
O O6 0.333948 0.023440 0.585622
O O7 0.537447 0.251220 0.929192
O O8 0.300443 0.108896 0.085531
O O9 0.500000 0.500000 0.500000
O O10 0.174939 0.419369 0.601953
O O11 0.123905 0.146929 0.630697
O O12 0.100864 0.928125 0.116896
O O13 0.500000 0.000000 0.000000
O O14 0.895748 0.302088 0.840469
O O15 0.055419 0.234541 0.237200
O O16 0.000000 0.000000 0.000000
#
# Coordination Sequence:
#
# PCOD8028222 Si02
#       7
#     2   2   2   2   2   2   2
#     4  10  25  44  73 105 141 194 248 301 358 429
#     4  11  23  44  72 103 145 195 235 301 361 435
#     4  11  22  44  73 103 143 194 245 297 365 425
#     4  11  26  42  68 113 142 194 245 291 373 443
#     4  11  24  47  72 109 145 189 248 297 367 438
#     4  11  23  48  73  99 152 194 229 308 376 409
#     4  11  23  45  70 104 147 192 235 296 377 432
#
# _framework density 30.069423
#
# number of rings (size 3 to 8) (size 9 to 14) (size 15 to 20)
#    0.000    1.143    5.714    0.000    4.000    5.714 
#    2.571    0.714    0.000    0.000    0.000    0.000 
#    0.000    0.000    0.000    0.000    0.000    0.000 
#
# Total GULP energy -173444.256763 kJ/mol
# GULP energy per Si atom -12388.875483 kJ/mol
# Density = 3.000098 g / cm^3
# Si number density = 30.069423 Si / 1000 Ang^3
#
#
#
# Elastic Constant Matrix: (Units=GPa)
#
#
# Indices 1 2 3 4 5 6 
#
# 1 172.5502 61.2065 32.1559 -5.1429 -40.7432 -20.8342
# 2 61.2065 148.5551 34.6551 7.3516 -10.9962 -10.8337
# 3 32.1559 34.6551 90.1909 8.0031 -17.5783 1.3477
# 4 -5.1429 7.3516 8.0031 33.4610 -0.7267 4.1958
# 5 -40.7432 -10.9962 -17.5783 -0.7267 56.7412 -2.1624
# 6 -20.8342 -10.8337 1.3477 4.1958 -2.1624 56.9669
#
#
#
# Elastic Compliance Matrix: (Units=1/GPa)
#
#
# Indices 1 2 3 4 5 6 
#
# 1 0.008687 -0.002801 -0.001176 0.002008 0.005461 0.002732
# 2 -0.002801 0.008493 -0.002322 -0.001858 -0.001080 0.000742
# 3 -0.001176 -0.002322 0.013178 -0.002652 0.002721 -0.000885
# 4 0.002008 -0.001858 -0.002652 0.031482 0.000593 -0.001852
# 5 0.005461 -0.001080 0.002721 0.000593 0.022282 0.002529
# 6 0.002732 0.000742 -0.000885 -0.001852 0.002529 0.018947
#
#
# Mechanical properties :
#
#
# Convention : Reuss Voigt Hill
#
# Bulk Modulus (GPa) = 56.30129 74.14792 65.22460
# Shear Modulus (GPa) = 41.12304 48.31907 44.72105
#
# Velocity S-wave (km/s) = 3.70212 4.01299 3.86068
# Velocity P-wave (km/s) = 6.08594 6.79592 6.45071
#
# Compressibility (1/GPa) = 0.01776158
#
# Stress axis : x y z
#
# Youngs Moduli (GPa) = 115.11362 117.74196 75.88618
#
# Poissons Ratio (x) = 0.32978 0.08922
# Poissons Ratio (y) = 0.32242 0.17617
# Poissons Ratio (z) = 0.13534 0.27334
#
# Static dielectric constant tensor:
#      x y z
#    x 7.652290 -0.953250 -0.377210 
#    y -0.953250 7.163490 -0.277730 
#    z -0.377210 -0.277730 5.236870 
# 
# 
# High freq. dielectric constant tensor:
#      x y z
#    x 2.296580 -0.015950 -0.022470 
#    y -0.015950 2.280040 -0.008580 
#    z -0.022470 -0.008580 2.205580 
# 
# From -- ./inp_files/216079.got.cif
#   From: 2010.06.25/outbox.cif.g09.slc.cpg/sg2_109_cif.got.tgz:216079.got - 2010.06.27 13:26:56.
