data_PCOD8028351
_publ_section_title
;
Structure prediction by ZEFSAII (Michael W. Deem and Ramdas Pophale) SiO2 
 PCOD8028351
Probable space group: P -1
;
_chemical_formula_sum "Si O2"
_cell_formula_units_Z 14
_cell_length_a 9.385588
_cell_length_b 9.791174
_cell_length_c 12.261823
_cell_angle_alpha 127.486118
_cell_angle_beta 46.028688
_cell_angle_gamma 129.006375
_cell_volume 599.782732
_symmetry_space_group_name_H-M "P -1"
_symmetry_group_IT_number 2
_symmetry_cell_setting 'triclinic'
loop_
_space_group_symop_operation_xyz
x,y,z
-x,-y,-z
loop_
_atom_site_type_symbol
_atom_site_label
_atom_site_fract_x
_atom_site_fract_y
_atom_site_fract_z
Si Si1 0.602881 0.182970 0.172996
Si Si2 0.504607 0.943286 0.307695
Si Si3 0.076671 0.489015 0.699432
Si Si4 0.810847 0.963577 0.337375
Si Si5 0.233218 0.293036 0.336533
Si Si6 0.953519 0.297255 0.880872
Si Si7 0.670152 0.483229 0.818118
O O1 0.742150 0.358977 0.254990
O O2 0.381523 0.198217 0.266523
O O3 0.556479 0.999752 0.181516
O O4 0.728757 0.163742 0.986975
O O5 0.369957 0.057952 0.486465
O O6 0.367451 0.728538 0.289926
O O7 0.726927 0.992631 0.277348
O O8 0.186297 0.428883 0.512117
O O9 0.951125 0.311265 0.757230
O O10 0.906778 0.574420 0.786526
O O11 0.019205 0.135664 0.336872
O O12 0.860787 0.775822 0.218454
O O13 0.352244 0.414777 0.230195
O O14 0.000000 0.500000 0.000000
O O15 0.500000 0.500000 0.000000
#
# Coordination Sequence:
#
# PCOD8028351 Si02
#       7
#     2   2   2   2   2   2   2
#     4  11  26  44  72 103 141 185 237 289 358 405
#     4  11  27  46  72 106 140 189 231 295 349 420
#     4  11  24  46  72 101 141 185 238 284 352 417
#     4  11  26  46  73  99 149 180 243 282 355 418
#     4  12  26  46  72 103 141 192 233 290 345 429
#     4  10  25  45  73 106 141 185 232 295 351 415
#     4  12  28  45  73 106 144 181 240 291 355 413
#
# _framework density 23.341787
#
# number of rings (size 3 to 8) (size 9 to 14) (size 15 to 20)
#    0.000    0.857    1.429    3.429   16.000    2.286 
#    0.000    0.000    0.000    0.000    0.000    0.000 
#    0.000    0.000    0.000    0.000    0.000    0.000 
#
# Total GULP energy -173677.575778 kJ/mol
# GULP energy per Si atom -12405.541127 kJ/mol
# Density = 2.328866 g / cm^3
# Si number density = 23.341787 Si / 1000 Ang^3
#
#
#
# Elastic Constant Matrix: (Units=GPa)
#
#
# Indices 1 2 3 4 5 6 
#
# 1 130.7328 29.5168 28.5965 -6.0012 -9.8477 -9.0256
# 2 29.5168 87.6325 11.8212 -7.5658 9.4237 -14.5469
# 3 28.5965 11.8212 117.2333 -4.0741 -6.9354 -18.2834
# 4 -6.0012 -7.5658 -4.0741 41.4256 -15.1423 5.0498
# 5 -9.8477 9.4237 -6.9354 -15.1423 40.8839 -3.8010
# 6 -9.0256 -14.5469 -18.2834 5.0498 -3.8010 40.7097
#
#
#
# Elastic Compliance Matrix: (Units=1/GPa)
#
#
# Indices 1 2 3 4 5 6 
#
# 1 0.009017 -0.002970 -0.001598 0.001764 0.003267 0.000307
# 2 -0.002970 0.013448 -0.000248 0.000310 -0.003400 0.003680
# 3 -0.001598 -0.000248 0.009721 0.000938 0.002040 0.003997
# 4 0.001764 0.000310 0.000938 0.028768 0.011017 -0.001617
# 5 0.003267 -0.003400 0.002040 0.011017 0.030635 0.001919
# 6 0.000307 0.003680 0.003997 -0.001617 0.001919 0.028122
#
#
# Mechanical properties :
#
#
# Convention : Reuss Voigt Hill
#
# Bulk Modulus (GPa) = 44.33470 52.82976 48.58223
# Shear Modulus (GPa) = 36.53288 42.31479 39.42384
#
# Velocity S-wave (km/s) = 3.96046 4.26236 4.11418
# Velocity P-wave (km/s) = 6.32049 6.84879 6.58993
#
# Compressibility (1/GPa) = 0.02255570
#
# Stress axis : x y z
#
# Youngs Moduli (GPa) = 110.89568 74.35844 102.86513
#
# Poissons Ratio (x) = 0.22084 0.16435
# Poissons Ratio (y) = 0.32936 0.02552
# Poissons Ratio (z) = 0.17718 0.01845
#
# Static dielectric constant tensor:
#      x y z
#    x 4.413800 -0.247800 0.095940 
#    y -0.247800 4.323190 -0.260450 
#    z 0.095940 -0.260450 4.530460 
# 
# 
# High freq. dielectric constant tensor:
#      x y z
#    x 1.937590 -0.006320 -0.002440 
#    y -0.006320 1.922650 -0.008360 
#    z -0.002440 -0.008360 1.933140 
# 
# From -- ./inp_files/154407.got.cif
#   From: 2010.06.25/outbox.cif.g09.slc.cpg/sg2_78_cif.got.tgz:154407.got - 2010.06.27 13:26:56.
