data_PCOD8028207
_publ_section_title
;
Structure prediction by ZEFSAII (Michael W. Deem and Ramdas Pophale) SiO2 
 PCOD8028207
Probable space group: P -1
;
_chemical_formula_sum "Si O2"
_cell_formula_units_Z 16
_cell_length_a 8.581244
_cell_length_b 20.126777
_cell_length_c 11.816096
_cell_angle_alpha 37.335149
_cell_angle_beta 37.794124
_cell_angle_gamma 39.811806
_cell_volume 702.746427
_symmetry_space_group_name_H-M "P -1"
_symmetry_group_IT_number 2
_symmetry_cell_setting 'triclinic'
loop_
_space_group_symop_operation_xyz
x,y,z
-x,-y,-z
loop_
_atom_site_type_symbol
_atom_site_label
_atom_site_fract_x
_atom_site_fract_y
_atom_site_fract_z
Si Si1 0.754000 0.834653 0.798252
Si Si2 0.279339 0.625033 0.823690
Si Si3 0.759984 0.072967 0.451574
Si Si4 0.265595 0.167685 0.454481
Si Si5 0.016628 0.826021 0.994493
Si Si6 0.514396 0.209173 0.627496
Si Si7 0.552537 0.636335 0.889724
Si Si8 0.204597 0.920003 0.139813
O O1 0.723346 0.828595 0.691232
O O2 0.958195 0.709825 0.899017
O O3 0.893054 0.934971 0.604079
O O4 0.458671 0.871648 0.974684
O O5 0.423572 0.670426 0.577175
O O6 0.422479 0.626079 0.858665
O O7 0.305436 0.491933 0.960553
O O8 0.555090 0.073715 0.463383
O O9 0.570754 0.155381 0.543426
O O10 0.977930 0.122801 0.205152
O O11 0.228106 0.300681 0.337788
O O12 0.019673 0.134518 0.691591
O O13 0.312001 0.723992 0.991480
O O14 0.927152 0.936548 0.984172
O O15 0.801165 0.761736 0.201847
O O16 0.704399 0.117818 0.732914
#
# Coordination Sequence:
#
# PCOD8028207 Si02
#       8
#     2   2   2   2   2   2   2   2
#     4  12  25  43  68  97 140 173 214 270 330 396
#     4  11  23  47  69  94 127 178 227 273 315 383
#     4  11  24  41  67 100 137 171 213 272 337 387
#     4  11  24  45  64  98 139 173 211 270 336 396
#     4  11  22  40  66 101 132 164 216 266 329 388
#     4  12  23  41  70 101 129 171 220 279 322 388
#     4  10  25  44  71  93 129 177 224 270 326 380
#     4  12  26  38  69 106 132 169 216 269 339 398
#
# _framework density 22.767814999999999
#
# number of rings (size 3 to 8) (size 9 to 14) (size 15 to 20)
#    0.000    0.750    6.250    1.500    3.500    4.500 
#    0.000    0.625    0.000    0.000    0.000    0.000 
#    0.000    0.000    0.000    0.000    0.000    0.000 
#
# Total GULP energy -198361.283072 kJ/mol
# GULP energy per Si atom -12397.580192 kJ/mol
# Density = 2.271599 g / cm^3
# Si number density = 22.767815 Si / 1000 Ang^3
#
#
#
# Elastic Constant Matrix: (Units=GPa)
#
#
# Indices 1 2 3 4 5 6 
#
# 1 28.9573 21.7277 23.8532 -0.7446 2.0622 3.0607
# 2 21.7277 152.3142 74.5458 -27.4140 -11.1568 -13.1972
# 3 23.8532 74.5458 126.3839 6.6970 -19.1400 -5.3740
# 4 -0.7446 -27.4140 6.6970 51.7631 0.1194 -0.7191
# 5 2.0622 -11.1568 -19.1400 0.1194 42.4244 -1.5626
# 6 3.0607 -13.1972 -5.3740 -0.7191 -1.5626 21.5638
#
#
#
# Elastic Compliance Matrix: (Units=1/GPa)
#
#
# Indices 1 2 3 4 5 6 
#
# 1 0.045894 -0.004598 -0.007497 -0.000952 -0.007253 -0.011754
# 2 -0.004598 0.012332 -0.006378 0.007384 0.000823 0.006916
# 3 -0.007497 -0.006378 0.014187 -0.005321 0.005135 0.000891
# 4 -0.000952 0.007384 -0.005321 0.023962 -0.000329 0.004103
# 5 -0.007253 0.000823 0.005135 -0.000329 0.026632 0.004732
# 6 -0.011754 0.006916 0.000891 0.004103 0.004732 0.052977
#
#
# Mechanical properties :
#
#
# Convention : Reuss Voigt Hill
#
# Bulk Modulus (GPa) = 28.19706 60.87878 44.53792
# Shear Modulus (GPa) = 22.24659 35.65217 28.94938
#
# Velocity S-wave (km/s) = 3.12926 3.96144 3.56968
# Velocity P-wave (km/s) = 5.04657 6.90804 6.04933
#
# Compressibility (1/GPa) = 0.03546469
#
# Stress axis : x y z
#
# Youngs Moduli (GPa) = 21.78925 81.09287 70.48652
#
# Poissons Ratio (x) = 0.37291 0.52846
# Poissons Ratio (y) = 0.10020 0.44958
# Poissons Ratio (z) = 0.16336 0.51723
#
# Static dielectric constant tensor:
#      x y z
#    x 4.272630 -0.022070 -0.157740 
#    y -0.022070 4.227530 -0.332860 
#    z -0.157740 -0.332860 4.679110 
# 
# 
# High freq. dielectric constant tensor:
#      x y z
#    x 1.907920 -0.006550 -0.002580 
#    y -0.006550 1.874920 -0.002670 
#    z -0.002580 -0.002670 1.909270 
# 
# From -- ./inp_files/404671.got.cif
#   From: 2010.06.25/outbox.cif.g09.slc.cpg/sg2_203_cif.got.tgz:404671.got - 2010.06.27 13:26:56.
