data_PCOD8028495
_publ_section_title
;
Structure prediction by ZEFSAII (Michael W. Deem and Ramdas Pophale) SiO2 
 PCOD8028495
Probable space group: P -1
;
_chemical_formula_sum "Si O2"
_cell_formula_units_Z 14
_cell_length_a 5.117976
_cell_length_b 9.234924
_cell_length_c 15.101757
_cell_angle_alpha 73.460526
_cell_angle_beta 117.477504
_cell_angle_gamma 81.366602
_cell_volume 572.843872
_symmetry_space_group_name_H-M "P -1"
_symmetry_group_IT_number 2
_symmetry_cell_setting 'triclinic'
loop_
_space_group_symop_operation_xyz
x,y,z
-x,-y,-z
loop_
_atom_site_type_symbol
_atom_site_label
_atom_site_fract_x
_atom_site_fract_y
_atom_site_fract_z
Si Si1 0.832049 0.488314 0.091767
Si Si2 0.442548 0.337233 0.539461
Si Si3 0.157863 0.202445 0.667669
Si Si4 0.774287 0.088865 0.371885
Si Si5 0.444632 0.904161 0.090883
Si Si6 0.029656 0.237380 0.021492
Si Si7 0.853059 0.715511 0.673249
O O1 0.056794 0.335285 0.097351
O O2 0.912465 0.442414 0.214738
O O3 0.500000 0.500000 0.000000
O O4 0.874964 0.661202 0.058528
O O5 0.500000 0.500000 0.500000
O O6 0.267600 0.334326 0.606981
O O7 0.205314 0.315780 0.432429
O O8 0.794686 0.214045 0.608898
O O9 0.257207 0.194119 0.787388
O O10 0.346354 0.037656 0.676416
O O11 0.476806 0.227036 0.338898
O O12 0.964707 0.157572 0.319695
O O13 0.000000 0.000000 0.500000
O O14 0.311149 0.766464 0.059228
O O15 0.226630 0.048437 0.093735
O O16 0.500000 0.000000 0.000000
#
# Coordination Sequence:
#
# PCOD8028495 Si02
#       7
#     2   2   2   2   2   2   2
#     4  11  26  45  72 104 142 191 238 298 363 432
#     4  12  27  47  68 106 143 192 234 289 356 431
#     4  12  27  45  75 102 143 184 239 297 354 428
#     4  12  23  46  72 107 136 182 240 293 358 415
#     4  11  26  45  73 103 141 191 239 300 364 429
#     4  10  25  47  67 104 140 182 247 290 366 425
#     4  12  26  44  75 102 144 184 237 296 356 429
#
# _framework density 24.439467
#
# number of rings (size 3 to 8) (size 9 to 14) (size 15 to 20)
#    0.000    0.571    2.857    3.429   14.000    1.143 
#    0.000    0.000    0.000    0.000    0.000    0.000 
#    0.000    0.000    0.000    0.000    0.000    0.000 
#
# Total GULP energy -173494.598012 kJ/mol
# GULP energy per Si atom -12392.471287 kJ/mol
# Density = 2.438384 g / cm^3
# Si number density = 24.439467 Si / 1000 Ang^3
#
#
#
# Elastic Constant Matrix: (Units=GPa)
#
#
# Indices 1 2 3 4 5 6 
#
# 1 106.7636 -1.9673 48.0409 -6.9209 -4.1486 30.3125
# 2 -1.9673 93.6369 13.7306 -4.5649 -1.6203 34.1595
# 3 48.0409 13.7306 190.7020 -3.5204 -0.5963 22.8952
# 4 -6.9209 -4.5649 -3.5204 30.1636 5.9505 -7.0307
# 5 -4.1486 -1.6203 -0.5963 5.9505 33.2755 -5.8558
# 6 30.3125 34.1595 22.8952 -7.0307 -5.8558 44.8140
#
#
#
# Elastic Compliance Matrix: (Units=1/GPa)
#
#
# Indices 1 2 3 4 5 6 
#
# 1 0.014009 0.005064 -0.002438 0.000969 -0.000332 -0.011982
# 2 0.005064 0.016699 -0.000555 0.000168 -0.001416 -0.016029
# 3 -0.002438 -0.000555 0.006024 -0.000113 -0.000392 -0.001074
# 4 0.000969 0.000168 -0.000113 0.035428 -0.005484 0.004117
# 5 -0.000332 -0.001416 -0.000392 -0.005484 0.031759 0.004794
# 6 -0.011982 -0.016029 -0.001074 0.004117 0.004794 0.044458
#
#
# Mechanical properties :
#
#
# Convention : Reuss Voigt Hill
#
# Bulk Modulus (GPa) = 24.46605 56.74568 40.60586
# Shear Modulus (GPa) = 31.67386 43.73719 37.70552
#
# Velocity S-wave (km/s) = 3.60392 4.23497 3.93213
# Velocity P-wave (km/s) = 5.22975 6.86896 6.10462
#
# Compressibility (1/GPa) = 0.04087297
#
# Stress axis : x y z
#
# Youngs Moduli (GPa) = 71.38411 59.88517 166.01286
#
# Poissons Ratio (x) = -0.30328 0.40480
# Poissons Ratio (y) = -0.36151 0.09214
# Poissons Ratio (z) = 0.17406 0.03324
#
# Static dielectric constant tensor:
#      x y z
#    x 24.331340 23.731700 -14.920180 
#    y 23.731700 33.668580 -17.563750 
#    z -14.920180 -17.563750 15.544370 
# 
# 
# High freq. dielectric constant tensor:
#      x y z
#    x 1.970080 0.008610 0.002220 
#    y 0.008610 1.976580 -0.003730 
#    z 0.002220 -0.003730 1.977550 
# 
# From -- ./inp_files/53742.got.cif
#   From: 2010.06.25/outbox.cif.g09.slc.cpg/sg2_27_cif.got.tgz:53742.got - 2010.06.27 13:26:56.
