data_PCOD8028525
_publ_section_title
;
Structure prediction by ZEFSAII (Michael W. Deem and Ramdas Pophale) SiO2 
 PCOD8028525
Probable space group: P -1
;
_chemical_formula_sum "Si O2"
_cell_formula_units_Z 14
_cell_length_a 11.616385
_cell_length_b 7.926771
_cell_length_c 19.829615
_cell_angle_alpha 139.071912
_cell_angle_beta 146.744022
_cell_angle_gamma 61.913766
_cell_volume 586.402553
_symmetry_space_group_name_H-M "P -1"
_symmetry_group_IT_number 2
_symmetry_cell_setting 'triclinic'
loop_
_space_group_symop_operation_xyz
x,y,z
-x,-y,-z
loop_
_atom_site_type_symbol
_atom_site_label
_atom_site_fract_x
_atom_site_fract_y
_atom_site_fract_z
Si Si1 0.814657 0.110488 0.959598
Si Si2 0.533936 0.697741 0.324681
Si Si3 0.523018 0.719641 0.950152
Si Si4 0.025760 0.067268 0.310073
Si Si5 0.890656 0.407040 0.845804
Si Si6 0.568430 0.244005 0.434387
Si Si7 0.913568 0.379839 0.228794
O O1 0.802359 0.141588 0.043339
O O2 0.924673 0.416969 0.068600
O O3 0.558945 0.893279 0.740105
O O4 0.000000 0.000000 0.000000
O O5 0.455351 0.470276 0.157145
O O6 0.797116 0.750704 0.488791
O O7 0.355130 0.566038 0.261524
O O8 0.503091 0.985139 0.377630
O O9 0.294938 0.530522 0.827711
O O10 0.500000 0.000000 0.000000
O O11 0.772903 0.839722 0.148395
O O12 0.981750 0.264175 0.294005
O O13 0.164697 0.920045 0.294422
O O14 0.000000 0.500000 0.000000
O O15 0.500000 0.500000 0.500000
O O16 0.848201 0.356703 0.599579
#
# Coordination Sequence:
#
# PCOD8028525 Si02
#       7
#     2   2   2   2   2   2   2
#     4  12  25  41  69  99 141 180 221 291 360 404
#     4  12  26  45  73 105 137 185 241 287 350 414
#     4  10  25  47  71  98 141 188 240 285 342 425
#     4  11  24  44  73 104 136 183 239 290 345 421
#     4  12  22  44  72  99 138 180 233 292 348 411
#     4  12  25  44  69 105 143 177 230 291 357 416
#     4  11  26  44  68 105 140 183 232 286 355 420
#
# _framework density 23.874386000000001
#
# number of rings (size 3 to 8) (size 9 to 14) (size 15 to 20)
#    0.000    0.571    4.286    3.000    4.000    4.000 
#    0.000    5.000    0.000    0.000    0.000    0.000 
#    0.000    0.000    0.000    0.000    0.000    0.000 
#
# Total GULP energy -173461.345277 kJ/mol
# GULP energy per Si atom -12390.096091 kJ/mol
# Density = 2.382005 g / cm^3
# Si number density = 23.874386 Si / 1000 Ang^3
#
#
#
# Elastic Constant Matrix: (Units=GPa)
#
#
# Indices 1 2 3 4 5 6 
#
# 1 71.7769 6.7689 21.5734 -2.2284 21.3918 -21.6884
# 2 6.7689 66.5311 7.9289 0.9208 -6.8481 -6.3178
# 3 21.5734 7.9289 161.5002 -25.4387 12.9195 -8.8856
# 4 -2.2284 0.9208 -25.4387 41.0942 -1.5278 -2.2799
# 5 21.3918 -6.8481 12.9195 -1.5278 38.8349 -13.5551
# 6 -21.6884 -6.3178 -8.8856 -2.2799 -13.5551 32.7511
#
#
#
# Elastic Compliance Matrix: (Units=1/GPa)
#
#
# Indices 1 2 3 4 5 6 
#
# 1 0.019486 -0.001713 -0.001346 0.000499 -0.007358 0.009198
# 2 -0.001713 0.016260 -0.000879 -0.000576 0.005473 0.003989
# 3 -0.001346 -0.000879 0.007261 0.004422 -0.001438 0.000622
# 4 0.000499 -0.000576 0.004422 0.027323 0.000452 0.003508
# 5 -0.007358 0.005473 -0.001438 0.000452 0.034840 0.010244
# 6 0.009198 0.003989 0.000622 0.003508 0.010244 0.042046
#
#
# Mechanical properties :
#
#
# Convention : Reuss Voigt Hill
#
# Bulk Modulus (GPa) = 28.46443 41.37230 34.91836
# Shear Modulus (GPa) = 29.97601 40.10519 35.04060
#
# Velocity S-wave (km/s) = 3.54725 4.10303 3.83522
# Velocity P-wave (km/s) = 5.35964 6.30978 5.85402
#
# Compressibility (1/GPa) = 0.03513157
#
# Stress axis : x y z
#
# Youngs Moduli (GPa) = 51.32005 61.50220 137.72821
#
# Poissons Ratio (x) = 0.10535 0.18533
# Poissons Ratio (y) = 0.08791 0.12100
# Poissons Ratio (z) = 0.06906 0.05403
#
# Static dielectric constant tensor:
#      x y z
#    x 4.810620 -0.613010 0.672180 
#    y -0.613010 3.409410 -0.324390 
#    z 0.672180 -0.324390 4.916620 
# 
# 
# High freq. dielectric constant tensor:
#      x y z
#    x 1.932670 -0.009840 0.012240 
#    y -0.009840 1.934760 -0.008090 
#    z 0.012240 -0.008090 1.971340 
# 
# From -- ./inp_files/269856.got.cif
#   From: 2010.06.25/outbox.cif.g09.slc.cpg/sg2_135_cif.got.tgz:269856.got - 2010.06.27 13:26:56.
