data_PCOD8028424
_publ_section_title
;
Structure prediction by ZEFSAII (Michael W. Deem and Ramdas Pophale) SiO2 
 PCOD8028424
Probable space group: P -1
;
_chemical_formula_sum "Si O2"
_cell_formula_units_Z 16
_cell_length_a 9.225098
_cell_length_b 20.569442
_cell_length_c 12.688179
_cell_angle_alpha 144.890463
_cell_angle_beta 107.930195
_cell_angle_gamma 45.208310
_cell_volume 740.175922
_symmetry_space_group_name_H-M "P -1"
_symmetry_group_IT_number 2
_symmetry_cell_setting 'triclinic'
loop_
_space_group_symop_operation_xyz
x,y,z
-x,-y,-z
loop_
_atom_site_type_symbol
_atom_site_label
_atom_site_fract_x
_atom_site_fract_y
_atom_site_fract_z
Si Si1 0.541937 0.697602 0.018663
Si Si2 0.615894 0.415075 0.745715
Si Si3 0.032925 0.027787 0.199544
Si Si4 0.523590 0.085923 0.535992
Si Si5 0.118101 0.410680 0.712124
Si Si6 0.208535 0.303594 0.356832
Si Si7 0.816584 0.940597 0.935946
Si Si8 0.113525 0.665789 0.092667
O O1 0.573338 0.546353 0.835953
O O2 0.805737 0.570233 0.843458
O O3 0.519148 0.769001 0.222849
O O4 0.278511 0.891543 0.152954
O O5 0.801086 0.325342 0.769492
O O6 0.755024 0.233151 0.466569
O O7 0.315641 0.563473 0.906814
O O8 0.105717 0.070421 0.179339
O O9 0.988518 0.923757 0.022136
O O10 0.297781 0.214381 0.563663
O O11 0.500000 0.000000 0.500000
O O12 0.820609 0.894681 0.296144
O O13 0.238364 0.339840 0.527643
O O14 0.117346 0.529854 0.931027
O O15 0.000000 0.500000 0.500000
O O16 0.101496 0.239393 0.258765
O O17 0.494695 0.143107 0.150019
#
# Coordination Sequence:
#
# PCOD8028424 Si02
#       8
#     2   2   2   2   2   2   2   2
#     4  12  24  40  68  99 135 181 223 266 336 408
#     4  11  24  41  63  98 137 177 220 271 334 409
#     4  11  24  45  70  98 137 180 221 285 337 393
#     4  12  24  41  67  99 139 177 222 271 331 401
#     4  12  25  42  70 101 134 177 223 278 331 400
#     4  11  25  46  72  99 133 176 230 283 337 393
#     4  10  25  46  70 100 131 173 235 282 334 396
#     4  11  24  41  63  97 139 175 219 268 334 405
#
# _framework density 21.616482000000001
#
# number of rings (size 3 to 8) (size 9 to 14) (size 15 to 20)
#    0.000    0.750    3.750    3.375    1.750    6.500 
#    0.000    3.125    0.000    0.000    0.000    0.000 
#    0.000    0.000    0.000    0.000    0.000    0.000 
#
# Total GULP energy -198409.873591 kJ/mol
# GULP energy per Si atom -12400.617099 kJ/mol
# Density = 2.156728 g / cm^3
# Si number density = 21.616482 Si / 1000 Ang^3
#
#
#
# Elastic Constant Matrix: (Units=GPa)
#
#
# Indices 1 2 3 4 5 6 
#
# 1 107.2488 25.6249 31.7802 7.8463 -11.6505 2.5649
# 2 25.6249 115.5328 49.1031 9.1113 -4.4719 11.1375
# 3 31.7802 49.1031 123.8339 5.5626 -17.6176 0.4013
# 4 7.8463 9.1113 5.5626 38.6790 1.5872 2.7986
# 5 -11.6505 -4.4719 -17.6176 1.5872 43.8140 0.7091
# 6 2.5649 11.1375 0.4013 2.7986 0.7091 27.0220
#
#
#
# Elastic Compliance Matrix: (Units=1/GPa)
#
#
# Indices 1 2 3 4 5 6 
#
# 1 0.010522 -0.001327 -0.001817 -0.001620 0.001996 -0.000309
# 2 -0.001327 0.011200 -0.004129 -0.001436 -0.000749 -0.004260
# 3 -0.001817 -0.004129 0.010674 -0.000454 0.003377 0.001674
# 4 -0.001620 -0.001436 -0.000454 0.026799 -0.001699 -0.001978
# 5 0.001996 -0.000749 0.003377 -0.001699 0.024704 -0.000403
# 6 -0.000309 -0.004260 0.001674 -0.001978 -0.000403 0.038983
#
#
# Mechanical properties :
#
#
# Convention : Reuss Voigt Hill
#
# Bulk Modulus (GPa) = 56.01691 62.18131 59.09911
# Shear Modulus (GPa) = 34.87335 37.91014 36.39175
#
# Velocity S-wave (km/s) = 4.02092 4.19234 4.10752
# Velocity P-wave (km/s) = 6.89400 7.22927 7.06363
#
# Compressibility (1/GPa) = 0.01785175
#
# Stress axis : x y z
#
# Youngs Moduli (GPa) = 95.03755 89.28936 93.68573
#
# Poissons Ratio (x) = 0.11848 0.17018
# Poissons Ratio (y) = 0.12610 0.38679
# Poissons Ratio (z) = 0.17264 0.36864
#
# Static dielectric constant tensor:
#      x y z
#    x 3.979040 0.003200 -0.020080 
#    y 0.003200 3.708800 -0.037500 
#    z -0.020080 -0.037500 4.149110 
# 
# 
# High freq. dielectric constant tensor:
#      x y z
#    x 1.858250 -0.000020 -0.004780 
#    y -0.000020 1.840580 0.001680 
#    z -0.004780 0.001680 1.866300 
# 
# From -- ./inp_files/288692.got.cif
#   From: 2010.06.25/outbox.cif.g09.slc.cpg/sg2_145_cif.got.tgz:288692.got - 2010.06.27 13:26:56.
