data_PCOD8028487
_publ_section_title
;
Structure prediction by ZEFSAII (Michael W. Deem and Ramdas Pophale) SiO2 
 PCOD8028487
Probable space group: P -1
;
_chemical_formula_sum "Si O2"
_cell_formula_units_Z 16
_cell_length_a 13.324108
_cell_length_b 9.178990
_cell_length_c 9.918043
_cell_angle_alpha 45.210351
_cell_angle_beta 94.455169
_cell_angle_gamma 68.742712
_cell_volume 693.115925
_symmetry_space_group_name_H-M "P -1"
_symmetry_group_IT_number 2
_symmetry_cell_setting 'triclinic'
loop_
_space_group_symop_operation_xyz
x,y,z
-x,-y,-z
loop_
_atom_site_type_symbol
_atom_site_label
_atom_site_fract_x
_atom_site_fract_y
_atom_site_fract_z
Si Si1 0.501414 0.500609 0.276720
Si Si2 0.619226 0.000743 0.479700
Si Si3 0.066122 0.885124 0.723052
Si Si4 0.902873 0.799128 0.282611
Si Si5 0.642777 0.956044 0.201127
Si Si6 0.346626 0.514457 0.467927
Si Si7 0.889423 0.963241 0.891203
Si Si8 0.146512 0.362334 0.067832
O O1 0.383192 0.515611 0.314327
O O2 0.591414 0.400146 0.479923
O O3 0.571971 0.289778 0.306860
O O4 0.467676 0.762727 0.041583
O O5 0.663618 0.934014 0.376243
O O6 0.747035 0.810840 0.698074
O O7 0.500000 0.000000 0.500000
O O8 0.986076 0.889345 0.832737
O O9 0.114183 0.043787 0.684788
O O10 0.165874 0.584155 0.895832
O O11 0.000000 0.000000 0.500000
O O12 0.767592 0.869314 0.192759
O O13 0.000000 0.500000 0.500000
O O14 0.945297 0.879669 0.103252
O O15 0.612393 0.756794 0.295241
O O16 0.199976 0.731281 0.319326
O O17 0.825163 0.819361 0.939606
O O18 0.000000 0.500000 0.000000
#
# Coordination Sequence:
#
# PCOD8028487 Si02
#       8
#     2   2   2   2   2   2   2   2
#     4  11  24  48  68 102 141 192 242 303 371 443
#     4  12  26  47  73 108 148 197 245 311 373 447
#     4  11  26  45  71 106 146 195 250 305 375 453
#     4  12  27  44  72 108 149 189 254 310 377 448
#     4  12  27  43  74 103 146 190 252 304 374 448
#     4  11  23  45  73 100 141 186 243 302 374 439
#     4  11  23  47  71 104 144 196 243 310 375 442
#     4  10  25  46  76 101 144 197 249 301 376 438
#
# _framework density 23.084163
#
# number of rings (size 3 to 8) (size 9 to 14) (size 15 to 20)
#    0.000    0.750    3.750    2.625   10.500    0.000 
#    4.500    0.000    0.000    0.000    0.000    0.000 
#    0.000    0.000    0.000    0.000    0.000    0.000 
#
# Total GULP energy -198227.211954 kJ/mol
# GULP energy per Si atom -12389.200747 kJ/mol
# Density = 2.303162 g / cm^3
# Si number density = 23.084163 Si / 1000 Ang^3
#
#
#
# Elastic Constant Matrix: (Units=GPa)
#
#
# Indices 1 2 3 4 5 6 
#
# 1 59.8057 8.0218 17.4091 -3.0803 0.4835 -1.3045
# 2 8.0218 89.3124 29.8919 -13.3267 -2.0241 13.5448
# 3 17.4091 29.8919 137.0304 -16.1581 0.4679 0.8049
# 4 -3.0803 -13.3267 -16.1581 62.0487 2.8273 -7.1526
# 5 0.4835 -2.0241 0.4679 2.8273 39.5001 -3.1441
# 6 -1.3045 13.5448 0.8049 -7.1526 -3.1441 30.5710
#
#
#
# Elastic Compliance Matrix: (Units=1/GPa)
#
#
# Indices 1 2 3 4 5 6 
#
# 1 0.017481 -0.001076 -0.001960 0.000286 -0.000161 0.001325
# 2 -0.001076 0.013195 -0.002535 0.001483 0.000179 -0.005460
# 3 -0.001960 -0.002535 0.008290 0.001664 -0.000229 0.001187
# 4 0.000286 0.001483 0.001664 0.017301 -0.000926 0.003264
# 5 -0.000161 0.000179 -0.000229 -0.000926 0.025582 0.002334
# 6 0.001325 -0.005460 0.001187 0.003264 0.002334 0.036159
#
#
# Mechanical properties :
#
#
# Convention : Reuss Voigt Hill
#
# Bulk Modulus (GPa) = 35.94080 44.08822 40.01451
# Shear Modulus (GPa) = 36.12090 41.81235 38.96662
#
# Velocity S-wave (km/s) = 3.95998 4.26055 4.11301
# Velocity P-wave (km/s) = 6.04250 6.58358 6.31883
#
# Compressibility (1/GPa) = 0.02782353
#
# Stress axis : x y z
#
# Youngs Moduli (GPa) = 57.20659 75.78488 120.63132
#
# Poissons Ratio (x) = 0.08155 0.23638
# Poissons Ratio (y) = 0.06155 0.30585
# Poissons Ratio (z) = 0.11210 0.19215
#
# Static dielectric constant tensor:
#      x y z
#    x 4.202520 0.466930 -0.187540 
#    y 0.466930 5.025500 -0.369090 
#    z -0.187540 -0.369090 4.171370 
# 
# 
# High freq. dielectric constant tensor:
#      x y z
#    x 1.894380 0.012920 -0.002340 
#    y 0.012920 1.934910 -0.010760 
#    z -0.002340 -0.010760 1.918110 
# 
# From -- ./inp_files/297478.got.cif
#   From: 2010.06.25/outbox.cif.g09.slc.cpg/sg2_149_cif.got.tgz:297478.got - 2010.06.27 13:26:56.
