data_PCOD8028670
_publ_section_title
;
Structure prediction by ZEFSAII (Michael W. Deem and Ramdas Pophale) SiO2 
 PCOD8028670
Probable space group: P -1
;
_chemical_formula_sum "Si O2"
_cell_formula_units_Z 16
_cell_length_a 16.668043
_cell_length_b 21.435556
_cell_length_c 6.617360
_cell_angle_alpha 78.680985
_cell_angle_beta 64.638548
_cell_angle_gamma 22.374881
_cell_volume 661.995692
_symmetry_space_group_name_H-M "P -1"
_symmetry_group_IT_number 2
_symmetry_cell_setting 'triclinic'
loop_
_space_group_symop_operation_xyz
x,y,z
-x,-y,-z
loop_
_atom_site_type_symbol
_atom_site_label
_atom_site_fract_x
_atom_site_fract_y
_atom_site_fract_z
Si Si1 0.916100 0.195275 0.614634
Si Si2 0.328452 0.533608 0.997464
Si Si3 0.429526 0.812895 0.531462
Si Si4 0.199429 0.190185 0.292443
Si Si5 0.538528 0.066602 0.497872
Si Si6 0.072633 0.513706 0.037270
Si Si7 0.928613 0.821411 0.878942
Si Si8 0.722346 0.576943 0.739078
O O1 0.824577 0.319207 0.763193
O O2 0.065224 0.116933 0.295230
O O3 0.653584 0.330294 0.756602
O O4 0.127551 0.004278 0.634094
O O5 0.314592 0.468611 0.105560
O O6 0.188986 0.643759 0.863428
O O7 0.463909 0.865000 0.427925
O O8 0.450468 0.779576 0.766250
O O9 0.700627 0.597880 0.261175
O O10 0.029711 0.263337 0.270293
O O11 0.007458 0.382952 0.415685
O O12 0.236305 0.131072 0.508508
O O13 0.500000 0.000000 0.000000
O O14 0.225119 0.248621 0.743145
O O15 0.633860 0.012479 0.197159
O O16 0.228846 0.401331 0.158872
O O17 0.000000 0.500000 0.000000
#
# Coordination Sequence:
#
# PCOD8028670 Si02
#       8
#     2   2   2   2   2   2   2   2
#     4  11  24  48  72 100 132 183 238 284 354 406
#     4  11  25  45  74 102 132 177 238 300 342 400
#     4  11  24  44  67  97 143 186 225 281 337 423
#     4  12  25  40  68 104 141 182 226 289 346 407
#     4  11  23  43  66 102 135 186 230 277 340 418
#     4  10  26  43  67  97 141 186 224 271 338 418
#     4  12  21  43  74 100 138 177 233 287 348 405
#     4  12  25  43  66 105 142 177 225 290 342 404
#
# _framework density 24.169343000000001
#
# number of rings (size 3 to 8) (size 9 to 14) (size 15 to 20)
#    0.000    0.750    5.000    1.875    5.250    3.500 
#    0.000    0.625    0.000    0.000    0.000    0.000 
#    0.000    0.000    0.000    0.000    0.000    0.000 
#
# Total GULP energy -198227.413832 kJ/mol
# GULP energy per Si atom -12389.213364 kJ/mol
# Density = 2.411433 g / cm^3
# Si number density = 24.169343 Si / 1000 Ang^3
#
#
#
# Elastic Constant Matrix: (Units=GPa)
#
#
# Indices 1 2 3 4 5 6 
#
# 1 78.9038 40.4720 36.6125 -1.9483 5.1943 -22.2643
# 2 40.4720 163.2547 49.3299 -21.8513 1.5641 -29.3154
# 3 36.6125 49.3299 121.2258 -0.4336 10.4442 -16.9375
# 4 -1.9483 -21.8513 -0.4336 36.7492 -6.9379 -0.1436
# 5 5.1943 1.5641 10.4442 -6.9379 24.6780 -7.0772
# 6 -22.2643 -29.3154 -16.9375 -0.1436 -7.0772 35.4394
#
#
#
# Elastic Compliance Matrix: (Units=1/GPa)
#
#
# Indices 1 2 3 4 5 6 
#
# 1 0.017413 -0.001934 -0.003398 -0.000228 0.000046 0.007724
# 2 -0.001934 0.009323 -0.002719 0.006280 0.004487 0.006119
# 3 -0.003398 -0.002719 0.010732 -0.002501 -0.004398 -0.000143
# 4 -0.000228 0.006280 -0.002501 0.033167 0.011856 0.006358
# 5 0.000046 0.004487 -0.004398 0.011856 0.048695 0.011411
# 6 0.007724 0.006119 -0.000143 0.006358 0.011411 0.040367
#
#
# Mechanical properties :
#
#
# Convention : Reuss Voigt Hill
#
# Bulk Modulus (GPa) = 46.80255 68.46813 57.63534
# Shear Modulus (GPa) = 27.33437 35.17131 31.25284
#
# Velocity S-wave (km/s) = 3.36661 3.81885 3.59984
# Velocity P-wave (km/s) = 5.87525 6.91627 6.41691
#
# Compressibility (1/GPa) = 0.02136636
#
# Stress axis : x y z
#
# Youngs Moduli (GPa) = 57.42794 107.26554 93.18313
#
# Poissons Ratio (x) = 0.20747 0.31661
# Poissons Ratio (y) = 0.11107 0.25334
# Poissons Ratio (z) = 0.19512 0.29162
#
# Static dielectric constant tensor:
#      x y z
#    x 4.181930 -0.246010 0.096220 
#    y -0.246010 4.663910 0.185380 
#    z 0.096220 0.185380 4.709270 
# 
# 
# High freq. dielectric constant tensor:
#      x y z
#    x 1.933170 -0.020680 0.014140 
#    y -0.020680 1.968370 -0.000170 
#    z 0.014140 -0.000170 1.968090 
# 
# From -- ./inp_files/112820.got.cif
#   From: 2010.06.25/outbox.cif.g09.slc.cpg/sg2_57_cif.got.tgz:112820.got - 2010.06.27 13:26:56.
