data_PCOD8028695
_publ_section_title
;
Structure prediction by ZEFSAII (Michael W. Deem and Ramdas Pophale) SiO2 
 PCOD8028695
Probable space group: P -1
;
_chemical_formula_sum "Si O2"
_cell_formula_units_Z 16
_cell_length_a 9.055849
_cell_length_b 12.082849
_cell_length_c 8.786201
_cell_angle_alpha 121.173860
_cell_angle_beta 120.946957
_cell_angle_gamma 70.163885
_cell_volume 701.955507
_symmetry_space_group_name_H-M "P -1"
_symmetry_group_IT_number 2
_symmetry_cell_setting 'triclinic'
loop_
_space_group_symop_operation_xyz
x,y,z
-x,-y,-z
loop_
_atom_site_type_symbol
_atom_site_label
_atom_site_fract_x
_atom_site_fract_y
_atom_site_fract_z
Si Si1 0.186876 0.465034 0.639536
Si Si2 0.502528 0.401119 0.066774
Si Si3 0.566552 0.761302 0.515466
Si Si4 0.866159 0.904144 0.299079
Si Si5 0.348084 0.052770 0.067164
Si Si6 0.973967 0.602202 0.194512
Si Si7 0.650226 0.448072 0.653618
Si Si8 0.521161 0.882640 0.268493
O O1 0.307286 0.580800 0.747183
O O2 0.265730 0.328376 0.514988
O O3 0.000000 0.500000 0.500000
O O4 0.169251 0.439237 0.793366
O O5 0.348240 0.439877 0.134508
O O6 0.500000 0.500000 0.000000
O O7 0.480097 0.262242 0.893990
O O8 0.613985 0.809061 0.743049
O O9 0.399138 0.682877 0.383142
O O10 0.517958 0.879905 0.451293
O O11 0.695919 0.936043 0.336231
O O12 0.937677 0.752818 0.235403
O O13 0.825170 0.935782 0.119721
O O14 0.000000 0.000000 0.500000
O O15 0.351199 0.959740 0.153205
O O16 0.500000 0.000000 0.000000
O O17 0.167947 0.583117 0.358571
O O18 0.000000 0.500000 0.000000
O O19 0.500000 0.500000 0.500000
#
# Coordination Sequence:
#
# PCOD8028695 Si02
#       8
#     2   2   2   2   2   2   2   2
#     4  11  24  42  67 103 146 180 225 296 360 421
#     4  11  20  43  68 101 135 181 233 279 354 427
#     4  11  23  46  70 100 139 186 239 285 343 432
#     4  11  26  47  71 102 146 185 236 299 362 421
#     4  10  26  44  72  98 132 186 244 287 343 426
#     4  12  25  42  70 104 146 180 226 301 365 407
#     4  11  25  37  69 104 137 179 235 281 348 426
#     4  11  22  46  74  96 140 189 239 284 346 431
#
# _framework density 22.793467
#
# number of rings (size 3 to 8) (size 9 to 14) (size 15 to 20)
#    0.000    1.000    3.750    3.375   10.500    1.000 
#    0.000    0.625    0.000    0.000    0.000    0.000 
#    0.000    0.000    0.000    0.000    0.000    0.000 
#
# Total GULP energy -198283.869639 kJ/mol
# GULP energy per Si atom -12392.741852 kJ/mol
# Density = 2.274159 g / cm^3
# Si number density = 22.793467 Si / 1000 Ang^3
#
#
#
# Elastic Constant Matrix: (Units=GPa)
#
#
# Indices 1 2 3 4 5 6 
#
# 1 99.2938 13.5956 16.1315 4.9307 -3.4198 -2.4586
# 2 13.5956 81.8713 22.9001 -11.4610 10.8146 5.2200
# 3 16.1315 22.9001 131.6666 -2.0705 -9.2881 2.9515
# 4 4.9307 -11.4610 -2.0705 35.3630 -2.0309 4.6066
# 5 -3.4198 10.8146 -9.2881 -2.0309 39.2001 -0.0207
# 6 -2.4586 5.2200 2.9515 4.6066 -0.0207 32.9762
#
#
#
# Elastic Compliance Matrix: (Units=1/GPa)
#
#
# Indices 1 2 3 4 5 6 
#
# 1 0.010707 -0.002100 -0.000936 -0.002362 0.001170 0.001545
# 2 -0.002100 0.014762 -0.002487 0.005056 -0.004585 -0.002980
# 3 -0.000936 -0.002487 0.008334 0.000015 0.002580 -0.000423
# 4 -0.002362 0.005056 0.000015 0.030938 0.000003 -0.005300
# 5 0.001170 -0.004585 0.002580 0.000003 0.027489 0.000599
# 6 0.001545 -0.002980 -0.000423 -0.005300 0.000599 0.031690
#
#
# Mechanical properties :
#
#
# Convention : Reuss Voigt Hill
#
# Bulk Modulus (GPa) = 43.94342 46.45399 45.19871
# Shear Modulus (GPa) = 35.07511 38.85481 36.96496
#
# Velocity S-wave (km/s) = 3.92704 4.13322 4.03145
# Velocity P-wave (km/s) = 6.31530 6.57287 6.44537
#
# Compressibility (1/GPa) = 0.02275654
#
# Stress axis : x y z
#
# Youngs Moduli (GPa) = 93.40082 67.74060 119.99187
#
# Poissons Ratio (x) = 0.14225 0.11228
# Poissons Ratio (y) = 0.19614 0.29846
# Poissons Ratio (z) = 0.08740 0.16849
#
# Static dielectric constant tensor:
#      x y z
#    x 3.634250 -1.102810 -1.249460 
#    y -1.102810 3.150290 -1.677380 
#    z -1.249460 -1.677380 3.084170 
# 
# 
# High freq. dielectric constant tensor:
#      x y z
#    x 1.889760 -0.005430 -0.007970 
#    y -0.005430 1.905490 -0.006120 
#    z -0.007970 -0.006120 1.923240 
# 
# From -- ./inp_files/190373.got.cif
#   From: 2010.06.25/outbox.cif.g09.slc.cpg/sg2_96_cif.got.tgz:190373.got - 2010.06.27 13:26:56.
