data_PCOD8028027
_publ_section_title
;
Structure prediction by ZEFSAII (Michael W. Deem and Ramdas Pophale) SiO2 
 PCOD8028027
Probable space group: P -1
;
_chemical_formula_sum "Si O2"
_cell_formula_units_Z 16
_cell_length_a 12.045000
_cell_length_b 12.252072
_cell_length_c 11.941178
_cell_angle_alpha 89.054585
_cell_angle_beta 143.630730
_cell_angle_gamma 64.715356
_cell_volume 699.552562
_symmetry_space_group_name_H-M "P -1"
_symmetry_group_IT_number 2
_symmetry_cell_setting 'triclinic'
loop_
_space_group_symop_operation_xyz
x,y,z
-x,-y,-z
loop_
_atom_site_type_symbol
_atom_site_label
_atom_site_fract_x
_atom_site_fract_y
_atom_site_fract_z
Si Si1 0.795018 0.918034 0.020907
Si Si2 0.743675 0.334430 0.768645
Si Si3 0.815621 0.230721 0.464602
Si Si4 0.856874 0.661297 0.820213
Si Si5 0.551390 0.129747 0.329145
Si Si6 0.551229 0.579325 0.259985
Si Si7 0.253686 0.289682 0.527332
Si Si8 0.926577 0.225772 0.304098
O O1 0.061878 0.815916 0.157051
O O2 0.901513 0.906177 0.230883
O O3 0.673956 0.845874 0.924047
O O4 0.558696 0.104040 0.788572
O O5 0.500000 0.500000 0.500000
O O6 0.609088 0.317662 0.756475
O O7 0.934210 0.329598 0.998795
O O8 0.587727 0.234446 0.303511
O O9 0.695212 0.400561 0.397162
O O10 0.900631 0.184529 0.405626
O O11 0.558145 0.813665 0.633623
O O12 0.811746 0.655981 0.654971
O O13 0.000000 0.500000 0.000000
O O14 0.846946 0.940381 0.579392
O O15 0.763964 0.589162 0.419448
O O16 0.367074 0.653236 0.998113
O O17 0.019634 0.311522 0.389243
#
# Coordination Sequence:
#
# PCOD8028027 Si02
#       8
#     2   2   2   2   2   2   2   2
#     4  10  25  42  67 103 134 177 222 280 336 398
#     4  11  21  40  66  98 136 168 222 275 333 401
#     4  12  25  45  70  97 136 182 230 272 331 397
#     4  11  23  41  69 100 140 172 218 278 342 402
#     4  10  25  43  70  98 131 178 225 276 337 391
#     4  12  25  41  67 100 137 175 227 275 336 393
#     4  11  26  43  67 103 136 176 221 279 340 397
#     4  11  26  47  67  98 137 182 226 277 328 402
#
# _framework density 22.871762
#
# number of rings (size 3 to 8) (size 9 to 14) (size 15 to 20)
#    0.000    1.000    2.500    3.000    5.250    5.500 
#    0.000    0.000    0.000    0.000    0.000    0.000 
#    0.000    0.000    0.000    0.000    0.000    0.000 
#
# Total GULP energy -198421.352190 kJ/mol
# GULP energy per Si atom -12401.334512 kJ/mol
# Density = 2.281970 g / cm^3
# Si number density = 22.871762 Si / 1000 Ang^3
#
#
#
# Elastic Constant Matrix: (Units=GPa)
#
#
# Indices 1 2 3 4 5 6 
#
# 1 65.2818 12.1585 24.1389 13.5758 -5.4193 14.0887
# 2 12.1585 91.4768 18.8629 6.0757 6.4374 31.2828
# 3 24.1389 18.8629 115.7000 14.4884 -18.8698 1.7985
# 4 13.5758 6.0757 14.4884 30.9122 0.7166 3.0222
# 5 -5.4193 6.4374 -18.8698 0.7166 35.1762 3.9052
# 6 14.0887 31.2828 1.7985 3.0222 3.9052 31.9567
#
#
#
# Elastic Compliance Matrix: (Units=1/GPa)
#
#
# Indices 1 2 3 4 5 6 
#
# 1 0.019847 0.001626 -0.003027 -0.006711 0.002364 -0.009825
# 2 0.001626 0.017562 -0.003278 -0.000873 -0.002783 -0.017301
# 3 -0.003027 -0.003278 0.011170 -0.003744 0.005806 0.003559
# 4 -0.006711 -0.000873 -0.003744 0.037216 -0.003748 0.000963
# 5 0.002364 -0.002783 0.005806 -0.003748 0.032747 -0.002292
# 6 -0.009825 -0.017301 0.003559 0.000963 -0.002292 0.052549
#
#
# Mechanical properties :
#
#
# Convention : Reuss Voigt Hill
#
# Bulk Modulus (GPa) = 25.49752 42.53103 34.01427
# Shear Modulus (GPa) = 25.83668 34.09558 29.96613
#
# Velocity S-wave (km/s) = 3.36465 3.86518 3.62357
# Velocity P-wave (km/s) = 5.12510 6.20929 5.69307
#
# Compressibility (1/GPa) = 0.03921950
#
# Stress axis : x y z
#
# Youngs Moduli (GPa) = 50.38541 56.94098 89.52941
#
# Poissons Ratio (x) = -0.09256 0.27102
# Poissons Ratio (y) = -0.08191 0.29348
# Poissons Ratio (z) = 0.15252 0.18665
#
# Static dielectric constant tensor:
#      x y z
#    x 4.195460 0.173130 0.189820 
#    y 0.173130 4.258280 0.173070 
#    z 0.189820 0.173070 4.156480 
# 
# 
# High freq. dielectric constant tensor:
#      x y z
#    x 1.902490 0.009210 0.003180 
#    y 0.009210 1.907540 0.011130 
#    z 0.003180 0.011130 1.907930 
# 
# From -- ./inp_files/282845.got.cif
#   From: 2010.06.25/outbox.cif.g09.slc.cpg/sg2_142_cif.got.tgz:282845.got - 2010.06.27 13:26:56.
