data_PCOD8028023
_publ_section_title
;
Structure prediction by ZEFSAII (Michael W. Deem and Ramdas Pophale) SiO2 
 PCOD8028023
Probable space group: P -1
;
_chemical_formula_sum "Si O2"
_cell_formula_units_Z 16
_cell_length_a 14.934056
_cell_length_b 15.446689
_cell_length_c 11.065799
_cell_angle_alpha 122.523652
_cell_angle_beta 32.032862
_cell_angle_gamma 143.130379
_cell_volume 728.847474
_symmetry_space_group_name_H-M "P -1"
_symmetry_group_IT_number 2
_symmetry_cell_setting 'triclinic'
loop_
_space_group_symop_operation_xyz
x,y,z
-x,-y,-z
loop_
_atom_site_type_symbol
_atom_site_label
_atom_site_fract_x
_atom_site_fract_y
_atom_site_fract_z
Si Si1 0.917518 0.205355 0.719926
Si Si2 0.765872 0.792073 0.236853
Si Si3 0.555809 0.132174 0.878976
Si Si4 0.373652 0.842542 0.465157
Si Si5 0.181987 0.411385 0.974466
Si Si6 0.631453 0.724088 0.825704
Si Si7 0.234128 0.150482 0.981363
Si Si8 0.787270 0.486729 0.238406
O O1 0.802478 0.217824 0.747799
O O2 0.082398 0.180651 0.476199
O O3 0.113517 0.368438 0.693598
O O4 0.680665 0.057176 0.965117
O O5 0.470291 0.682343 0.530910
O O6 0.839014 0.714555 0.144343
O O7 0.813432 0.802359 0.045981
O O8 0.961466 0.968889 0.201519
O O9 0.647545 0.156704 0.654921
O O10 0.454033 0.201981 0.067672
O O11 0.091416 0.681699 0.723347
O O12 0.500000 0.000000 0.500000
O O13 0.561341 0.839064 0.287866
O O14 0.411066 0.536992 0.904562
O O15 0.274502 0.518138 0.833014
O O16 0.646620 0.727592 0.955892
O O17 0.000000 0.500000 0.000000
#
# Coordination Sequence:
#
# PCOD8028023 Si02
#       8
#     2   2   2   2   2   2   2   2
#     4  11  24  44  68  99 135 185 223 281 347 398
#     4  11  24  44  67 100 134 173 234 269 336 412
#     4  10  25  42  66 102 137 177 232 277 338 414
#     4  11  22  42  68  94 136 176 222 279 335 401
#     4  12  25  42  70  99 132 179 225 278 338 404
#     4  11  25  43  69  99 138 179 222 288 339 401
#     4  10  25  43  68 101 132 182 222 280 336 407
#     4  12  26  44  70  98 136 178 227 284 338 406
#
# _framework density 21.952466000000001
#
# number of rings (size 3 to 8) (size 9 to 14) (size 15 to 20)
#    0.000    1.000    2.500    3.000    3.500    6.500 
#    0.000    0.000    0.000    0.000    0.000    0.000 
#    0.000    0.000    0.000    0.000    0.000    0.000 
#
# Total GULP energy -198417.873236 kJ/mol
# GULP energy per Si atom -12401.117077 kJ/mol
# Density = 2.190250 g / cm^3
# Si number density = 21.952466 Si / 1000 Ang^3
#
#
#
# Elastic Constant Matrix: (Units=GPa)
#
#
# Indices 1 2 3 4 5 6 
#
# 1 97.6861 31.5776 26.6638 -1.4051 2.2849 10.8023
# 2 31.5776 70.2885 42.6102 -1.5475 5.0249 9.1189
# 3 26.6638 42.6102 139.7737 -7.9401 -5.0744 3.9496
# 4 -1.4051 -1.5475 -7.9401 45.3467 -3.3523 -3.1354
# 5 2.2849 5.0249 -5.0744 -3.3523 34.2604 1.9552
# 6 10.8023 9.1189 3.9496 -3.1354 1.9552 36.0491
#
#
#
# Elastic Compliance Matrix: (Units=1/GPa)
#
#
# Indices 1 2 3 4 5 6 
#
# 1 0.012245 -0.004663 -0.000857 -0.000105 -0.000133 -0.002398
# 2 -0.004663 0.020174 -0.005345 -0.000848 -0.003351 -0.003012
# 3 -0.000857 -0.005345 0.009105 0.001599 0.002310 0.000625
# 4 -0.000105 -0.000848 0.001599 0.022615 0.002472 0.001904
# 5 -0.000133 -0.003351 0.002310 0.002472 0.030318 -0.000795
# 6 -0.002398 -0.003012 0.000625 0.001904 -0.000795 0.029361
#
#
# Mechanical properties :
#
#
# Convention : Reuss Voigt Hill
#
# Bulk Modulus (GPa) = 50.52521 56.60572 53.56546
# Shear Modulus (GPa) = 32.86322 36.92434 34.89378
#
# Velocity S-wave (km/s) = 3.87333 4.10569 3.99120
# Velocity P-wave (km/s) = 6.56272 6.95105 6.75967
#
# Compressibility (1/GPa) = 0.01979210
#
# Stress axis : x y z
#
# Youngs Moduli (GPa) = 81.66579 49.56859 109.83523
#
# Poissons Ratio (x) = 0.23114 0.09418
# Poissons Ratio (y) = 0.38082 0.58710
# Poissons Ratio (z) = 0.07002 0.26496
#
# Static dielectric constant tensor:
#      x y z
#    x 3.709040 0.255100 -0.189740 
#    y 0.255100 3.605320 -0.013520 
#    z -0.189740 -0.013520 4.052490 
# 
# 
# High freq. dielectric constant tensor:
#      x y z
#    x 1.872750 0.003730 -0.005400 
#    y 0.003730 1.862470 -0.000970 
#    z -0.005400 -0.000970 1.875840 
# 
# From -- ./inp_files/455783.got.cif
#   From: 2010.06.25/outbox.cif.g09.slc.cpg/sg2_228_cif.got.tgz:455783.got - 2010.06.27 13:26:56.
