data_PCOD8028153
_publ_section_title
;
Structure prediction by ZEFSAII (Michael W. Deem and Ramdas Pophale) SiO2 
 PCOD8028153
Probable space group: P -1
;
_chemical_formula_sum "Si O2"
_cell_formula_units_Z 16
_cell_length_a 12.324399
_cell_length_b 18.094971
_cell_length_c 14.072891
_cell_angle_alpha 30.553408
_cell_angle_beta 51.040051
_cell_angle_gamma 29.557393
_cell_volume 690.498148
_symmetry_space_group_name_H-M "P -1"
_symmetry_group_IT_number 2
_symmetry_cell_setting 'triclinic'
loop_
_space_group_symop_operation_xyz
x,y,z
-x,-y,-z
loop_
_atom_site_type_symbol
_atom_site_label
_atom_site_fract_x
_atom_site_fract_y
_atom_site_fract_z
Si Si1 0.242263 0.274138 0.797489
Si Si2 0.907254 0.287938 0.631664
Si Si3 0.043989 0.109281 0.547215
Si Si4 0.583828 0.997109 0.593789
Si Si5 0.198587 0.743162 0.742367
Si Si6 0.301390 0.056436 0.822830
Si Si7 0.222071 0.417097 0.179588
Si Si8 0.486882 0.429097 0.755695
O O1 0.275620 0.415473 0.600621
O O2 0.167412 0.238117 0.788669
O O3 0.027232 0.451630 0.798030
O O4 0.500000 0.000000 0.000000
O O5 0.070441 0.118826 0.633818
O O6 0.737948 0.293461 0.736024
O O7 0.100064 0.155625 0.755469
O O8 0.757292 0.314799 0.454051
O O9 0.144560 0.159789 0.372756
O O10 0.228092 0.817333 0.737830
O O11 0.619322 0.811270 0.730441
O O12 0.450333 0.068116 0.686832
O O13 0.406498 0.265265 0.337568
O O14 0.446774 0.502905 0.807731
O O15 0.125591 0.649732 0.928411
O O16 0.000000 0.000000 0.500000
O O17 0.490197 0.762030 0.068543
#
# Coordination Sequence:
#
# PCOD8028153 Si02
#       8
#     2   2   2   2   2   2   2   2
#     4  12  28  43  74 108 140 189 237 297 361 422
#     4  12  25  48  68 100 146 186 238 291 355 433
#     4  11  25  44  71 104 138 190 238 296 359 417
#     4  11  23  45  75 102 140 186 243 302 352 418
#     4  10  25  44  67 101 141 185 234 290 357 424
#     4  12  26  47  71 106 140 189 239 294 363 419
#     4  11  23  47  71 102 145 183 246 298 352 427
#     4  11  26  45  67 103 146 187 234 295 356 427
#
# _framework density 23.171676000000001
#
# number of rings (size 3 to 8) (size 9 to 14) (size 15 to 20)
#    0.000    0.750    3.750    2.625    7.000    2.000 
#    0.000    0.000    0.000    0.000    0.000    0.000 
#    0.000    0.000    0.000    0.000    0.000    0.000 
#
# Total GULP energy -198302.088208 kJ/mol
# GULP energy per Si atom -12393.880513 kJ/mol
# Density = 2.311894 g / cm^3
# Si number density = 23.171676 Si / 1000 Ang^3
#
#
#
# Elastic Constant Matrix: (Units=GPa)
#
#
# Indices 1 2 3 4 5 6 
#
# 1 87.4372 23.5402 21.7802 6.8174 -4.8039 3.3013
# 2 23.5402 89.6703 25.5672 10.3244 -8.8748 -10.5542
# 3 21.7802 25.5672 117.1934 9.0292 -18.1090 10.8702
# 4 6.8174 10.3244 9.0292 30.2390 -3.4529 -10.8075
# 5 -4.8039 -8.8748 -18.1090 -3.4529 32.8383 -4.9374
# 6 3.3013 -10.5542 10.8702 -10.8075 -4.9374 46.0285
#
#
#
# Elastic Compliance Matrix: (Units=1/GPa)
#
#
# Indices 1 2 3 4 5 6 
#
# 1 0.012807 -0.002936 -0.001445 -0.002109 -0.000204 -0.001767
# 2 -0.002936 0.013415 -0.002231 -0.001673 0.002342 0.003672
# 3 -0.001445 -0.002231 0.010421 -0.002630 0.004200 -0.003036
# 4 -0.002109 -0.001673 -0.002630 0.038809 0.003353 0.009861
# 5 -0.000204 0.002342 0.004200 0.003353 0.034330 0.004030
# 6 -0.001767 0.003672 -0.003036 0.009861 0.004030 0.026159
#
#
# Mechanical properties :
#
#
# Convention : Reuss Voigt Hill
#
# Bulk Modulus (GPa) = 42.69720 48.45291 45.57505
# Shear Modulus (GPa) = 31.85313 36.71536 34.28424
#
# Velocity S-wave (km/s) = 3.71166 3.98489 3.85070
# Velocity P-wave (km/s) = 6.06919 6.49063 6.28344
#
# Compressibility (1/GPa) = 0.02342074
#
# Stress axis : x y z
#
# Youngs Moduli (GPa) = 78.08269 74.54187 95.95733
#
# Poissons Ratio (x) = 0.21882 0.13865
# Poissons Ratio (y) = 0.22922 0.21408
# Poissons Ratio (z) = 0.11282 0.16630
#
# Static dielectric constant tensor:
#      x y z
#    x 4.223960 0.148250 -0.224230 
#    y 0.148250 6.826010 -0.682140 
#    z -0.224230 -0.682140 4.496480 
# 
# 
# High freq. dielectric constant tensor:
#      x y z
#    x 1.906970 0.010530 -0.013860 
#    y 0.010530 1.925910 -0.003870 
#    z -0.013860 -0.003870 1.917500 
# 
# From -- ./inp_files/448166.got.cif
#   From: 2010.06.25/outbox.cif.g09.slc.cpg/sg2_225_cif.got.tgz:448166.got - 2010.06.27 13:26:56.
