data_PCOD8028329
_publ_section_title
;
Structure prediction by ZEFSAII (Michael W. Deem and Ramdas Pophale) SiO2 
 PCOD8028329
Probable space group: P -1
;
_chemical_formula_sum "Si O2"
_cell_formula_units_Z 16
_cell_length_a 12.136495
_cell_length_b 11.260108
_cell_length_c 14.882950
_cell_angle_alpha 29.193215
_cell_angle_beta 53.209277
_cell_angle_gamma 71.143505
_cell_volume 682.868059
_symmetry_space_group_name_H-M "P -1"
_symmetry_group_IT_number 2
_symmetry_cell_setting 'triclinic'
loop_
_space_group_symop_operation_xyz
x,y,z
-x,-y,-z
loop_
_atom_site_type_symbol
_atom_site_label
_atom_site_fract_x
_atom_site_fract_y
_atom_site_fract_z
Si Si1 0.918882 0.158738 0.393002
Si Si2 0.241223 0.759379 0.259960
Si Si3 0.548715 0.611071 0.002416
Si Si4 0.967324 0.861781 0.285026
Si Si5 0.792971 0.541197 0.250941
Si Si6 0.267573 0.062785 0.532744
Si Si7 0.223914 0.486796 0.931613
Si Si8 0.462845 0.907119 0.221804
O O1 0.873572 0.345366 0.356608
O O2 0.036731 0.363136 0.122987
O O3 0.000000 0.000000 0.500000
O O4 0.757224 0.934975 0.566166
O O5 0.172917 0.419800 0.509667
O O6 0.351608 0.888340 0.206673
O O7 0.085347 0.785245 0.330269
O O8 0.352474 0.955102 0.992417
O O9 0.416647 0.358808 0.296768
O O10 0.716269 0.665011 0.926247
O O11 0.500000 0.500000 0.000000
O O12 0.537101 0.887540 0.837466
O O13 0.890589 0.977952 0.315954
O O14 0.081801 0.140163 0.983445
O O15 0.751034 0.560409 0.154043
O O16 0.625599 0.402856 0.481314
O O17 0.307489 0.818701 0.696748
#
# Coordination Sequence:
#
# PCOD8028329 Si02
#       8
#     2   2   2   2   2   2   2   2
#     4  11  21  36  62  99 133 175 214 259 334 407
#     4  10  25  45  71  89 130 180 228 283 318 384
#     4  12  24  41  66 100 135 169 214 269 336 410
#     4  11  21  44  68  92 122 178 226 272 329 373
#     4  11  22  39  70  96 137 169 219 276 331 399
#     4  11  21  38  62  93 134 169 214 268 328 395
#     4  11  21  40  61 100 135 176 207 266 343 398
#     4  11  24  44  66  99 129 175 223 272 336 383
#
# _framework density 23.430586999999999
#
# number of rings (size 3 to 8) (size 9 to 14) (size 15 to 20)
#    0.000    1.000    3.750    4.875    1.750    1.000 
#    0.000    0.000    8.250    0.000    0.000    0.000 
#    0.000    0.000    0.000    0.000    0.000    0.000 
#
# Total GULP energy -198222.200925 kJ/mol
# GULP energy per Si atom -12388.887558 kJ/mol
# Density = 2.337726 g / cm^3
# Si number density = 23.430587 Si / 1000 Ang^3
#
#
#
# Elastic Constant Matrix: (Units=GPa)
#
#
# Indices 1 2 3 4 5 6 
#
# 1 54.1644 -2.4354 -20.2172 6.2691 -1.0128 3.2232
# 2 -2.4354 59.6654 12.7670 5.5517 -6.4757 7.5771
# 3 -20.2172 12.7670 144.9211 1.5219 -28.0680 8.2455
# 4 6.2691 5.5517 1.5219 37.9676 -2.3347 -0.6317
# 5 -1.0128 -6.4757 -28.0680 -2.3347 37.4087 -1.0228
# 6 3.2232 7.5771 8.2455 -0.6317 -1.0228 21.9880
#
#
#
# Elastic Compliance Matrix: (Units=1/GPa)
#
#
# Indices 1 2 3 4 5 6 
#
# 1 0.020674 0.001354 0.003700 -0.003643 0.003211 -0.004840
# 2 0.001354 0.018256 -0.000564 -0.002825 0.002426 -0.006246
# 3 0.003700 -0.000564 0.008941 -0.000539 0.006584 -0.003410
# 4 -0.003643 -0.002825 -0.000539 0.027465 0.000792 0.002536
# 5 0.003211 0.002426 0.006584 0.000792 0.032167 -0.002257
# 6 -0.004840 -0.006246 -0.003410 0.002536 -0.002257 0.049588
#
#
# Mechanical properties :
#
#
# Convention : Reuss Voigt Hill
#
# Bulk Modulus (GPa) = 17.58976 26.55330 22.07153
# Shear Modulus (GPa) = 29.92926 37.38196 33.65561
#
# Velocity S-wave (km/s) = 3.57789 3.99862 3.79409
# Velocity P-wave (km/s) = 4.95902 5.71629 5.35107
#
# Compressibility (1/GPa) = 0.05685126
#
# Stress axis : x y z
#
# Youngs Moduli (GPa) = 48.36973 54.77773 111.84257
#
# Poissons Ratio (x) = -0.07418 -0.41386
# Poissons Ratio (y) = -0.06550 0.06312
# Poissons Ratio (z) = -0.17898 0.03091
#
# Static dielectric constant tensor:
#      x y z
#    x 3.769090 -0.139060 -0.319380 
#    y -0.139060 4.022400 0.009580 
#    z -0.319380 0.009580 5.171430 
# 
# 
# High freq. dielectric constant tensor:
#      x y z
#    x 1.896810 -0.011720 -0.016080 
#    y -0.011720 1.910990 -0.003180 
#    z -0.016080 -0.003180 1.971610 
# 
# From -- ./inp_files/416663.got.cif
#   From: 2010.06.25/outbox.cif.g09.slc.cpg/sg2_209_cif.got.tgz:416663.got - 2010.06.27 13:26:56.
