data_PCOD8028727
_publ_section_title
;
Structure prediction by ZEFSAII (Michael W. Deem and Ramdas Pophale) SiO2 
 PCOD8028727
Probable space group: P -1
;
_chemical_formula_sum "Si O2"
_cell_formula_units_Z 16
_cell_length_a 9.064082
_cell_length_b 9.039964
_cell_length_c 9.395825
_cell_angle_alpha 87.725496
_cell_angle_beta 101.281436
_cell_angle_gamma 62.649873
_cell_volume 663.150413
_symmetry_space_group_name_H-M "P -1"
_symmetry_group_IT_number 2
_symmetry_cell_setting 'triclinic'
loop_
_space_group_symop_operation_xyz
x,y,z
-x,-y,-z
loop_
_atom_site_type_symbol
_atom_site_label
_atom_site_fract_x
_atom_site_fract_y
_atom_site_fract_z
Si Si1 0.658600 0.833898 0.167670
Si Si2 0.668109 0.520892 0.036466
Si Si3 0.004348 0.671669 0.367395
Si Si4 0.567665 0.318618 0.447001
Si Si5 0.717559 0.936802 0.886489
Si Si6 0.133358 0.716891 0.677524
Si Si7 0.238957 0.381291 0.235620
Si Si8 0.858679 0.080892 0.699283
O O1 0.483529 0.974905 0.196539
O O2 0.798735 0.755330 0.321508
O O3 0.612681 0.701610 0.088158
O O4 0.734718 0.912289 0.060757
O O5 0.739754 0.510893 0.891983
O O6 0.500000 0.500000 0.000000
O O7 0.826805 0.379489 0.161476
O O8 0.079290 0.499175 0.299752
O O9 0.068656 0.788261 0.293101
O O10 0.932705 0.364358 0.455869
O O11 0.500000 0.500000 0.500000
O O12 0.684963 0.301635 0.334692
O O13 0.408933 0.296571 0.366000
O O14 0.676869 0.165800 0.580522
O O15 0.814116 0.041588 0.851084
O O16 0.805794 0.760261 0.825406
O O17 0.993849 0.911357 0.653871
#
# Coordination Sequence:
#
# PCOD8028727 Si02
#       8
#     2   2   2   2   2   2   2   2
#     4  10  26  46  70 101 148 183 229 290 360 408
#     4  11  25  43  75 102 139 186 240 279 347 427
#     4  11  25  46  72 101 145 181 230 294 349 411
#     4  11  21  43  69 102 140 184 235 285 347 418
#     4  10  26  46  67 103 143 184 234 287 349 422
#     4  11  25  43  70 108 143 183 235 290 349 412
#     4  11  24  43  71 102 137 188 227 295 346 409
#     4  11  26  43  71 104 142 186 236 285 352 421
#
# _framework density 24.127257
#
# number of rings (size 3 to 8) (size 9 to 14) (size 15 to 20)
#    0.000    1.250    3.750    1.500   10.500    3.500 
#    0.000    0.000    0.000    0.000    0.000    0.000 
#    0.000    0.000    0.000    0.000    0.000    0.000 
#
# Total GULP energy -198432.817261 kJ/mol
# GULP energy per Si atom -12402.051079 kJ/mol
# Density = 2.407234 g / cm^3
# Si number density = 24.127257 Si / 1000 Ang^3
#
#
#
# Elastic Constant Matrix: (Units=GPa)
#
#
# Indices 1 2 3 4 5 6 
#
# 1 70.5709 15.5214 39.8328 -9.4865 5.9766 -5.5664
# 2 15.5214 93.9993 35.2884 -11.1269 -7.7781 -29.7434
# 3 39.8328 35.2884 88.5001 -16.2196 10.6357 -1.6292
# 4 -9.4865 -11.1269 -16.2196 33.3425 -2.5909 1.8483
# 5 5.9766 -7.7781 10.6357 -2.5909 38.8378 -6.8725
# 6 -5.5664 -29.7434 -1.6292 1.8483 -6.8725 38.9232
#
#
#
# Elastic Compliance Matrix: (Units=1/GPa)
#
#
# Indices 1 2 3 4 5 6 
#
# 1 0.019388 0.001578 -0.009088 0.001464 0.000561 0.003627
# 2 0.001578 0.020221 -0.009131 0.002556 0.009459 0.016844
# 3 -0.009088 -0.009131 0.020533 0.004279 -0.007346 -0.008918
# 4 0.001464 0.002556 0.004279 0.033405 0.001524 0.001025
# 5 0.000561 0.009459 -0.007346 0.001524 0.031892 0.012559
# 6 0.003627 0.016844 -0.008918 0.001025 0.012559 0.040877
#
#
# Mechanical properties :
#
#
# Convention : Reuss Voigt Hill
#
# Bulk Modulus (GPa) = 37.22953 48.26171 42.74562
# Shear Modulus (GPa) = 23.97489 33.04922 28.51205
#
# Velocity S-wave (km/s) = 3.15570 3.70508 3.44137
# Velocity P-wave (km/s) = 5.36115 6.19273 5.79188
#
# Compressibility (1/GPa) = 0.02686040
#
# Stress axis : x y z
#
# Youngs Moduli (GPa) = 51.57830 49.45410 48.70101
#
# Poissons Ratio (x) = -0.07802 0.44257
# Poissons Ratio (y) = -0.08137 0.44469
# Poissons Ratio (z) = 0.46872 0.45157
#
# Static dielectric constant tensor:
#      x y z
#    x 4.298580 -0.114450 -0.009110 
#    y -0.114450 4.291300 -0.205990 
#    z -0.009110 -0.205990 4.400530 
# 
# 
# High freq. dielectric constant tensor:
#      x y z
#    x 1.963750 -0.010490 -0.001230 
#    y -0.010490 1.957320 -0.012960 
#    z -0.001230 -0.012960 1.955800 
# 
# From -- ./inp_files/382020.got.cif
#   From: 2010.06.25/outbox.cif.g09.slc.cpg/sg2_192_cif.got.tgz:382020.got - 2010.06.27 13:26:56.
