data_PCOD8028381
_publ_section_title
;
Structure prediction by ZEFSAII (Michael W. Deem and Ramdas Pophale) SiO2 
 PCOD8028381
Probable space group: P -1
;
_chemical_formula_sum "Si O2"
_cell_formula_units_Z 16
_cell_length_a 14.856852
_cell_length_b 8.580615
_cell_length_c 10.935279
_cell_angle_alpha 137.918357
_cell_angle_beta 58.912617
_cell_angle_gamma 129.996361
_cell_volume 713.629351
_symmetry_space_group_name_H-M "P -1"
_symmetry_group_IT_number 2
_symmetry_cell_setting 'triclinic'
loop_
_space_group_symop_operation_xyz
x,y,z
-x,-y,-z
loop_
_atom_site_type_symbol
_atom_site_label
_atom_site_fract_x
_atom_site_fract_y
_atom_site_fract_z
Si Si1 0.978373 0.723455 0.586628
Si Si2 0.252116 0.926822 0.898363
Si Si3 0.570422 0.193809 0.456243
Si Si4 0.823503 0.763103 0.263030
Si Si5 0.037716 0.410748 0.750746
Si Si6 0.665934 0.013686 0.611413
Si Si7 0.277241 0.451709 0.255694
Si Si8 0.778135 0.247150 0.915186
O O1 0.007321 0.742679 0.433535
O O2 0.850000 0.689502 0.677627
O O3 0.000000 0.500000 0.500000
O O4 0.069571 0.998456 0.740824
O O5 0.332732 0.872650 0.713308
O O6 0.114465 0.722449 0.850603
O O7 0.281133 0.895896 0.000845
O O8 0.285378 0.232877 0.035900
O O9 0.635477 0.470987 0.642439
O O10 0.500000 0.000000 0.500000
O O11 0.474835 0.171318 0.407761
O O12 0.872261 0.675797 0.297333
O O13 0.766980 0.516390 0.067848
O O14 0.724476 0.851805 0.413131
O O15 0.919350 0.335204 0.868790
O O16 0.705698 0.295853 0.686275
O O17 0.704450 0.052928 0.747587
#
# Coordination Sequence:
#
# PCOD8028381 Si02
#       8
#     2   2   2   2   2   2   2   2
#     4  12  21  37  67 101 130 166 213 264 322 386
#     4  11  24  42  71  95 126 175 218 265 324 392
#     4  10  25  46  66  92 129 174 223 269 325 379
#     4  11  23  40  64  93 137 174 204 265 331 386
#     4  11  22  42  66  95 137 174 206 259 334 394
#     4  11  25  42  63  96 128 172 219 272 324 374
#     4  11  23  43  68  95 130 169 219 268 326 386
#     4  11  24  42  65  99 135 169 215 263 323 398
#
# _framework density 22.420601999999999
#
# number of rings (size 3 to 8) (size 9 to 14) (size 15 to 20)
#    0.000    1.000    3.750    3.375    1.750    6.500 
#    0.000    6.875    0.000    0.000    0.000    0.000 
#    0.000    0.000    0.000    0.000    0.000    0.000 
#
# Total GULP energy -198325.144347 kJ/mol
# GULP energy per Si atom -12395.321522 kJ/mol
# Density = 2.236957 g / cm^3
# Si number density = 22.420602 Si / 1000 Ang^3
#
#
#
# Elastic Constant Matrix: (Units=GPa)
#
#
# Indices 1 2 3 4 5 6 
#
# 1 74.2072 1.2351 13.3107 -1.7717 -3.2832 14.8378
# 2 1.2351 52.1461 25.8534 -12.2319 -15.9938 2.4023
# 3 13.3107 25.8534 67.2809 1.2549 -10.8463 12.0609
# 4 -1.7717 -12.2319 1.2549 37.9959 -9.2345 0.6902
# 5 -3.2832 -15.9938 -10.8463 -9.2345 25.3037 4.4790
# 6 14.8378 2.4023 12.0609 0.6902 4.4790 29.3896
#
#
#
# Elastic Compliance Matrix: (Units=1/GPa)
#
#
# Indices 1 2 3 4 5 6 
#
# 1 0.015894 0.004024 -0.002163 0.003869 0.006607 -0.008563
# 2 0.004024 0.037497 -0.010019 0.019514 0.028062 -0.005720
# 3 -0.002163 -0.010019 0.020815 -0.003325 0.002317 -0.006906
# 4 0.003869 0.019514 -0.003325 0.039622 0.027155 -0.007253
# 5 0.006607 0.028062 0.002317 0.027155 0.072244 -0.018228
# 6 -0.008563 -0.005720 -0.006906 -0.007253 -0.018228 0.044599
#
#
# Mechanical properties :
#
#
# Convention : Reuss Voigt Hill
#
# Bulk Modulus (GPa) = 17.27431 30.49251 23.88341
# Shear Modulus (GPa) = 18.77699 28.75350 23.76525
#
# Velocity S-wave (km/s) = 2.89708 3.58503 3.25926
# Velocity P-wave (km/s) = 4.34881 5.54674 4.98390
#
# Compressibility (1/GPa) = 0.05788944
#
# Stress axis : x y z
#
# Youngs Moduli (GPa) = 62.91806 26.66884 48.04317
#
# Poissons Ratio (x) = -0.10732 0.10391
# Poissons Ratio (y) = -0.25320 0.48137
# Poissons Ratio (z) = 0.13608 0.26721
#
# Static dielectric constant tensor:
#      x y z
#    x 3.953500 -0.121710 0.467240 
#    y -0.121710 3.594230 0.672640 
#    z 0.467240 0.672640 4.051170 
# 
# 
# High freq. dielectric constant tensor:
#      x y z
#    x 1.873720 0.010510 0.010420 
#    y 0.010510 1.882480 0.009310 
#    z 0.010420 0.009310 1.892550 
# 
# From -- ./inp_files/448306.got.cif
#   From: 2010.06.25/outbox.cif.g09.slc.cpg/sg2_225_cif.got.tgz:448306.got - 2010.06.27 13:26:56.
