data_PCOD8028610
_publ_section_title
;
Structure prediction by ZEFSAII (Michael W. Deem and Ramdas Pophale) SiO2 
 PCOD8028610
Probable space group: P -1
;
_chemical_formula_sum "Si O2"
_cell_formula_units_Z 14
_cell_length_a 7.893291
_cell_length_b 9.306712
_cell_length_c 8.897169
_cell_angle_alpha 96.191172
_cell_angle_beta 104.608333
_cell_angle_gamma 110.107093
_cell_volume 580.143154
_symmetry_space_group_name_H-M "P -1"
_symmetry_group_IT_number 2
_symmetry_cell_setting 'triclinic'
loop_
_space_group_symop_operation_xyz
x,y,z
-x,-y,-z
loop_
_atom_site_type_symbol
_atom_site_label
_atom_site_fract_x
_atom_site_fract_y
_atom_site_fract_z
Si Si1 0.541575 0.860370 0.079780
Si Si2 0.512311 0.159856 0.583176
Si Si3 0.052523 0.299921 0.210925
Si Si4 0.105243 0.051038 0.375326
Si Si5 0.117788 0.223772 0.880723
Si Si6 0.272833 0.567930 0.824007
Si Si7 0.214184 0.553603 0.486819
O O1 0.474645 0.844421 0.234577
O O2 0.760601 0.885589 0.119676
O O3 0.447665 0.687074 0.967678
O O4 0.500000 0.000000 0.000000
O O5 0.705122 0.286971 0.572259
O O6 0.500000 0.000000 0.500000
O O7 0.319985 0.170476 0.474397
O O8 0.228303 0.426353 0.357101
O O9 0.890966 0.368066 0.176597
O O10 0.993153 0.140697 0.271895
O O11 0.101865 0.267143 0.052237
O O12 0.081851 0.893519 0.253761
O O13 0.000000 0.000000 0.500000
O O14 0.207366 0.387530 0.833312
O O15 0.341266 0.575204 0.666731
O O16 0.000000 0.500000 0.500000
#
# Coordination Sequence:
#
# PCOD8028610 Si02
#       7
#     2   2   2   2   2   2   2
#     4  12  27  49  74 112 157 195 257 313 378 448
#     4  12  29  46  80 111 149 203 254 311 381 449
#     4  11  26  46  78 107 148 200 254 304 383 439
#     4  12  27  48  73 110 157 195 254 310 380 453
#     4  12  26  48  75 109 153 202 245 316 371 451
#     4  11  25  46  78 105 152 196 253 313 376 442
#     4  10  25  48  77 110 148 194 253 314 377 442
#
# _framework density 24.131972000000001
#
# number of rings (size 3 to 8) (size 9 to 14) (size 15 to 20)
#    0.000    0.571    1.429    4.714   14.000    0.571 
#    0.000    0.000    0.000    0.000    0.000    0.000 
#    0.000    0.000    0.000    0.000    0.000    0.000 
#
# Total GULP energy -173437.491244 kJ/mol
# GULP energy per Si atom -12388.392232 kJ/mol
# Density = 2.407705 g / cm^3
# Si number density = 24.131972 Si / 1000 Ang^3
#
#
#
# Elastic Constant Matrix: (Units=GPa)
#
#
# Indices 1 2 3 4 5 6 
#
# 1 69.8579 28.2648 26.2017 -19.1173 -9.6563 2.0623
# 2 28.2648 168.8399 76.8608 -0.0216 -1.9789 8.3617
# 3 26.2017 76.8608 222.8445 5.6464 -36.0100 11.1176
# 4 -19.1173 -0.0216 5.6464 54.9178 0.9102 7.0613
# 5 -9.6563 -1.9789 -36.0100 0.9102 39.3487 -4.5457
# 6 2.0623 8.3617 11.1176 7.0613 -4.5457 39.5687
#
#
#
# Elastic Compliance Matrix: (Units=1/GPa)
#
#
# Indices 1 2 3 4 5 6 
#
# 1 0.017866 -0.002535 -0.000815 0.006368 0.003256 -0.000929
# 2 -0.002535 0.007601 -0.002722 -0.000429 -0.002832 -0.000958
# 3 -0.000815 -0.002722 0.006465 -0.000992 0.005558 -0.000383
# 4 0.006368 -0.000429 -0.000992 0.021014 -0.000286 -0.003745
# 5 0.003256 -0.002832 0.005558 -0.000286 0.031456 0.002532
# 6 -0.000929 -0.000958 -0.000383 -0.003745 0.002532 0.026590
#
#
# Mechanical properties :
#
#
# Convention : Reuss Voigt Hill
#
# Bulk Modulus (GPa) = 50.53937 80.46634 65.50286
# Shear Modulus (GPa) = 38.54105 48.78137 43.66121
#
# Velocity S-wave (km/s) = 4.00070 4.50092 4.25816
# Velocity P-wave (km/s) = 6.50609 7.77353 7.16788
#
# Compressibility (1/GPa) = 0.01978655
#
# Stress axis : x y z
#
# Youngs Moduli (GPa) = 55.97149 131.56786 154.68774
#
# Poissons Ratio (x) = 0.33350 0.12610
# Poissons Ratio (y) = 0.14188 0.42113
# Poissons Ratio (z) = 0.04563 0.35819
#
# Static dielectric constant tensor:
#      x y z
#    x 3.779710 0.210580 0.198770 
#    y 0.210580 3.231610 0.515580 
#    z 0.198770 0.515580 5.385220 
# 
# 
# High freq. dielectric constant tensor:
#      x y z
#    x 1.939110 -0.001210 0.002970 
#    y -0.001210 1.977090 0.014110 
#    z 0.002970 0.014110 1.992510 
# 
# From -- ./inp_files/158810.got.cif
#   From: 2010.06.25/outbox.cif.g09.slc.cpg/sg2_80_cif.got.tgz:158810.got - 2010.06.27 13:26:56.
