data_PCOD8028095
_publ_section_title
;
Structure prediction by ZEFSAII (Michael W. Deem and Ramdas Pophale) SiO2 
 PCOD8028095
Probable space group: P -1
;
_chemical_formula_sum "Si O2"
_cell_formula_units_Z 16
_cell_length_a 25.844571
_cell_length_b 9.219089
_cell_length_c 11.462540
_cell_angle_alpha 42.747717
_cell_angle_beta 151.751295
_cell_angle_gamma 146.274020
_cell_volume 717.681474
_symmetry_space_group_name_H-M "P -1"
_symmetry_group_IT_number 2
_symmetry_cell_setting 'triclinic'
loop_
_space_group_symop_operation_xyz
x,y,z
-x,-y,-z
loop_
_atom_site_type_symbol
_atom_site_label
_atom_site_fract_x
_atom_site_fract_y
_atom_site_fract_z
Si Si1 0.999493 0.451588 0.393074
Si Si2 0.777149 0.349812 0.861810
Si Si3 0.655961 0.662204 0.217149
Si Si4 0.840720 0.100467 0.734251
Si Si5 0.353207 0.353333 0.536000
Si Si6 0.341426 0.186917 0.111303
Si Si7 0.909800 0.926820 0.185340
Si Si8 0.848724 0.514803 0.666114
O O1 0.060375 0.283701 0.597697
O O2 0.000000 0.500000 0.500000
O O3 0.077238 0.726453 0.316485
O O4 0.848480 0.297028 0.137480
O O5 0.711362 0.486090 0.704338
O O6 0.887528 0.511851 0.881208
O O7 0.663211 0.076130 0.732343
O O8 0.696762 0.793375 0.349785
O O9 0.708033 0.479186 0.413936
O O10 0.500000 0.500000 0.000000
O O11 0.710635 0.847678 0.105085
O O12 0.697853 0.861186 0.539840
O O13 0.819364 0.267764 0.683670
O O14 0.903659 0.969066 0.008246
O O15 0.513776 0.551554 0.728872
O O16 0.234478 0.179777 0.986159
O O17 0.029552 0.209265 0.310104
#
# Coordination Sequence:
#
# PCOD8028095 Si02
#       8
#     2   2   2   2   2   2   2   2
#     4  12  28  42  70 106 137 179 224 283 354 408
#     4  11  22  43  72  99 133 181 233 276 335 413
#     4   9  21  42  67  96 133 178 227 278 328 403
#     4  12  25  46  65 105 143 173 225 287 350 395
#     4  10  25  43  69  96 141 182 220 291 341 393
#     4  11  22  43  70 100 130 180 243 268 334 416
#     4  12  25  45  72 100 139 180 227 286 335 408
#     4  11  22  44  71 101 135 182 225 282 343 401
#
# _framework density 22.294013
#
# number of rings (size 3 to 8) (size 9 to 14) (size 15 to 20)
#    0.000    1.000    2.500    3.750    5.250    3.000 
#    0.000    5.625    0.000    0.000    0.000    0.000 
#    0.000    0.000    0.000    0.000    0.000    0.000 
#
# Total GULP energy -198221.475074 kJ/mol
# GULP energy per Si atom -12388.842192 kJ/mol
# Density = 2.224327 g / cm^3
# Si number density = 22.294013 Si / 1000 Ang^3
#
#
#
# Elastic Constant Matrix: (Units=GPa)
#
#
# Indices 1 2 3 4 5 6 
#
# 1 112.2499 41.7368 61.4078 -0.3828 -0.5812 0.0265
# 2 41.7368 108.7656 51.8772 8.9005 0.3425 -2.5221
# 3 61.4078 51.8772 124.9182 5.3255 -1.4775 1.8714
# 4 -0.3828 8.9005 5.3255 27.9885 1.0613 -9.7646
# 5 -0.5812 0.3425 -1.4775 1.0613 30.6678 -10.2108
# 6 0.0265 -2.5221 1.8714 -9.7646 -10.2108 29.3196
#
#
#
# Elastic Compliance Matrix: (Units=1/GPa)
#
#
# Indices 1 2 3 4 5 6 
#
# 1 0.012780 -0.002523 -0.005345 0.002325 0.000258 0.000977
# 2 -0.002523 0.012184 -0.003691 -0.003139 -0.000196 0.000172
# 3 -0.005345 -0.003691 0.012269 -0.001826 0.000030 -0.001693
# 4 0.002325 -0.003139 -0.001826 0.042262 0.003578 0.015165
# 5 0.000258 -0.000196 0.000030 0.003578 0.037196 0.014126
# 6 0.000977 0.000172 -0.001693 0.015165 0.014126 0.044199
#
#
# Mechanical properties :
#
#
# Convention : Reuss Voigt Hill
#
# Bulk Modulus (GPa) = 70.84585 72.88636 71.86610
# Shear Modulus (GPa) = 26.49525 30.32266 28.40895
#
# Velocity S-wave (km/s) = 3.45113 3.69199 3.57359
# Velocity P-wave (km/s) = 6.90850 7.13713 7.02374
#
# Compressibility (1/GPa) = 0.01411515
#
# Stress axis : x y z
#
# Youngs Moduli (GPa) = 78.24659 82.07428 81.50453
#
# Poissons Ratio (x) = 0.20707 0.43568
# Poissons Ratio (y) = 0.19742 0.30081
# Poissons Ratio (z) = 0.41826 0.30291
#
# Static dielectric constant tensor:
#      x y z
#    x 3.383690 -0.050000 0.129800 
#    y -0.050000 3.928870 -0.070070 
#    z 0.129800 -0.070070 3.981260 
# 
# 
# High freq. dielectric constant tensor:
#      x y z
#    x 1.878960 0.011370 -0.012400 
#    y 0.011370 1.874350 -0.007520 
#    z -0.012400 -0.007520 1.887200 
# 
# From -- ./inp_files/306217.got.cif
#   From: 2010.06.25/outbox.cif.g09.slc.cpg/sg2_154_cif.got.tgz:306217.got - 2010.06.27 13:26:56.
