data_PCOD8028184
_publ_section_title
;
Structure prediction by ZEFSAII (Michael W. Deem and Ramdas Pophale) SiO2 
 PCOD8028184
Probable space group: P -1
;
_chemical_formula_sum "Si O2"
_cell_formula_units_Z 14
_cell_length_a 22.202237
_cell_length_b 9.431389
_cell_length_c 9.527027
_cell_angle_alpha 45.225441
_cell_angle_beta 139.227965
_cell_angle_gamma 151.583304
_cell_volume 615.261165
_symmetry_space_group_name_H-M "P -1"
_symmetry_group_IT_number 2
_symmetry_cell_setting 'triclinic'
loop_
_space_group_symop_operation_xyz
x,y,z
-x,-y,-z
loop_
_atom_site_type_symbol
_atom_site_label
_atom_site_fract_x
_atom_site_fract_y
_atom_site_fract_z
Si Si1 0.646471 0.321321 0.991220
Si Si2 0.975230 0.889935 0.876753
Si Si3 0.438427 0.623259 0.731852
Si Si4 0.111197 0.729694 0.152017
Si Si5 0.325132 0.720358 0.237249
Si Si6 0.638108 0.676980 0.923378
Si Si7 0.922438 0.545476 0.423802
O O1 0.655447 0.551448 0.915805
O O2 0.773596 0.374977 0.216220
O O3 0.643896 0.354457 0.796831
O O4 0.500000 0.000000 0.000000
O O5 0.841064 0.530668 0.871634
O O6 0.978552 0.097261 0.643463
O O7 0.100628 0.946456 0.022352
O O8 0.000000 0.000000 0.000000
O O9 0.364211 0.672910 0.481381
O O10 0.330596 0.380984 0.831397
O O11 0.583988 0.930760 0.848645
O O12 0.481932 0.512574 0.781358
O O13 0.101167 0.568946 0.380214
O O14 0.000000 0.500000 0.000000
O O15 0.262899 0.970425 0.178897
O O16 0.000000 0.500000 0.500000
#
# Coordination Sequence:
#
# PCOD8028184 Si02
#       7
#     2   2   2   2   2   2   2
#     4  12  25  45  72 104 145 184 245 303 353 427
#     4  12  23  47  71 102 141 188 238 296 357 435
#     4  10  25  44  69  99 143 191 233 292 373 434
#     4  12  27  45  72 106 143 185 241 298 358 431
#     4  11  23  44  71  99 138 190 238 296 362 432
#     4  11  24  46  65 102 145 182 238 298 355 431
#     4  12  27  47  75 105 146 194 240 296 364 435
#
# _framework density 22.754566000000001
#
# number of rings (size 3 to 8) (size 9 to 14) (size 15 to 20)
#    0.000    0.571    5.714    0.857    4.000    3.429 
#    0.000    0.000    0.000    0.000    0.000    0.000 
#    0.000    0.000    0.000    0.000    0.000    0.000 
#
# Total GULP energy -173455.540884 kJ/mol
# GULP energy per Si atom -12389.681492 kJ/mol
# Density = 2.270278 g / cm^3
# Si number density = 22.754566 Si / 1000 Ang^3
#
#
#
# Elastic Constant Matrix: (Units=GPa)
#
#
# Indices 1 2 3 4 5 6 
#
# 1 90.1882 16.1370 16.6474 -5.1605 -9.9101 -0.1826
# 2 16.1370 107.7835 31.2532 -4.3187 -14.1817 18.6612
# 3 16.6474 31.2532 94.3276 -24.2370 -26.4545 -4.6150
# 4 -5.1605 -4.3187 -24.2370 42.7212 7.2695 -5.4171
# 5 -9.9101 -14.1817 -26.4545 7.2695 43.7290 -11.8645
# 6 -0.1826 18.6612 -4.6150 -5.4171 -11.8645 31.0196
#
#
#
# Elastic Compliance Matrix: (Units=1/GPa)
#
#
# Indices 1 2 3 4 5 6 
#
# 1 0.011776 -0.001581 -0.000671 0.000756 0.002131 0.001868
# 2 -0.001581 0.012424 -0.005575 -0.003001 -0.001786 -0.009520
# 3 -0.000671 -0.005575 0.018723 0.009627 0.011032 0.012037
# 4 0.000756 -0.003001 0.009627 0.029392 0.002687 0.009403
# 5 0.002131 -0.001786 0.011032 0.002687 0.033325 0.015944
# 6 0.001868 -0.009520 0.012037 0.009403 0.015944 0.047507
#
#
# Mechanical properties :
#
#
# Convention : Reuss Voigt Hill
#
# Bulk Modulus (GPa) = 36.67221 46.70829 41.69025
# Shear Modulus (GPa) = 28.10679 38.71139 33.40909
#
# Velocity S-wave (km/s) = 3.51838 4.12911 3.83591
# Velocity P-wave (km/s) = 5.71460 6.58060 6.16283
#
# Compressibility (1/GPa) = 0.02726860
#
# Stress axis : x y z
#
# Youngs Moduli (GPa) = 84.91909 80.48745 53.40887
#
# Poissons Ratio (x) = 0.12726 0.03584
# Poissons Ratio (y) = 0.13427 0.29777
# Poissons Ratio (z) = 0.05699 0.44874
#
# Static dielectric constant tensor:
#      x y z
#    x 4.207550 -0.151560 -0.227130 
#    y -0.151560 5.257310 -0.259910 
#    z -0.227130 -0.259910 4.120240 
# 
# 
# High freq. dielectric constant tensor:
#      x y z
#    x 1.919330 0.010190 -0.008890 
#    y 0.010190 1.908000 -0.017810 
#    z -0.008890 -0.017810 1.885690 
# 
# From -- ./inp_files/343347.got.cif
#   From: 2010.06.25/outbox.cif.g09.slc.cpg/sg2_172_cif.got.tgz:343347.got - 2010.06.27 13:26:56.
