data_PCOD8028769
_publ_section_title
;
Structure prediction by ZEFSAII (Michael W. Deem and Ramdas Pophale) SiO2 
 PCOD8028769
Probable space group: P -1
;
_chemical_formula_sum "Si O2"
_cell_formula_units_Z 16
_cell_length_a 8.940440
_cell_length_b 4.963898
_cell_length_c 20.661228
_cell_angle_alpha 89.873291
_cell_angle_beta 46.494878
_cell_angle_gamma 101.395212
_cell_volume 639.515103
_symmetry_space_group_name_H-M "P -1"
_symmetry_group_IT_number 2
_symmetry_cell_setting 'triclinic'
loop_
_space_group_symop_operation_xyz
x,y,z
-x,-y,-z
loop_
_atom_site_type_symbol
_atom_site_label
_atom_site_fract_x
_atom_site_fract_y
_atom_site_fract_z
Si Si1 0.097078 0.250842 0.578440
Si Si2 0.277250 0.143104 0.032899
Si Si3 0.927751 0.266865 0.325422
Si Si4 0.012348 0.538763 0.072503
Si Si5 0.661146 0.220526 0.649701
Si Si6 0.375929 0.397256 0.136128
Si Si7 0.479357 0.062000 0.431047
Si Si8 0.466907 0.652173 0.772638
O O1 0.128648 0.552789 0.599855
O O2 0.313694 0.252248 0.474573
O O3 0.903278 0.202759 0.585554
O O4 0.042469 0.017917 0.651781
O O5 0.083817 0.284950 0.083248
O O6 0.358769 0.171955 0.083259
O O7 0.190529 0.820651 0.039217
O O8 0.477522 0.296764 0.927913
O O9 0.724900 0.213224 0.336197
O O10 0.140398 0.427747 0.223455
O O11 0.776094 0.532697 0.167759
O O12 0.000000 0.500000 0.000000
O O13 0.609587 0.209756 0.588203
O O14 0.498081 0.953089 0.731453
O O15 0.630082 0.498996 0.691645
O O16 0.484100 0.296374 0.165888
O O17 0.500000 0.000000 0.500000
#
# Coordination Sequence:
#
# PCOD8028769 Si02
#       8
#     2   2   2   2   2   2   2   2
#     4  11  22  45  70  99 133 182 226 284 344 415
#     4  11  28  45  73 105 141 195 236 292 356 416
#     4  11  24  42  69 100 136 183 223 286 348 405
#     4  12  26  47  71 102 144 192 233 295 356 415
#     4  12  25  46  70 106 131 189 230 288 351 417
#     4  11  25  48  70 105 146 185 242 294 351 417
#     4  10  26  47  71 103 144 178 231 286 353 422
#     4  12  27  44  72 102 142 179 241 292 345 420
#
# _framework density 25.018954999999998
#
# number of rings (size 3 to 8) (size 9 to 14) (size 15 to 20)
#    0.000    0.750    3.750    1.875    5.250    9.000 
#    0.000    4.375    0.000    0.000    0.000    0.000 
#    0.000    0.000    0.000    0.000    0.000    0.000 
#
# Total GULP energy -198422.954926 kJ/mol
# GULP energy per Si atom -12401.434683 kJ/mol
# Density = 2.496201 g / cm^3
# Si number density = 25.018955 Si / 1000 Ang^3
#
#
#
# Elastic Constant Matrix: (Units=GPa)
#
#
# Indices 1 2 3 4 5 6 
#
# 1 138.0342 22.4530 52.3126 0.4120 -9.8551 30.4335
# 2 22.4530 75.9798 -1.3695 10.0518 13.1472 13.3251
# 3 52.3126 -1.3695 71.8577 6.2835 -12.8527 0.3613
# 4 0.4120 10.0518 6.2835 22.1582 13.9263 2.4757
# 5 -9.8551 13.1472 -12.8527 13.9263 64.5033 1.6639
# 6 30.4335 13.3251 0.3613 2.4757 1.6639 41.6590
#
#
#
# Elastic Compliance Matrix: (Units=1/GPa)
#
#
# Indices 1 2 3 4 5 6 
#
# 1 0.013799 -0.003324 -0.010586 0.005450 -0.000262 -0.009239
# 2 -0.003324 0.015742 0.003026 -0.006680 -0.001615 -0.002172
# 3 -0.010586 0.003026 0.023519 -0.011641 0.004783 0.007063
# 4 0.005450 -0.006680 -0.011641 0.060044 -0.012965 -0.004795
# 5 -0.000262 -0.001615 0.004783 -0.012965 0.019528 0.000657
# 6 -0.009239 -0.002172 0.007063 -0.004795 0.000657 0.031646
#
#
# Mechanical properties :
#
#
# Convention : Reuss Voigt Hill
#
# Bulk Modulus (GPa) = 31.95722 48.07377 40.01550
# Shear Modulus (GPa) = 25.44815 39.82913 32.63864
#
# Velocity S-wave (km/s) = 3.19275 3.99426 3.61578
# Velocity P-wave (km/s) = 5.13736 6.36623 5.78452
#
# Compressibility (1/GPa) = 0.03129183
#
# Stress axis : x y z
#
# Youngs Moduli (GPa) = 72.46664 63.52295 42.51909
#
# Poissons Ratio (x) = 0.21116 0.45012
# Poissons Ratio (y) = 0.24089 -0.12866
# Poissons Ratio (z) = 0.76716 -0.19222
#
# Static dielectric constant tensor:
#      x y z
#    x 5.077030 0.371370 -0.388610 
#    y 0.371370 4.280600 -0.139000 
#    z -0.388610 -0.139000 4.786370 
# 
# 
# High freq. dielectric constant tensor:
#      x y z
#    x 2.017640 0.014960 -0.014640 
#    y 0.014960 1.987630 -0.001460 
#    z -0.014640 -0.001460 2.001280 
# 
# From -- ./inp_files/550474.got.cif
#   From: 2010.06.25/outbox.cif.g09.slc.cpg/sg2_276_cif.got.tgz:550474.got - 2010.06.27 13:26:56.
