data_PCOD8028596
_publ_section_title
;
Structure prediction by ZEFSAII (Michael W. Deem and Ramdas Pophale) SiO2 
 PCOD8028596
Probable space group: P -1
;
_chemical_formula_sum "Si O2"
_cell_formula_units_Z 16
_cell_length_a 15.368039
_cell_length_b 9.399094
_cell_length_c 13.708937
_cell_angle_alpha 75.850300
_cell_angle_beta 34.789407
_cell_angle_gamma 101.436140
_cell_volume 758.848522
_symmetry_space_group_name_H-M "P -1"
_symmetry_group_IT_number 2
_symmetry_cell_setting 'triclinic'
loop_
_space_group_symop_operation_xyz
x,y,z
-x,-y,-z
loop_
_atom_site_type_symbol
_atom_site_label
_atom_site_fract_x
_atom_site_fract_y
_atom_site_fract_z
Si Si1 0.236071 0.182126 0.297445
Si Si2 0.799893 0.565093 0.187169
Si Si3 0.576340 0.490324 0.782206
Si Si4 0.272014 0.903343 0.974645
Si Si5 0.382192 0.959062 0.215868
Si Si6 0.434735 0.339159 0.723160
Si Si7 0.737497 0.211842 0.209967
Si Si8 0.902652 0.479046 0.491686
O O1 0.240238 0.269326 0.383580
O O2 0.344285 0.103134 0.232781
O O3 0.361623 0.362408 0.068264
O O4 0.000000 0.000000 0.500000
O O5 0.650011 0.449935 0.441874
O O6 0.731192 0.664013 0.176503
O O7 0.764688 0.400610 0.178890
O O8 0.060851 0.749107 0.941490
O O9 0.518791 0.471663 0.724194
O O10 0.662754 0.385854 0.738755
O O11 0.264812 0.807472 0.899157
O O12 0.477066 0.986361 0.830330
O O13 0.292035 0.092811 0.912793
O O14 0.047806 0.702768 0.268278
O O15 0.149109 0.709644 0.484693
O O16 0.500000 0.000000 0.000000
O O17 0.500000 0.000000 0.500000
O O18 0.000000 0.500000 0.500000
#
# Coordination Sequence:
#
# PCOD8028596 Si02
#       8
#     2   2   2   2   2   2   2   2
#     4  11  25  44  64  96 141 181 220 284 341 394
#     4  10  25  48  73  98 141 176 230 296 347 408
#     4  11  24  42  65  99 138 173 230 279 334 412
#     4  12  25  41  73 103 135 185 229 274 350 411
#     4  12  23  44  67  98 135 178 231 276 330 411
#     4  11  23  48  71 103 136 184 234 286 345 418
#     4  11  24  48  71 105 140 177 227 293 353 413
#     4  12  23  41  70  98 137 183 229 278 330 403
#
# _framework density 21.084575999999998
#
# number of rings (size 3 to 8) (size 9 to 14) (size 15 to 20)
#    0.000    0.750    5.000    1.500    3.500    1.500 
#    4.500    0.000    0.000    0.000    0.000    0.000 
#    0.000    0.000    0.000    0.000    0.000    0.000 
#
# Total GULP energy -198323.959939 kJ/mol
# GULP energy per Si atom -12395.247496 kJ/mol
# Density = 2.103659 g / cm^3
# Si number density = 21.084576 Si / 1000 Ang^3
#
#
#
# Elastic Constant Matrix: (Units=GPa)
#
#
# Indices 1 2 3 4 5 6 
#
# 1 159.4964 71.1812 57.8404 -0.0233 -6.4722 15.2838
# 2 71.1812 124.1026 39.1935 -8.7135 6.5982 14.3941
# 3 57.8404 39.1935 113.7862 -14.6666 -4.8886 2.4395
# 4 -0.0233 -8.7135 -14.6666 36.5967 1.1867 -2.4991
# 5 -6.4722 6.5982 -4.8886 1.1867 32.6572 -0.2233
# 6 15.2838 14.3941 2.4395 -2.4991 -0.2233 48.7123
#
#
#
# Elastic Compliance Matrix: (Units=1/GPa)
#
#
# Indices 1 2 3 4 5 6 
#
# 1 0.009945 -0.004678 -0.003659 -0.002769 0.002458 -0.001686
# 2 -0.004678 0.011779 -0.001514 0.002187 -0.003626 -0.001841
# 3 -0.003659 -0.001514 0.011761 0.004397 0.001190 0.001237
# 4 -0.002769 0.002187 0.004397 0.029755 -0.001403 0.001522
# 5 0.002458 -0.003626 0.001190 -0.001403 0.032072 0.000316
# 6 -0.001686 -0.001841 0.001237 0.001522 0.000316 0.021619
#
#
# Mechanical properties :
#
#
# Convention : Reuss Voigt Hill
#
# Bulk Modulus (GPa) = 72.55129 81.53504 77.04317
# Shear Modulus (GPa) = 35.40349 38.87124 37.13737
#
# Velocity S-wave (km/s) = 4.10215 4.29836 4.20140
# Velocity P-wave (km/s) = 7.54461 7.96172 7.75597
#
# Compressibility (1/GPa) = 0.01378335
#
# Stress axis : x y z
#
# Youngs Moduli (GPa) = 100.54854 84.89631 85.02554
#
# Poissons Ratio (x) = 0.39717 0.31113
# Poissons Ratio (y) = 0.47040 0.12870
# Poissons Ratio (z) = 0.36793 0.12850
#
# Static dielectric constant tensor:
#      x y z
#    x 3.806800 0.224290 -0.295110 
#    y 0.224290 3.713800 -0.025710 
#    z -0.295110 -0.025710 4.035070 
# 
# 
# High freq. dielectric constant tensor:
#      x y z
#    x 1.833900 0.008530 -0.010470 
#    y 0.008530 1.841400 -0.006700 
#    z -0.010470 -0.006700 1.826780 
# 
# From -- ./inp_files/215702.got.cif
#   From: 2010.06.25/outbox.cif.g09.slc.cpg/sg2_108_cif.got.tgz:215702.got - 2010.06.27 13:26:56.
