data_PCOD8028293
_publ_section_title
;
Structure prediction by ZEFSAII (Michael W. Deem and Ramdas Pophale) SiO2 
 PCOD8028293
Probable space group: P -1
;
_chemical_formula_sum "Si O2"
_cell_formula_units_Z 16
_cell_length_a 11.399871
_cell_length_b 14.393688
_cell_length_c 10.974709
_cell_angle_alpha 30.214434
_cell_angle_beta 105.894219
_cell_angle_gamma 122.760728
_cell_volume 677.515943
_symmetry_space_group_name_H-M "P -1"
_symmetry_group_IT_number 2
_symmetry_cell_setting 'triclinic'
loop_
_space_group_symop_operation_xyz
x,y,z
-x,-y,-z
loop_
_atom_site_type_symbol
_atom_site_label
_atom_site_fract_x
_atom_site_fract_y
_atom_site_fract_z
Si Si1 0.389446 0.366495 0.983343
Si Si2 0.555708 0.851746 0.552267
Si Si3 0.396801 0.043518 0.190202
Si Si4 0.826997 0.258049 0.730357
Si Si5 0.710923 0.394474 0.745607
Si Si6 0.897176 0.922349 0.181322
Si Si7 0.892551 0.325398 0.057711
Si Si8 0.946269 0.864226 0.767701
O O1 0.484910 0.306274 0.160035
O O2 0.346005 0.198742 0.045754
O O3 0.240387 0.302694 0.086126
O O4 0.498379 0.649513 0.659524
O O5 0.456151 0.947845 0.414475
O O6 0.741570 0.067159 0.355722
O O7 0.243388 0.812424 0.345522
O O8 0.533144 0.205889 0.948446
O O9 0.719585 0.287348 0.746481
O O10 0.000000 0.500000 0.500000
O O11 0.822757 0.052745 0.020705
O O12 0.752831 0.644691 0.446195
O O13 0.833322 0.438981 0.831628
O O14 0.988730 0.971847 0.278360
O O15 0.000000 0.000000 0.000000
O O16 0.998489 0.295914 0.035580
O O17 0.000000 0.500000 0.000000
O O18 0.000000 0.000000 0.500000
#
# Coordination Sequence:
#
# PCOD8028293 Si02
#       8
#     2   2   2   2   2   2   2   2
#     4  11  25  44  73 107 148 197 249 309 379 444
#     4  10  25  45  69 104 150 190 245 304 376 443
#     4  11  27  46  72 105 149 198 249 306 380 447
#     4  12  26  46  71 106 149 190 253 310 369 443
#     4  11  26  46  73 104 149 198 249 304 375 449
#     4  12  26  46  75 109 147 195 247 309 374 442
#     4  11  24  45  73 109 152 194 245 312 374 445
#     4  12  25  45  74 110 150 191 250 313 369 443
#
# _framework density 23.615680999999999
#
# number of rings (size 3 to 8) (size 9 to 14) (size 15 to 20)
#    0.000    0.750    3.750    2.250    3.500    6.500 
#    0.000    0.000    0.000    0.000    0.000    0.000 
#    0.000    0.000    0.000    0.000    0.000    0.000 
#
# Total GULP energy -198348.925946 kJ/mol
# GULP energy per Si atom -12396.807872 kJ/mol
# Density = 2.356193 g / cm^3
# Si number density = 23.615681 Si / 1000 Ang^3
#
#
#
# Elastic Constant Matrix: (Units=GPa)
#
#
# Indices 1 2 3 4 5 6 
#
# 1 109.3857 27.5795 39.8310 -22.8054 -4.6776 -8.0391
# 2 27.5795 125.1212 24.6329 -23.5405 -11.1058 -5.5163
# 3 39.8310 24.6329 127.8381 -28.2757 7.6839 0.5703
# 4 -22.8054 -23.5405 -28.2757 43.0637 -3.4717 1.8104
# 5 -4.6776 -11.1058 7.6839 -3.4717 38.9042 -3.5321
# 6 -8.0391 -5.5163 0.5703 1.8104 -3.5321 40.2670
#
#
#
# Elastic Compliance Matrix: (Units=1/GPa)
#
#
# Indices 1 2 3 4 5 6 
#
# 1 0.011412 -0.000981 -0.002656 0.003845 0.002159 0.002198
# 2 -0.000981 0.009528 -0.000757 0.004403 0.003254 0.001208
# 3 -0.002656 -0.000757 0.009947 0.004583 -0.002198 -0.001174
# 4 0.003845 0.004403 0.004583 0.030954 0.003597 0.000230
# 5 0.002159 0.003254 -0.002198 0.003597 0.027938 0.003197
# 6 0.002198 0.001208 -0.001174 0.000230 0.003197 0.025725
#
#
# Mechanical properties :
#
#
# Convention : Reuss Voigt Hill
#
# Bulk Modulus (GPa) = 45.25069 60.71464 52.98266
# Shear Modulus (GPa) = 37.97713 42.46710 40.22211
#
# Velocity S-wave (km/s) = 4.01450 4.24519 4.13146
# Velocity P-wave (km/s) = 6.37896 7.05649 6.72627
#
# Compressibility (1/GPa) = 0.02209911
#
# Stress axis : x y z
#
# Youngs Moduli (GPa) = 87.62846 104.95314 100.53511
#
# Poissons Ratio (x) = 0.10291 0.26700
# Poissons Ratio (y) = 0.08592 0.07615
# Poissons Ratio (z) = 0.23272 0.07950
#
# Static dielectric constant tensor:
#      x y z
#    x 4.238350 -0.067300 0.332490 
#    y -0.067300 4.454160 -0.268250 
#    z 0.332490 -0.268250 4.353570 
# 
# 
# High freq. dielectric constant tensor:
#      x y z
#    x 1.938770 -0.001420 0.013540 
#    y -0.001420 1.941830 -0.014440 
#    z 0.013540 -0.014440 1.936680 
# 
# From -- ./inp_files/433679.got.cif
#   From: 2010.06.25/outbox.cif.g09.slc.cpg/sg2_217_cif.got.tgz:433679.got - 2010.06.27 13:26:56.
