data_PCOD8028602
_publ_section_title
;
Structure prediction by ZEFSAII (Michael W. Deem and Ramdas Pophale) SiO2 
 PCOD8028602
Probable space group: P -1
;
_chemical_formula_sum "Si O2"
_cell_formula_units_Z 12
_cell_length_a 8.144264
_cell_length_b 9.336654
_cell_length_c 12.906300
_cell_angle_alpha 35.728433
_cell_angle_beta 84.478205
_cell_angle_gamma 67.570752
_cell_volume 486.524660
_symmetry_space_group_name_H-M "P -1"
_symmetry_group_IT_number 2
_symmetry_cell_setting 'triclinic'
loop_
_space_group_symop_operation_xyz
x,y,z
-x,-y,-z
loop_
_atom_site_type_symbol
_atom_site_label
_atom_site_fract_x
_atom_site_fract_y
_atom_site_fract_z
Si Si1 0.811987 0.210956 0.825727
Si Si2 0.307935 0.483908 0.535466
Si Si3 0.590519 0.936832 0.920142
Si Si4 0.027564 0.126878 0.527592
Si Si5 0.297152 0.539972 0.961782
Si Si6 0.306044 0.302586 0.316437
O O1 0.835775 0.398638 0.623819
O O2 0.665570 0.448372 0.778991
O O3 0.747655 0.029241 0.868426
O O4 0.000000 0.000000 0.000000
O O5 0.500000 0.500000 0.500000
O O6 0.185747 0.644851 0.550801
O O7 0.403643 0.140339 0.739602
O O8 0.693359 0.619302 0.053201
O O9 0.500000 0.000000 0.000000
O O10 0.134884 0.295414 0.391064
O O11 0.141417 0.875719 0.754441
O O12 0.000000 0.000000 0.500000
O O13 0.500000 0.500000 0.000000
O O14 0.246234 0.394210 0.145758
O O15 0.500000 0.000000 0.500000
#
# Coordination Sequence:
#
# PCOD8028602 Si02
#       6
#     2   2   2   2   2   2
#     4  11  26  47  73 107 149 196 253 311 382 447
#     4  10  25  48  74 106 150 199 255 311 378 449
#     4  11  25  46  78 104 152 201 250 313 383 449
#     4  12  29  47  80 115 152 203 260 313 389 456
#     4  12  26  50  80 113 155 202 256 318 386 458
#     4  12  27  48  78 110 158 198 253 321 383 455
#
# _framework density 24.664732000000001
#
# number of rings (size 3 to 8) (size 9 to 14) (size 15 to 20)
#    0.000    0.667    1.667    4.000   14.000    1.333 
#    0.000    0.000    0.000    0.000    0.000    0.000 
#    0.000    0.000    0.000    0.000    0.000    0.000 
#
# Total GULP energy -148656.989322 kJ/mol
# GULP energy per Si atom -12388.082443 kJ/mol
# Density = 2.460859 g / cm^3
# Si number density = 24.664732 Si / 1000 Ang^3
#
#
#
# Elastic Constant Matrix: (Units=GPa)
#
#
# Indices 1 2 3 4 5 6 
#
# 1 95.5802 39.7162 31.7530 -2.2535 5.1496 -10.6789
# 2 39.7162 129.0221 6.5725 -2.6759 -10.6625 -3.0478
# 3 31.7530 6.5725 147.6895 16.2787 15.9533 -11.7207
# 4 -2.2535 -2.6759 16.2787 53.2950 -1.9296 -1.9885
# 5 5.1496 -10.6625 15.9533 -1.9296 38.0494 4.1973
# 6 -10.6789 -3.0478 -11.7207 -1.9885 4.1973 50.6771
#
#
#
# Elastic Compliance Matrix: (Units=1/GPa)
#
#
# Indices 1 2 3 4 5 6 
#
# 1 0.013349 -0.004088 -0.002401 0.001099 -0.002136 0.002232
# 2 -0.004088 0.009268 0.000034 0.000378 0.003216 -0.000548
# 3 -0.002401 0.000034 0.008058 -0.002625 -0.003347 0.001534
# 4 0.001099 0.000378 -0.002625 0.019714 0.002030 0.000253
# 5 -0.002136 0.003216 -0.003347 0.002030 0.029351 -0.003382
# 6 0.002232 -0.000548 0.001534 0.000253 -0.003382 0.020815
#
#
# Mechanical properties :
#
#
# Convention : Reuss Voigt Hill
#
# Bulk Modulus (GPa) = 56.29143 58.70835 57.49989
# Shear Modulus (GPa) = 41.88058 48.02098 44.95078
#
# Velocity S-wave (km/s) = 4.12514 4.41721 4.27367
# Velocity P-wave (km/s) = 6.74991 7.06186 6.90765
#
# Compressibility (1/GPa) = 0.01776469
#
# Stress axis : x y z
#
# Youngs Moduli (GPa) = 74.91120 107.89948 124.09539
#
# Poissons Ratio (x) = 0.44108 0.29800
# Poissons Ratio (y) = 0.30623 -0.00421
# Poissons Ratio (z) = 0.17989 -0.00366
#
# Static dielectric constant tensor:
#      x y z
#    x 4.314400 0.247560 -0.004100 
#    y 0.247560 5.362300 0.408130 
#    z -0.004100 0.408130 5.547990 
# 
# 
# High freq. dielectric constant tensor:
#      x y z
#    x 1.958720 0.001380 0.008000 
#    y 0.001380 1.993070 0.003940 
#    z 0.008000 0.003940 2.014440 
# 
# From -- ./inp_files/160279.got.cif
#   From: 2010.06.25/outbox.cif.g09.slc.cpg/sg2_81_cif.got.tgz:160279.got - 2010.06.27 13:26:56.
