data_PCOD8028100
_publ_section_title
;
Structure prediction by ZEFSAII (Michael W. Deem and Ramdas Pophale) SiO2 
 PCOD8028100
Probable space group: P -1
;
_chemical_formula_sum "Si O2"
_cell_formula_units_Z 14
_cell_length_a 9.746389
_cell_length_b 18.046757
_cell_length_c 11.623661
_cell_angle_alpha 142.115492
_cell_angle_beta 133.805369
_cell_angle_gamma 29.262088
_cell_volume 613.632539
_symmetry_space_group_name_H-M "P -1"
_symmetry_group_IT_number 2
_symmetry_cell_setting 'triclinic'
loop_
_space_group_symop_operation_xyz
x,y,z
-x,-y,-z
loop_
_atom_site_type_symbol
_atom_site_label
_atom_site_fract_x
_atom_site_fract_y
_atom_site_fract_z
Si Si1 0.136940 0.092481 0.917218
Si Si2 0.646946 0.823856 0.572550
Si Si3 0.928474 0.556692 0.219613
Si Si4 0.082146 0.830573 0.882493
Si Si5 0.027638 0.128285 0.652290
Si Si6 0.713902 0.481094 0.807849
Si Si7 0.333508 0.256989 0.275880
O O1 0.995859 0.201587 0.850480
O O2 0.347483 0.879513 0.754752
O O3 0.301724 0.127437 0.109577
O O4 0.906720 0.162720 0.963937
O O5 0.680697 0.745086 0.370769
O O6 0.695152 0.699180 0.549996
O O7 0.859112 0.837684 0.716158
O O8 0.327284 0.021397 0.638029
O O9 0.115182 0.556119 0.249128
O O10 0.116562 0.422955 0.271329
O O11 0.800352 0.512472 0.011777
O O12 0.388094 0.647329 0.792635
O O13 0.000000 0.000000 0.000000
O O14 0.784419 0.305941 0.653564
O O15 0.000000 0.000000 0.500000
#
# Coordination Sequence:
#
# PCOD8028100 Si02
#       7
#     2   2   2   2   2   2   2
#     4   9  19  36  62  92 131 171 220 270 327 399
#     4  10  25  43  69  99 132 180 229 275 337 403
#     4  11  23  42  69  99 141 173 226 288 334 403
#     4  11  25  43  69 101 135 181 229 277 340 408
#     4  11  25  44  67 101 137 178 225 279 336 399
#     4  11  27  42  67 102 138 183 224 274 349 397
#     4   9  17  38  67  93 126 176 220 273 330 390
#
# _framework density 22.814958000000001
#
# number of rings (size 3 to 8) (size 9 to 14) (size 15 to 20)
#    0.000    1.714    1.429    2.143    6.000    7.429 
#    0.000    0.000    0.000    0.000    0.000    0.000 
#    0.000    0.000    0.000    0.000    0.000    0.000 
#
# Total GULP energy -173466.526851 kJ/mol
# GULP energy per Si atom -12390.466204 kJ/mol
# Density = 2.276303 g / cm^3
# Si number density = 22.814958 Si / 1000 Ang^3
#
#
#
# Elastic Constant Matrix: (Units=GPa)
#
#
# Indices 1 2 3 4 5 6 
#
# 1 112.7016 41.4957 51.4649 19.3423 -15.0404 -0.0541
# 2 41.4957 118.7826 17.5333 21.5647 8.6492 7.2850
# 3 51.4649 17.5333 79.3011 13.3189 -17.6334 3.6114
# 4 19.3423 21.5647 13.3189 23.8906 2.7222 4.3691
# 5 -15.0404 8.6492 -17.6334 2.7222 45.9308 1.7509
# 6 -0.0541 7.2850 3.6114 4.3691 1.7509 25.6328
#
#
#
# Elastic Compliance Matrix: (Units=1/GPa)
#
#
# Indices 1 2 3 4 5 6 
#
# 1 0.014905 -0.003470 -0.007443 -0.005634 0.002903 0.002828
# 2 -0.003470 0.011107 0.000457 -0.006832 -0.002576 -0.001888
# 3 -0.007443 0.000457 0.019568 -0.005484 0.005403 -0.002337
# 4 -0.005634 -0.006832 -0.005484 0.057533 -0.005818 -0.006707
# 5 0.002903 -0.002576 0.005403 -0.005818 0.025657 -0.000784
# 6 0.002828 -0.001888 -0.002337 -0.006707 -0.000784 0.041081
#
#
# Mechanical properties :
#
#
# Convention : Reuss Voigt Hill
#
# Bulk Modulus (GPa) = 40.53738 59.08588 49.81163
# Shear Modulus (GPa) = 25.12732 32.44359 28.78545
#
# Velocity S-wave (km/s) = 3.32226 3.77507 3.55588
# Velocity P-wave (km/s) = 5.70290 6.70490 6.22410
#
# Compressibility (1/GPa) = 0.02466859
#
# Stress axis : x y z
#
# Youngs Moduli (GPa) = 67.09044 90.03041 51.10258
#
# Poissons Ratio (x) = 0.31245 0.38036
# Poissons Ratio (y) = 0.23283 -0.02337
# Poissons Ratio (z) = 0.49936 -0.04117
#
# Static dielectric constant tensor:
#      x y z
#    x 4.288860 -0.024440 -0.457080 
#    y -0.024440 3.981390 -0.129100 
#    z -0.457080 -0.129100 4.460400 
# 
# 
# High freq. dielectric constant tensor:
#      x y z
#    x 1.907080 -0.001630 -0.018530 
#    y -0.001630 1.889000 0.002540 
#    z -0.018530 0.002540 1.897270 
# 
# From -- ./inp_files/207139.got.cif
#   From: 2010.06.25/outbox.cif.g09.slc.cpg/sg2_104_cif.got.tgz:207139.got - 2010.06.27 13:26:56.
