data_PCOD8028379
_publ_section_title
;
Structure prediction by ZEFSAII (Michael W. Deem and Ramdas Pophale) SiO2 
 PCOD8028379
Probable space group: P -1
;
_chemical_formula_sum "Si O2"
_cell_formula_units_Z 14
_cell_length_a 21.475746
_cell_length_b 6.518618
_cell_length_c 9.099927
_cell_angle_alpha 127.535596
_cell_angle_beta 140.493621
_cell_angle_gamma 49.511887
_cell_volume 600.721324
_symmetry_space_group_name_H-M "P -1"
_symmetry_group_IT_number 2
_symmetry_cell_setting 'triclinic'
loop_
_space_group_symop_operation_xyz
x,y,z
-x,-y,-z
loop_
_atom_site_type_symbol
_atom_site_label
_atom_site_fract_x
_atom_site_fract_y
_atom_site_fract_z
Si Si1 0.876488 0.309706 0.157780
Si Si2 0.751861 0.374670 0.497819
Si Si3 0.899553 0.782884 0.592107
Si Si4 0.494155 0.793837 0.707948
Si Si5 0.111338 0.266646 0.114665
Si Si6 0.572989 0.587796 0.062723
Si Si7 0.340345 0.513965 0.317068
O O1 0.871971 0.516254 0.374312
O O2 0.977210 0.280578 0.228611
O O3 0.774807 0.440233 0.930089
O O4 0.882492 0.003375 0.089884
O O5 0.804734 0.601819 0.723538
O O6 0.693470 0.414522 0.251647
O O7 0.664425 0.441809 0.496704
O O8 0.833829 0.061023 0.506618
O O9 0.867073 0.843019 0.727504
O O10 0.394856 0.720063 0.436837
O O11 0.578366 0.780914 0.724885
O O12 0.444318 0.094988 0.808875
O O13 0.552494 0.566191 0.842983
O O14 0.000000 0.500000 0.000000
O O15 0.500000 0.500000 0.000000
#
# Coordination Sequence:
#
# PCOD8028379 Si02
#       7
#     2   2   2   2   2   2   2
#     4  11  24  46  72 100 145 188 226 291 358 416
#     4  12  25  44  74 103 140 190 235 288 357 418
#     4  11  26  47  68 107 147 181 234 295 349 425
#     4  10  25  46  66 101 140 178 235 294 346 415
#     4  12  24  45  72 102 142 187 233 288 350 420
#     4  11  24  44  70  99 137 181 234 293 350 414
#     4  11  23  45  71  96 139 188 225 288 355 411
#
# _framework density 23.305316999999999
#
# number of rings (size 3 to 8) (size 9 to 14) (size 15 to 20)
#    0.000    0.857    4.286    2.143    4.000    1.143 
#    5.143    0.000    0.000    0.000    0.000    0.000 
#    0.000    0.000    0.000    0.000    0.000    0.000 
#
# Total GULP energy -173525.921869 kJ/mol
# GULP energy per Si atom -12394.708705 kJ/mol
# Density = 2.325227 g / cm^3
# Si number density = 23.305317 Si / 1000 Ang^3
#
#
#
# Elastic Constant Matrix: (Units=GPa)
#
#
# Indices 1 2 3 4 5 6 
#
# 1 84.7066 17.6007 26.4863 0.9415 12.4311 -11.5639
# 2 17.6007 116.1268 55.2011 10.1263 7.6014 -0.8819
# 3 26.4863 55.2011 121.4795 5.5829 18.0105 -3.2774
# 4 0.9415 10.1263 5.5829 45.5993 -3.9915 -0.7842
# 5 12.4311 7.6014 18.0105 -3.9915 32.4673 1.3479
# 6 -11.5639 -0.8819 -3.2774 -0.7842 1.3479 24.8613
#
#
#
# Elastic Compliance Matrix: (Units=1/GPa)
#
#
# Indices 1 2 3 4 5 6 
#
# 1 0.014113 -0.000923 -0.001812 -0.000144 -0.004471 0.006531
# 2 -0.000923 0.011202 -0.004857 -0.001867 0.000226 -0.000743
# 3 -0.001812 -0.004857 0.011585 -0.000702 -0.004713 0.000745
# 4 -0.000144 -0.001867 -0.000702 0.022760 0.003667 0.000293
# 5 -0.004471 0.000226 -0.004713 0.003667 0.035712 -0.004513
# 6 0.006531 -0.000743 0.000745 0.000293 -0.004513 0.043587
#
#
# Mechanical properties :
#
#
# Convention : Reuss Voigt Hill
#
# Bulk Modulus (GPa) = 46.04757 57.87656 51.96207
# Shear Modulus (GPa) = 30.98248 35.45389 33.21818
#
# Velocity S-wave (km/s) = 3.65007 3.90459 3.77947
# Velocity P-wave (km/s) = 6.12906 6.72426 6.43355
#
# Compressibility (1/GPa) = 0.02171667
#
# Stress axis : x y z
#
# Youngs Moduli (GPa) = 70.85599 89.26759 86.31800
#
# Poissons Ratio (x) = 0.08239 0.15641
# Poissons Ratio (y) = 0.06539 0.41924
# Poissons Ratio (z) = 0.12839 0.43357
#
# Static dielectric constant tensor:
#      x y z
#    x 4.547010 -0.273440 0.041920 
#    y -0.273440 4.515690 0.000050 
#    z 0.041920 0.000050 4.630730 
# 
# 
# High freq. dielectric constant tensor:
#      x y z
#    x 1.914430 -0.010730 0.013900 
#    y -0.010730 1.916210 0.006940 
#    z 0.013900 0.006940 1.938610 
# 
# From -- ./inp_files/38758.got.cif
#   From: 2010.06.25/outbox.cif.g09.slc.cpg/sg2_20_cif.got.tgz:38758.got - 2010.06.27 13:26:56.
