data_PCOD8028416
_publ_section_title
;
Structure prediction by ZEFSAII (Michael W. Deem and Ramdas Pophale) SiO2 
 PCOD8028416
Probable space group: P -1
;
_chemical_formula_sum "Si O2"
_cell_formula_units_Z 16
_cell_length_a 5.189110
_cell_length_b 14.891285
_cell_length_c 8.632110
_cell_angle_alpha 99.994081
_cell_angle_beta 73.768548
_cell_angle_gamma 86.008271
_cell_volume 625.778673
_symmetry_space_group_name_H-M "P -1"
_symmetry_group_IT_number 2
_symmetry_cell_setting 'triclinic'
loop_
_space_group_symop_operation_xyz
x,y,z
-x,-y,-z
loop_
_atom_site_type_symbol
_atom_site_label
_atom_site_fract_x
_atom_site_fract_y
_atom_site_fract_z
Si Si1 0.920445 0.882230 0.384798
Si Si2 0.994581 0.311325 0.829307
Si Si3 0.652701 0.158627 0.444774
Si Si4 0.563832 0.633378 0.426072
Si Si5 0.133257 0.999044 0.143058
Si Si6 0.400677 0.333385 0.042340
Si Si7 0.503075 0.142345 0.128068
Si Si8 0.727905 0.523577 0.648457
O O1 0.091170 0.885340 0.514230
O O2 0.941077 0.972805 0.305557
O O3 0.033814 0.792861 0.240535
O O4 0.607263 0.887243 0.475488
O O5 0.121408 0.364907 0.680814
O O6 0.217129 0.309945 0.925251
O O7 0.697050 0.356395 0.944630
O O8 0.603873 0.266738 0.522077
O O9 0.701678 0.137769 0.245853
O O10 0.540145 0.594792 0.591484
O O11 0.417248 0.566767 0.317744
O O12 0.236206 0.095404 0.202354
O O13 0.375535 0.914297 0.059504
O O14 0.000000 0.000000 0.000000
O O15 0.424474 0.248473 0.132127
O O16 0.243903 0.423417 0.179324
O O17 0.000000 0.500000 0.500000
#
# Coordination Sequence:
#
# PCOD8028416 Si02
#       8
#     2   2   2   2   2   2   2   2
#     4  11  25  46  73 106 146 190 236 298 359 417
#     4  11  25  45  73 104 145 188 244 293 361 425
#     4  11  26  45  76 103 141 193 242 290 356 438
#     4  10  25  46  69 104 147 187 240 299 368 414
#     4  11  26  46  73 103 154 185 237 305 357 419
#     4  12  26  47  75 108 141 197 245 293 356 449
#     4  11  26  45  71 107 140 193 243 291 361 426
#     4  11  27  46  74 105 148 188 241 305 359 433
#
# _framework density 25.568145000000001
#
# number of rings (size 3 to 8) (size 9 to 14) (size 15 to 20)
#    0.000    1.000    2.500    2.250   14.000    2.000 
#    0.000    0.000    0.000    0.000    0.000    0.000 
#    0.000    0.000    0.000    0.000    0.000    0.000 
#
# Total GULP energy -198426.742757 kJ/mol
# GULP energy per Si atom -12401.671422 kJ/mol
# Density = 2.550995 g / cm^3
# Si number density = 25.568145 Si / 1000 Ang^3
#
#
#
# Elastic Constant Matrix: (Units=GPa)
#
#
# Indices 1 2 3 4 5 6 
#
# 1 109.2810 31.4418 29.3524 0.7315 9.1662 23.1179
# 2 31.4418 127.2573 54.1618 -6.7745 -6.9437 39.1165
# 3 29.3524 54.1618 111.2510 12.2569 -1.7768 7.9816
# 4 0.7315 -6.7745 12.2569 48.0243 -4.7274 -0.0772
# 5 9.1662 -6.9437 -1.7768 -4.7274 56.7366 1.1165
# 6 23.1179 39.1165 7.9816 -0.0772 1.1165 32.4213
#
#
#
# Elastic Compliance Matrix: (Units=1/GPa)
#
#
# Indices 1 2 3 4 5 6 
#
# 1 0.011655 0.001059 -0.003050 0.000576 -0.001628 -0.008781
# 2 0.001059 0.017433 -0.007808 0.004650 0.002498 -0.019941
# 3 -0.003050 -0.007808 0.013492 -0.004542 -0.000582 0.008284
# 4 0.000576 0.004650 -0.004542 0.022851 0.002335 -0.004928
# 5 -0.001628 0.002498 -0.000582 0.002335 0.018416 -0.002338
# 6 -0.008781 -0.019941 0.008284 -0.004928 -0.002338 0.059193
#
#
# Mechanical properties :
#
#
# Convention : Reuss Voigt Hill
#
# Bulk Modulus (GPa) = 43.51345 64.18903 53.85124
# Shear Modulus (GPa) = 29.35988 42.95865 36.15927
#
# Velocity S-wave (km/s) = 3.39233 4.10343 3.76471
# Velocity P-wave (km/s) = 5.69205 6.90003 6.32494
#
# Compressibility (1/GPa) = 0.02298140
#
# Stress axis : x y z
#
# Youngs Moduli (GPa) = 85.79664 57.36265 74.11913
#
# Poissons Ratio (x) = -0.06077 0.22610
# Poissons Ratio (y) = -0.09089 0.57875
# Poissons Ratio (z) = 0.26172 0.44791
#
# Static dielectric constant tensor:
#      x y z
#    x 4.516970 0.121220 -0.072440 
#    y 0.121220 4.837580 0.049220 
#    z -0.072440 0.049220 4.939670 
# 
# 
# High freq. dielectric constant tensor:
#      x y z
#    x 2.019400 0.007670 0.000380 
#    y 0.007670 2.035650 0.004970 
#    z 0.000380 0.004970 2.033220 
# 
# From -- ./inp_files/135489.got.cif
#   From: 2010.06.25/outbox.cif.g09.slc.cpg/sg2_68_cif.got.tgz:135489.got - 2010.06.27 13:26:56.
