data_PCOD8028079
_publ_section_title
;
Structure prediction by ZEFSAII (Michael W. Deem and Ramdas Pophale) SiO2 
 PCOD8028079
Probable space group: P -1
;
_chemical_formula_sum "Si O2"
_cell_formula_units_Z 16
_cell_length_a 6.736678
_cell_length_b 12.528872
_cell_length_c 11.028394
_cell_angle_alpha 81.281302
_cell_angle_beta 57.976361
_cell_angle_gamma 121.457391
_cell_volume 542.442593
_symmetry_space_group_name_H-M "P -1"
_symmetry_group_IT_number 2
_symmetry_cell_setting 'triclinic'
loop_
_space_group_symop_operation_xyz
x,y,z
-x,-y,-z
loop_
_atom_site_type_symbol
_atom_site_label
_atom_site_fract_x
_atom_site_fract_y
_atom_site_fract_z
Si Si1 0.249356 0.970293 0.993523
Si Si2 0.338143 0.886703 0.747384
Si Si3 0.295802 0.265514 0.627733
Si Si4 0.480737 0.719907 0.131033
Si Si5 0.674959 0.321740 0.078257
Si Si6 0.879739 0.594211 0.487616
Si Si7 0.100960 0.975757 0.626300
Si Si8 0.441994 0.481535 0.879339
O O1 0.391860 0.994830 0.811614
O O2 0.233423 0.093967 0.999551
O O3 0.881085 0.800296 0.171142
O O4 0.500000 0.000000 0.000000
O O5 0.134296 0.711653 0.900810
O O6 0.144327 0.875788 0.700111
O O7 0.713599 0.975669 0.570554
O O8 0.651623 0.438929 0.506390
O O9 0.091414 0.278063 0.602956
O O10 0.283022 0.140644 0.598463
O O11 0.718390 0.691034 0.060459
O O12 0.246271 0.657486 0.338607
O O13 0.242612 0.645559 0.098181
O O14 0.729154 0.456869 0.108092
O O15 0.297268 0.149959 0.240672
O O16 0.773143 0.576280 0.666935
O O17 0.500000 0.500000 0.000000
#
# Coordination Sequence:
#
# PCOD8028079 Si02
#       8
#     2   2   2   2   2   2   2   2
#     4  12  22  43  74 103 141 188 248 291 360 429
#     4  11  25  40  68 107 143 185 232 307 354 419
#     4  11  24  44  68 101 146 183 233 307 350 427
#     4  11  23  42  70 105 134 189 244 285 352 430
#     4  11  22  46  72 101 143 191 237 296 359 425
#     4  11  24  43  69 103 140 188 238 289 369 418
#     4  11  25  43  68 110 142 187 245 288 364 427
#     4  10  25  43  68 100 140 188 236 287 353 436
#
# _framework density 29.496210000000001
#
# number of rings (size 3 to 8) (size 9 to 14) (size 15 to 20)
#    0.000    1.000    3.750    1.500    3.500    4.500 
#    0.000    1.250    0.000    9.750    0.000    0.000 
#    0.000    0.000    0.000    0.000    0.000    0.000 
#
# Total GULP energy -198247.284144 kJ/mol
# GULP energy per Si atom -12390.455259 kJ/mol
# Density = 2.942908 g / cm^3
# Si number density = 29.496210 Si / 1000 Ang^3
#
#
#
# Elastic Constant Matrix: (Units=GPa)
#
#
# Indices 1 2 3 4 5 6 
#
# 1 106.0371 57.2339 45.9358 9.1343 3.3552 -46.3719
# 2 57.2339 185.3066 79.8639 -6.8543 6.9625 -43.3209
# 3 45.9358 79.8639 174.4011 22.7175 18.1013 -21.5279
# 4 9.1343 -6.8543 22.7175 55.6702 1.2800 -0.5713
# 5 3.3552 6.9625 18.1013 1.2800 47.8443 -1.6343
# 6 -46.3719 -43.3209 -21.5279 -0.5713 -1.6343 57.2683
#
#
#
# Elastic Compliance Matrix: (Units=1/GPa)
#
#
# Indices 1 2 3 4 5 6 
#
# 1 0.016170 -0.001663 -0.001895 -0.001976 0.000258 0.011111
# 2 -0.001663 0.008275 -0.003259 0.002655 0.000201 0.003720
# 3 -0.001895 -0.003259 0.008309 -0.003434 -0.002478 -0.000982
# 4 -0.001976 0.002655 -0.003434 0.019997 0.000494 -0.000669
# 5 0.000258 0.000201 -0.002478 0.000494 0.021780 0.000056
# 6 0.011111 0.003720 -0.000982 -0.000669 0.000056 0.028899
#
#
# Mechanical properties :
#
#
# Convention : Reuss Voigt Hill
#
# Bulk Modulus (GPa) = 52.30145 92.42355 72.36250
# Shear Modulus (GPa) = 40.50618 51.00396 45.75507
#
# Velocity S-wave (km/s) = 3.70978 4.16284 3.94282
# Velocity P-wave (km/s) = 6.01000 7.38293 6.73156
#
# Compressibility (1/GPa) = 0.01911993
#
# Stress axis : x y z
#
# Youngs Moduli (GPa) = 61.84136 120.84639 120.35320
#
# Poissons Ratio (x) = 0.20093 0.22813
# Poissons Ratio (y) = 0.10283 0.39222
# Poissons Ratio (z) = 0.11722 0.39383
#
# Static dielectric constant tensor:
#      x y z
#    x 5.608450 -0.364010 0.255850 
#    y -0.364010 5.068270 -0.242270 
#    z 0.255850 -0.242270 6.441730 
# 
# 
# High freq. dielectric constant tensor:
#      x y z
#    x 2.223590 -0.026100 0.008990 
#    y -0.026100 2.218860 -0.009950 
#    z 0.008990 -0.009950 2.227230 
# 
# From -- ./inp_files/392562.got.cif
#   From: 2010.06.25/outbox.cif.g09.slc.cpg/sg2_197_cif.got.tgz:392562.got - 2010.06.27 13:26:56.
