data_PCOD8028382
_publ_section_title
;
Structure prediction by ZEFSAII (Michael W. Deem and Ramdas Pophale) SiO2 
 PCOD8028382
Probable space group: P -1
;
_chemical_formula_sum "Si O2"
_cell_formula_units_Z 14
_cell_length_a 8.922473
_cell_length_b 9.081663
_cell_length_c 12.108719
_cell_angle_alpha 61.452374
_cell_angle_beta 110.989806
_cell_angle_gamma 67.315198
_cell_volume 590.783982
_symmetry_space_group_name_H-M "P -1"
_symmetry_group_IT_number 2
_symmetry_cell_setting 'triclinic'
loop_
_space_group_symop_operation_xyz
x,y,z
-x,-y,-z
loop_
_atom_site_type_symbol
_atom_site_label
_atom_site_fract_x
_atom_site_fract_y
_atom_site_fract_z
Si Si1 0.700409 0.977554 0.589116
Si Si2 0.615153 0.067048 0.780850
Si Si3 0.561668 0.348382 0.255169
Si Si4 0.922555 0.359828 0.343937
Si Si5 0.214440 0.732958 0.168278
Si Si6 0.720522 0.967686 0.277661
Si Si7 0.876501 0.769037 0.165793
O O1 0.657210 0.188093 0.446117
O O2 0.500000 0.000000 0.500000
O O3 0.738382 0.966610 0.733078
O O4 0.924498 0.741907 0.686857
O O5 0.596951 0.279262 0.727144
O O6 0.380092 0.145102 0.683562
O O7 0.750342 0.873269 0.979820
O O8 0.314186 0.582584 0.136139
O O9 0.707961 0.405207 0.244870
O O10 0.560568 0.225769 0.192022
O O11 0.049129 0.187127 0.542388
O O12 0.855394 0.597108 0.268585
O O13 0.131284 0.643664 0.260040
O O14 0.000000 0.000000 0.000000
O O15 0.761995 0.966783 0.158545
#
# Coordination Sequence:
#
# PCOD8028382 Si02
#       7
#     2   2   2   2   2   2   2
#     4  11  21  42  72 105 138 175 232 287 334 409
#     4  11  24  44  69  97 142 177 228 281 347 398
#     4  11  24  44  73 102 135 182 233 281 344 400
#     4  11  24  43  71 104 141 181 231 276 344 409
#     4  10  25  46  66  99 138 178 230 281 346 406
#     4  11  23  44  71 103 140 178 230 281 337 416
#     4  11  25  44  67  99 142 184 225 281 344 404
#
# _framework density 23.697326
#
# number of rings (size 3 to 8) (size 9 to 14) (size 15 to 20)
#    0.000    1.143    2.857    4.286    4.000    2.286 
#    2.571    3.571    0.000    0.000    0.000    0.000 
#    0.000    0.000    0.000    0.000    0.000    0.000 
#
# Total GULP energy -173572.238829 kJ/mol
# GULP energy per Si atom -12398.017059 kJ/mol
# Density = 2.364339 g / cm^3
# Si number density = 23.697326 Si / 1000 Ang^3
#
#
#
# Elastic Constant Matrix: (Units=GPa)
#
#
# Indices 1 2 3 4 5 6 
#
# 1 161.2785 61.3582 0.3967 0.2832 6.2643 2.9402
# 2 61.3582 187.7251 42.7915 7.5388 -6.6153 -28.3924
# 3 0.3967 42.7915 50.8838 9.2026 -11.3152 -14.0165
# 4 0.2832 7.5388 9.2026 37.0740 -3.6046 -5.7549
# 5 6.2643 -6.6153 -11.3152 -3.6046 24.5250 1.3218
# 6 2.9402 -28.3924 -14.0165 -5.7549 1.3218 53.0510
#
#
#
# Elastic Compliance Matrix: (Units=1/GPa)
#
#
# Indices 1 2 3 4 5 6 
#
# 1 0.007502 -0.003158 0.001781 -0.000294 -0.001902 -0.001620
# 2 -0.003158 0.008186 -0.006076 0.000341 0.000100 0.002985
# 3 0.001781 -0.006076 0.028818 -0.004375 0.010369 0.003530
# 4 -0.000294 0.000341 -0.004375 0.028532 0.002230 0.002082
# 5 -0.001902 0.000100 0.010369 0.002230 0.046292 0.001987
# 6 -0.001620 0.002985 0.003530 0.002082 0.001987 0.021646
#
#
# Mechanical properties :
#
#
# Convention : Reuss Voigt Hill
#
# Bulk Modulus (GPa) = 33.78477 67.66449 50.72463
# Shear Modulus (GPa) = 30.16633 42.61939 36.39286
#
# Velocity S-wave (km/s) = 3.57176 4.24546 3.92310
# Velocity P-wave (km/s) = 5.59444 7.25586 6.47863
#
# Compressibility (1/GPa) = 0.02959913
#
# Stress axis : x y z
#
# Youngs Moduli (GPa) = 133.30650 122.16636 34.70048
#
# Poissons Ratio (x) = 0.38582 -0.06182
# Poissons Ratio (y) = 0.42100 0.21085
# Poissons Ratio (z) = -0.23747 0.74231
#
# Static dielectric constant tensor:
#      x y z
#    x 4.924800 0.073930 0.031460 
#    y 0.073930 4.585360 0.143560 
#    z 0.031460 0.143560 3.718050 
# 
# 
# High freq. dielectric constant tensor:
#      x y z
#    x 1.963260 -0.003090 -0.001450 
#    y -0.003090 1.951750 0.005800 
#    z -0.001450 0.005800 1.895530 
# 
# From -- ./inp_files/152048.got.cif
#   From: 2010.06.25/outbox.cif.g09.slc.cpg/sg2_77_cif.got.tgz:152048.got - 2010.06.27 13:26:56.
