data_PCOD8028376
_publ_section_title
;
Structure prediction by ZEFSAII (Michael W. Deem and Ramdas Pophale) SiO2 
 PCOD8028376
Probable space group: P -1
;
_chemical_formula_sum "Si O2"
_cell_formula_units_Z 14
_cell_length_a 20.831104
_cell_length_b 8.292161
_cell_length_c 9.286981
_cell_angle_alpha 147.279813
_cell_angle_beta 44.778073
_cell_angle_gamma 124.791499
_cell_volume 609.274041
_symmetry_space_group_name_H-M "P -1"
_symmetry_group_IT_number 2
_symmetry_cell_setting 'triclinic'
loop_
_space_group_symop_operation_xyz
x,y,z
-x,-y,-z
loop_
_atom_site_type_symbol
_atom_site_label
_atom_site_fract_x
_atom_site_fract_y
_atom_site_fract_z
Si Si1 0.248372 0.091545 0.448478
Si Si2 0.140404 0.000536 0.053434
Si Si3 0.911426 0.816836 0.020332
Si Si4 0.967195 0.541869 0.247931
Si Si5 0.716615 0.216147 0.122380
Si Si6 0.567092 0.163115 0.915463
Si Si7 0.506047 0.162283 0.464487
O O1 0.162737 0.028176 0.636874
O O2 0.269224 0.437306 0.665346
O O3 0.330755 0.884772 0.227961
O O4 0.229904 0.975039 0.230452
O O5 0.079368 0.134470 0.386455
O O6 0.135551 0.235986 0.102345
O O7 0.106718 0.705070 0.808792
O O8 0.241298 0.906823 0.884543
O O9 0.948598 0.511699 0.813406
O O10 0.000000 0.000000 0.000000
O O11 0.000000 0.500000 0.000000
O O12 0.609924 0.161203 0.243033
O O13 0.558370 0.027196 0.671128
O O14 0.539777 0.509373 0.211069
O O15 0.500000 0.000000 0.000000
O O16 0.500000 0.000000 0.500000
#
# Coordination Sequence:
#
# PCOD8028376 Si02
#       7
#     2   2   2   2   2   2   2
#     4  12  26  44  73  99 137 187 236 284 341 424
#     4  11  24  40  64  95 131 171 219 283 339 399
#     4  10  25  46  66 100 138 178 233 290 348 404
#     4  11  22  42  67  92 127 174 223 276 339 407
#     4  12  24  45  67 103 138 181 235 279 347 426
#     4  12  23  47  73 103 141 185 238 284 352 423
#     4  12  26  45  70 106 146 182 227 297 354 417
#
# _framework density 22.978165000000001
#
# number of rings (size 3 to 8) (size 9 to 14) (size 15 to 20)
#    0.000    0.571    2.857    5.143    2.000    5.714 
#    5.143    0.000    0.000    0.000    0.000    0.000 
#    0.000    0.000    0.000    0.000    0.000    0.000 
#
# Total GULP energy -173530.136939 kJ/mol
# GULP energy per Si atom -12395.009781 kJ/mol
# Density = 2.292587 g / cm^3
# Si number density = 22.978165 Si / 1000 Ang^3
#
#
#
# Elastic Constant Matrix: (Units=GPa)
#
#
# Indices 1 2 3 4 5 6 
#
# 1 147.6110 28.4358 25.4356 -9.1083 -6.8809 -19.0740
# 2 28.4358 96.2545 39.4691 -4.0522 -4.3960 -16.5202
# 3 25.4356 39.4691 115.8547 -0.3839 5.3015 3.8135
# 4 -9.1083 -4.0522 -0.3839 42.2160 4.3688 0.4594
# 5 -6.8809 -4.3960 5.3015 4.3688 48.5950 -7.1400
# 6 -19.0740 -16.5202 3.8135 0.4594 -7.1400 35.6969
#
#
#
# Elastic Compliance Matrix: (Units=1/GPa)
#
#
# Indices 1 2 3 4 5 6 
#
# 1 0.007954 -0.000749 -0.001713 0.001397 0.001770 0.004423
# 2 -0.000749 0.014032 -0.004972 0.000784 0.002686 0.007152
# 3 -0.001713 -0.004972 0.010979 -0.000428 -0.002571 -0.004898
# 4 0.001397 0.000784 -0.000428 0.024241 -0.001793 0.000485
# 5 0.001770 0.002686 -0.002571 -0.001793 0.022541 0.006995
# 6 0.004423 0.007152 -0.004898 0.000485 0.006995 0.035603
#
#
# Mechanical properties :
#
#
# Convention : Reuss Voigt Hill
#
# Bulk Modulus (GPa) = 55.25487 60.71125 57.98306
# Shear Modulus (GPa) = 36.69711 43.06023 39.87867
#
# Velocity S-wave (km/s) = 4.00064 4.33363 4.17046
# Velocity P-wave (km/s) = 6.74085 7.17768 6.96269
#
# Compressibility (1/GPa) = 0.01809795
#
# Stress axis : x y z
#
# Youngs Moduli (GPa) = 125.71962 71.26452 91.08381
#
# Poissons Ratio (x) = 0.05335 0.15605
# Poissons Ratio (y) = 0.09412 0.45285
# Poissons Ratio (z) = 0.21538 0.35432
#
# Static dielectric constant tensor:
#      x y z
#    x 3.412860 -0.861980 -0.142880 
#    y -0.861980 4.034350 -0.016070 
#    z -0.142880 -0.016070 4.212430 
# 
# 
# High freq. dielectric constant tensor:
#      x y z
#    x 1.932970 -0.018160 -0.001840 
#    y -0.018160 1.895990 -0.000750 
#    z -0.001840 -0.000750 1.913750 
# 
# From -- ./inp_files/343941.got.cif
#   From: 2010.06.25/outbox.cif.g09.slc.cpg/sg2_172_cif.got.tgz:343941.got - 2010.06.27 13:26:56.
