data_PCOD8028150
_publ_section_title
;
Structure prediction by ZEFSAII (Michael W. Deem and Ramdas Pophale) SiO2 
 PCOD8028150
Probable space group: P -1
;
_chemical_formula_sum "Si O2"
_cell_formula_units_Z 16
_cell_length_a 9.150555
_cell_length_b 5.140949
_cell_length_c 29.637585
_cell_angle_alpha 95.471625
_cell_angle_beta 31.933601
_cell_angle_gamma 87.704304
_cell_volume 714.456427
_symmetry_space_group_name_H-M "P -1"
_symmetry_group_IT_number 2
_symmetry_cell_setting 'triclinic'
loop_
_space_group_symop_operation_xyz
x,y,z
-x,-y,-z
loop_
_atom_site_type_symbol
_atom_site_label
_atom_site_fract_x
_atom_site_fract_y
_atom_site_fract_z
Si Si1 0.285598 0.260325 0.576779
Si Si2 0.826719 0.412546 0.924839
Si Si3 0.400986 0.371738 0.732570
Si Si4 0.450544 0.909943 0.862329
Si Si5 0.133802 0.064924 0.030873
Si Si6 0.327651 0.659489 0.240596
Si Si7 0.268522 0.517970 0.491526
Si Si8 0.674201 0.795109 0.616966
O O1 0.191397 0.450514 0.561392
O O2 0.438398 0.383867 0.579480
O O3 0.001285 0.189348 0.668065
O O4 0.500000 0.000000 0.500000
O O5 0.873753 0.625454 0.952982
O O6 0.056984 0.414073 0.824394
O O7 0.878896 0.108245 0.923964
O O8 0.500000 0.500000 0.000000
O O9 0.512297 0.342247 0.754071
O O10 0.491776 0.621786 0.689508
O O11 0.537119 0.108256 0.663806
O O12 0.662533 0.638382 0.785728
O O13 0.144327 0.921560 0.923908
O O14 0.544171 0.174247 0.826567
O O15 0.416295 0.927270 0.925962
O O16 0.325552 0.269149 0.437567
O O17 0.999151 0.742657 0.548297
#
# Coordination Sequence:
#
# PCOD8028150 Si02
#       8
#     2   2   2   2   2   2   2   2
#     4  11  25  43  68  96 137 175 216 272 340 388
#     4  12  25  44  65  94 135 177 215 268 328 394
#     4  12  23  43  68  97 129 171 230 263 320 394
#     4  11  23  41  70  98 127 166 217 284 316 388
#     4  11  22  44  68  96 129 166 222 267 336 382
#     4  12  23  42  68  98 132 170 222 270 329 387
#     4  10  25  44  66  99 133 174 220 270 334 390
#     4  11  25  44  71  97 131 177 223 273 318 390
#
# _framework density 22.394649000000001
#
# number of rings (size 3 to 8) (size 9 to 14) (size 15 to 20)
#    0.000    0.750    3.750    3.375    5.250    3.000 
#    6.750    0.000    0.000    0.000    0.000    0.000 
#    0.000    0.000    0.000    0.000    0.000    0.000 
#
# Total GULP energy -198382.653317 kJ/mol
# GULP energy per Si atom -12398.915832 kJ/mol
# Density = 2.234368 g / cm^3
# Si number density = 22.394649 Si / 1000 Ang^3
#
#
#
# Elastic Constant Matrix: (Units=GPa)
#
#
# Indices 1 2 3 4 5 6 
#
# 1 72.3450 9.9157 29.7054 -5.6025 -6.1804 14.1476
# 2 9.9157 76.9682 5.7040 3.0544 1.6842 3.3440
# 3 29.7054 5.7040 111.1602 4.8390 -9.2202 18.2971
# 4 -5.6025 3.0544 4.8390 50.5003 3.1121 1.2944
# 5 -6.1804 1.6842 -9.2202 3.1121 32.0103 -1.4329
# 6 14.1476 3.3440 18.2971 1.2944 -1.4329 19.1526
#
#
#
# Elastic Compliance Matrix: (Units=1/GPa)
#
#
# Indices 1 2 3 4 5 6 
#
# 1 0.017554 -0.001756 -0.002917 0.002466 0.001959 -0.009893
# 2 -0.001756 0.013326 -0.000105 -0.000903 -0.001025 -0.000945
# 3 -0.002917 -0.000105 0.011442 -0.001350 0.002490 -0.008480
# 4 0.002466 -0.000903 -0.001350 0.020427 -0.001936 -0.001900
# 5 0.001959 -0.001025 0.002490 -0.001936 0.032529 -0.001082
# 6 -0.009893 -0.000945 -0.008480 -0.001900 -0.001082 0.067834
#
#
# Mechanical properties :
#
#
# Convention : Reuss Voigt Hill
#
# Bulk Modulus (GPa) = 30.51957 39.01374 34.76666
# Shear Modulus (GPa) = 27.23447 34.67586 30.95516
#
# Velocity S-wave (km/s) = 3.49107 3.93924 3.72191
# Velocity P-wave (km/s) = 5.46880 6.17649 5.83338
#
# Compressibility (1/GPa) = 0.03276586
#
# Stress axis : x y z
#
# Youngs Moduli (GPa) = 56.96615 75.04293 87.39637
#
# Poissons Ratio (x) = 0.13179 0.25497
# Poissons Ratio (y) = 0.10004 0.00914
# Poissons Ratio (z) = 0.16619 0.00785
#
# Static dielectric constant tensor:
#      x y z
#    x 4.062220 0.693210 -0.030280 
#    y 0.693210 3.192920 0.300970 
#    z -0.030280 0.300970 4.356940 
# 
# 
# High freq. dielectric constant tensor:
#      x y z
#    x 1.865170 0.009440 -0.000570 
#    y 0.009440 1.889020 -0.002160 
#    z -0.000570 -0.002160 1.899670 
# 
# From -- ./inp_files/38129.got.cif
#   From: 2010.06.25/outbox.cif.g09.slc.cpg/sg2_20_cif.got.tgz:38129.got - 2010.06.27 13:26:56.
