data_PCOD8029395
_publ_section_title
;
Structure prediction by ZEFSAII (Michael W. Deem and Ramdas Pophale) SiO2 
 PCOD8029395
Probable space group: P -1
;
_chemical_formula_sum "Si O2"
_cell_formula_units_Z 14
_cell_length_a 5.206582
_cell_length_b 11.966969
_cell_length_c 17.910948
_cell_angle_alpha 43.263598
_cell_angle_beta 90.882078
_cell_angle_gamma 66.876994
_cell_volume 617.784508
_symmetry_space_group_name_H-M "P -1"
_symmetry_group_IT_number 2
_symmetry_cell_setting 'triclinic'
loop_
_space_group_symop_operation_xyz
x,y,z
-x,-y,-z
loop_
_atom_site_type_symbol
_atom_site_label
_atom_site_fract_x
_atom_site_fract_y
_atom_site_fract_z
Si Si1 0.677734 0.137634 0.975308
Si Si2 0.676922 0.808972 0.196232
Si Si3 0.219730 0.111528 0.148817
Si Si4 0.226925 0.550070 0.121557
Si Si5 0.683506 0.156676 0.221599
Si Si6 0.943098 0.141935 0.498781
Si Si7 0.212194 0.398177 0.353928
O O1 0.398995 0.205725 0.882591
O O2 0.612424 0.340140 0.908085
O O3 0.712153 0.992918 0.112607
O O4 0.000000 0.000000 0.000000
O O5 0.996200 0.585493 0.319892
O O6 0.401024 0.887835 0.218986
O O7 0.448116 0.108079 0.211938
O O8 0.896303 0.164247 0.156697
O O9 0.109811 0.286772 0.000511
O O10 0.472194 0.372654 0.154174
O O11 0.164794 0.463142 0.235786
O O12 0.921015 0.983584 0.364327
O O13 0.567123 0.306320 0.427116
O O14 0.124099 0.242383 0.435123
O O15 0.000000 0.000000 0.500000
#
# Coordination Sequence:
#
# PCOD8029395 Si02
#       7
#     2   2   2   2   2   2   2
#     4  11  20  41  67 107 148 184 232 294 356 422
#     4  11  24  41  69 106 148 187 236 291 359 420
#     4  12  27  47  69 106 156 191 221 285 365 458
#     4  12  24  44  76 111 145 182 238 295 371 420
#     4  12  29  47  71 101 149 196 239 282 356 432
#     4  12  27  50  73 103 139 185 252 302 344 402
#     4  12  26  44  80 108 133 185 247 309 348 401
#
# _framework density 22.661625000000001
#
# number of rings (size 3 to 8) (size 9 to 14) (size 15 to 20)
#    0.000    0.286    4.286    4.714    2.000    2.286 
#    0.000    4.286    0.000    0.000    0.000    0.000 
#    0.000    0.000    0.000    0.000    0.000    0.000 
#
# Total GULP energy -173589.446173 kJ/mol
# GULP energy per Si atom -12399.246155 kJ/mol
# Density = 2.261005 g / cm^3
# Si number density = 22.661625 Si / 1000 Ang^3
#
#
#
# Elastic Constant Matrix: (Units=GPa)
#
#
# Indices 1 2 3 4 5 6 
#
# 1 84.5449 16.0985 15.1172 -0.8676 12.9031 -1.2913
# 2 16.0985 127.7671 26.8051 -19.6344 10.3564 -14.1151
# 3 15.1172 26.8051 100.2912 0.4823 19.0926 2.9449
# 4 -0.8676 -19.6344 0.4823 31.6946 1.6501 10.6604
# 5 12.9031 10.3564 19.0926 1.6501 43.9589 -10.9881
# 6 -1.2913 -14.1151 2.9449 10.6604 -10.9881 44.4566
#
#
#
# Elastic Compliance Matrix: (Units=1/GPa)
#
#
# Indices 1 2 3 4 5 6 
#
# 1 0.012711 -0.001219 -0.000955 0.000029 -0.003219 -0.000757
# 2 -0.001219 0.009532 -0.002313 0.005372 -0.000661 0.001693
# 3 -0.000955 -0.002313 0.011749 -0.000495 -0.004918 -0.002638
# 4 0.000029 0.005372 -0.000495 0.037990 -0.004613 -0.008511
# 5 -0.003219 -0.000661 -0.004918 -0.004613 0.028182 0.008094
# 6 -0.000757 0.001693 -0.002638 -0.008511 0.008094 0.027225
#
#
# Mechanical properties :
#
#
# Convention : Reuss Voigt Hill
#
# Bulk Modulus (GPa) = 39.97356 47.62719 43.80037
# Shear Modulus (GPa) = 34.55329 40.99418 37.77373
#
# Velocity S-wave (km/s) = 3.90904 4.25781 4.08715
# Velocity P-wave (km/s) = 6.16861 6.72564 6.45314
#
# Compressibility (1/GPa) = 0.02501654
#
# Stress axis : x y z
#
# Youngs Moduli (GPa) = 78.67152 104.91151 85.11074
#
# Poissons Ratio (x) = 0.12793 0.08129
# Poissons Ratio (y) = 0.09593 0.19689
# Poissons Ratio (z) = 0.07514 0.24270
#
# Static dielectric constant tensor:
#      x y z
#    x 3.352020 -0.137990 0.071450 
#    y -0.137990 4.512870 0.026470 
#    z 0.071450 0.026470 4.359430 
# 
# 
# High freq. dielectric constant tensor:
#      x y z
#    x 1.909520 -0.013450 0.007110 
#    y -0.013450 1.906480 -0.011380 
#    z 0.007110 -0.011380 1.885310 
# 
# From -- ./inp_files/549041.got.cif
#   From: 2010.06.25/outbox.cif.g09.slc.cpg/sg2_275_cif.got.tgz:549041.got - 2010.06.27 13:26:56.
