data_PCOD8029195
_publ_section_title
;
Structure prediction by ZEFSAII (Michael W. Deem and Ramdas Pophale) SiO2 
 PCOD8029195
Probable space group: P -1
;
_chemical_formula_sum "Si O2"
_cell_formula_units_Z 16
_cell_length_a 11.301773
_cell_length_b 9.433557
_cell_length_c 9.367344
_cell_angle_alpha 132.083001
_cell_angle_beta 83.776183
_cell_angle_gamma 108.223644
_cell_volume 696.749430
_symmetry_space_group_name_H-M "P -1"
_symmetry_group_IT_number 2
_symmetry_cell_setting 'triclinic'
loop_
_space_group_symop_operation_xyz
x,y,z
-x,-y,-z
loop_
_atom_site_type_symbol
_atom_site_label
_atom_site_fract_x
_atom_site_fract_y
_atom_site_fract_z
Si Si1 0.499194 0.507402 0.333126
Si Si2 0.762959 0.806792 0.474922
Si Si3 0.198468 0.939984 0.630550
Si Si4 0.585039 0.906680 0.078847
Si Si5 0.184718 0.586173 0.749379
Si Si6 0.750526 0.434654 0.578601
Si Si7 0.999598 0.207397 0.205554
Si Si8 0.327431 0.936128 0.123796
O O1 0.500000 0.500000 0.500000
O O2 0.619166 0.679764 0.373751
O O3 0.372696 0.541727 0.320228
O O4 0.499996 0.308291 0.116937
O O5 0.843591 0.656512 0.394771
O O6 0.826198 0.941723 0.422734
O O7 0.756103 0.951948 0.705812
O O8 0.222254 0.733952 0.438902
O O9 0.069808 0.861600 0.682639
O O10 0.321231 0.086061 0.797514
O O11 0.472987 0.997794 0.201702
O O12 0.675407 0.011918 0.008186
O O13 0.273761 0.653643 0.640736
O O14 0.061378 0.651853 0.783809
O O15 0.252183 0.694607 0.959918
O O16 0.857797 0.650481 0.697484
O O17 0.000000 0.000000 0.000000
#
# Coordination Sequence:
#
# PCOD8029195 Si02
#       8
#     2   2   2   2   2   2   2   2
#     4  12  21  38  70 103 140 181 231 277 343 418
#     4  12  26  42  69 108 147 178 218 296 365 392
#     4  11  25  45  65 104 144 178 229 296 348 402
#     4  11  20  37  65 100 137 187 233 279 328 420
#     4  11  22  44  69  99 135 181 235 277 338 425
#     4  11  22  43  73  97 134 187 237 282 334 411
#     4  11  25  47  77 101 128 187 244 279 334 420
#     4  11  21  38  68 100 136 184 236 272 344 418
#
# _framework density 22.963778999999999
#
# number of rings (size 3 to 8) (size 9 to 14) (size 15 to 20)
#    0.000    0.750    6.250    3.000    1.750    2.500 
#    4.500    3.125    0.000    0.000    0.000    0.000 
#    0.000    0.000    0.000    0.000    0.000    0.000 
#
# Total GULP energy -198241.943617 kJ/mol
# GULP energy per Si atom -12390.121476 kJ/mol
# Density = 2.291151 g / cm^3
# Si number density = 22.963779 Si / 1000 Ang^3
#
#
#
# Elastic Constant Matrix: (Units=GPa)
#
#
# Indices 1 2 3 4 5 6 
#
# 1 88.8815 28.8776 31.8886 11.9017 -20.0766 -4.6479
# 2 28.8776 120.5063 30.0100 10.8283 -15.0103 -14.7840
# 3 31.8886 30.0100 117.2012 26.9509 -7.1695 -7.0986
# 4 11.9017 10.8283 26.9509 28.2268 -4.4384 0.6998
# 5 -20.0766 -15.0103 -7.1695 -4.4384 34.3314 16.8287
# 6 -4.6479 -14.7840 -7.0986 0.6998 16.8287 31.3359
#
#
#
# Elastic Compliance Matrix: (Units=1/GPa)
#
#
# Indices 1 2 3 4 5 6 
#
# 1 0.015023 -0.002147 -0.002987 -0.001098 0.009237 -0.004397
# 2 -0.002147 0.009822 -0.001297 -0.001593 0.000779 0.003639
# 3 -0.002987 -0.001297 0.012082 -0.010303 -0.002796 0.003414
# 4 -0.001098 -0.001593 -0.010303 0.047550 0.006474 -0.007787
# 5 0.009237 0.000779 -0.002796 0.006474 0.047034 -0.024300
# 6 -0.004397 0.003639 0.003414 -0.007787 -0.024300 0.046974
#
#
# Mechanical properties :
#
#
# Convention : Reuss Voigt Hill
#
# Bulk Modulus (GPa) = 41.54982 56.46015 49.00499
# Shear Modulus (GPa) = 25.07914 34.49968 29.78941
#
# Velocity S-wave (km/s) = 3.30830 3.88022 3.60562
# Velocity P-wave (km/s) = 5.72067 6.68692 6.22258
#
# Compressibility (1/GPa) = 0.02406749
#
# Stress axis : x y z
#
# Youngs Moduli (GPa) = 66.56287 101.81016 82.76735
#
# Poissons Ratio (x) = 0.21854 0.24721
# Poissons Ratio (y) = 0.14288 0.10732
# Poissons Ratio (z) = 0.19881 0.13202
#
# Static dielectric constant tensor:
#      x y z
#    x 4.447990 -0.321240 -0.229700 
#    y -0.321240 4.040010 0.593020 
#    z -0.229700 0.593020 4.407550 
# 
# 
# High freq. dielectric constant tensor:
#      x y z
#    x 1.912600 -0.006200 -0.002410 
#    y -0.006200 1.871700 0.037960 
#    z -0.002410 0.037960 1.911160 
# 
# From -- ./inp_files/245997.got.cif
#   From: 2010.06.25/outbox.cif.g09.slc.cpg/sg2_123_cif.got.tgz:245997.got - 2010.06.27 13:26:56.
