data_PCOD8029531
_publ_section_title
;
Structure prediction by ZEFSAII (Michael W. Deem and Ramdas Pophale) SiO2 
 PCOD8029531
Probable space group: P -1
;
_chemical_formula_sum "Si O2"
_cell_formula_units_Z 16
_cell_length_a 9.606281
_cell_length_b 6.664304
_cell_length_c 19.303343
_cell_angle_alpha 102.321863
_cell_angle_beta 53.129384
_cell_angle_gamma 130.492065
_cell_volume 719.614843
_symmetry_space_group_name_H-M "P -1"
_symmetry_group_IT_number 2
_symmetry_cell_setting 'triclinic'
loop_
_space_group_symop_operation_xyz
x,y,z
-x,-y,-z
loop_
_atom_site_type_symbol
_atom_site_label
_atom_site_fract_x
_atom_site_fract_y
_atom_site_fract_z
Si Si1 0.231224 0.552513 0.920783
Si Si2 0.543183 0.380955 0.663936
Si Si3 0.935003 0.863568 0.180882
Si Si4 0.722120 0.162539 0.843860
Si Si5 0.706777 0.168792 0.502040
Si Si6 0.780420 0.948903 0.586532
Si Si7 0.163289 0.603908 0.319025
Si Si8 0.733271 0.574354 0.955001
O O1 0.198815 0.408980 0.847171
O O2 0.467580 0.878502 0.875100
O O3 0.244876 0.397810 0.966719
O O4 0.000000 0.500000 0.000000
O O5 0.262886 0.159548 0.720943
O O6 0.695488 0.376376 0.561329
O O7 0.603564 0.666441 0.659556
O O8 0.609951 0.342337 0.717013
O O9 0.111974 0.894408 0.184524
O O10 0.057574 0.133849 0.118843
O O11 0.836352 0.385223 0.763410
O O12 0.711239 0.317182 0.920976
O O13 0.941231 0.317453 0.399100
O O14 0.500000 0.000000 0.500000
O O15 0.662101 0.953455 0.554408
O O16 0.850364 0.173139 0.637301
O O17 0.000000 0.000000 0.500000
O O18 0.500000 0.500000 0.000000
#
# Coordination Sequence:
#
# PCOD8029531 Si02
#       8
#     2   2   2   2   2   2   2   2
#     4  12  25  50  77 100 141 186 230 285 354 415
#     4  11  25  44  69  99 134 181 233 276 342 406
#     4  12  28  46  71 109 141 183 234 286 348 418
#     4  12  28  47  69 110 146 176 232 296 340 416
#     4  11  25  42  65  99 137 180 227 280 337 404
#     4  11  20  44  69  89 128 182 233 274 335 402
#     4  11  25  43  68  99 137 178 229 286 337 401
#     4  12  26  48  76 101 142 184 232 285 351 420
#
# _framework density 22.234116
#
# number of rings (size 3 to 8) (size 9 to 14) (size 15 to 20)
#    0.000    0.500    5.000    3.000    7.000    3.500 
#    0.000    0.000    0.000    0.000    0.000    0.000 
#    0.000    0.000    0.000    0.000    0.000    0.000 
#
# Total GULP energy -198360.438765 kJ/mol
# GULP energy per Si atom -12397.527423 kJ/mol
# Density = 2.218351 g / cm^3
# Si number density = 22.234116 Si / 1000 Ang^3
#
#
#
# Elastic Constant Matrix: (Units=GPa)
#
#
# Indices 1 2 3 4 5 6 
#
# 1 134.9240 20.0309 32.1628 2.3897 -4.7659 -0.9897
# 2 20.0309 89.6203 10.3136 -8.8522 0.8826 -2.0556
# 3 32.1628 10.3136 84.2150 -15.3362 -9.3622 -2.2180
# 4 2.3897 -8.8522 -15.3362 27.2911 0.6308 0.4787
# 5 -4.7659 0.8826 -9.3622 0.6308 48.9663 -2.0153
# 6 -0.9897 -2.0556 -2.2180 0.4787 -2.0153 38.0390
#
#
#
# Elastic Compliance Matrix: (Units=1/GPa)
#
#
# Indices 1 2 3 4 5 6 
#
# 1 0.008628 -0.001847 -0.003669 -0.003421 0.000214 -0.000035
# 2 -0.001847 0.011992 -0.000067 0.004015 -0.000439 0.000522
# 3 -0.003669 -0.000067 0.015174 0.008755 0.002466 0.000806
# 4 -0.003421 0.004015 0.008755 0.043145 0.000718 0.000134
# 5 0.000214 -0.000439 0.002466 0.000718 0.020964 0.001227
# 6 -0.000035 0.000522 0.000806 0.000134 0.001227 0.026426
#
#
# Mechanical properties :
#
#
# Convention : Reuss Voigt Hill
#
# Bulk Modulus (GPa) = 40.60604 48.19712 44.40158
# Shear Modulus (GPa) = 34.31616 39.27607 36.79612
#
# Velocity S-wave (km/s) = 3.93288 4.20751 4.07251
# Velocity P-wave (km/s) = 6.23907 6.73263 6.49054
#
# Compressibility (1/GPa) = 0.02462688
#
# Stress axis : x y z
#
# Youngs Moduli (GPa) = 115.89724 83.39179 65.90397
#
# Poissons Ratio (x) = 0.15403 0.24181
# Poissons Ratio (y) = 0.21407 0.00442
# Poissons Ratio (z) = 0.42524 0.00560
#
# Static dielectric constant tensor:
#      x y z
#    x 4.287950 -0.751940 -0.115330 
#    y -0.751940 6.526750 -0.348280 
#    z -0.115330 -0.348280 4.019970 
# 
# 
# High freq. dielectric constant tensor:
#      x y z
#    x 1.890430 -0.009050 -0.003570 
#    y -0.009050 1.873050 -0.007640 
#    z -0.003570 -0.007640 1.883020 
# 
# From -- ./inp_files/138995.got.cif
#   From: 2010.06.25/outbox.cif.g09.slc.cpg/sg2_70_cif.got.tgz:138995.got - 2010.06.27 13:26:56.
