data_PCOD8029553
_publ_section_title
;
Structure prediction by ZEFSAII (Michael W. Deem and Ramdas Pophale) SiO2 
 PCOD8029553
Probable space group: P -1
;
_chemical_formula_sum "Si O2"
_cell_formula_units_Z 16
_cell_length_a 11.967540
_cell_length_b 8.922772
_cell_length_c 9.601900
_cell_angle_alpha 121.549428
_cell_angle_beta 128.617849
_cell_angle_gamma 78.990793
_cell_volume 668.394036
_symmetry_space_group_name_H-M "P -1"
_symmetry_group_IT_number 2
_symmetry_cell_setting 'triclinic'
loop_
_space_group_symop_operation_xyz
x,y,z
-x,-y,-z
loop_
_atom_site_type_symbol
_atom_site_label
_atom_site_fract_x
_atom_site_fract_y
_atom_site_fract_z
Si Si1 0.855707 0.559080 0.808564
Si Si2 0.233140 0.801656 0.335562
Si Si3 0.153071 0.945742 0.609889
Si Si4 0.381794 0.517108 0.642307
Si Si5 0.141267 0.651537 0.660788
Si Si6 0.328124 0.209064 0.090428
Si Si7 0.914869 0.159934 0.023774
Si Si8 0.458965 0.164147 0.459435
O O1 0.893091 0.380899 0.828231
O O2 0.712016 0.483989 0.569465
O O3 0.809544 0.694578 0.951035
O O4 0.982462 0.653241 0.850132
O O5 0.217050 0.890224 0.214553
O O6 0.385359 0.737802 0.434397
O O7 0.223495 0.953405 0.515348
O O8 0.122365 0.741171 0.540939
O O9 0.273354 0.058649 0.859849
O O10 0.000000 0.000000 0.500000
O O11 0.290836 0.572900 0.731653
O O12 0.532486 0.658509 0.803194
O O13 0.405882 0.313118 0.587877
O O14 0.000000 0.500000 0.500000
O O15 0.149938 0.808094 0.860518
O O16 0.356117 0.118900 0.219026
O O17 0.000000 0.000000 0.000000
O O18 0.500000 0.000000 0.500000
#
# Coordination Sequence:
#
# PCOD8029553 Si02
#       8
#     2   2   2   2   2   2   2   2
#     4  11  20  45  72 100 137 195 243 292 358 450
#     4  12  24  46  68 103 141 193 251 288 363 449
#     4  12  27  47  72 110 146 191 252 309 357 441
#     4  11  22  47  74 102 143 195 244 302 371 449
#     4  12  25  47  74 106 151 194 240 309 377 429
#     4  11  23  46  78 102 144 193 248 297 371 434
#     4  12  27  43  72 110 148 194 240 307 378 426
#     4  11  25  43  72 108 145 186 241 309 372 443
#
# _framework density 23.937975999999999
#
# number of rings (size 3 to 8) (size 9 to 14) (size 15 to 20)
#    0.000    0.500    5.000    3.375    5.250    4.000 
#    0.000    0.625    0.000    0.000    0.000    0.000 
#    0.000    0.000    0.000    0.000    0.000    0.000 
#
# Total GULP energy -198327.048460 kJ/mol
# GULP energy per Si atom -12395.440529 kJ/mol
# Density = 2.388349 g / cm^3
# Si number density = 23.937976 Si / 1000 Ang^3
#
#
#
# Elastic Constant Matrix: (Units=GPa)
#
#
# Indices 1 2 3 4 5 6 
#
# 1 119.7747 27.1805 26.6619 1.0632 -28.6436 -31.5995
# 2 27.1805 134.5305 36.5387 -4.6008 -15.2536 -20.3421
# 3 26.6619 36.5387 109.2300 -4.7250 -19.1456 -9.0353
# 4 1.0632 -4.6008 -4.7250 30.0224 -1.5790 -2.2774
# 5 -28.6436 -15.2536 -19.1456 -1.5790 43.3167 7.8968
# 6 -31.5995 -20.3421 -9.0353 -2.2774 7.8968 41.9614
#
#
#
# Elastic Compliance Matrix: (Units=1/GPa)
#
#
# Indices 1 2 3 4 5 6 
#
# 1 0.012121 -0.000290 -0.001167 0.000237 0.006017 0.007616
# 2 -0.000290 0.008827 -0.002312 0.001326 0.001326 0.003386
# 3 -0.001167 -0.002312 0.010842 0.001552 0.003300 -0.000202
# 4 0.000237 0.001326 0.001552 0.034055 0.002074 0.002613
# 5 0.006017 0.001326 0.003300 0.002074 0.028966 0.000546
# 6 0.007616 0.003386 -0.000202 0.002613 0.000546 0.031204
#
#
# Mechanical properties :
#
#
# Convention : Reuss Voigt Hill
#
# Bulk Modulus (GPa) = 41.23281 60.47750 50.85515
# Shear Modulus (GPa) = 35.30149 41.27039 38.28594
#
# Velocity S-wave (km/s) = 3.84436 4.15668 4.00356
# Velocity P-wave (km/s) = 6.08011 6.95388 6.53162
#
# Compressibility (1/GPa) = 0.02425253
#
# Stress axis : x y z
#
# Youngs Moduli (GPa) = 82.50272 113.28280 92.23353
#
# Poissons Ratio (x) = 0.03285 0.10760
# Poissons Ratio (y) = 0.02393 0.21327
# Poissons Ratio (z) = 0.09625 0.26195
#
# Static dielectric constant tensor:
#      x y z
#    x 4.722580 -0.148620 0.016330 
#    y -0.148620 4.429880 0.053550 
#    z 0.016330 0.053550 4.428050 
# 
# 
# High freq. dielectric constant tensor:
#      x y z
#    x 1.966560 -0.000200 0.007430 
#    y -0.000200 1.955700 0.008510 
#    z 0.007430 0.008510 1.948100 
# 
# From -- ./inp_files/245676.got.cif
#   From: 2010.06.25/outbox.cif.g09.slc.cpg/sg2_123_cif.got.tgz:245676.got - 2010.06.27 13:26:56.
