data_PCOD8029100
_publ_section_title
;
Structure prediction by ZEFSAII (Michael W. Deem and Ramdas Pophale) SiO2 
 PCOD8029100
Probable space group: P -1
;
_chemical_formula_sum "Si O2"
_cell_formula_units_Z 14
_cell_length_a 8.696060
_cell_length_b 11.801318
_cell_length_c 17.032703
_cell_angle_alpha 39.659516
_cell_angle_beta 47.926923
_cell_angle_gamma 40.141012
_cell_volume 704.925984
_symmetry_space_group_name_H-M "P -1"
_symmetry_group_IT_number 2
_symmetry_cell_setting 'triclinic'
loop_
_space_group_symop_operation_xyz
x,y,z
-x,-y,-z
loop_
_atom_site_type_symbol
_atom_site_label
_atom_site_fract_x
_atom_site_fract_y
_atom_site_fract_z
Si Si1 0.661174 0.755953 0.477358
Si Si2 0.935853 0.137214 0.735661
Si Si3 0.735980 0.414430 0.517566
Si Si4 0.863262 0.892579 0.570020
Si Si5 0.253020 0.679615 0.896052
Si Si6 0.305435 0.525421 0.243553
Si Si7 0.719802 0.610397 0.836274
O O1 0.820853 0.860485 0.366684
O O2 0.729588 0.611686 0.453744
O O3 0.725162 0.616839 0.606922
O O4 0.379560 0.934833 0.482360
O O5 0.741897 0.261470 0.665833
O O6 0.815716 0.242361 0.804133
O O7 0.009862 0.897337 0.841107
O O8 0.500000 0.500000 0.500000
O O9 0.973759 0.285812 0.452304
O O10 0.793217 0.785307 0.720707
O O11 0.000000 0.000000 0.500000
O O12 0.407959 0.566110 0.824703
O O13 0.424241 0.720071 0.875387
O O14 0.174970 0.533823 0.045394
O O15 0.171604 0.527871 0.207108
#
# Coordination Sequence:
#
# PCOD8029100 Si02
#       7
#     2   2   2   2   2   2   2
#     4  11  20  35  56  88 114 142 190 233 284 337
#     4  11  20  33  62  84 113 149 184 234 289 326
#     4  11  23  37  53  88 119 142 186 235 281 343
#     4  12  22  36  58  80 113 157 178 231 292 328
#     4   9  19  35  54  84 115 145 186 237 271 331
#     4   9  18  32  54  85 114 141 177 239 286 320
#     4   9  19  37  53  84 117 139 193 235 269 333
#
# _framework density 19.860240000000001
#
# number of rings (size 3 to 8) (size 9 to 14) (size 15 to 20)
#    0.857    0.857    2.857    4.286    0.000    2.286 
#    0.000    0.000    0.000    4.286    0.000    0.000 
#    0.000    0.000    0.000    0.000    0.000    0.000 
#
# Total GULP energy -173524.332764 kJ/mol
# GULP energy per Si atom -12394.595197 kJ/mol
# Density = 1.981504 g / cm^3
# Si number density = 19.860240 Si / 1000 Ang^3
#
#
#
# Elastic Constant Matrix: (Units=GPa)
#
#
# Indices 1 2 3 4 5 6 
#
# 1 66.0495 16.5458 22.6134 0.1123 6.5799 -8.3817
# 2 16.5458 118.0296 22.1765 1.5305 5.0763 -10.9227
# 3 22.6134 22.1765 95.4988 -8.5673 -2.0797 6.0913
# 4 0.1123 1.5305 -8.5673 22.9278 -1.8047 10.8910
# 5 6.5799 5.0763 -2.0797 -1.8047 21.8129 -3.8835
# 6 -8.3817 -10.9227 6.0913 10.8910 -3.8835 21.3897
#
#
#
# Elastic Compliance Matrix: (Units=1/GPa)
#
#
# Indices 1 2 3 4 5 6 
#
# 1 0.019513 0.000025 -0.006402 -0.009176 -0.004900 0.013265
# 2 0.000025 0.010149 -0.003573 -0.006530 -0.001605 0.009244
# 3 -0.006402 -0.003573 0.014995 0.013111 0.002642 -0.014799
# 4 -0.009176 -0.006530 0.013111 0.071276 0.003178 -0.046378
# 5 -0.004900 -0.001605 0.002642 0.003178 0.048881 0.003765
# 6 0.013265 0.009244 -0.014799 -0.046378 0.003765 0.085182
#
#
# Mechanical properties :
#
#
# Convention : Reuss Voigt Hill
#
# Bulk Modulus (GPa) = 40.39421 44.69439 42.54430
# Shear Modulus (GPa) = 17.97597 27.77556 22.87577
#
# Velocity S-wave (km/s) = 3.01179 3.74378 3.39756
# Velocity P-wave (km/s) = 5.69894 6.42193 6.07120
#
# Compressibility (1/GPa) = 0.02475603
#
# Stress axis : x y z
#
# Youngs Moduli (GPa) = 51.24800 98.52767 66.68984
#
# Poissons Ratio (x) = -0.00244 0.42697
# Poissons Ratio (y) = -0.00127 0.23829
# Poissons Ratio (z) = 0.32810 0.35205
#
# Static dielectric constant tensor:
#      x y z
#    x 3.340630 0.030460 0.184050 
#    y 0.030460 3.831420 -0.012240 
#    z 0.184050 -0.012240 3.534700 
# 
# 
# High freq. dielectric constant tensor:
#      x y z
#    x 1.735010 -0.000200 0.015100 
#    y -0.000200 1.780930 0.000210 
#    z 0.015100 0.000210 1.764010 
# 
# From -- ./inp_files/558337.got.cif
#   From: 2010.06.25/outbox.cif.g09.slc.cpg/sg2_280_cif.got.tgz:558337.got - 2010.06.27 13:26:56.
