data_PCOD8029096
_publ_section_title
;
Structure prediction by ZEFSAII (Michael W. Deem and Ramdas Pophale) SiO2 
 PCOD8029096
Probable space group: P -1
;
_chemical_formula_sum "Si O2"
_cell_formula_units_Z 16
_cell_length_a 11.791729
_cell_length_b 20.859487
_cell_length_c 8.797236
_cell_angle_alpha 108.849421
_cell_angle_beta 93.919978
_cell_angle_gamma 147.746778
_cell_volume 804.946537
_symmetry_space_group_name_H-M "P -1"
_symmetry_group_IT_number 2
_symmetry_cell_setting 'triclinic'
loop_
_space_group_symop_operation_xyz
x,y,z
-x,-y,-z
loop_
_atom_site_type_symbol
_atom_site_label
_atom_site_fract_x
_atom_site_fract_y
_atom_site_fract_z
Si Si1 0.243245 0.401709 0.107778
Si Si2 0.711186 0.703026 0.170873
Si Si3 0.252459 0.055908 0.006567
Si Si4 0.079159 0.868542 0.599817
Si Si5 0.710413 0.774624 0.935963
Si Si6 0.416530 0.947151 0.280226
Si Si7 0.373239 0.861903 0.807464
Si Si8 0.236143 0.420739 0.471057
O O1 0.450428 0.567557 0.164567
O O2 0.315857 0.435624 0.321093
O O3 0.316182 0.369869 0.015496
O O4 0.919361 0.249926 0.932792
O O5 0.999286 0.845995 0.403323
O O6 0.713329 0.771206 0.118428
O O7 0.387593 0.203341 0.099836
O O8 0.510930 0.145094 0.124241
O O9 0.067296 0.929098 0.747823
O O10 0.038469 0.940714 0.041806
O O11 0.854858 0.689825 0.507935
O O12 0.404409 0.017716 0.746450
O O13 0.498551 0.605847 0.706442
O O14 0.500000 0.000000 0.500000
O O15 0.520818 0.074205 0.308570
O O16 0.029096 0.672492 0.645811
O O17 0.500000 0.000000 0.000000
#
# Coordination Sequence:
#
# PCOD8029096 Si02
#       8
#     2   2   2   2   2   2   2   2
#     4  11  20  34  58  87 127 146 200 246 297 347
#     4  11  23  34  54  90 119 160 192 246 296 350
#     4  11  23  44  62  86 120 162 203 241 298 357
#     4  11  21  37  64  89 117 156 201 248 293 344
#     4  11  26  40  59  87 127 163 196 242 296 363
#     4  11  20  33  58  94 117 145 187 256 302 342
#     4  11  20  38  65  92 111 151 206 252 290 347
#     4  11  21  39  63  92 117 157 200 251 295 345
#
# _framework density 19.877096999999999
#
# number of rings (size 3 to 8) (size 9 to 14) (size 15 to 20)
#    0.000    1.000    5.000    3.750    1.750    2.500 
#    0.000    0.000    0.000    1.500    0.000    0.000 
#    0.000    0.000    0.000    0.000    0.000    0.000 
#
# Total GULP energy -198339.126198 kJ/mol
# GULP energy per Si atom -12396.195387 kJ/mol
# Density = 1.983186 g / cm^3
# Si number density = 19.877097 Si / 1000 Ang^3
#
#
#
# Elastic Constant Matrix: (Units=GPa)
#
#
# Indices 1 2 3 4 5 6 
#
# 1 78.5083 31.8454 20.4840 -3.1540 3.0030 -2.3097
# 2 31.8454 109.8143 33.8706 -19.1508 4.0703 -4.2261
# 3 20.4840 33.8706 77.9551 -18.7342 3.2417 -16.0290
# 4 -3.1540 -19.1508 -18.7342 42.1708 1.7468 8.2071
# 5 3.0030 4.0703 3.2417 1.7468 29.0964 2.4163
# 6 -2.3097 -4.2261 -16.0290 8.2071 2.4163 23.0241
#
#
#
# Elastic Compliance Matrix: (Units=1/GPa)
#
#
# Indices 1 2 3 4 5 6 
#
# 1 0.014928 -0.003772 -0.002765 -0.001714 -0.000565 -0.000449
# 2 -0.003772 0.011971 -0.003632 0.003974 -0.000951 -0.002027
# 3 -0.002765 -0.003632 0.018466 0.004384 -0.002407 0.010602
# 4 -0.001714 0.003974 0.004384 0.028667 -0.002058 -0.006393
# 5 -0.000565 -0.000951 -0.002407 -0.002058 0.035357 -0.004884
# 6 -0.000449 -0.002027 0.010602 -0.006393 -0.004884 0.053188
#
#
# Mechanical properties :
#
#
# Convention : Reuss Voigt Hill
#
# Bulk Modulus (GPa) = 39.95492 48.74196 44.34844
# Shear Modulus (GPa) = 26.14296 30.86345 28.50321
#
# Velocity S-wave (km/s) = 3.63054 3.94472 3.79089
# Velocity P-wave (km/s) = 6.14159 6.73221 6.44367
#
# Compressibility (1/GPa) = 0.02502820
#
# Stress axis : x y z
#
# Youngs Moduli (GPa) = 66.98706 83.53777 54.15363
#
# Poissons Ratio (x) = 0.31507 0.14972
# Poissons Ratio (y) = 0.25265 0.19669
# Poissons Ratio (z) = 0.18520 0.30342
#
# Static dielectric constant tensor:
#      x y z
#    x 3.599300 0.245560 0.280990 
#    y 0.245560 4.677320 -0.014610 
#    z 0.280990 -0.014610 3.750010 
# 
# 
# High freq. dielectric constant tensor:
#      x y z
#    x 1.757060 0.016170 0.027020 
#    y 0.016170 1.784400 -0.020410 
#    z 0.027020 -0.020410 1.774720 
# 
# From -- ./inp_files/282113.got.cif
#   From: 2010.06.25/outbox.cif.g09.slc.cpg/sg2_142_cif.got.tgz:282113.got - 2010.06.27 13:26:56.
