data_PCOD8029613
_publ_section_title
;
Structure prediction by ZEFSAII (Michael W. Deem and Ramdas Pophale) SiO2 
 PCOD8029613
Probable space group: P -1
;
_chemical_formula_sum "Si O2"
_cell_formula_units_Z 16
_cell_length_a 9.569583
_cell_length_b 17.397166
_cell_length_c 19.416923
_cell_angle_alpha 19.995227
_cell_angle_beta 133.826964
_cell_angle_gamma 125.013800
_cell_volume 757.638669
_symmetry_space_group_name_H-M "P -1"
_symmetry_group_IT_number 2
_symmetry_cell_setting 'triclinic'
loop_
_space_group_symop_operation_xyz
x,y,z
-x,-y,-z
loop_
_atom_site_type_symbol
_atom_site_label
_atom_site_fract_x
_atom_site_fract_y
_atom_site_fract_z
Si Si1 0.464204 0.629305 0.503788
Si Si2 0.846161 0.769113 0.665345
Si Si3 0.818212 0.892584 0.037871
Si Si4 0.203033 0.864424 0.767456
Si Si5 0.516483 0.403939 0.301717
Si Si6 0.107296 0.365555 0.352475
Si Si7 0.909757 0.433650 0.361928
Si Si8 0.702396 0.780800 0.241307
O O1 0.422614 0.632467 0.567707
O O2 0.703602 0.541257 0.642694
O O3 0.357799 0.459575 0.573054
O O4 0.386877 0.897636 0.224655
O O5 0.643804 0.731499 0.660971
O O6 0.936070 0.587926 0.783717
O O7 0.022026 0.739805 0.807696
O O8 0.776503 0.038643 0.384569
O O9 0.847239 0.675037 0.179849
O O10 0.809193 0.801418 0.188605
O O11 0.000000 0.000000 0.000000
O O12 0.152605 0.083152 0.619221
O O13 0.413327 0.681551 0.017611
O O14 0.728057 0.315229 0.406257
O O15 0.927693 0.494466 0.235750
O O16 0.124723 0.248339 0.616723
O O17 0.500000 0.000000 0.000000
#
# Coordination Sequence:
#
# PCOD8029613 Si02
#       8
#     2   2   2   2   2   2   2   2
#     4  11  23  42  60  88 117 165 213 240 301 360
#     4   8  19  39  67  88 120 159 203 235 304 374
#     4  12  24  41  60  81 123 163 202 254 305 352
#     4   9  18  40  68  87 121 158 200 248 294 371
#     4  11  21  36  64  91 119 157 204 246 302 358
#     4   9  21  38  61  90 120 153 202 252 293 359
#     4  12  24  40  59  93 127 157 204 257 306 349
#     4  12  27  42  63  86 121 167 209 253 296 360
#
# _framework density 21.118245999999999
#
# number of rings (size 3 to 8) (size 9 to 14) (size 15 to 20)
#    0.750    0.750    2.500    3.000    3.500    1.000 
#    0.000    1.250    0.000    0.000    0.000    0.000 
#    0.000    0.000    0.000    0.000    0.000    0.000 
#
# Total GULP energy -198289.983266 kJ/mol
# GULP energy per Si atom -12393.123954 kJ/mol
# Density = 2.107018 g / cm^3
# Si number density = 21.118246 Si / 1000 Ang^3
#
#
#
# Elastic Constant Matrix: (Units=GPa)
#
#
# Indices 1 2 3 4 5 6 
#
# 1 138.4285 44.5903 2.1609 -9.4583 7.5862 20.1238
# 2 44.5903 76.5492 9.0417 2.5484 0.7202 21.2483
# 3 2.1609 9.0417 62.4145 0.6245 -0.7676 2.0983
# 4 -9.4583 2.5484 0.6245 21.5780 -1.6594 -2.0412
# 5 7.5862 0.7202 -0.7676 -1.6594 19.7835 3.9235
# 6 20.1238 21.2483 2.0983 -2.0412 3.9235 34.3768
#
#
#
# Elastic Compliance Matrix: (Units=1/GPa)
#
#
# Indices 1 2 3 4 5 6 
#
# 1 0.009638 -0.005279 0.000414 0.004452 -0.002752 -0.001826
# 2 -0.005279 0.019094 -0.002190 -0.005172 0.002632 -0.009186
# 3 0.000414 -0.002190 0.016330 0.000015 0.000545 0.000053
# 4 0.004452 -0.005172 0.000015 0.049369 0.001969 0.003297
# 5 -0.002752 0.002632 0.000545 0.001969 0.052876 -0.005967
# 6 -0.001826 -0.009186 0.000053 0.003297 -0.005967 0.036710
#
#
# Mechanical properties :
#
#
# Convention : Reuss Voigt Hill
#
# Bulk Modulus (GPa) = 32.30795 43.21978 37.76387
# Shear Modulus (GPa) = 23.98718 29.92093 26.95405
#
# Velocity S-wave (km/s) = 3.37390 3.76816 3.57647
# Velocity P-wave (km/s) = 5.52353 6.28029 5.91403
#
# Compressibility (1/GPa) = 0.03095214
#
# Stress axis : x y z
#
# Youngs Moduli (GPa) = 103.75256 52.37173 61.23821
#
# Poissons Ratio (x) = 0.27645 -0.02535
# Poissons Ratio (y) = 0.54767 0.13414
# Poissons Ratio (z) = -0.04295 0.11472
#
# Static dielectric constant tensor:
#      x y z
#    x 3.981370 0.292220 -0.222570 
#    y 0.292220 3.818200 0.038580 
#    z -0.222570 0.038580 3.730220 
# 
# 
# High freq. dielectric constant tensor:
#      x y z
#    x 1.828110 0.023350 -0.017220 
#    y 0.023350 1.824490 0.008070 
#    z -0.017220 0.008070 1.807300 
# 
# From -- ./inp_files/590909.got.cif
#   From: 2010.06.25/outbox.cif.g09.slc.cpg/sg2_296_cif.got.tgz:590909.got - 2010.06.27 13:26:56.
