data_PCOD8029164
_publ_section_title
;
Structure prediction by ZEFSAII (Michael W. Deem and Ramdas Pophale) SiO2 
 PCOD8029164
Probable space group: P -1
;
_chemical_formula_sum "Si O2"
_cell_formula_units_Z 16
_cell_length_a 14.536255
_cell_length_b 12.001964
_cell_length_c 9.928692
_cell_angle_alpha 98.236191
_cell_angle_beta 27.712612
_cell_angle_gamma 104.142279
_cell_volume 770.803534
_symmetry_space_group_name_H-M "P -1"
_symmetry_group_IT_number 2
_symmetry_cell_setting 'triclinic'
loop_
_space_group_symop_operation_xyz
x,y,z
-x,-y,-z
loop_
_atom_site_type_symbol
_atom_site_label
_atom_site_fract_x
_atom_site_fract_y
_atom_site_fract_z
Si Si1 0.487998 0.504630 0.177001
Si Si2 0.775407 0.714954 0.403761
Si Si3 0.701705 0.756707 0.979300
Si Si4 0.030179 0.753318 0.322210
Si Si5 0.113463 0.517622 0.217049
Si Si6 0.963160 0.722071 0.870512
Si Si7 0.597975 0.125094 0.730981
Si Si8 0.537167 0.141787 0.117380
O O1 0.280749 0.415729 0.481669
O O2 0.500000 0.500000 0.000000
O O3 0.515308 0.639135 0.204679
O O4 0.651655 0.457895 0.042397
O O5 0.585026 0.772282 0.644615
O O6 0.937706 0.793230 0.312247
O O7 0.876421 0.710074 0.129652
O O8 0.817285 0.778337 0.975920
O O9 0.869064 0.744678 0.650241
O O10 0.595191 0.860154 0.104568
O O11 0.075942 0.629307 0.211124
O O12 0.242763 0.845616 0.096480
O O13 0.032325 0.405286 0.209237
O O14 0.000000 0.500000 0.500000
O O15 0.189387 0.805591 0.596578
O O16 0.595214 0.990025 0.715472
O O17 0.574845 0.175144 0.917660
#
# Coordination Sequence:
#
# PCOD8029164 Si02
#       8
#     2   2   2   2   2   2   2   2
#     4  11  20  36  66  95 131 171 214 261 321 399
#     4  12  26  43  65 102 136 177 211 275 343 384
#     4  11  23  39  69  98 129 173 220 268 326 391
#     4  12  22  40  68 100 128 174 218 272 322 394
#     4  11  20  37  66  96 132 170 214 269 319 394
#     4  11  27  44  63 101 142 168 216 277 337 388
#     4  11  24  44  71  99 126 179 227 276 317 393
#     4  11  24  44  72  97 131 170 236 273 314 396
#
# _framework density 20.757558
#
# number of rings (size 3 to 8) (size 9 to 14) (size 15 to 20)
#    0.000    0.750    7.500    0.000    3.500    5.500 
#    0.000    1.250    0.000    0.000    0.000    0.000 
#    0.000    0.000    0.000    0.000    0.000    0.000 
#
# Total GULP energy -198391.331497 kJ/mol
# GULP energy per Si atom -12399.458219 kJ/mol
# Density = 2.071031 g / cm^3
# Si number density = 20.757558 Si / 1000 Ang^3
#
#
#
# Elastic Constant Matrix: (Units=GPa)
#
#
# Indices 1 2 3 4 5 6 
#
# 1 110.5162 15.4521 45.5083 -11.5846 4.6652 3.1353
# 2 15.4521 73.5736 49.9849 -6.5432 2.7348 0.1396
# 3 45.5083 49.9849 124.0181 -11.1042 21.1181 10.6472
# 4 -11.5846 -6.5432 -11.1042 14.1126 6.6388 -5.2933
# 5 4.6652 2.7348 21.1181 6.6388 39.0528 1.1218
# 6 3.1353 0.1396 10.6472 -5.2933 1.1218 28.7982
#
#
#
# Elastic Compliance Matrix: (Units=1/GPa)
#
#
# Indices 1 2 3 4 5 6 
#
# 1 0.011287 0.000959 -0.003878 0.007571 -0.000652 0.001617
# 2 0.000959 0.019436 -0.008645 0.003084 0.002576 0.003464
# 3 -0.003878 -0.008645 0.015386 0.007569 -0.008438 -0.003504
# 4 0.007571 0.003084 0.007569 0.101159 -0.022866 0.015847
# 5 -0.000652 0.002576 -0.008438 -0.022866 0.034021 -0.002350
# 6 0.001617 0.003464 -0.003504 0.015847 -0.002350 0.038831
#
#
# Mechanical properties :
#
#
# Convention : Reuss Voigt Hill
#
# Bulk Modulus (GPa) = 43.51678 58.88873 51.20275
# Shear Modulus (GPa) = 19.92755 29.53689 24.73222
#
# Velocity S-wave (km/s) = 3.10177 3.77629 3.45553
# Velocity P-wave (km/s) = 5.81703 6.88805 6.37507
#
# Compressibility (1/GPa) = 0.02297964
#
# Stress axis : x y z
#
# Youngs Moduli (GPa) = 88.60129 51.45126 64.99358
#
# Poissons Ratio (x) = -0.04933 0.25204
# Poissons Ratio (y) = -0.08494 0.56188
# Poissons Ratio (z) = 0.34359 0.44481
#
# Static dielectric constant tensor:
#      x y z
#    x 3.841990 0.145430 -0.089360 
#    y 0.145430 3.547500 -0.288020 
#    z -0.089360 -0.288020 3.382090 
# 
# 
# High freq. dielectric constant tensor:
#      x y z
#    x 1.825170 -0.003950 -0.018710 
#    y -0.003950 1.802620 -0.010260 
#    z -0.018710 -0.010260 1.796510 
# 
# From -- ./inp_files/307655.got.cif
#   From: 2010.06.25/outbox.cif.g09.slc.cpg/sg2_154_cif.got.tgz:307655.got - 2010.06.27 13:26:56.
