data_PCOD8029031
_publ_section_title
;
Structure prediction by ZEFSAII (Michael W. Deem and Ramdas Pophale) SiO2 
 PCOD8029031
Probable space group: P -1
;
_chemical_formula_sum "Si O2"
_cell_formula_units_Z 14
_cell_length_a 14.791402
_cell_length_b 8.580059
_cell_length_c 11.946349
_cell_angle_alpha 57.096187
_cell_angle_beta 45.688081
_cell_angle_gamma 28.401162
_cell_volume 504.569324
_symmetry_space_group_name_H-M "P -1"
_symmetry_group_IT_number 2
_symmetry_cell_setting 'triclinic'
loop_
_space_group_symop_operation_xyz
x,y,z
-x,-y,-z
loop_
_atom_site_type_symbol
_atom_site_label
_atom_site_fract_x
_atom_site_fract_y
_atom_site_fract_z
Si Si1 0.242028 0.309455 0.364548
Si Si2 0.743052 0.137646 0.709889
Si Si3 0.076761 0.245882 0.945099
Si Si4 0.582080 0.753565 0.113118
Si Si5 0.690560 0.392575 0.434387
Si Si6 0.210994 0.376965 0.621490
Si Si7 0.163023 0.802841 0.174693
O O1 0.302949 0.271973 0.456135
O O2 0.228242 0.506975 0.214962
O O3 0.000000 0.500000 0.500000
O O4 0.447070 0.936682 0.278493
O O5 0.492865 0.352451 0.831432
O O6 0.813933 0.142620 0.529857
O O7 0.726761 0.304426 0.757312
O O8 0.941262 0.748312 0.719542
O O9 0.230531 0.150378 0.751316
O O10 0.851532 0.427278 0.018326
O O11 0.000000 0.500000 0.000000
O O12 0.239697 0.880993 0.997349
O O13 0.500000 0.000000 0.000000
O O14 0.500000 0.500000 0.500000
O O15 0.629721 0.672353 0.426023
O O16 0.889615 0.164732 0.260262
#
# Coordination Sequence:
#
# PCOD8029031 Si02
#       7
#     2   2   2   2   2   2   2
#     4  12  23  45  75 107 142 189 244 304 357 423
#     4  11  19  39  71 100 135 187 245 280 361 431
#     4  12  23  43  71 104 144 190 234 294 363 427
#     4  12  24  44  73 103 142 192 240 288 372 445
#     4  11  20  35  69 107 141 185 244 293 356 430
#     4  11  21  42  70  99 145 188 238 293 360 422
#     4  11  22  41  73 103 142 186 240 300 354 420
#
# _framework density 27.746435999999999
#
# number of rings (size 3 to 8) (size 9 to 14) (size 15 to 20)
#    0.000    0.571    8.571    1.714    0.000    0.000 
#    0.000    6.429    6.286    1.714    0.000    1.000 
#    0.000    0.000    0.000    0.000    0.000    0.000 
#
# Total GULP energy -173462.184916 kJ/mol
# GULP energy per Si atom -12390.156065 kJ/mol
# Density = 2.768328 g / cm^3
# Si number density = 27.746436 Si / 1000 Ang^3
#
#
#
# Elastic Constant Matrix: (Units=GPa)
#
#
# Indices 1 2 3 4 5 6 
#
# 1 168.7532 26.1183 40.3342 4.8411 -22.7057 -11.6764
# 2 26.1183 57.4992 35.6378 -19.4151 -9.3364 8.5615
# 3 40.3342 35.6378 123.2042 -39.7192 -12.7419 -4.7889
# 4 4.8411 -19.4151 -39.7192 62.6743 -3.8483 -7.6544
# 5 -22.7057 -9.3364 -12.7419 -3.8483 44.9958 -8.3122
# 6 -11.6764 8.5615 -4.7889 -7.6544 -8.3122 30.7427
#
#
#
# Elastic Compliance Matrix: (Units=1/GPa)
#
#
# Indices 1 2 3 4 5 6 
#
# 1 0.007576 -0.003075 -0.001744 -0.001975 0.003233 0.003845
# 2 -0.003075 0.024480 -0.005050 0.003760 0.001023 -0.007559
# 3 -0.001744 -0.005050 0.013294 0.007918 0.003577 0.005754
# 4 -0.001975 0.003760 0.007918 0.023431 0.005266 0.006694
# 5 0.003233 0.001023 0.003577 0.005266 0.027420 0.010225
# 6 0.003845 -0.007559 0.005754 0.006694 0.010225 0.041421
#
#
# Mechanical properties :
#
#
# Convention : Reuss Voigt Hill
#
# Bulk Modulus (GPa) = 39.04361 61.51525 50.27943
# Shear Modulus (GPa) = 30.13906 44.17366 37.15636
#
# Velocity S-wave (km/s) = 3.29938 3.99438 3.66340
# Velocity P-wave (km/s) = 5.34945 6.59485 6.00453
#
# Compressibility (1/GPa) = 0.02561238
#
# Stress axis : x y z
#
# Youngs Moduli (GPa) = 131.99409 40.85043 75.21972
#
# Poissons Ratio (x) = 0.12562 0.13116
# Poissons Ratio (y) = 0.40588 0.37987
# Poissons Ratio (z) = 0.23015 0.20630
#
# Static dielectric constant tensor:
#      x y z
#    x 4.830530 0.083760 0.252670 
#    y 0.083760 4.740870 -0.503660 
#    z 0.252670 -0.503660 5.195730 
# 
# 
# High freq. dielectric constant tensor:
#      x y z
#    x 2.127100 -0.014040 -0.010470 
#    y -0.014040 2.108570 -0.026980 
#    z -0.010470 -0.026980 2.132670 
# 
# From -- ./inp_files/446921.got.cif
#   From: 2010.06.25/outbox.cif.g09.slc.cpg/sg2_224_cif.got.tgz:446921.got - 2010.06.27 13:26:56.
