data_PCOD8029665
_publ_section_title
;
Structure prediction by ZEFSAII (Michael W. Deem and Ramdas Pophale) SiO2 
 PCOD8029665
Probable space group: P -1
;
_chemical_formula_sum "Si O2"
_cell_formula_units_Z 14
_cell_length_a 17.446339
_cell_length_b 11.872382
_cell_length_c 9.554227
_cell_angle_alpha 129.082379
_cell_angle_beta 39.588984
_cell_angle_gamma 149.668666
_cell_volume 633.162244
_symmetry_space_group_name_H-M "P -1"
_symmetry_group_IT_number 2
_symmetry_cell_setting 'triclinic'
loop_
_space_group_symop_operation_xyz
x,y,z
-x,-y,-z
loop_
_atom_site_type_symbol
_atom_site_label
_atom_site_fract_x
_atom_site_fract_y
_atom_site_fract_z
Si Si1 0.298728 0.795810 0.179870
Si Si2 0.938892 0.636991 0.970144
Si Si3 0.424270 0.666782 0.094514
Si Si4 0.851578 0.056892 0.830804
Si Si5 0.880046 0.755101 0.650533
Si Si6 0.344906 0.387892 0.741725
Si Si7 0.861804 0.085476 0.351593
O O1 0.174275 0.617500 0.087658
O O2 0.301171 0.685825 0.220568
O O3 0.235289 0.897038 0.389183
O O4 0.500000 0.000000 0.000000
O O5 0.085086 0.770304 0.742812
O O6 0.808153 0.656799 0.156446
O O7 0.044514 0.739937 0.049261
O O8 0.317226 0.514661 0.268534
O O9 0.637815 0.914293 0.008866
O O10 0.433182 0.543270 0.874828
O O11 0.840274 0.882640 0.764960
O O12 0.971389 0.177941 0.614022
O O13 0.962448 0.826000 0.747829
O O14 0.500000 0.500000 0.500000
O O15 0.267256 0.160494 0.717413
#
# Coordination Sequence:
#
# PCOD8029665 Si02
#       7
#     2   2   2   2   2   2   2
#     4  11  24  44  69  96 129 175 227 274 325 396
#     4  11  23  42  67  97 128 172 224 270 330 386
#     4  11  24  44  66  99 136 175 219 269 336 397
#     4  11  24  42  65 103 135 171 215 278 334 391
#     4  11  22  40  69  95 139 172 214 272 340 386
#     4  11  21  37  68  99 128 166 222 276 318 387
#     4  12  21  42  70  95 129 174 223 272 325 394
#
# _framework density 22.111236000000002
#
# number of rings (size 3 to 8) (size 9 to 14) (size 15 to 20)
#    0.000    0.857    4.286    5.571    2.000    0.000 
#    2.571    3.571    0.000    0.000    0.000    0.000 
#    0.000    0.000    0.000    0.000    0.000    0.000 
#
# Total GULP energy -173598.460896 kJ/mol
# GULP energy per Si atom -12399.890064 kJ/mol
# Density = 2.206091 g / cm^3
# Si number density = 22.111236 Si / 1000 Ang^3
#
#
#
# Elastic Constant Matrix: (Units=GPa)
#
#
# Indices 1 2 3 4 5 6 
#
# 1 54.2738 8.1346 8.1657 9.1061 7.6014 17.6300
# 2 8.1346 102.7945 28.1362 0.2586 3.2664 24.0259
# 3 8.1657 28.1362 80.0255 -9.7868 -3.2302 8.2118
# 4 9.1061 0.2586 -9.7868 49.4927 -7.3098 2.4368
# 5 7.6014 3.2664 -3.2302 -7.3098 34.8847 1.0364
# 6 17.6300 24.0259 8.2118 2.4368 1.0364 36.9412
#
#
#
# Elastic Compliance Matrix: (Units=1/GPa)
#
#
# Indices 1 2 3 4 5 6 
#
# 1 0.024135 0.001772 -0.002827 -0.005399 -0.006476 -0.011505
# 2 0.001772 0.012628 -0.004004 -0.001072 -0.001925 -0.008044
# 3 -0.002827 -0.004004 0.014765 0.003913 0.003168 0.000324
# 4 -0.005399 -0.001072 0.003913 0.022890 0.006414 0.000714
# 5 -0.006476 -0.001925 0.003168 0.006414 0.031826 0.002322
# 6 -0.011505 -0.008044 0.000324 0.000714 0.002322 0.037608
#
#
# Mechanical properties :
#
#
# Convention : Reuss Voigt Hill
#
# Bulk Modulus (GPa) = 24.14853 36.21854 30.18354
# Shear Modulus (GPa) = 29.80231 37.10755 33.45493
#
# Velocity S-wave (km/s) = 3.67527 4.10105 3.89399
# Velocity P-wave (km/s) = 5.38101 6.23222 5.82219
#
# Compressibility (1/GPa) = 0.04141039
#
# Stress axis : x y z
#
# Youngs Moduli (GPa) = 41.43415 79.19039 67.72579
#
# Poissons Ratio (x) = -0.14034 0.19145
# Poissons Ratio (y) = -0.07343 0.27118
# Poissons Ratio (z) = 0.11713 0.31708
#
# Static dielectric constant tensor:
#      x y z
#    x 3.541030 -0.151010 0.075790 
#    y -0.151010 4.170670 -0.098050 
#    z 0.075790 -0.098050 3.966730 
# 
# 
# High freq. dielectric constant tensor:
#      x y z
#    x 1.851740 -0.004080 -0.001470 
#    y -0.004080 1.882260 -0.013890 
#    z -0.001470 -0.013890 1.872430 
# 
# From -- ./inp_files/156790.got.cif
#   From: 2010.06.25/outbox.cif.g09.slc.cpg/sg2_79_cif.got.tgz:156790.got - 2010.06.27 13:26:56.
