data_PCOD8029741
_publ_section_title
;
Structure prediction by ZEFSAII (Michael W. Deem and Ramdas Pophale) SiO2 
 PCOD8029741
Probable space group: P -1
;
_chemical_formula_sum "Si O2"
_cell_formula_units_Z 14
_cell_length_a 9.551661
_cell_length_b 16.053700
_cell_length_c 13.916651
_cell_angle_alpha 155.290720
_cell_angle_beta 47.283895
_cell_angle_gamma 133.050184
_cell_volume 639.903724
_symmetry_space_group_name_H-M "P -1"
_symmetry_group_IT_number 2
_symmetry_cell_setting 'triclinic'
loop_
_space_group_symop_operation_xyz
x,y,z
-x,-y,-z
loop_
_atom_site_type_symbol
_atom_site_label
_atom_site_fract_x
_atom_site_fract_y
_atom_site_fract_z
Si Si1 0.377678 0.316131 0.977038
Si Si2 0.039816 0.286125 0.530635
Si Si3 0.287727 0.868738 0.326735
Si Si4 0.995685 0.411317 0.303839
Si Si5 0.874666 0.338036 0.001228
Si Si6 0.304044 0.313223 0.784872
Si Si7 0.732475 0.063705 0.955299
O O1 0.169928 0.288523 0.095424
O O2 0.514372 0.524965 0.173270
O O3 0.488173 0.133797 0.755474
O O4 0.336115 0.313739 0.882747
O O5 0.846613 0.170500 0.556386
O O6 0.971612 0.401707 0.591606
O O7 0.174480 0.455776 0.714995
O O8 0.170867 0.129833 0.271667
O O9 0.216457 0.702885 0.103734
O O10 0.288261 0.089791 0.513711
O O11 0.000000 0.500000 0.500000
O O12 0.801928 0.241333 0.188899
O O13 0.107543 0.387629 0.932808
O O14 0.800715 0.145748 0.903733
O O15 0.500000 0.000000 0.000000
#
# Coordination Sequence:
#
# PCOD8029741 Si02
#       7
#     2   2   2   2   2   2   2
#     4  11  22  40  63  97 133 171 216 267 334 389
#     4  11  22  43  69  92 134 175 214 274 334 383
#     4  12  23  36  70 102 135 170 212 270 339 395
#     4  11  26  47  67  95 134 175 227 277 319 396
#     4  11  23  41  65 101 134 171 219 269 327 400
#     4  11  21  39  63  96 137 169 214 268 333 389
#     4  11  26  46  68  94 132 181 228 270 322 392
#
# _framework density 21.878291999999998
#
# number of rings (size 3 to 8) (size 9 to 14) (size 15 to 20)
#    0.000    0.857    5.714    2.143    0.000    7.429 
#    0.000    0.000    0.000    0.000    0.000    0.000 
#    0.000    0.000    0.000    0.000    0.000    0.000 
#
# Total GULP energy -173570.923521 kJ/mol
# GULP energy per Si atom -12397.923109 kJ/mol
# Density = 2.182850 g / cm^3
# Si number density = 21.878292 Si / 1000 Ang^3
#
#
#
# Elastic Constant Matrix: (Units=GPa)
#
#
# Indices 1 2 3 4 5 6 
#
# 1 110.1897 25.7989 32.8702 -10.0532 5.7612 15.8269
# 2 25.7989 70.0905 27.2553 0.4620 4.3370 17.2982
# 3 32.8702 27.2553 118.3824 3.2939 -5.5687 2.9274
# 4 -10.0532 0.4620 3.2939 34.3315 2.9744 -3.3378
# 5 5.7612 4.3370 -5.5687 2.9744 41.9917 -2.8095
# 6 15.8269 17.2982 2.9274 -3.3378 -2.8095 37.1456
#
#
#
# Elastic Compliance Matrix: (Units=1/GPa)
#
#
# Indices 1 2 3 4 5 6 
#
# 1 0.011327 -0.002123 -0.002769 0.003462 -0.002180 -0.003473
# 2 -0.002123 0.018506 -0.003570 -0.001059 -0.002535 -0.007719
# 3 -0.002769 -0.003570 0.010146 -0.001740 0.002356 0.002065
# 4 0.003462 -0.001059 -0.001740 0.030720 -0.002658 0.001715
# 5 -0.002180 -0.002535 0.002356 -0.002658 0.025116 0.003584
# 6 -0.003473 -0.007719 0.002065 0.001715 0.003584 0.032258
#
#
# Mechanical properties :
#
#
# Convention : Reuss Voigt Hill
#
# Bulk Modulus (GPa) = 43.37607 52.27905 47.82756
# Shear Modulus (GPa) = 32.74779 36.87629 34.81204
#
# Velocity S-wave (km/s) = 3.87307 4.10996 3.99327
# Velocity P-wave (km/s) = 6.31427 6.81687 6.57037
#
# Compressibility (1/GPa) = 0.02305418
#
# Stress axis : x y z
#
# Youngs Moduli (GPa) = 88.28342 54.03700 98.55924
#
# Poissons Ratio (x) = 0.11474 0.27293
# Poissons Ratio (y) = 0.18745 0.35185
# Poissons Ratio (z) = 0.24448 0.19291
#
# Static dielectric constant tensor:
#      x y z
#    x 4.897570 0.677050 -0.489110 
#    y 0.677050 4.198970 -0.066310 
#    z -0.489110 -0.066310 4.585870 
# 
# 
# High freq. dielectric constant tensor:
#      x y z
#    x 1.866920 0.006510 -0.000770 
#    y 0.006510 1.836720 0.018220 
#    z -0.000770 0.018220 1.870070 
# 
# From -- ./inp_files/227277.got.cif
#   From: 2010.06.25/outbox.cif.g09.slc.cpg/sg2_114_cif.got.tgz:227277.got - 2010.06.27 13:26:56.
