data_PCOD8029955
_publ_section_title
;
Structure prediction by ZEFSAII (Michael W. Deem and Ramdas Pophale) SiO2 
 PCOD8029955
Probable space group: P -1
;
_chemical_formula_sum "Si O2"
_cell_formula_units_Z 12
_cell_length_a 14.343109
_cell_length_b 9.125614
_cell_length_c 10.066045
_cell_angle_alpha 150.353929
_cell_angle_beta 90.303691
_cell_angle_gamma 78.200793
_cell_volume 596.123496
_symmetry_space_group_name_H-M "P -1"
_symmetry_group_IT_number 2
_symmetry_cell_setting 'triclinic'
loop_
_space_group_symop_operation_xyz
x,y,z
-x,-y,-z
loop_
_atom_site_type_symbol
_atom_site_label
_atom_site_fract_x
_atom_site_fract_y
_atom_site_fract_z
Si Si1 0.550382 0.619024 0.475876
Si Si2 0.956231 0.376356 0.780388
Si Si3 0.527979 0.622709 0.961396
Si Si4 0.041352 0.268917 0.194735
Si Si5 0.742273 0.171813 0.248594
Si Si6 0.736823 0.543235 0.807710
O O1 0.500000 0.500000 0.500000
O O2 0.671376 0.468754 0.390325
O O3 0.513521 0.996132 0.752102
O O4 0.529808 0.483832 0.233561
O O5 0.998556 0.498615 0.749642
O O6 0.833732 0.490247 0.861045
O O7 0.000000 0.000000 0.500000
O O8 0.000000 0.500000 0.000000
O O9 0.500000 0.500000 0.000000
O O10 0.650923 0.457840 0.813512
O O11 0.000000 0.500000 0.500000
O O12 0.162158 0.067675 0.024722
O O13 0.000000 0.000000 0.000000
O O14 0.772241 0.320107 0.498640
O O15 0.684515 0.933531 0.090710
#
# Coordination Sequence:
#
# PCOD8029955 Si02
#       6
#     2   2   2   2   2   2
#     4  12  22  42  70  94 127 171 226 256 301 409
#     4  11  23  42  66  91 123 171 218 255 315 395
#     4  12  25  42  63  99 140 166 205 274 330 363
#     4  11  23  43  65  93 131 159 208 280 325 360
#     4  11  22  39  70  96 121 174 222 256 316 386
#     4  11  21  41  66  92 130 172 215 260 319 387
#
# _framework density 20.130057999999998
#
# number of rings (size 3 to 8) (size 9 to 14) (size 15 to 20)
#    0.000    0.667    3.333    7.000    0.000    0.000 
#    9.000    0.000    0.000    0.000    0.000    0.000 
#    0.000    0.000    0.000    0.000    0.000    0.000 
#
# Total GULP energy -148701.783983 kJ/mol
# GULP energy per Si atom -12391.815332 kJ/mol
# Density = 2.008424 g / cm^3
# Si number density = 20.130058 Si / 1000 Ang^3
#
#
#
# Elastic Constant Matrix: (Units=GPa)
#
#
# Indices 1 2 3 4 5 6 
#
# 1 120.6263 69.5388 60.2580 -12.7026 1.3331 -11.3291
# 2 69.5388 171.1540 81.1177 -0.1468 -2.1402 6.8391
# 3 60.2580 81.1177 175.1418 -4.2029 13.1483 -5.9358
# 4 -12.7026 -0.1468 -4.2029 49.7663 -2.2173 7.8882
# 5 1.3331 -2.1402 13.1483 -2.2173 37.0560 0.4703
# 6 -11.3291 6.8391 -5.9358 7.8882 0.4703 39.0071
#
#
#
# Elastic Compliance Matrix: (Units=1/GPa)
#
#
# Indices 1 2 3 4 5 6 
#
# 1 0.012325 -0.004111 -0.002175 0.002407 0.000191 0.003480
# 2 -0.004111 0.009110 -0.003060 -0.000706 0.001757 -0.003135
# 3 -0.002175 -0.003060 0.008138 -0.000205 -0.003014 0.001221
# 4 0.002407 -0.000706 -0.000205 0.021305 0.001265 -0.003532
# 5 0.000191 0.001757 -0.003014 0.001265 0.028242 -0.001308
# 6 0.003480 -0.003135 0.001221 -0.003532 -0.001308 0.028113
#
#
# Mechanical properties :
#
#
# Convention : Reuss Voigt Hill
#
# Bulk Modulus (GPa) = 91.90781 98.75012 95.32896
# Shear Modulus (GPa) = 38.59449 42.23304 40.41376
#
# Velocity S-wave (km/s) = 4.38340 4.58537 4.48552
# Velocity P-wave (km/s) = 8.44837 8.78617 8.61893
#
# Compressibility (1/GPa) = 0.01088047
#
# Stress axis : x y z
#
# Youngs Moduli (GPa) = 81.13692 109.76907 122.88269
#
# Poissons Ratio (x) = 0.45131 0.26724
# Poissons Ratio (y) = 0.33359 0.37601
# Poissons Ratio (z) = 0.17645 0.33589
#
# Static dielectric constant tensor:
#      x y z
#    x 4.032350 0.114270 0.012570 
#    y 0.114270 3.796620 0.216900 
#    z 0.012570 0.216900 3.841540 
# 
# 
# High freq. dielectric constant tensor:
#      x y z
#    x 1.792200 -0.003740 0.010020 
#    y -0.003740 1.782030 0.014460 
#    z 0.010020 0.014460 1.810190 
# 
# From -- ./inp_files/142732.got.cif
#   From: 2010.06.25/outbox.cif.g09.slc.cpg/sg2_72_cif.got.tgz:142732.got - 2010.06.27 13:26:56.
