data_PCOD8029066
_publ_section_title
;
Structure prediction by ZEFSAII (Michael W. Deem and Ramdas Pophale) SiO2 
 PCOD8029066
Probable space group: P -1
;
_chemical_formula_sum "Si O2"
_cell_formula_units_Z 10
_cell_length_a 8.887499
_cell_length_b 9.186773
_cell_length_c 8.967229
_cell_angle_alpha 113.420307
_cell_angle_beta 99.949556
_cell_angle_gamma 42.388106
_cell_volume 444.196885
_symmetry_space_group_name_H-M "P -1"
_symmetry_group_IT_number 2
_symmetry_cell_setting 'triclinic'
loop_
_space_group_symop_operation_xyz
x,y,z
-x,-y,-z
loop_
_atom_site_type_symbol
_atom_site_label
_atom_site_fract_x
_atom_site_fract_y
_atom_site_fract_z
Si Si1 0.279951 0.574065 0.157403
Si Si2 0.542164 0.874337 0.111456
Si Si3 0.823081 0.900220 0.351559
Si Si4 0.839407 0.985217 0.721790
Si Si5 0.327633 0.684914 0.671231
O O1 0.210049 0.792312 0.153862
O O2 0.534266 0.406689 0.191278
O O3 0.097293 0.665817 0.292497
O O4 0.302977 0.403050 0.986373
O O5 0.675379 0.864770 0.260250
O O6 0.290670 0.028377 0.191916
O O7 0.500000 0.000000 0.000000
O O8 0.755397 0.011981 0.549751
O O9 0.772214 0.069602 0.288294
O O10 0.109307 0.738119 0.680072
O O11 0.500000 0.500000 0.500000
#
# Coordination Sequence:
#
# PCOD8029066 Si02
#       5
#     2   2   2   2   2
#     4  11  22  44  69  93 129 171 212 267 318 379
#     4  12  26  44  61  98 140 166 206 272 326 369
#     4  11  22  43  69  94 128 170 216 262 319 382
#     4  11  24  42  71  95 123 175 221 254 314 392
#     4  11  19  41  72  98 123 163 223 268 309 378
#
# _framework density 22.512540000000001
#
# number of rings (size 3 to 8) (size 9 to 14) (size 15 to 20)
#    0.000    0.800    6.000    3.000    0.000    0.800 
#    7.200    2.000    0.000    0.000    0.000    0.000 
#    0.000    0.000    0.000    0.000    0.000    0.000 
#
# Total GULP energy -123938.548558 kJ/mol
# GULP energy per Si atom -12393.854856 kJ/mol
# Density = 2.246130 g / cm^3
# Si number density = 22.512540 Si / 1000 Ang^3
#
#
#
# Elastic Constant Matrix: (Units=GPa)
#
#
# Indices 1 2 3 4 5 6 
#
# 1 177.0931 54.8067 61.0056 10.0617 -16.2143 -18.5742
# 2 54.8067 78.7627 23.5815 7.1216 -2.3026 -24.0835
# 3 61.0056 23.5815 71.2543 22.3292 2.7490 -1.2713
# 4 10.0617 7.1216 22.3292 26.0503 1.7438 -1.5335
# 5 -16.2143 -2.3026 2.7490 1.7438 47.7170 3.7500
# 6 -18.5742 -24.0835 -1.2713 -1.5335 3.7500 28.6867
#
#
#
# Elastic Compliance Matrix: (Units=1/GPa)
#
#
# Indices 1 2 3 4 5 6 
#
# 1 0.010364 -0.003948 -0.009178 0.004876 0.003462 0.002797
# 2 -0.003948 0.020979 -0.003048 -0.000623 -0.001314 0.015060
# 3 -0.009178 -0.003048 0.029528 -0.021155 -0.003576 -0.007857
# 4 0.004876 -0.000623 -0.021155 0.055045 0.000474 0.004577
# 5 0.003462 -0.001314 -0.003576 0.000474 0.022410 -0.001925
# 6 0.002797 0.015060 -0.007857 0.004577 -0.001925 0.049462
#
#
# Mechanical properties :
#
#
# Convention : Reuss Voigt Hill
#
# Bulk Modulus (GPa) = 35.06045 67.32197 51.19121
# Shear Modulus (GPa) = 21.77290 33.00523 27.38907
#
# Velocity S-wave (km/s) = 3.11327 3.83310 3.49178
# Velocity P-wave (km/s) = 5.34142 7.03984 6.24861
#
# Compressibility (1/GPa) = 0.02852217
#
# Stress axis : x y z
#
# Youngs Moduli (GPa) = 96.49207 47.66702 33.86575
#
# Poissons Ratio (x) = 0.18818 0.31083
# Poissons Ratio (y) = 0.38094 0.10323
# Poissons Ratio (z) = 0.88562 0.14530
#
# Static dielectric constant tensor:
#      x y z
#    x 4.500150 -0.584850 0.210740 
#    y -0.584850 4.524620 0.064170 
#    z 0.210740 0.064170 4.276240 
# 
# 
# High freq. dielectric constant tensor:
#      x y z
#    x 1.896640 -0.022340 0.003180 
#    y -0.022340 1.874250 0.016040 
#    z 0.003180 0.016040 1.887200 
# 
# From -- ./inp_files/15186.got.cif
#   From: 2010.06.25/outbox.cif.g09.slc.cpg/sg2_8_cif.got.tgz:15186.got - 2010.06.27 13:26:56.
