data_PCOD8029435
_publ_section_title
;
Structure prediction by ZEFSAII (Michael W. Deem and Ramdas Pophale) SiO2 
 PCOD8029435
Probable space group: P -1
;
_chemical_formula_sum "Si O2"
_cell_formula_units_Z 16
_cell_length_a 15.582818
_cell_length_b 8.744553
_cell_length_c 15.061172
_cell_angle_alpha 104.106840
_cell_angle_beta 151.609629
_cell_angle_gamma 94.389713
_cell_volume 734.232122
_symmetry_space_group_name_H-M "P -1"
_symmetry_group_IT_number 2
_symmetry_cell_setting 'triclinic'
loop_
_space_group_symop_operation_xyz
x,y,z
-x,-y,-z
loop_
_atom_site_type_symbol
_atom_site_label
_atom_site_fract_x
_atom_site_fract_y
_atom_site_fract_z
Si Si1 0.086813 0.868749 0.577183
Si Si2 0.653909 0.568296 0.237818
Si Si3 0.239648 0.798051 0.527467
Si Si4 0.067641 0.481018 0.190049
Si Si5 0.624398 0.234917 0.643930
Si Si6 0.626951 0.850884 0.981483
Si Si7 0.824302 0.820827 0.747161
Si Si8 0.869693 0.943597 0.605697
O O1 0.117761 0.789979 0.504681
O O2 0.909449 0.668253 0.447329
O O3 0.326369 0.014204 0.870757
O O4 0.000000 0.000000 0.500000
O O5 0.686060 0.744300 0.350699
O O6 0.500000 0.500000 0.000000
O O7 0.552976 0.383817 0.186648
O O8 0.096442 0.570041 0.326893
O O9 0.232121 0.935558 0.469075
O O10 0.504479 0.889007 0.799743
O O11 0.225135 0.672754 0.295180
O O12 0.161937 0.357076 0.252923
O O13 0.796225 0.343251 0.899640
O O14 0.438328 0.272574 0.484346
O O15 0.500000 0.000000 0.500000
O O16 0.869343 0.913672 0.176247
O O17 0.891683 0.898085 0.719223
O O18 0.000000 0.000000 0.000000
#
# Coordination Sequence:
#
# PCOD8029435 Si02
#       8
#     2   2   2   2   2   2   2   2
#     4  11  21  44  67 101 142 185 231 283 349 422
#     4  11  20  41  72  97 139 184 230 285 350 418
#     4  12  24  43  72 100 141 186 232 295 349 420
#     4  11  27  45  71 110 139 182 242 290 364 428
#     4  11  24  49  74 103 143 182 232 297 361 434
#     4  11  24  43  70  99 143 183 238 287 353 421
#     4  12  26  47  77 100 142 193 236 298 366 423
#     4  11  26  45  65 105 141 181 240 296 351 423
#
# _framework density 21.791474999999998
#
# number of rings (size 3 to 8) (size 9 to 14) (size 15 to 20)
#    0.000    0.750    5.000    2.250    3.500    4.500 
#    0.000    6.250    0.000    0.000    0.000    0.000 
#    0.000    0.000    0.000    0.000    0.000    0.000 
#
# Total GULP energy -198383.674253 kJ/mol
# GULP energy per Si atom -12398.979641 kJ/mol
# Density = 2.174188 g / cm^3
# Si number density = 21.791475 Si / 1000 Ang^3
#
#
#
# Elastic Constant Matrix: (Units=GPa)
#
#
# Indices 1 2 3 4 5 6 
#
# 1 88.5867 34.2060 58.6326 11.9736 -22.3933 -11.1170
# 2 34.2060 115.6078 76.3093 0.7022 -4.5207 -9.9691
# 3 58.6326 76.3093 173.8695 -1.5756 -16.9751 -15.4478
# 4 11.9736 0.7022 -1.5756 44.8944 1.2651 1.1245
# 5 -22.3933 -4.5207 -16.9751 1.2651 46.4807 6.9118
# 6 -11.1170 -9.9691 -15.4478 1.1245 6.9118 43.2649
#
#
#
# Elastic Compliance Matrix: (Units=1/GPa)
#
#
# Indices 1 2 3 4 5 6 
#
# 1 0.017384 -0.001880 -0.004305 -0.004981 0.006520 0.001584
# 2 -0.001880 0.012462 -0.004913 0.000158 -0.001625 0.000889
# 3 -0.004305 -0.004913 0.009535 0.001514 0.000739 0.001009
# 4 -0.004981 0.000158 0.001514 0.023743 -0.002337 -0.000947
# 5 0.006520 -0.001625 0.000739 -0.002337 0.025188 -0.002398
# 6 0.001584 0.000889 0.001009 -0.000947 -0.002398 0.024493
#
#
# Mechanical properties :
#
#
# Convention : Reuss Voigt Hill
#
# Bulk Modulus (GPa) = 58.19451 79.59553 68.89502
# Shear Modulus (GPa) = 35.52903 40.85574 38.19238
#
# Velocity S-wave (km/s) = 4.04221 4.33465 4.19098
# Velocity P-wave (km/s) = 6.96772 7.85223 7.42316
#
# Compressibility (1/GPa) = 0.01718375
#
# Stress axis : x y z
#
# Youngs Moduli (GPa) = 57.52431 80.24626 104.87581
#
# Poissons Ratio (x) = 0.15088 0.45148
# Poissons Ratio (y) = 0.10816 0.51530
# Poissons Ratio (z) = 0.24763 0.39428
#
# Static dielectric constant tensor:
#      x y z
#    x 4.000000 0.034610 -0.132190 
#    y 0.034610 4.183580 0.004510 
#    z -0.132190 0.004510 4.279790 
# 
# 
# High freq. dielectric constant tensor:
#      x y z
#    x 1.859270 0.001080 -0.013480 
#    y 0.001080 1.856520 -0.000210 
#    z -0.013480 -0.000210 1.872400 
# 
# From -- ./inp_files/530042.got.cif
#   From: 2010.06.25/outbox.cif.g09.slc.cpg/sg2_266_cif.got.tgz:530042.got - 2010.06.27 13:26:56.
