data_PCOD8029785
_publ_section_title
;
Structure prediction by ZEFSAII (Michael W. Deem and Ramdas Pophale) SiO2 
 PCOD8029785
Probable space group: P -1
;
_chemical_formula_sum "Si O2"
_cell_formula_units_Z 16
_cell_length_a 11.155140
_cell_length_b 13.415476
_cell_length_c 9.994736
_cell_angle_alpha 78.112997
_cell_angle_beta 66.929945
_cell_angle_gamma 31.617589
_cell_volume 695.672869
_symmetry_space_group_name_H-M "P -1"
_symmetry_group_IT_number 2
_symmetry_cell_setting 'triclinic'
loop_
_space_group_symop_operation_xyz
x,y,z
-x,-y,-z
loop_
_atom_site_type_symbol
_atom_site_label
_atom_site_fract_x
_atom_site_fract_y
_atom_site_fract_z
Si Si1 0.283607 0.864421 0.262123
Si Si2 0.004385 0.777227 0.573063
Si Si3 0.483874 0.326651 0.511744
Si Si4 0.227515 0.305549 0.541257
Si Si5 0.783997 0.592142 0.981771
Si Si6 0.065800 0.060701 0.710749
Si Si7 0.633993 0.841633 0.752884
Si Si8 0.105682 0.217402 0.828230
O O1 0.369131 0.751939 0.392738
O O2 0.180837 0.846427 0.212186
O O3 0.049705 0.096871 0.331413
O O4 0.517473 0.768611 0.124028
O O5 0.926028 0.866458 0.436490
O O6 0.823900 0.807338 0.688797
O O7 0.296282 0.546974 0.508834
O O8 0.328886 0.324152 0.592300
O O9 0.683325 0.178774 0.343115
O O10 0.427110 0.145122 0.380712
O O11 0.146130 0.261449 0.669612
O O12 0.000000 0.500000 0.500000
O O13 0.754657 0.669863 0.832429
O O14 0.870478 0.418433 0.960189
O O15 0.000000 0.500000 0.000000
O O16 0.051108 0.136808 0.831726
O O17 0.349986 0.059115 0.864726
#
# Coordination Sequence:
#
# PCOD8029785 Si02
#       8
#     2   2   2   2   2   2   2   2
#     4  11  27  44  59  92 134 176 217 256 307 391
#     4  11  21  39  68  96 127 163 207 272 327 366
#     4  11  21  39  68  96 130 162 211 273 326 378
#     4  12  19  37  66 107 130 154 211 276 335 377
#     4  12  27  47  65  94 133 171 218 263 318 396
#     4  11  24  41  63  97 129 166 218 263 318 381
#     4  12  23  38  69 100 127 163 213 271 330 377
#     4  12  23  40  69  97 131 172 208 272 327 373
#
# _framework density 22.999316
#
# number of rings (size 3 to 8) (size 9 to 14) (size 15 to 20)
#    0.000    0.500    5.000    5.625    0.000    5.500 
#    0.000    0.625    0.000    0.000    0.000    0.000 
#    0.000    0.000    0.000    0.000    0.000    0.000 
#
# Total GULP energy -198373.560842 kJ/mol
# GULP energy per Si atom -12398.347553 kJ/mol
# Density = 2.294697 g / cm^3
# Si number density = 22.999316 Si / 1000 Ang^3
#
#
#
# Elastic Constant Matrix: (Units=GPa)
#
#
# Indices 1 2 3 4 5 6 
#
# 1 106.7456 38.7346 14.5548 11.1557 4.9512 -6.4435
# 2 38.7346 155.9092 20.4601 17.4691 9.2642 5.9465
# 3 14.5548 20.4601 49.2833 12.2796 6.9806 5.4159
# 4 11.1557 17.4691 12.2796 26.3463 0.6179 4.7731
# 5 4.9512 9.2642 6.9806 0.6179 26.2184 5.1668
# 6 -6.4435 5.9465 5.4159 4.7731 5.1668 26.7571
#
#
#
# Elastic Compliance Matrix: (Units=1/GPa)
#
#
# Indices 1 2 3 4 5 6 
#
# 1 0.011097 -0.002240 -0.001825 -0.003124 -0.001613 0.004408
# 2 -0.002240 0.007651 -0.001353 -0.003262 -0.001633 -0.001069
# 3 -0.001825 -0.001353 0.024689 -0.009264 -0.005037 -0.002511
# 4 -0.003124 -0.003262 -0.009264 0.046996 0.004563 -0.007417
# 5 -0.001613 -0.001633 -0.005037 0.004563 0.041812 -0.007894
# 6 0.004408 -0.001069 -0.002511 -0.007417 -0.007894 0.042028
#
#
# Mechanical properties :
#
#
# Convention : Reuss Voigt Hill
#
# Bulk Modulus (GPa) = 30.67356 51.04857 40.86106
# Shear Modulus (GPa) = 25.51311 31.74360 28.62835
#
# Velocity S-wave (km/s) = 3.33423 3.71913 3.53193
# Velocity P-wave (km/s) = 5.30928 6.37859 5.86834
#
# Compressibility (1/GPa) = 0.03260137
#
# Stress axis : x y z
#
# Youngs Moduli (GPa) = 90.11412 130.69582 40.50312
#
# Poissons Ratio (x) = 0.29272 0.07392
# Poissons Ratio (y) = 0.20183 0.05482
# Poissons Ratio (z) = 0.16446 0.17690
#
# Static dielectric constant tensor:
#      x y z
#    x 3.364090 -0.330350 -0.564970 
#    y -0.330350 4.251430 -0.175310 
#    z -0.564970 -0.175310 3.074610 
# 
# 
# High freq. dielectric constant tensor:
#      x y z
#    x 1.908750 0.000080 0.009960 
#    y 0.000080 1.930150 0.017820 
#    z 0.009960 0.017820 1.870280 
# 
# From -- ./inp_files/272863.got.cif
#   From: 2010.06.25/outbox.cif.g09.slc.cpg/sg2_137_cif.got.tgz:272863.got - 2010.06.27 13:26:56.
