data_PCOD8029873
_publ_section_title
;
Structure prediction by ZEFSAII (Michael W. Deem and Ramdas Pophale) SiO2 
 PCOD8029873
Probable space group: P -1
;
_chemical_formula_sum "Si O2"
_cell_formula_units_Z 16
_cell_length_a 11.242736
_cell_length_b 8.956846
_cell_length_c 9.101549
_cell_angle_alpha 75.717426
_cell_angle_beta 126.224618
_cell_angle_gamma 103.092937
_cell_volume 712.678712
_symmetry_space_group_name_H-M "P -1"
_symmetry_group_IT_number 2
_symmetry_cell_setting 'triclinic'
loop_
_space_group_symop_operation_xyz
x,y,z
-x,-y,-z
loop_
_atom_site_type_symbol
_atom_site_label
_atom_site_fract_x
_atom_site_fract_y
_atom_site_fract_z
Si Si1 0.469181 0.960689 0.812474
Si Si2 0.631687 0.471790 0.992284
Si Si3 0.526570 0.724815 0.681736
Si Si4 0.961631 0.478150 0.313067
Si Si5 0.711563 0.191577 0.953834
Si Si6 0.021141 0.874468 0.671208
Si Si7 0.216674 0.711859 0.317108
Si Si8 0.253724 0.042120 0.404180
O O1 0.494520 0.792244 0.806053
O O2 0.313790 0.003176 0.621373
O O3 0.500000 0.000000 0.000000
O O4 0.595607 0.079621 0.801692
O O5 0.627246 0.290582 0.988276
O O6 0.795228 0.524010 0.160291
O O7 0.500000 0.500000 0.000000
O O8 0.611972 0.574271 0.806915
O O9 0.371862 0.664450 0.505151
O O10 0.622299 0.852054 0.622062
O O11 0.977171 0.300048 0.337448
O O12 0.077651 0.592102 0.281905
O O13 0.000000 0.500000 0.500000
O O14 0.820303 0.084784 0.144161
O O15 0.793335 0.301566 0.864204
O O16 0.890775 0.870698 0.697036
O O17 0.000000 0.000000 0.500000
O O18 0.198427 0.884555 0.317618
#
# Coordination Sequence:
#
# PCOD8029873 Si02
#       8
#     2   2   2   2   2   2   2   2
#     4  11  21  40  68  97 131 180 232 278 333 396
#     4  11  26  44  67 100 135 177 227 284 339 407
#     4  11  23  43  67 101 139 179 228 282 335 401
#     4  11  26  46  69  98 138 179 219 283 347 399
#     4  11  24  43  67  99 136 178 223 282 342 397
#     4  11  26  44  67 100 135 177 227 284 339 407
#     4  11  23  45  70 100 142 175 222 285 340 405
#     4  11  23  43  67 101 139 179 228 282 335 401
#
# _framework density 22.450509
#
# number of rings (size 3 to 8) (size 9 to 14) (size 15 to 20)
#    0.000    1.000    2.500    3.750    3.500   11.000 
#    0.000    0.000    0.000    0.000    0.000    0.000 
#    0.000    0.000    0.000    0.000    0.000    0.000 
#
# Total GULP energy -198253.789634 kJ/mol
# GULP energy per Si atom -12390.861852 kJ/mol
# Density = 2.239941 g / cm^3
# Si number density = 22.450509 Si / 1000 Ang^3
#
#
#
# Elastic Constant Matrix: (Units=GPa)
#
#
# Indices 1 2 3 4 5 6 
#
# 1 127.0899 40.2317 52.8331 -6.4468 14.8121 -4.2838
# 2 40.2317 58.7579 45.8879 -7.0539 31.8198 6.9822
# 3 52.8331 45.8879 120.2813 -9.9038 9.6315 -15.5354
# 4 -6.4468 -7.0539 -9.9038 36.2315 -1.6168 6.0706
# 5 14.8121 31.8198 9.6315 -1.6168 45.0532 -3.1582
# 6 -4.2838 6.9822 -15.5354 6.0706 -3.1582 39.5259
#
#
#
# Elastic Compliance Matrix: (Units=1/GPa)
#
#
# Indices 1 2 3 4 5 6 
#
# 1 0.010774 -0.007365 -0.001867 -0.000256 0.002186 0.001949
# 2 -0.007365 0.062379 -0.019916 0.007668 -0.038779 -0.023921
# 3 -0.001867 -0.019916 0.017157 -0.000860 0.011761 0.011131
# 4 -0.000256 0.007668 -0.000860 0.029724 -0.004547 -0.006649
# 5 0.002186 -0.038779 0.011761 -0.004547 0.047323 0.016190
# 6 0.001949 -0.023921 0.011131 -0.006649 0.016190 0.036426
#
#
# Mechanical properties :
#
#
# Convention : Reuss Voigt Hill
#
# Bulk Modulus (GPa) = 31.23626 64.89270 48.06448
# Shear Modulus (GPa) = 18.33170 35.30721 26.81945
#
# Velocity S-wave (km/s) = 2.86061 3.96999 3.46005
# Velocity P-wave (km/s) = 4.98542 7.06979 6.11704
#
# Compressibility (1/GPa) = 0.03201407
#
# Stress axis : x y z
#
# Youngs Moduli (GPa) = 92.81583 16.03093 58.28519
#
# Poissons Ratio (x) = 0.11807 0.10882
# Poissons Ratio (y) = 0.68361 1.16081
# Poissons Ratio (z) = 0.17329 0.31927
#
# Static dielectric constant tensor:
#      x y z
#    x 4.167960 0.113130 0.168990 
#    y 0.113130 4.149860 -0.035960 
#    z 0.168990 -0.035960 4.126520 
# 
# 
# High freq. dielectric constant tensor:
#      x y z
#    x 1.899350 0.008270 -0.001470 
#    y 0.008270 1.886330 -0.001530 
#    z -0.001470 -0.001530 1.896250 
# 
# From -- ./inp_files/243722.got.cif
#   From: 2010.06.25/outbox.cif.g09.slc.cpg/sg2_122_cif.got.tgz:243722.got - 2010.06.27 13:26:56.
