data_PCOD8029869
_publ_section_title
;
Structure prediction by ZEFSAII (Michael W. Deem and Ramdas Pophale) SiO2 
 PCOD8029869
Probable space group: P -1
;
_chemical_formula_sum "Si O2"
_cell_formula_units_Z 14
_cell_length_a 9.862174
_cell_length_b 9.660430
_cell_length_c 11.352277
_cell_angle_alpha 63.703980
_cell_angle_beta 100.871885
_cell_angle_gamma 135.217732
_cell_volume 669.333498
_symmetry_space_group_name_H-M "P -1"
_symmetry_group_IT_number 2
_symmetry_cell_setting 'triclinic'
loop_
_space_group_symop_operation_xyz
x,y,z
-x,-y,-z
loop_
_atom_site_type_symbol
_atom_site_label
_atom_site_fract_x
_atom_site_fract_y
_atom_site_fract_z
Si Si1 0.270977 0.656606 0.269957
Si Si2 0.918369 0.381729 0.156046
Si Si3 0.525965 0.885576 0.798430
Si Si4 0.920501 0.036338 0.226799
Si Si5 0.719054 0.664293 0.518351
Si Si6 0.668924 0.721497 0.748206
Si Si7 0.421171 0.233560 0.903528
O O1 0.222044 0.468573 0.411782
O O2 0.427111 0.737635 0.164212
O O3 0.070823 0.558852 0.214299
O O4 0.367469 0.864204 0.289796
O O5 0.708411 0.289977 0.181294
O O6 0.899990 0.182936 0.233688
O O7 0.000000 0.500000 0.000000
O O8 0.599191 0.839007 0.720012
O O9 0.595268 0.865309 0.938998
O O10 0.858150 0.852936 0.375266
O O11 0.794087 0.935510 0.125366
O O12 0.146989 0.183034 0.175578
O O13 0.500000 0.500000 0.500000
O O14 0.737586 0.766633 0.607137
O O15 0.490729 0.464368 0.845159
#
# Coordination Sequence:
#
# PCOD8029869 Si02
#       7
#     2   2   2   2   2   2   2
#     4  11  22  39  63  96 120 169 215 251 305 377
#     4  12  22  38  67  96 124 169 211 251 311 381
#     4  12  24  41  62  98 138 154 201 273 322 356
#     4  12  22  41  72  89 119 175 217 250 305 378
#     4  11  21  44  70  85 122 169 225 250 295 386
#     4  11  25  40  63  99 126 164 206 265 320 359
#     4  11  21  40  68  92 126 168 212 251 305 388
#
# _framework density 20.916329000000001
#
# number of rings (size 3 to 8) (size 9 to 14) (size 15 to 20)
#    0.000    0.571    8.571    2.143    0.000    1.714 
#    0.000    3.571    0.000    0.000    0.000    0.000 
#    0.000    0.000    0.000    0.000    0.000    0.000 
#
# Total GULP energy -173668.036896 kJ/mol
# GULP energy per Si atom -12404.859778 kJ/mol
# Density = 2.086872 g / cm^3
# Si number density = 20.916329 Si / 1000 Ang^3
#
#
#
# Elastic Constant Matrix: (Units=GPa)
#
#
# Indices 1 2 3 4 5 6 
#
# 1 117.4989 58.4812 9.4139 15.2172 15.9439 -0.6238
# 2 58.4812 126.1045 5.5042 9.1307 11.8707 7.3183
# 3 9.4139 5.5042 56.2237 -3.0844 17.9829 -4.0667
# 4 15.2172 9.1307 -3.0844 27.8087 7.5663 20.2209
# 5 15.9439 11.8707 17.9829 7.5663 18.2057 5.4369
# 6 -0.6238 7.3183 -4.0667 20.2209 5.4369 51.5218
#
#
#
# Elastic Compliance Matrix: (Units=1/GPa)
#
#
# Indices 1 2 3 4 5 6 
#
# 1 0.012797 -0.005076 0.000555 -0.006394 -0.007035 0.004172
# 2 -0.005076 0.010555 0.000888 0.001639 -0.003467 -0.001768
# 3 0.000555 0.000888 0.029703 0.011228 -0.035539 0.001569
# 4 -0.006394 0.001639 0.011228 0.062811 -0.026304 -0.021300
# 5 -0.007035 -0.003467 -0.035539 -0.026304 0.110500 -0.003735
# 6 0.004172 -0.001768 0.001569 -0.021300 -0.003735 0.028589
#
#
# Mechanical properties :
#
#
# Convention : Reuss Voigt Hill
#
# Bulk Modulus (GPa) = 21.83937 49.62507 35.73222
# Shear Modulus (GPa) = 18.01897 34.60242 26.31070
#
# Velocity S-wave (km/s) = 2.93828 4.07175 3.55054
# Velocity P-wave (km/s) = 4.68778 6.77367 5.82485
#
# Compressibility (1/GPa) = 0.04578887
#
# Stress axis : x y z
#
# Youngs Moduli (GPa) = 78.14077 94.73753 33.66694
#
# Poissons Ratio (x) = 0.48089 -0.01869
# Poissons Ratio (y) = 0.39664 -0.02988
# Poissons Ratio (z) = -0.04338 -0.08408
#
# Static dielectric constant tensor:
#      x y z
#    x 3.664460 0.116910 0.363570 
#    y 0.116910 4.107940 0.099820 
#    z 0.363570 0.099820 3.626010 
# 
# 
# High freq. dielectric constant tensor:
#      x y z
#    x 1.802560 0.015660 0.025130 
#    y 0.015660 1.840850 -0.005200 
#    z 0.025130 -0.005200 1.808810 
# 
# From -- ./inp_files/169869.got.cif
#   From: 2010.06.25/outbox.cif.g09.slc.cpg/sg2_85_cif.got.tgz:169869.got - 2010.06.27 13:26:56.
