data_PCOD8029503
_publ_section_title
;
Structure prediction by ZEFSAII (Michael W. Deem and Ramdas Pophale) SiO2 
 PCOD8029503
Probable space group: P -1
;
_chemical_formula_sum "Si O2"
_cell_formula_units_Z 14
_cell_length_a 9.078785
_cell_length_b 6.707356
_cell_length_c 20.036928
_cell_angle_alpha 64.938586
_cell_angle_beta 138.942663
_cell_angle_gamma 124.409241
_cell_volume 661.170703
_symmetry_space_group_name_H-M "P -1"
_symmetry_group_IT_number 2
_symmetry_cell_setting 'triclinic'
loop_
_space_group_symop_operation_xyz
x,y,z
-x,-y,-z
loop_
_atom_site_type_symbol
_atom_site_label
_atom_site_fract_x
_atom_site_fract_y
_atom_site_fract_z
Si Si1 0.052643 0.950330 0.323337
Si Si2 0.337190 0.943284 0.295173
Si Si3 0.748854 0.306850 0.467853
Si Si4 0.864482 0.147442 0.898638
Si Si5 0.334066 0.613104 0.963356
Si Si6 0.385999 0.461271 0.394473
Si Si7 0.538894 0.879497 0.130440
O O1 0.129861 0.954877 0.271955
O O2 0.196477 0.820645 0.431276
O O3 0.757381 0.822188 0.246336
O O4 0.137409 0.218450 0.343353
O O5 0.281424 0.012290 0.192308
O O6 0.314103 0.673805 0.318166
O O7 0.611184 0.115911 0.389413
O O8 0.580112 0.442657 0.410945
O O9 0.000000 0.500000 0.500000
O O10 0.674522 0.178992 0.880376
O O11 0.055918 0.411637 0.902484
O O12 0.000000 0.000000 0.000000
O O13 0.343292 0.841176 0.891769
O O14 0.500000 0.500000 0.000000
O O15 0.434053 0.697874 0.059259
O O16 0.500000 0.500000 0.500000
#
# Coordination Sequence:
#
# PCOD8029503 Si02
#       7
#     2   2   2   2   2   2   2
#     4  11  23  43  67  98 133 174 223 274 337 405
#     4  11  24  45  67  95 135 178 224 275 334 399
#     4  11  25  41  64 101 138 169 219 276 332 407
#     4  12  26  46  70  99 137 181 230 282 337 401
#     4  11  23  48  70  96 134 178 226 285 339 396
#     4  11  20  43  70  89 128 181 217 267 334 395
#     4  11  26  43  71 100 134 178 226 281 342 398
#
# _framework density 21.174562999999999
#
# number of rings (size 3 to 8) (size 9 to 14) (size 15 to 20)
#    0.000    0.857    4.286    3.000    4.000    2.857 
#    5.143    0.000    0.000    0.000    0.000    0.000 
#    0.000    0.000    0.000    0.000    0.000    0.000 
#
# Total GULP energy -173656.262752 kJ/mol
# GULP energy per Si atom -12404.018768 kJ/mol
# Density = 2.112637 g / cm^3
# Si number density = 21.174563 Si / 1000 Ang^3
#
#
#
# Elastic Constant Matrix: (Units=GPa)
#
#
# Indices 1 2 3 4 5 6 
#
# 1 139.3431 39.9890 55.6552 21.5679 2.9827 -1.7911
# 2 39.9890 86.7957 22.9432 12.5095 -0.9483 -5.3992
# 3 55.6552 22.9432 130.5792 12.3411 -7.1335 -8.1883
# 4 21.5679 12.5095 12.3411 32.5479 1.5235 4.5744
# 5 2.9827 -0.9483 -7.1335 1.5235 44.9247 7.1109
# 6 -1.7911 -5.3992 -8.1883 4.5744 7.1109 38.8429
#
#
#
# Elastic Compliance Matrix: (Units=1/GPa)
#
#
# Indices 1 2 3 4 5 6 
#
# 1 0.010121 -0.003174 -0.003428 -0.004133 -0.001143 -0.000001
# 2 -0.003174 0.013738 -0.000621 -0.003229 0.000199 0.001976
# 3 -0.003428 -0.000621 0.009549 -0.001414 0.001516 0.001657
# 4 -0.004133 -0.003229 -0.001414 0.035976 -0.000432 -0.005095
# 5 -0.001143 0.000199 0.001516 -0.000432 0.023213 -0.003904
# 6 -0.000001 0.001976 0.001657 -0.005095 -0.003904 0.027684
#
#
# Mechanical properties :
#
#
# Convention : Reuss Voigt Hill
#
# Bulk Modulus (GPa) = 52.73670 65.98808 59.36239
# Shear Modulus (GPa) = 35.44932 39.13847 37.29389
#
# Velocity S-wave (km/s) = 4.09607 4.30393 4.20129
# Velocity P-wave (km/s) = 6.87969 7.47863 7.18541
#
# Compressibility (1/GPa) = 0.01896213
#
# Stress axis : x y z
#
# Youngs Moduli (GPa) = 98.80819 72.79025 104.72533
#
# Poissons Ratio (x) = 0.23100 0.35898
# Poissons Ratio (y) = 0.31357 0.06507
# Poissons Ratio (z) = 0.33870 0.04522
#
# Static dielectric constant tensor:
#      x y z
#    x 3.798330 -0.048940 -0.103920 
#    y -0.048940 4.213480 -0.196700 
#    z -0.103920 -0.196700 4.408480 
# 
# 
# High freq. dielectric constant tensor:
#      x y z
#    x 1.832110 -0.009600 0.000410 
#    y -0.009600 1.833980 0.008230 
#    z 0.000410 0.008230 1.846650 
# 
# From -- ./inp_files/37093.got.cif
#   From: 2010.06.25/outbox.cif.g09.slc.cpg/sg2_19_cif.got.tgz:37093.got - 2010.06.27 13:26:56.
