data_PCOD8029541
_publ_section_title
;
Structure prediction by ZEFSAII (Michael W. Deem and Ramdas Pophale) SiO2 
 PCOD8029541
Probable space group: P -1
;
_chemical_formula_sum "Si O2"
_cell_formula_units_Z 16
_cell_length_a 8.854208
_cell_length_b 12.527599
_cell_length_c 17.424495
_cell_angle_alpha 40.622769
_cell_angle_beta 36.657625
_cell_angle_gamma 40.975848
_cell_volume 696.208681
_symmetry_space_group_name_H-M "P -1"
_symmetry_group_IT_number 2
_symmetry_cell_setting 'triclinic'
loop_
_space_group_symop_operation_xyz
x,y,z
-x,-y,-z
loop_
_atom_site_type_symbol
_atom_site_label
_atom_site_fract_x
_atom_site_fract_y
_atom_site_fract_z
Si Si1 0.749271 0.323692 0.666057
Si Si2 0.013671 0.804198 0.088593
Si Si3 0.599576 0.140754 0.695599
Si Si4 0.609772 0.322838 0.441988
Si Si5 0.193420 0.269261 0.195991
Si Si6 0.402616 0.750749 0.828126
Si Si7 0.531557 0.411714 0.871899
Si Si8 0.350264 0.098492 0.581961
O O1 0.705701 0.166779 0.722097
O O2 0.656565 0.497308 0.555227
O O3 0.556293 0.372477 0.793050
O O4 0.069054 0.261539 0.589270
O O5 0.170399 0.689453 0.159120
O O6 0.724437 0.791042 0.208479
O O7 0.171657 0.723709 0.989687
O O8 0.000000 0.000000 0.000000
O O9 0.676820 0.260631 0.536462
O O10 0.733424 0.937681 0.730699
O O11 0.558245 0.167448 0.502316
O O12 0.866890 0.361180 0.282418
O O13 0.321578 0.303626 0.204427
O O14 0.307359 0.343873 0.036547
O O15 0.449421 0.621475 0.806428
O O16 0.292719 0.955335 0.736775
O O17 0.500000 0.000000 0.500000
#
# Coordination Sequence:
#
# PCOD8029541 Si02
#       8
#     2   2   2   2   2   2   2   2
#     4  12  29  46  69 109 143 188 235 296 358 418
#     4  11  20  44  72 104 135 190 242 290 349 415
#     4  12  25  44  72 103 144 188 238 292 349 429
#     4  12  26  48  70 104 147 188 237 288 355 436
#     4  11  24  45  76 107 138 187 238 293 353 422
#     4  11  24  44  76 102 141 189 242 292 350 430
#     4  11  25  46  72 107 146 184 239 293 356 419
#     4  12  26  48  74 103 144 190 234 297 362 423
#
# _framework density 22.981615000000001
#
# number of rings (size 3 to 8) (size 9 to 14) (size 15 to 20)
#    0.000    0.500    3.750    5.625    5.250    2.000 
#    2.250    0.000    0.000    0.000    0.000    0.000 
#    0.000    0.000    0.000    0.000    0.000    0.000 
#
# Total GULP energy -198494.642504 kJ/mol
# GULP energy per Si atom -12405.915156 kJ/mol
# Density = 2.292931 g / cm^3
# Si number density = 22.981615 Si / 1000 Ang^3
#
#
#
# Elastic Constant Matrix: (Units=GPa)
#
#
# Indices 1 2 3 4 5 6 
#
# 1 85.9390 30.4684 34.7531 22.0341 1.0787 14.9923
# 2 30.4684 99.8996 27.0363 4.3202 3.2145 -0.9581
# 3 34.7531 27.0363 80.3636 9.4091 -6.5786 3.5843
# 4 22.0341 4.3202 9.4091 35.8917 -7.3659 3.3610
# 5 1.0787 3.2145 -6.5786 -7.3659 31.8002 10.2716
# 6 14.9923 -0.9581 3.5843 3.3610 10.2716 42.4371
#
#
#
# Elastic Compliance Matrix: (Units=1/GPa)
#
#
# Indices 1 2 3 4 5 6 
#
# 1 0.018508 -0.003705 -0.005601 -0.009397 -0.001999 -0.004921
# 2 -0.003705 0.011952 -0.002806 0.000910 -0.002186 0.002273
# 3 -0.005601 -0.002806 0.016112 0.000428 0.004055 -0.000461
# 4 -0.009397 0.000910 0.000428 0.035429 0.009070 -0.001697
# 5 -0.001999 -0.002186 0.004055 0.009070 0.037757 -0.009543
# 6 -0.004921 0.002273 -0.000461 -0.001697 -0.009543 0.027837
#
#
# Mechanical properties :
#
#
# Convention : Reuss Voigt Hill
#
# Bulk Modulus (GPa) = 44.74673 50.07975 47.41324
# Shear Modulus (GPa) = 27.89115 33.62210 30.75662
#
# Velocity S-wave (km/s) = 3.48750 3.82907 3.66227
# Velocity P-wave (km/s) = 5.97744 6.43331 6.20956
#
# Compressibility (1/GPa) = 0.02234800
#
# Stress axis : x y z
#
# Youngs Moduli (GPa) = 54.03142 83.66661 62.06624
#
# Poissons Ratio (x) = 0.31001 0.34763
# Poissons Ratio (y) = 0.20020 0.17413
# Poissons Ratio (z) = 0.30263 0.23473
#
# Static dielectric constant tensor:
#      x y z
#    x 4.101350 -0.103660 -0.113290 
#    y -0.103660 4.302630 0.007350 
#    z -0.113290 0.007350 4.089890 
# 
# 
# High freq. dielectric constant tensor:
#      x y z
#    x 1.906330 0.003960 0.001130 
#    y 0.003960 1.923010 -0.001260 
#    z 0.001130 -0.001260 1.908410 
# 
# From -- ./inp_files/559631.got.cif
#   From: 2010.06.25/outbox.cif.g09.slc.cpg/sg2_280_cif.got.tgz:559631.got - 2010.06.27 13:26:56.
