data_PCOD8029050
_publ_section_title
;
Structure prediction by ZEFSAII (Michael W. Deem and Ramdas Pophale) SiO2 
 PCOD8029050
Probable space group: P -1
;
_chemical_formula_sum "Si O2"
_cell_formula_units_Z 16
_cell_length_a 16.129833
_cell_length_b 21.101311
_cell_length_c 9.972347
_cell_angle_alpha 34.468624
_cell_angle_beta 33.697259
_cell_angle_gamma 22.501519
_cell_volume 695.355819
_symmetry_space_group_name_H-M "P -1"
_symmetry_group_IT_number 2
_symmetry_cell_setting 'triclinic'
loop_
_space_group_symop_operation_xyz
x,y,z
-x,-y,-z
loop_
_atom_site_type_symbol
_atom_site_label
_atom_site_fract_x
_atom_site_fract_y
_atom_site_fract_z
Si Si1 0.622446 0.972059 0.683775
Si Si2 0.892160 0.583498 0.641555
Si Si3 0.940525 0.164254 0.309221
Si Si4 0.694349 0.728650 0.209131
Si Si5 0.411749 0.789077 0.013048
Si Si6 0.544193 0.621363 0.411056
Si Si7 0.241528 0.105531 0.783184
Si Si8 0.905992 0.231067 0.544704
O O1 0.860862 0.899688 0.452738
O O2 0.455318 0.153698 0.666126
O O3 0.494849 0.001324 0.671662
O O4 0.697695 0.824920 0.929511
O O5 0.875150 0.727424 0.433392
O O6 0.000000 0.500000 0.500000
O O7 0.045280 0.444864 0.795448
O O8 0.644349 0.665211 0.831949
O O9 0.672419 0.334634 0.336550
O O10 0.987405 0.177730 0.373720
O O11 0.000000 0.000000 0.500000
O O12 0.092562 0.157496 0.023426
O O13 0.588321 0.677443 0.377825
O O14 0.469118 0.735932 0.183814
O O15 0.251972 0.783755 0.174817
O O16 0.269674 0.985453 0.854652
O O17 0.764764 0.423823 0.423796
#
# Coordination Sequence:
#
# PCOD8029050 Si02
#       8
#     2   2   2   2   2   2   2   2
#     4  11  22  41  70 104 130 173 230 279 331 387
#     4  12  28  45  67  95 139 184 223 270 339 413
#     4  11  19  40  69 101 135 174 221 278 337 394
#     4  11  23  43  70 101 137 175 227 283 332 400
#     4  11  24  45  67  98 135 181 222 272 338 404
#     4  11  23  38  71 108 136 165 229 291 339 380
#     4  12  24  44  71  98 135 180 225 272 334 416
#     4  11  24  37  68 107 137 166 223 295 335 388
#
# _framework density 23.009802000000001
#
# number of rings (size 3 to 8) (size 9 to 14) (size 15 to 20)
#    0.000    0.750    5.000    4.875    5.250    1.000 
#    0.000    1.250    0.000    0.000    0.000    0.000 
#    0.000    0.000    0.000    0.000    0.000    0.000 
#
# Total GULP energy -198463.388453 kJ/mol
# GULP energy per Si atom -12403.961778 kJ/mol
# Density = 2.295743 g / cm^3
# Si number density = 23.009802 Si / 1000 Ang^3
#
#
#
# Elastic Constant Matrix: (Units=GPa)
#
#
# Indices 1 2 3 4 5 6 
#
# 1 53.6045 14.8373 14.6400 -7.1976 -21.2356 -1.8104
# 2 14.8373 131.4172 48.0700 -2.3555 -11.4023 -4.6390
# 3 14.6400 48.0700 91.0509 4.5024 -16.4064 -12.2208
# 4 -7.1976 -2.3555 4.5024 54.5985 -1.1831 -7.4941
# 5 -21.2356 -11.4023 -16.4064 -1.1831 30.0283 -2.2179
# 6 -1.8104 -4.6390 -12.2208 -7.4941 -2.2179 28.5247
#
#
#
# Elastic Compliance Matrix: (Units=1/GPa)
#
#
# Indices 1 2 3 4 5 6 
#
# 1 0.027449 -0.001206 0.000088 0.004572 0.019499 0.004301
# 2 -0.001206 0.009548 -0.004927 0.000596 0.000069 -0.000473
# 3 0.000088 -0.004927 0.015759 -0.000465 0.007256 0.006398
# 4 0.004572 0.000596 -0.000465 0.019867 0.004413 0.005751
# 5 0.019499 0.000069 0.007256 0.004413 0.051962 0.009557
# 6 0.004301 -0.000473 0.006398 0.005751 0.009557 0.040248
#
#
# Mechanical properties :
#
#
# Convention : Reuss Voigt Hill
#
# Bulk Modulus (GPa) = 24.59076 47.90747 36.24911
# Shear Modulus (GPa) = 26.24965 35.86533 31.05749
#
# Velocity S-wave (km/s) = 3.38124 3.95232 3.67788
# Velocity P-wave (km/s) = 5.09451 6.45704 5.81582
#
# Compressibility (1/GPa) = 0.04066569
#
# Stress axis : x y z
#
# Youngs Moduli (GPa) = 36.43146 104.73622 63.45487
#
# Poissons Ratio (x) = 0.12626 -0.00557
# Poissons Ratio (y) = 0.04392 0.31266
# Poissons Ratio (z) = -0.00320 0.51607
#
# Static dielectric constant tensor:
#      x y z
#    x 3.991920 -0.049400 -0.239490 
#    y -0.049400 4.580940 0.093470 
#    z -0.239490 0.093470 4.303910 
# 
# 
# High freq. dielectric constant tensor:
#      x y z
#    x 1.893810 0.007640 -0.019590 
#    y 0.007640 1.930300 0.006080 
#    z -0.019590 0.006080 1.905520 
# 
# From -- ./inp_files/467419.got.cif
#   From: 2010.06.25/outbox.cif.g09.slc.cpg/sg2_234_cif.got.tgz:467419.got - 2010.06.27 13:26:56.
