data_PCOD8029616
_publ_section_title
;
Structure prediction by ZEFSAII (Michael W. Deem and Ramdas Pophale) SiO2 
 PCOD8029616
Probable space group: P -1
;
_chemical_formula_sum "Si O2"
_cell_formula_units_Z 16
_cell_length_a 13.183462
_cell_length_b 30.440744
_cell_length_c 30.027210
_cell_angle_alpha 170.647993
_cell_angle_beta 24.483522
_cell_angle_gamma 155.127552
_cell_volume 803.818253
_symmetry_space_group_name_H-M "P -1"
_symmetry_group_IT_number 2
_symmetry_cell_setting 'triclinic'
loop_
_space_group_symop_operation_xyz
x,y,z
-x,-y,-z
loop_
_atom_site_type_symbol
_atom_site_label
_atom_site_fract_x
_atom_site_fract_y
_atom_site_fract_z
Si Si1 0.523103 0.960178 0.145124
Si Si2 0.485218 0.000903 0.453963
Si Si3 0.312467 0.076409 0.055360
Si Si4 0.763004 0.489642 0.615468
Si Si5 0.002768 0.544245 0.665259
Si Si6 0.059521 0.085021 0.408389
Si Si7 0.229816 0.460549 0.152368
Si Si8 0.840693 0.386067 0.160278
O O1 0.636540 0.176793 0.353268
O O2 0.237766 0.996647 0.287362
O O3 0.668915 0.003651 0.083727
O O4 0.555918 0.661664 0.850927
O O5 0.549112 0.308380 0.718733
O O6 0.500000 0.000000 0.500000
O O7 0.206180 0.878967 0.428741
O O8 0.679146 0.828483 0.181566
O O9 0.102849 0.263779 0.334351
O O10 0.570300 0.230866 0.125596
O O11 0.226571 0.792095 0.830983
O O12 0.000000 0.500000 0.500000
O O13 0.833242 0.601795 0.748689
O O14 0.830436 0.509497 0.742194
O O15 0.183991 0.360257 0.609058
O O16 0.008079 0.833355 0.142645
O O17 0.984186 0.492609 0.254061
#
# Coordination Sequence:
#
# PCOD8029616 Si02
#       8
#     2   2   2   2   2   2   2   2
#     4  11  21  37  61  91 118 150 205 251 299 344
#     4  12  22  42  67  89 116 158 206 256 302 349
#     4  11  21  37  57  87 125 163 196 236 296 366
#     4  12  21  38  62  89 119 162 203 249 289 347
#     4  12  25  38  58  88 128 166 198 243 299 357
#     4  11  22  37  64  92 117 150 199 265 301 347
#     4  12  25  40  60  92 124 161 201 248 304 359
#     4  11  21  37  59  89 125 156 200 240 298 368
#
# _framework density 19.904997000000002
#
# number of rings (size 3 to 8) (size 9 to 14) (size 15 to 20)
#    0.000    0.500    5.000    6.000    0.000    1.000 
#    0.000    0.000    0.000    4.500    0.000    0.000 
#    0.000    0.000    0.000    0.000    0.000    0.000 
#
# Total GULP energy -198449.132634 kJ/mol
# GULP energy per Si atom -12403.070790 kJ/mol
# Density = 1.985969 g / cm^3
# Si number density = 19.904997 Si / 1000 Ang^3
#
#
#
# Elastic Constant Matrix: (Units=GPa)
#
#
# Indices 1 2 3 4 5 6 
#
# 1 99.2824 51.7593 20.8823 -7.9623 -0.5592 8.8225
# 2 51.7593 93.5952 20.7471 1.7318 6.4418 2.9292
# 3 20.8823 20.7471 92.9871 4.8543 -4.3004 5.9182
# 4 -7.9623 1.7318 4.8543 32.1709 10.1312 -6.1099
# 5 -0.5592 6.4418 -4.3004 10.1312 22.4406 1.9315
# 6 8.8225 2.9292 5.9182 -6.1099 1.9315 25.9990
#
#
#
# Elastic Compliance Matrix: (Units=1/GPa)
#
#
# Indices 1 2 3 4 5 6 
#
# 1 0.015182 -0.008098 -0.001532 0.003475 0.001112 -0.003157
# 2 -0.008098 0.015919 -0.002033 -0.000670 -0.004999 0.001631
# 3 -0.001532 -0.002033 0.012241 -0.004404 0.005177 -0.003457
# 4 0.003475 -0.000670 -0.004404 0.041055 -0.020049 0.011036
# 5 0.001112 -0.004999 0.005177 -0.020049 0.056923 -0.009933
# 6 -0.003157 0.001631 -0.003457 0.011036 -0.009933 0.043469
#
#
# Mechanical properties :
#
#
# Convention : Reuss Voigt Hill
#
# Bulk Modulus (GPa) = 49.96055 52.51580 51.23818
# Shear Modulus (GPa) = 23.27894 28.95384 26.11639
#
# Velocity S-wave (km/s) = 3.42351 3.81806 3.62616
# Velocity P-wave (km/s) = 6.38602 6.77328 6.58250
#
# Compressibility (1/GPa) = 0.02001579
#
# Stress axis : x y z
#
# Youngs Moduli (GPa) = 65.86846 62.81873 81.69203
#
# Poissons Ratio (x) = 0.50872 0.12512
# Poissons Ratio (y) = 0.53342 0.16609
# Poissons Ratio (z) = 0.10088 0.12772
#
# Static dielectric constant tensor:
#      x y z
#    x 3.533370 0.205030 -0.013660 
#    y 0.205030 3.484050 0.039920 
#    z -0.013660 0.039920 3.856650 
# 
# 
# High freq. dielectric constant tensor:
#      x y z
#    x 1.759700 0.022710 -0.003380 
#    y 0.022710 1.754900 0.007110 
#    z -0.003380 0.007110 1.799850 
# 
# From -- ./inp_files/369496.got.cif
#   From: 2010.06.25/outbox.cif.g09.slc.cpg/sg2_185_cif.got.tgz:369496.got - 2010.06.27 13:26:56.
