data_PCOD8029078
_publ_section_title
;
Structure prediction by ZEFSAII (Michael W. Deem and Ramdas Pophale) SiO2 
 PCOD8029078
Probable space group: P -1
;
_chemical_formula_sum "Si O2"
_cell_formula_units_Z 16
_cell_length_a 13.987771
_cell_length_b 8.627736
_cell_length_c 9.932016
_cell_angle_alpha 117.992162
_cell_angle_beta 71.590950
_cell_angle_gamma 63.844787
_cell_volume 714.162325
_symmetry_space_group_name_H-M "P -1"
_symmetry_group_IT_number 2
_symmetry_cell_setting 'triclinic'
loop_
_space_group_symop_operation_xyz
x,y,z
-x,-y,-z
loop_
_atom_site_type_symbol
_atom_site_label
_atom_site_fract_x
_atom_site_fract_y
_atom_site_fract_z
Si Si1 0.330367 0.959181 0.206344
Si Si2 0.027927 0.102751 0.142243
Si Si3 0.687799 0.056300 0.094392
Si Si4 0.600920 0.602452 0.097833
Si Si5 0.240850 0.378698 0.597178
Si Si6 0.666301 0.883586 0.282220
Si Si7 0.438727 0.443563 0.621922
Si Si8 0.880523 0.100605 0.702208
O O1 0.477308 0.697009 0.089051
O O2 0.198193 0.993142 0.315584
O O3 0.313116 0.166610 0.369589
O O4 0.353099 0.974395 0.044107
O O5 0.915488 0.397149 0.299216
O O6 0.025048 0.013121 0.251350
O O7 0.183762 0.974069 0.993320
O O8 0.000000 0.000000 0.000000
O O9 0.563070 0.341796 0.335076
O O10 0.735016 0.845049 0.090242
O O11 0.567017 0.836955 0.274232
O O12 0.614153 0.452852 0.157338
O O13 0.756683 0.401111 0.876399
O O14 0.228882 0.298344 0.717030
O O15 0.328302 0.454174 0.595591
O O16 0.584267 0.161602 0.470547
O O17 0.000000 0.000000 0.500000
#
# Coordination Sequence:
#
# PCOD8029078 Si02
#       8
#     2   2   2   2   2   2   2   2
#     4  11  23  43  68  98 130 177 215 270 341 383
#     4  11  22  44  65  88 131 184 213 258 337 396
#     4  11  25  39  65  97 140 165 216 280 330 378
#     4  11  20  43  72  91 133 176 217 268 334 389
#     4  11  22  40  71  90 127 180 224 259 324 402
#     4  11  23  39  67 103 127 165 230 275 314 389
#     4  11  19  44  67  94 129 177 213 275 327 386
#     4  11  26  43  66 100 136 170 219 277 329 393
#
# _framework density 22.403870999999999
#
# number of rings (size 3 to 8) (size 9 to 14) (size 15 to 20)
#    0.000    1.000    6.250    2.250    0.000    6.000 
#    2.250    0.000    0.000    0.000    0.000    0.000 
#    0.000    0.000    0.000    0.000    0.000    0.000 
#
# Total GULP energy -198249.095587 kJ/mol
# GULP energy per Si atom -12390.568474 kJ/mol
# Density = 2.235288 g / cm^3
# Si number density = 22.403871 Si / 1000 Ang^3
#
#
#
# Elastic Constant Matrix: (Units=GPa)
#
#
# Indices 1 2 3 4 5 6 
#
# 1 61.5066 56.3182 32.2432 -14.0102 11.5196 -16.8938
# 2 56.3182 154.1765 55.0998 -6.7396 6.5502 -10.7489
# 3 32.2432 55.0998 76.6627 -1.3371 10.0386 -13.1614
# 4 -14.0102 -6.7396 -1.3371 37.0890 -8.8157 -1.4133
# 5 11.5196 6.5502 10.0386 -8.8157 29.7600 -1.1111
# 6 -16.8938 -10.7489 -13.1614 -1.4133 -1.1111 41.7180
#
#
#
# Elastic Compliance Matrix: (Units=1/GPa)
#
#
# Indices 1 2 3 4 5 6 
#
# 1 0.032954 -0.008974 -0.004800 0.009597 -0.005957 0.009685
# 2 -0.008974 0.011258 -0.005029 -0.001069 0.002290 -0.002295
# 3 -0.004800 -0.005029 0.019681 -0.002971 -0.004451 0.002750
# 4 0.009597 -0.001069 -0.002971 0.032147 0.007193 0.003955
# 5 -0.005957 0.002290 -0.004451 0.007193 0.038963 -0.001945
# 6 0.009685 -0.002295 0.002750 0.003955 -0.001945 0.028251
#
#
# Mechanical properties :
#
#
# Convention : Reuss Voigt Hill
#
# Bulk Modulus (GPa) = 38.04389 64.40757 51.22573
# Shear Modulus (GPa) = 23.85260 31.62570 27.73915
#
# Velocity S-wave (km/s) = 3.26646 3.76123 3.52254
# Velocity P-wave (km/s) = 5.58965 6.90458 6.28162
#
# Compressibility (1/GPa) = 0.02628543
#
# Stress axis : x y z
#
# Youngs Moduli (GPa) = 30.34574 88.82913 50.81115
#
# Poissons Ratio (x) = 0.79718 0.24387
# Poissons Ratio (y) = 0.27233 0.25554
# Poissons Ratio (z) = 0.14565 0.44675
#
# Static dielectric constant tensor:
#      x y z
#    x 3.377000 0.608100 0.154340 
#    y 0.608100 3.557510 -0.374780 
#    z 0.154340 -0.374780 4.260880 
# 
# 
# High freq. dielectric constant tensor:
#      x y z
#    x 1.863920 0.001020 0.015730 
#    y 0.001020 1.904810 -0.002900 
#    z 0.015730 -0.002900 1.895330 
# 
# From -- ./inp_files/185810.got.cif
#   From: 2010.06.25/outbox.cif.g09.slc.cpg/sg2_93_cif.got.tgz:185810.got - 2010.06.27 13:26:56.
