data_PCOD8029202
_publ_section_title
;
Structure prediction by ZEFSAII (Michael W. Deem and Ramdas Pophale) SiO2 
 PCOD8029202
Probable space group: P -1
;
_chemical_formula_sum "Si O2"
_cell_formula_units_Z 14
_cell_length_a 11.586462
_cell_length_b 13.795150
_cell_length_c 13.706626
_cell_angle_alpha 35.744426
_cell_angle_beta 59.976595
_cell_angle_gamma 33.352129
_cell_volume 586.240885
_symmetry_space_group_name_H-M "P -1"
_symmetry_group_IT_number 2
_symmetry_cell_setting 'triclinic'
loop_
_space_group_symop_operation_xyz
x,y,z
-x,-y,-z
loop_
_atom_site_type_symbol
_atom_site_label
_atom_site_fract_x
_atom_site_fract_y
_atom_site_fract_z
Si Si1 0.941138 0.288639 0.515850
Si Si2 0.727567 0.733288 0.393457
Si Si3 0.950024 0.324346 0.997563
Si Si4 0.505348 0.793889 0.156859
Si Si5 0.550796 0.649291 0.032839
Si Si6 0.145484 0.848280 0.961892
Si Si7 0.354992 0.052052 0.438092
O O1 0.771685 0.621044 0.357827
O O2 0.742951 0.444380 0.389337
O O3 0.210009 0.049398 0.549166
O O4 0.990461 0.114553 0.727526
O O5 0.000000 0.500000 0.500000
O O6 0.563878 0.069569 0.200240
O O7 0.570559 0.768022 0.499929
O O8 0.842742 0.341647 0.125299
O O9 0.866634 0.604132 0.798990
O O10 0.836073 0.356563 0.921577
O O11 0.249682 0.995580 0.148278
O O12 0.512508 0.713043 0.110824
O O13 0.500000 0.000000 0.000000
O O14 0.419743 0.629491 0.052942
O O15 0.000000 0.000000 0.000000
O O16 0.500000 0.000000 0.500000
#
# Coordination Sequence:
#
# PCOD8029202 Si02
#       7
#     2   2   2   2   2   2   2
#     4  12  25  43  67 104 137 175 234 277 341 407
#     4  11  20  37  67 101 133 169 225 284 335 389
#     4  11  25  45  68 101 143 179 226 279 343 404
#     4  12  24  43  72 101 142 181 222 281 341 413
#     4  11  23  44  72 101 135 177 228 282 341 403
#     4  12  26  47  73  98 137 186 228 287 342 406
#     4  11  22  37  69 101 133 172 229 290 335 389
#
# _framework density 23.880969
#
# number of rings (size 3 to 8) (size 9 to 14) (size 15 to 20)
#    0.000    0.571    7.143    1.286    2.000    2.286 
#    0.000    0.714    0.000    0.000    0.000    0.000 
#    0.000    0.000    0.000    0.000    0.000    0.000 
#
# Total GULP energy -173452.745612 kJ/mol
# GULP energy per Si atom -12389.481829 kJ/mol
# Density = 2.382662 g / cm^3
# Si number density = 23.880969 Si / 1000 Ang^3
#
#
#
# Elastic Constant Matrix: (Units=GPa)
#
#
# Indices 1 2 3 4 5 6 
#
# 1 81.7912 25.2039 20.2448 -6.3396 14.1607 -8.4895
# 2 25.2039 200.0964 39.8805 -9.2596 15.5314 -28.5108
# 3 20.2448 39.8805 83.4020 8.7224 25.4812 -13.4393
# 4 -6.3396 -9.2596 8.7224 26.4297 -2.9983 0.2857
# 5 14.1607 15.5314 25.4812 -2.9983 34.1864 -6.8327
# 6 -8.4895 -28.5108 -13.4393 0.2857 -6.8327 38.9098
#
#
#
# Elastic Compliance Matrix: (Units=1/GPa)
#
#
# Indices 1 2 3 4 5 6 
#
# 1 0.013952 -0.000742 -0.002209 0.003433 -0.003267 0.001138
# 2 -0.000742 0.006225 -0.002658 0.002889 0.000420 0.003534
# 3 -0.002209 -0.002658 0.018829 -0.009093 -0.012314 0.001979
# 4 0.003433 0.002889 -0.009093 0.043575 0.008028 0.000815
# 5 -0.003267 0.000420 -0.012314 0.008028 0.040785 0.002445
# 6 0.001138 0.003534 0.001979 0.000815 0.002445 0.029645
#
#
# Mechanical properties :
#
#
# Convention : Reuss Voigt Hill
#
# Bulk Modulus (GPa) = 35.98680 59.54977 47.76829
# Shear Modulus (GPa) = 28.81972 38.56921 33.69447
#
# Velocity S-wave (km/s) = 3.47768 4.02314 3.76031
# Velocity P-wave (km/s) = 5.58817 6.82430 6.23694
#
# Compressibility (1/GPa) = 0.02778796
#
# Stress axis : x y z
#
# Youngs Moduli (GPa) = 71.67638 160.62989 53.10892
#
# Poissons Ratio (x) = 0.11926 0.11732
# Poissons Ratio (y) = 0.05322 0.14114
# Poissons Ratio (z) = 0.15834 0.42689
#
# Static dielectric constant tensor:
#      x y z
#    x 5.353900 -0.574550 1.179310 
#    y -0.574550 4.277410 -0.119020 
#    z 1.179310 -0.119020 5.226460 
# 
# 
# High freq. dielectric constant tensor:
#      x y z
#    x 1.930130 -0.002360 0.008620 
#    y -0.002360 1.976000 -0.003650 
#    z 0.008620 -0.003650 1.929200 
# 
# From -- ./inp_files/303165.got.cif
#   From: 2010.06.25/outbox.cif.g09.slc.cpg/sg2_152_cif.got.tgz:303165.got - 2010.06.27 13:26:56.
