data_PCOD8029889
_publ_section_title
;
Structure prediction by ZEFSAII (Michael W. Deem and Ramdas Pophale) SiO2 
 PCOD8029889
Probable space group: P -1
;
_chemical_formula_sum "Si O2"
_cell_formula_units_Z 16
_cell_length_a 15.320920
_cell_length_b 9.538453
_cell_length_c 11.668431
_cell_angle_alpha 114.424441
_cell_angle_beta 151.193857
_cell_angle_gamma 66.625770
_cell_volume 745.810565
_symmetry_space_group_name_H-M "P -1"
_symmetry_group_IT_number 2
_symmetry_cell_setting 'triclinic'
loop_
_space_group_symop_operation_xyz
x,y,z
-x,-y,-z
loop_
_atom_site_type_symbol
_atom_site_label
_atom_site_fract_x
_atom_site_fract_y
_atom_site_fract_z
Si Si1 0.484071 0.765125 0.090947
Si Si2 0.137700 0.857359 0.591227
Si Si3 0.872415 0.214830 0.697420
Si Si4 0.406585 0.481093 0.047871
Si Si5 0.614536 0.031113 0.476659
Si Si6 0.256681 0.147720 0.219933
Si Si7 0.222272 0.474184 0.406056
Si Si8 0.980031 0.542404 0.357474
O O1 0.394906 0.654206 0.042136
O O2 0.610412 0.883086 0.337784
O O3 0.324400 0.867657 0.877982
O O4 0.605118 0.651360 0.107331
O O5 0.185422 0.854648 0.512198
O O6 0.033117 0.713823 0.462102
O O7 0.000000 0.000000 0.500000
O O8 0.721441 0.169972 0.597634
O O9 0.880709 0.400689 0.755921
O O10 0.065971 0.137269 0.934390
O O11 0.593447 0.448704 0.320538
O O12 0.230985 0.471058 0.924019
O O13 0.412258 0.105906 0.291856
O O14 0.720508 0.977908 0.695799
O O15 0.273647 0.317621 0.346348
O O16 0.106115 0.440473 0.376616
O O17 0.000000 0.500000 0.500000
#
# Coordination Sequence:
#
# PCOD8029889 Si02
#       8
#     2   2   2   2   2   2   2   2
#     4  11  21  43  67  98 139 167 221 278 324 400
#     4  11  24  40  62 102 142 170 212 272 335 401
#     4  11  25  45  65  99 137 173 223 273 335 390
#     4  11  21  40  69  96 133 170 220 274 320 390
#     4  11  26  44  71  98 130 182 220 273 338 389
#     4  11  25  48  69  93 134 175 234 273 318 397
#     4  11  24  45  67 102 133 171 227 278 322 397
#     4  11  22  39  67  98 128 177 221 260 333 391
#
# _framework density 21.453168000000002
#
# number of rings (size 3 to 8) (size 9 to 14) (size 15 to 20)
#    0.000    1.000    5.000    2.250    1.750    5.000 
#    2.250    0.000    0.000    0.000    0.000    0.000 
#    0.000    0.000    0.000    0.000    0.000    0.000 
#
# Total GULP energy -198396.220527 kJ/mol
# GULP energy per Si atom -12399.763783 kJ/mol
# Density = 2.140434 g / cm^3
# Si number density = 21.453168 Si / 1000 Ang^3
#
#
#
# Elastic Constant Matrix: (Units=GPa)
#
#
# Indices 1 2 3 4 5 6 
#
# 1 94.8043 45.9822 42.6777 -0.6981 15.3757 15.3570
# 2 45.9822 77.5874 8.9614 -9.0206 -6.8746 -8.9162
# 3 42.6777 8.9614 109.9500 -23.1599 12.5542 11.3614
# 4 -0.6981 -9.0206 -23.1599 29.6294 2.1575 -4.1310
# 5 15.3757 -6.8746 12.5542 2.1575 30.9549 0.1895
# 6 15.3570 -8.9162 11.3614 -4.1310 0.1895 31.9495
#
#
#
# Elastic Compliance Matrix: (Units=1/GPa)
#
#
# Indices 1 2 3 4 5 6 
#
# 1 0.032346 -0.023648 -0.010045 -0.015989 -0.016005 -0.020547
# 2 -0.023648 0.031635 0.006082 0.015510 0.015102 0.019948
# 3 -0.010045 0.006082 0.015240 0.013995 -0.000834 0.002921
# 4 -0.015989 0.015510 0.013995 0.050777 0.002088 0.013590
# 5 -0.016005 0.015102 -0.000834 0.002088 0.043727 0.012215
# 6 -0.020547 0.019948 0.002921 0.013590 0.012215 0.047389
#
#
# Mechanical properties :
#
#
# Convention : Reuss Voigt Hill
#
# Bulk Modulus (GPa) = 41.66930 53.06490 47.36710
# Shear Modulus (GPa) = 17.58485 30.82144 24.20314
#
# Velocity S-wave (km/s) = 2.86612 3.79447 3.36249
# Velocity P-wave (km/s) = 5.51529 6.63222 6.09937
#
# Compressibility (1/GPa) = 0.02399848
#
# Stress axis : x y z
#
# Youngs Moduli (GPa) = 30.91550 31.61059 65.61792
#
# Poissons Ratio (x) = 0.74753 0.65914
# Poissons Ratio (y) = 0.73109 -0.39909
# Poissons Ratio (z) = 0.31055 -0.19225
#
# Static dielectric constant tensor:
#      x y z
#    x 3.985580 -0.069530 -0.066840 
#    y -0.069530 3.586930 -0.216680 
#    z -0.066840 -0.216680 3.976910 
# 
# 
# High freq. dielectric constant tensor:
#      x y z
#    x 1.836840 -0.001650 0.000670 
#    y -0.001650 1.844800 -0.014720 
#    z 0.000670 -0.014720 1.847660 
# 
# From -- ./inp_files/447945.got.cif
#   From: 2010.06.25/outbox.cif.g09.slc.cpg/sg2_224_cif.got.tgz:447945.got - 2010.06.27 13:26:56.
