data_PCOD8029798
_publ_section_title
;
Structure prediction by ZEFSAII (Michael W. Deem and Ramdas Pophale) SiO2 
 PCOD8029798
Probable space group: P -1
;
_chemical_formula_sum "Si O2"
_cell_formula_units_Z 14
_cell_length_a 12.775194
_cell_length_b 10.691669
_cell_length_c 14.545626
_cell_angle_alpha 28.771943
_cell_angle_beta 40.989039
_cell_angle_gamma 48.591269
_cell_volume 627.235474
_symmetry_space_group_name_H-M "P -1"
_symmetry_group_IT_number 2
_symmetry_cell_setting 'triclinic'
loop_
_space_group_symop_operation_xyz
x,y,z
-x,-y,-z
loop_
_atom_site_type_symbol
_atom_site_label
_atom_site_fract_x
_atom_site_fract_y
_atom_site_fract_z
Si Si1 0.683407 0.965441 0.915603
Si Si2 0.823109 0.521306 0.454342
Si Si3 0.850304 0.697144 0.631427
Si Si4 0.603527 0.738473 0.607501
Si Si5 0.685425 0.552586 0.327619
Si Si6 0.867311 0.277892 0.234162
Si Si7 0.705230 0.558287 0.011715
O O1 0.715881 0.819144 0.083130
O O2 0.747310 0.803580 0.890280
O O3 0.500000 0.000000 0.000000
O O4 0.765171 0.236821 0.698936
O O5 0.732851 0.728222 0.445569
O O6 0.784697 0.584846 0.333745
O O7 0.014667 0.515012 0.349716
O O8 0.697827 0.706918 0.660377
O O9 0.932931 0.984701 0.390901
O O10 0.790413 0.608877 0.827130
O O11 0.484135 0.490973 0.842180
O O12 0.500000 0.000000 0.500000
O O13 0.500000 0.500000 0.500000
O O14 0.750417 0.317159 0.373673
O O15 0.772977 0.300721 0.184904
O O16 0.000000 0.500000 0.000000
#
# Coordination Sequence:
#
# PCOD8029798 Si02
#       7
#     2   2   2   2   2   2   2
#     4  11  21  39  70 103 135 169 218 282 334 397
#     4  12  25  45  67 103 137 170 224 282 338 392
#     4  12  26  43  71 100 134 181 226 279 337 393
#     4  12  26  49  70  91 137 188 229 274 326 405
#     4  11  22  37  66 100 131 172 216 269 333 397
#     4  11  23  42  66 101 142 169 213 279 346 398
#     4  11  23  44  70 100 132 177 230 271 333 402
#
# _framework density 22.320167000000001
#
# number of rings (size 3 to 8) (size 9 to 14) (size 15 to 20)
#    0.000    0.571    4.286    5.143    0.000    1.714 
#    2.571    0.714    0.000    0.000    0.000    0.000 
#    0.000    0.000    0.000    0.000    0.000    0.000 
#
# Total GULP energy -173574.146858 kJ/mol
# GULP energy per Si atom -12398.153347 kJ/mol
# Density = 2.226937 g / cm^3
# Si number density = 22.320167 Si / 1000 Ang^3
#
#
#
# Elastic Constant Matrix: (Units=GPa)
#
#
# Indices 1 2 3 4 5 6 
#
# 1 116.0010 57.8120 28.8604 18.0002 14.1455 -9.9212
# 2 57.8120 135.1810 48.5289 24.1450 22.0889 -17.2766
# 3 28.8604 48.5289 82.2435 21.6759 14.5649 7.9522
# 4 18.0002 24.1450 21.6759 34.1491 2.3998 -0.7585
# 5 14.1455 22.0889 14.5649 2.3998 45.5864 5.9029
# 6 -9.9212 -17.2766 7.9522 -0.7585 5.9029 38.4386
#
#
#
# Elastic Compliance Matrix: (Units=1/GPa)
#
#
# Indices 1 2 3 4 5 6 
#
# 1 0.011410 -0.003516 -0.001121 -0.002667 -0.001569 0.001785
# 2 -0.003516 0.012989 -0.005429 -0.003446 -0.004144 0.006622
# 3 -0.001121 -0.005429 0.018649 -0.007429 -0.001752 -0.006465
# 4 -0.002667 -0.003446 -0.007429 0.037625 0.002943 -0.000410
# 5 -0.001569 -0.004144 -0.001752 0.002943 0.025584 -0.005776
# 6 0.001785 0.006622 -0.006465 -0.000410 -0.005776 0.031669
#
#
# Mechanical properties :
#
#
# Convention : Reuss Voigt Hill
#
# Bulk Modulus (GPa) = 43.63725 67.09202 55.36463
# Shear Modulus (GPa) = 30.17576 36.84975 33.51276
#
# Velocity S-wave (km/s) = 3.68088 4.06761 3.87907
# Velocity P-wave (km/s) = 6.13663 7.22390 6.70235
#
# Compressibility (1/GPa) = 0.02291620
#
# Stress axis : x y z
#
# Youngs Moduli (GPa) = 87.64462 76.98703 53.62298
#
# Poissons Ratio (x) = 0.27072 0.06010
# Poissons Ratio (y) = 0.30819 0.29109
# Poissons Ratio (z) = 0.09823 0.41793
#
# Static dielectric constant tensor:
#      x y z
#    x 4.237800 -0.031830 0.571530 
#    y -0.031830 3.493170 -1.342680 
#    z 0.571530 -1.342680 1.275020 
# 
# 
# High freq. dielectric constant tensor:
#      x y z
#    x 1.896460 -0.015580 0.006350 
#    y -0.015580 1.878200 0.011970 
#    z 0.006350 0.011970 1.878510 
# 
# From -- ./inp_files/418743.got.cif
#   From: 2010.06.25/outbox.cif.g09.slc.cpg/sg2_210_cif.got.tgz:418743.got - 2010.06.27 13:26:56.
