data_PCOD8029723
_publ_section_title
;
Structure prediction by ZEFSAII (Michael W. Deem and Ramdas Pophale) SiO2 
 PCOD8029723
Probable space group: P -1
;
_chemical_formula_sum "Si O2"
_cell_formula_units_Z 16
_cell_length_a 8.023618
_cell_length_b 12.027840
_cell_length_c 20.207766
_cell_angle_alpha 156.605955
_cell_angle_beta 105.427349
_cell_angle_gamma 75.248694
_cell_volume 746.146782
_symmetry_space_group_name_H-M "P -1"
_symmetry_group_IT_number 2
_symmetry_cell_setting 'triclinic'
loop_
_space_group_symop_operation_xyz
x,y,z
-x,-y,-z
loop_
_atom_site_type_symbol
_atom_site_label
_atom_site_fract_x
_atom_site_fract_y
_atom_site_fract_z
Si Si1 0.893919 0.433734 0.227902
Si Si2 0.029284 0.234738 0.994279
Si Si3 0.906919 0.803944 0.651000
Si Si4 0.297201 0.995858 0.476798
Si Si5 0.204178 0.758236 0.467216
Si Si6 0.344278 0.904848 0.885737
Si Si7 0.453151 0.441454 0.538353
Si Si8 0.028974 0.825889 0.260934
O O1 0.790133 0.244595 0.163064
O O2 0.067536 0.513457 0.330365
O O3 0.775852 0.702524 0.344325
O O4 0.941391 0.284119 0.082860
O O5 0.235741 0.166835 0.986267
O O6 0.009053 0.490322 0.078559
O O7 0.927978 0.964805 0.810081
O O8 0.707863 0.763815 0.589041
O O9 0.000000 0.500000 0.500000
O O10 0.998554 0.014617 0.724359
O O11 0.238226 0.762206 0.394666
O O12 0.221161 0.904164 0.348380
O O13 0.500000 0.000000 0.500000
O O14 0.381424 0.720077 0.503597
O O15 0.118474 0.055232 0.640652
O O16 0.413030 0.715523 0.728415
O O17 0.500000 0.000000 0.000000
O O18 0.500000 0.500000 0.500000
#
# Coordination Sequence:
#
# PCOD8029723 Si02
#       8
#     2   2   2   2   2   2   2   2
#     4  11  23  44  70 106 138 186 240 296 358 423
#     4  12  25  45  73 103 144 189 237 298 365 428
#     4  12  26  48  70 101 142 196 241 290 367 438
#     4  11  21  38  72 102 141 179 233 296 360 424
#     4  11  21  43  73  99 139 182 240 289 365 425
#     4  12  28  45  71 107 144 184 246 304 356 418
#     4  12  27  46  71 104 141 194 245 291 355 444
#     4  11  23  45  70 104 138 186 239 295 360 429
#
# _framework density 21.443501999999999
#
# number of rings (size 3 to 8) (size 9 to 14) (size 15 to 20)
#    0.000    0.500    3.750    6.000    5.250    0.000 
#    0.000    0.625    0.000    0.000    0.000    0.000 
#    0.000    0.000    0.000    0.000    0.000    0.000 
#
# Total GULP energy -198363.658681 kJ/mol
# GULP energy per Si atom -12397.728668 kJ/mol
# Density = 2.139470 g / cm^3
# Si number density = 21.443502 Si / 1000 Ang^3
#
#
#
# Elastic Constant Matrix: (Units=GPa)
#
#
# Indices 1 2 3 4 5 6 
#
# 1 132.6067 43.0334 54.7419 -0.4845 5.5277 -18.2640
# 2 43.0334 108.7423 49.2178 10.4619 -1.6845 -4.3196
# 3 54.7419 49.2178 146.1800 -8.9075 -4.8156 -7.3062
# 4 -0.4845 10.4619 -8.9075 36.9900 6.0028 7.2098
# 5 5.5277 -1.6845 -4.8156 6.0028 25.7519 -2.1462
# 6 -18.2640 -4.3196 -7.3062 7.2098 -2.1462 48.5740
#
#
#
# Elastic Compliance Matrix: (Units=1/GPa)
#
#
# Indices 1 2 3 4 5 6 
#
# 1 0.010087 -0.002639 -0.002822 0.000037 -0.002623 0.003012
# 2 -0.002639 0.012246 -0.003340 -0.004677 0.001864 0.000371
# 3 -0.002822 -0.003340 0.009232 0.002973 0.001392 -0.000349
# 4 0.000037 -0.004677 0.002973 0.031242 -0.007451 -0.004921
# 5 -0.002623 0.001864 0.001392 -0.007451 0.041709 0.002337
# 6 0.003012 0.000371 -0.000349 -0.004921 0.002337 0.022534
#
#
# Mechanical properties :
#
#
# Convention : Reuss Voigt Hill
#
# Bulk Modulus (GPa) = 71.62289 75.72389 73.67339
# Shear Modulus (GPa) = 33.48838 38.29891 35.89365
#
# Velocity S-wave (km/s) = 3.95613 4.23074 4.09574
# Velocity P-wave (km/s) = 7.37165 7.69775 7.53646
#
# Compressibility (1/GPa) = 0.01396202
#
# Stress axis : x y z
#
# Youngs Moduli (GPa) = 99.13782 81.66206 108.32020
#
# Poissons Ratio (x) = 0.21550 0.30573
# Poissons Ratio (y) = 0.26161 0.36177
# Poissons Ratio (z) = 0.27982 0.27274
#
# Static dielectric constant tensor:
#      x y z
#    x 4.079740 -0.002910 -0.084050 
#    y -0.002910 4.032750 -0.004560 
#    z -0.084050 -0.004560 3.975650 
# 
# 
# High freq. dielectric constant tensor:
#      x y z
#    x 1.845370 -0.003280 -0.005010 
#    y -0.003280 1.855290 0.000710 
#    z -0.005010 0.000710 1.843580 
# 
# From -- ./inp_files/589790.got.cif
#   From: 2010.06.25/outbox.cif.g09.slc.cpg/sg2_295_cif.got.tgz:589790.got - 2010.06.27 13:26:56.
