data_PCOD8029373
_publ_section_title
;
Structure prediction by ZEFSAII (Michael W. Deem and Ramdas Pophale) SiO2 
 PCOD8029373
Probable space group: P -1
;
_chemical_formula_sum "Si O2"
_cell_formula_units_Z 16
_cell_length_a 10.925749
_cell_length_b 12.157459
_cell_length_c 13.701673
_cell_angle_alpha 61.300220
_cell_angle_beta 32.289524
_cell_angle_gamma 81.435022
_cell_volume 713.041617
_symmetry_space_group_name_H-M "P -1"
_symmetry_group_IT_number 2
_symmetry_cell_setting 'triclinic'
loop_
_space_group_symop_operation_xyz
x,y,z
-x,-y,-z
loop_
_atom_site_type_symbol
_atom_site_label
_atom_site_fract_x
_atom_site_fract_y
_atom_site_fract_z
Si Si1 0.184353 0.040074 0.626489
Si Si2 0.264594 0.799064 0.742644
Si Si3 0.470041 0.839207 0.371156
Si Si4 0.237658 0.124645 0.183357
Si Si5 0.084550 0.820594 0.483501
Si Si6 0.122977 0.840104 0.105396
Si Si7 0.753208 0.667244 0.253514
Si Si8 0.830470 0.323103 0.683020
O O1 0.504031 0.182177 0.343553
O O2 0.992331 0.089124 0.775609
O O3 0.226428 0.938792 0.717581
O O4 0.040461 0.947293 0.664006
O O5 0.338173 0.777140 0.592936
O O6 0.964050 0.663383 0.037162
O O7 0.231340 0.772095 0.480720
O O8 0.663269 0.780961 0.235567
O O9 0.635099 0.021441 0.179481
O O10 0.189676 0.202457 0.274704
O O11 0.281906 0.994824 0.244222
O O12 0.516745 0.251432 0.886241
O O13 0.005742 0.718093 0.484051
O O14 0.890132 0.716092 0.246059
O O15 0.214879 0.751399 0.148160
O O16 0.500000 0.500000 0.500000
O O17 0.000000 0.500000 0.500000
#
# Coordination Sequence:
#
# PCOD8029373 Si02
#       8
#     2   2   2   2   2   2   2   2
#     4  11  20  40  72 102 132 174 234 301 328 395
#     4  11  24  41  71 106 134 174 231 285 346 399
#     4  12  23  45  73 103 134 179 239 291 331 407
#     4  11  23  43  71 103 132 177 240 291 339 400
#     4  11  24  41  73 102 131 180 241 291 334 403
#     4  12  23  46  71 101 136 185 238 283 342 407
#     4  12  29  45  68 103 146 183 219 282 356 420
#     4  12  28  46  68 102 149 187 224 284 356 421
#
# _framework density 22.439084999999999
#
# number of rings (size 3 to 8) (size 9 to 14) (size 15 to 20)
#    0.000    0.500    6.250    3.000    1.750    1.000 
#    0.000    0.000    0.000    0.000    0.000    0.000 
#    0.000    0.000    0.000    0.000    0.000    0.000 
#
# Total GULP energy -198336.360052 kJ/mol
# GULP energy per Si atom -12396.022503 kJ/mol
# Density = 2.238801 g / cm^3
# Si number density = 22.439085 Si / 1000 Ang^3
#
#
#
# Elastic Constant Matrix: (Units=GPa)
#
#
# Indices 1 2 3 4 5 6 
#
# 1 112.7720 30.6530 33.9414 -5.1004 -4.3713 -0.7966
# 2 30.6530 96.8770 45.7350 5.0211 7.0031 12.8683
# 3 33.9414 45.7350 132.6593 -1.0284 -0.3977 5.2098
# 4 -5.1004 5.0211 -1.0284 34.7987 1.7287 -0.6805
# 5 -4.3713 7.0031 -0.3977 1.7287 23.5114 6.1257
# 6 -0.7966 12.8683 5.2098 -0.6805 6.1257 31.1661
#
#
#
# Elastic Compliance Matrix: (Units=1/GPa)
#
#
# Indices 1 2 3 4 5 6 
#
# 1 0.010344 -0.002920 -0.001672 0.001801 0.002283 0.001340
# 2 -0.002920 0.014109 -0.003965 -0.002501 -0.003425 -0.004619
# 3 -0.001672 -0.003965 0.009346 0.000549 0.001029 -0.000158
# 4 0.001801 -0.002501 0.000549 0.029495 -0.001586 0.001943
# 5 0.002283 -0.003425 0.001029 -0.001586 0.046144 -0.007804
# 6 0.001340 -0.004619 -0.000158 0.001943 -0.007804 0.035630
#
#
# Mechanical properties :
#
#
# Convention : Reuss Voigt Hill
#
# Bulk Modulus (GPa) = 59.93350 62.55189 61.24270
# Shear Modulus (GPa) = 29.80733 33.36051 31.58392
#
# Velocity S-wave (km/s) = 3.64863 3.85998 3.75579
# Velocity P-wave (km/s) = 6.67214 6.91395 6.79412
#
# Compressibility (1/GPa) = 0.01668516
#
# Stress axis : x y z
#
# Youngs Moduli (GPa) = 96.67743 70.87641 106.99292
#
# Poissons Ratio (x) = 0.20697 0.17885
# Poissons Ratio (y) = 0.28231 0.42426
# Poissons Ratio (z) = 0.16160 0.28105
#
# Static dielectric constant tensor:
#      x y z
#    x 4.108210 -0.065270 -0.108230 
#    y -0.065270 3.853980 0.300900 
#    z -0.108230 0.300900 4.026720 
# 
# 
# High freq. dielectric constant tensor:
#      x y z
#    x 1.890170 0.002590 -0.009560 
#    y 0.002590 1.869880 0.031520 
#    z -0.009560 0.031520 1.871980 
# 
# From -- ./inp_files/519569.got.cif
#   From: 2010.06.25/outbox.cif.g09.slc.cpg/sg2_260_cif.got.tgz:519569.got - 2010.06.27 13:26:56.
