data_PCOD8029233
_publ_section_title
;
Structure prediction by ZEFSAII (Michael W. Deem and Ramdas Pophale) SiO2 
 PCOD8029233
Probable space group: P -1
;
_chemical_formula_sum "Si O2"
_cell_formula_units_Z 16
_cell_length_a 16.187303
_cell_length_b 13.248415
_cell_length_c 11.082828
_cell_angle_alpha 106.683910
_cell_angle_beta 64.056339
_cell_angle_gamma 156.016893
_cell_volume 826.455832
_symmetry_space_group_name_H-M "P -1"
_symmetry_group_IT_number 2
_symmetry_cell_setting 'triclinic'
loop_
_space_group_symop_operation_xyz
x,y,z
-x,-y,-z
loop_
_atom_site_type_symbol
_atom_site_label
_atom_site_fract_x
_atom_site_fract_y
_atom_site_fract_z
Si Si1 0.372886 0.742306 0.773886
Si Si2 0.108694 0.817904 0.007727
Si Si3 0.712351 0.352270 0.461332
Si Si4 0.237397 0.250280 0.591097
Si Si5 0.117263 0.208249 0.913558
Si Si6 0.023256 0.863013 0.435961
Si Si7 0.422379 0.196161 0.147432
Si Si8 0.339287 0.904893 0.723511
O O1 0.400426 0.717993 0.614356
O O2 0.532081 0.852029 0.805502
O O3 0.430714 0.928018 0.785538
O O4 0.107709 0.455605 0.879298
O O5 0.065632 0.891355 0.018302
O O6 0.159484 0.800617 0.851623
O O7 0.328226 0.047023 0.033468
O O8 0.543763 0.182157 0.624122
O O9 0.934348 0.653322 0.456172
O O10 0.776557 0.296718 0.370562
O O11 0.500000 0.500000 0.500000
O O12 0.177615 0.282852 0.550329
O O13 0.095508 0.997497 0.558263
O O14 0.173802 0.214187 0.753566
O O15 0.000000 0.000000 0.000000
O O16 0.349352 0.498669 0.922068
O O17 0.236870 0.079805 0.283251
#
# Coordination Sequence:
#
# PCOD8029233 Si02
#       8
#     2   2   2   2   2   2   2   2
#     4   9  19  36  63  86 117 159 198 240 291 358
#     4  11  21  39  63  85 120 163 203 241 302 364
#     4   9  19  39  61  87 127 151 201 247 303 350
#     4  11  23  39  65  89 115 156 212 249 300 359
#     4  11  25  42  56  90 124 155 199 258 311 353
#     4  11  21  38  65  91 113 162 206 247 299 359
#     4  11  20  38  64  85 120 158 199 252 293 363
#     4   9  20  37  62  90 125 165 189 251 308 347
#
# _framework density 19.359774999999999
#
# number of rings (size 3 to 8) (size 9 to 14) (size 15 to 20)
#    0.750    1.000    3.750    1.125    0.000    3.000 
#    0.000    1.875    0.000    0.000    0.000    0.000 
#    0.000    0.000    0.000    0.000    0.000    0.000 
#
# Total GULP energy -198307.248991 kJ/mol
# GULP energy per Si atom -12394.203062 kJ/mol
# Density = 1.931571 g / cm^3
# Si number density = 19.359775 Si / 1000 Ang^3
#
#
#
# Elastic Constant Matrix: (Units=GPa)
#
#
# Indices 1 2 3 4 5 6 
#
# 1 97.1802 50.4220 72.4809 -14.8888 -1.5924 -0.5332
# 2 50.4220 111.4684 51.9909 -2.8785 2.9602 -1.1205
# 3 72.4809 51.9909 98.6025 -2.9759 -6.7684 -9.3278
# 4 -14.8888 -2.8785 -2.9759 28.7801 -8.9748 -0.8237
# 5 -1.5924 2.9602 -6.7684 -8.9748 29.3597 -3.9719
# 6 -0.5332 -1.1205 -9.3278 -0.8237 -3.9719 31.0088
#
#
#
# Elastic Compliance Matrix: (Units=1/GPa)
#
#
# Indices 1 2 3 4 5 6 
#
# 1 0.028003 -0.003708 -0.018672 0.012258 0.000678 -0.004857
# 2 -0.003708 0.012727 -0.004416 -0.002192 -0.003365 -0.001422
# 3 -0.018672 -0.004416 0.027160 -0.005457 0.005135 0.008202
# 4 0.012258 -0.002192 -0.005457 0.044532 0.013429 0.001393
# 5 0.000678 -0.003365 0.005135 0.013429 0.040672 0.007001
# 6 -0.004857 -0.001422 0.008202 0.001393 0.007001 0.035515
#
#
# Mechanical properties :
#
#
# Convention : Reuss Voigt Hill
#
# Bulk Modulus (GPa) = 69.94960 73.00431 71.47696
# Shear Modulus (GPa) = 20.24550 26.65353 23.44952
#
# Velocity S-wave (km/s) = 3.23732 3.71448 3.48408
# Velocity P-wave (km/s) = 7.08403 7.49584 7.29284
#
# Compressibility (1/GPa) = 0.01429601
#
# Stress axis : x y z
#
# Youngs Moduli (GPa) = 35.71019 78.57383 36.81907
#
# Poissons Ratio (x) = 0.29137 0.68750
# Poissons Ratio (y) = 0.13242 0.16261
# Poissons Ratio (z) = 0.66679 0.34701
#
# Static dielectric constant tensor:
#      x y z
#    x 3.470430 -0.129950 -0.146940 
#    y -0.129950 3.543330 0.073660 
#    z -0.146940 0.073660 3.199270 
# 
# 
# High freq. dielectric constant tensor:
#      x y z
#    x 1.742870 -0.013840 -0.005270 
#    y -0.013840 1.747630 0.003110 
#    z -0.005270 0.003110 1.751780 
# 
# From -- ./inp_files/466088.got.cif
#   From: 2010.06.25/outbox.cif.g09.slc.cpg/sg2_234_cif.got.tgz:466088.got - 2010.06.27 13:26:56.
