data_PCOD8029863
_publ_section_title
;
Structure prediction by ZEFSAII (Michael W. Deem and Ramdas Pophale) SiO2 
 PCOD8029863
Probable space group: P -1
;
_chemical_formula_sum "Si O2"
_cell_formula_units_Z 16
_cell_length_a 15.642894
_cell_length_b 11.575826
_cell_length_c 8.867476
_cell_angle_alpha 125.765000
_cell_angle_beta 51.983530
_cell_angle_gamma 141.234877
_cell_volume 774.189598
_symmetry_space_group_name_H-M "P -1"
_symmetry_group_IT_number 2
_symmetry_cell_setting 'triclinic'
loop_
_space_group_symop_operation_xyz
x,y,z
-x,-y,-z
loop_
_atom_site_type_symbol
_atom_site_label
_atom_site_fract_x
_atom_site_fract_y
_atom_site_fract_z
Si Si1 0.565885 0.682480 0.169084
Si Si2 0.701067 0.927336 0.931634
Si Si3 0.359990 0.409154 0.686651
Si Si4 0.157016 0.200848 0.483796
Si Si5 0.618826 0.223472 0.571148
Si Si6 0.606741 0.258779 0.955021
Si Si7 0.124656 0.491843 0.680596
Si Si8 0.176513 0.710209 0.070171
O O1 0.644021 0.697242 0.245328
O O2 0.439717 0.678312 0.357853
O O3 0.500000 0.500000 0.000000
O O4 0.674365 0.874208 0.097189
O O5 0.732090 0.801133 0.730183
O O6 0.823729 0.148307 0.928737
O O7 0.565064 0.886709 0.969691
O O8 0.500000 0.500000 0.500000
O O9 0.215347 0.256600 0.633503
O O10 0.344204 0.552743 0.879002
O O11 0.153977 0.350032 0.518522
O O12 0.000000 0.000000 0.500000
O O13 0.660273 0.282633 0.744712
O O14 0.767495 0.320623 0.395774
O O15 0.500000 0.000000 0.500000
O O16 0.676273 0.188155 0.919004
O O17 0.958358 0.387082 0.742694
O O18 0.151149 0.551619 0.872282
#
# Coordination Sequence:
#
# PCOD8029863 Si02
#       8
#     2   2   2   2   2   2   2   2
#     4  11  21  40  67  99 133 171 221 284 341 388
#     4  11  22  41  66  98 134 167 223 289 333 396
#     4  12  22  41  69 102 127 178 230 280 336 406
#     4  12  24  42  67  99 136 174 233 278 342 400
#     4  11  24  42  66 102 135 173 222 282 344 397
#     4  11  23  40  68  99 130 175 230 280 333 401
#     4  11  23  42  66  89 136 184 215 269 344 409
#     4  11  24  41  65  95 132 181 221 270 340 402
#
# _framework density 20.666772000000002
#
# number of rings (size 3 to 8) (size 9 to 14) (size 15 to 20)
#    0.000    0.750    6.250    3.375    0.000    1.500 
#    0.000    0.625    5.500    0.000    0.000    0.000 
#    0.000    0.000    0.000    0.000    0.000    0.000 
#
# Total GULP energy -198316.536498 kJ/mol
# GULP energy per Si atom -12394.783531 kJ/mol
# Density = 2.061973 g / cm^3
# Si number density = 20.666772 Si / 1000 Ang^3
#
#
#
# Elastic Constant Matrix: (Units=GPa)
#
#
# Indices 1 2 3 4 5 6 
#
# 1 107.0670 39.7232 44.4217 -3.3893 5.5192 -3.8309
# 2 39.7232 124.0147 47.2125 -13.9463 0.5821 -3.9049
# 3 44.4217 47.2125 114.5941 -9.7743 -6.5287 0.6597
# 4 -3.3893 -13.9463 -9.7743 35.3089 2.6150 -2.7949
# 5 5.5192 0.5821 -6.5287 2.6150 31.7745 7.0517
# 6 -3.8309 -3.9049 0.6597 -2.7949 7.0517 30.3815
#
#
#
# Elastic Compliance Matrix: (Units=1/GPa)
#
#
# Indices 1 2 3 4 5 6 
#
# 1 0.012074 -0.002333 -0.003957 -0.000454 -0.003280 0.002028
# 2 -0.002333 0.010448 -0.003196 0.003230 -0.001078 0.001666
# 3 -0.003957 -0.003196 0.011893 0.001243 0.003501 -0.001866
# 4 -0.000454 0.003230 0.001243 0.030430 -0.003083 0.003846
# 5 -0.003280 -0.001078 0.003501 -0.003083 0.035042 -0.009045
# 6 0.002028 0.001666 -0.001866 0.003846 -0.009045 0.035878
#
#
# Mechanical properties :
#
#
# Convention : Reuss Voigt Hill
#
# Bulk Modulus (GPa) = 64.74681 67.59894 66.17288
# Shear Modulus (GPa) = 31.27233 33.78087 32.52660
#
# Velocity S-wave (km/s) = 3.89417 4.04734 3.97149
# Velocity P-wave (km/s) = 7.18445 7.39062 7.28827
#
# Compressibility (1/GPa) = 0.01544478
#
# Stress axis : x y z
#
# Youngs Moduli (GPa) = 82.81956 95.70995 84.08211
#
# Poissons Ratio (x) = 0.22330 0.33268
# Poissons Ratio (y) = 0.19323 0.26871
# Poissons Ratio (z) = 0.32769 0.30587
#
# Static dielectric constant tensor:
#      x y z
#    x 3.762590 0.037490 -0.170270 
#    y 0.037490 3.670700 -0.021970 
#    z -0.170270 -0.021970 3.995530 
# 
# 
# High freq. dielectric constant tensor:
#      x y z
#    x 1.799550 -0.006420 -0.015230 
#    y -0.006420 1.803780 0.003150 
#    z -0.015230 0.003150 1.820910 
# 
# From -- ./inp_files/239738.got.cif
#   From: 2010.06.25/outbox.cif.g09.slc.cpg/sg2_120_cif.got.tgz:239738.got - 2010.06.27 13:26:56.
