data_PCOD8029019
_publ_section_title
;
Structure prediction by ZEFSAII (Michael W. Deem and Ramdas Pophale) SiO2 
 PCOD8029019
Probable space group: P -1
;
_chemical_formula_sum "Si O2"
_cell_formula_units_Z 16
_cell_length_a 11.951324
_cell_length_b 14.110144
_cell_length_c 19.069945
_cell_angle_alpha 32.856907
_cell_angle_beta 31.178273
_cell_angle_gamma 56.176442
_cell_volume 737.746947
_symmetry_space_group_name_H-M "P -1"
_symmetry_group_IT_number 2
_symmetry_cell_setting 'triclinic'
loop_
_space_group_symop_operation_xyz
x,y,z
-x,-y,-z
loop_
_atom_site_type_symbol
_atom_site_label
_atom_site_fract_x
_atom_site_fract_y
_atom_site_fract_z
Si Si1 0.448933 0.012909 0.673088
Si Si2 0.548051 0.460673 0.325345
Si Si3 0.773719 0.069636 0.726919
Si Si4 0.253493 0.645819 0.321687
Si Si5 0.752173 0.905311 0.482225
Si Si6 0.149670 0.888382 0.495640
Si Si7 0.034227 0.770205 0.945849
Si Si8 0.247562 0.517340 0.945966
O O1 0.452294 0.223582 0.543885
O O2 0.559493 0.971945 0.709716
O O3 0.627182 0.023820 0.507106
O O4 0.144312 0.815773 0.939051
O O5 0.308350 0.483480 0.428694
O O6 0.731126 0.551352 0.100733
O O7 0.717060 0.611869 0.207446
O O8 0.807056 0.242439 0.655461
O O9 0.792117 0.157977 0.584178
O O10 0.017763 0.051142 0.616801
O O11 0.503399 0.833062 0.026774
O O12 0.000000 0.500000 0.500000
O O13 0.535761 0.650068 0.746681
O O14 0.866469 0.001700 0.283835
O O15 0.000000 0.000000 0.500000
O O16 0.964587 0.678109 0.770895
O O17 0.149358 0.669001 0.899048
#
# Coordination Sequence:
#
# PCOD8029019 Si02
#       8
#     2   2   2   2   2   2   2   2
#     4  11  22  37  61  99 134 164 207 258 320 385
#     4  12  20  38  68  94 127 165 221 264 313 371
#     4  11  25  45  64  91 134 167 216 264 320 383
#     4  11  26  46  70  91 117 171 227 275 314 368
#     4  11  19  39  63 100 132 164 207 268 316 380
#     4  12  24  41  61  95 142 176 202 256 327 396
#     4  11  20  35  62 100 130 161 210 265 320 371
#     4  11  21  34  63 100 135 167 203 252 327 391
#
# _framework density 21.687653000000001
#
# number of rings (size 3 to 8) (size 9 to 14) (size 15 to 20)
#    0.000    0.750    6.250    3.375    0.000    0.500 
#    4.500    0.625    0.000    1.500    0.000    0.000 
#    0.000    0.000    0.000    0.000    0.000    0.000 
#
# Total GULP energy -198306.661796 kJ/mol
# GULP energy per Si atom -12394.166362 kJ/mol
# Density = 2.163829 g / cm^3
# Si number density = 21.687653 Si / 1000 Ang^3
#
#
#
# Elastic Constant Matrix: (Units=GPa)
#
#
# Indices 1 2 3 4 5 6 
#
# 1 154.4046 36.9807 50.2066 -10.2676 -40.1034 -10.6506
# 2 36.9807 75.6717 23.6960 -15.6710 -14.9107 -17.1248
# 3 50.2066 23.6960 67.7965 -7.2056 -34.2806 2.3782
# 4 -10.2676 -15.6710 -7.2056 19.1825 -0.3152 -3.7054
# 5 -40.1034 -14.9107 -34.2806 -0.3152 49.3511 5.0862
# 6 -10.6506 -17.1248 2.3782 -3.7054 5.0862 33.1761
#
#
#
# Elastic Compliance Matrix: (Units=1/GPa)
#
#
# Indices 1 2 3 4 5 6 
#
# 1 0.009666 -0.001398 -0.004310 0.002940 0.004213 0.002373
# 2 -0.001398 0.022438 -0.004787 0.018383 0.001057 0.013367
# 3 -0.004310 -0.004787 0.027943 0.003010 0.015291 -0.007866
# 4 0.002940 0.018383 0.003010 0.073293 0.008744 0.017063
# 5 0.004213 0.001057 0.015291 0.008744 0.035053 -0.003595
# 6 0.002373 0.013367 -0.007866 0.017063 -0.003595 0.040825
#
#
# Mechanical properties :
#
#
# Convention : Reuss Voigt Hill
#
# Bulk Modulus (GPa) = 25.60489 57.73771 41.67130
# Shear Modulus (GPa) = 20.55683 32.80790 26.68237
#
# Velocity S-wave (km/s) = 3.08207 3.89362 3.51137
# Velocity P-wave (km/s) = 4.94948 6.84791 5.97458
#
# Compressibility (1/GPa) = 0.03905504
#
# Stress axis : x y z
#
# Youngs Moduli (GPa) = 103.45246 44.56746 35.78762
#
# Poissons Ratio (x) = 0.06231 0.15426
# Poissons Ratio (y) = 0.14464 0.17133
# Poissons Ratio (z) = 0.44591 0.21336
#
# Static dielectric constant tensor:
#      x y z
#    x 4.663880 -0.419770 0.093010 
#    y -0.419770 4.050810 -0.543500 
#    z 0.093010 -0.543500 4.498500 
# 
# 
# High freq. dielectric constant tensor:
#      x y z
#    x 1.860560 -0.012820 -0.034850 
#    y -0.012820 1.839960 -0.021440 
#    z -0.034850 -0.021440 1.828720 
# 
# From -- ./inp_files/524117.got.cif
#   From: 2010.06.25/outbox.cif.g09.slc.cpg/sg2_263_cif.got.tgz:524117.got - 2010.06.27 13:26:56.
