data_PCOD8029424
_publ_section_title
;
Structure prediction by ZEFSAII (Michael W. Deem and Ramdas Pophale) SiO2 
 PCOD8029424
Probable space group: P -1
;
_chemical_formula_sum "Si O2"
_cell_formula_units_Z 16
_cell_length_a 10.164330
_cell_length_b 14.531861
_cell_length_c 11.280156
_cell_angle_alpha 31.408469
_cell_angle_beta 120.967032
_cell_angle_gamma 114.740924
_cell_volume 743.734826
_symmetry_space_group_name_H-M "P -1"
_symmetry_group_IT_number 2
_symmetry_cell_setting 'triclinic'
loop_
_space_group_symop_operation_xyz
x,y,z
-x,-y,-z
loop_
_atom_site_type_symbol
_atom_site_label
_atom_site_fract_x
_atom_site_fract_y
_atom_site_fract_z
Si Si1 0.979759 0.029358 0.219799
Si Si2 0.169037 0.335132 0.070732
Si Si3 0.486302 0.092952 0.123118
Si Si4 0.762426 0.156244 0.779247
Si Si5 0.486084 0.208291 0.244611
Si Si6 0.803116 0.288245 0.404811
Si Si7 0.261467 0.175850 0.521767
Si Si8 0.503324 0.307252 0.661104
O O1 0.117406 0.883983 0.429177
O O2 0.857397 0.955916 0.334239
O O3 0.040688 0.207751 0.105867
O O4 0.906776 0.076040 0.007233
O O5 0.329683 0.296722 0.122146
O O6 0.181304 0.315398 0.240460
O O7 0.114597 0.537176 0.793873
O O8 0.490719 0.236998 0.071890
O O9 0.320640 0.007618 0.138983
O O10 0.615710 0.937648 0.376239
O O11 0.521716 0.169609 0.927231
O O12 0.819397 0.279835 0.564063
O O13 0.648180 0.274458 0.678946
O O14 0.625112 0.303133 0.267210
O O15 0.500000 0.000000 0.500000
O O16 0.343745 0.280856 0.548634
O O17 0.500000 0.500000 0.500000
#
# Coordination Sequence:
#
# PCOD8029424 Si02
#       8
#     2   2   2   2   2   2   2   2
#     4  12  24  46  66  94 134 180 216 262 328 388
#     4  12  27  43  67 100 130 172 220 270 327 386
#     4  11  20  41  71  94 126 174 214 265 332 380
#     4  11  22  45  67  93 133 171 218 267 323 392
#     4  12  21  42  69  96 127 166 216 268 328 387
#     4  12  27  43  67 100 130 172 220 270 327 386
#     4  11  22  45  67  93 133 171 218 267 323 392
#     4  11  24  39  67 106 125 167 221 275 326 377
#
# _framework density 21.513045000000002
#
# number of rings (size 3 to 8) (size 9 to 14) (size 15 to 20)
#    0.000    0.500    6.250    2.625    3.500    2.000 
#    0.000    0.000    0.000    0.000    0.000    0.000 
#    0.000    0.000    0.000    0.000    0.000    0.000 
#
# Total GULP energy -198497.053984 kJ/mol
# GULP energy per Si atom -12406.065874 kJ/mol
# Density = 2.146408 g / cm^3
# Si number density = 21.513045 Si / 1000 Ang^3
#
#
#
# Elastic Constant Matrix: (Units=GPa)
#
#
# Indices 1 2 3 4 5 6 
#
# 1 56.3466 43.0127 21.6542 9.1811 -12.0162 13.7134
# 2 43.0127 102.6218 44.5318 4.3708 -13.8062 2.8754
# 3 21.6542 44.5318 108.7687 8.9686 -29.4538 5.0929
# 4 9.1811 4.3708 8.9686 42.2367 -3.2584 -6.8960
# 5 -12.0162 -13.8062 -29.4538 -3.2584 37.6721 4.8688
# 6 13.7134 2.8754 5.0929 -6.8960 4.8688 34.3406
#
#
#
# Elastic Compliance Matrix: (Units=1/GPa)
#
#
# Indices 1 2 3 4 5 6 
#
# 1 0.034282 -0.013456 0.002693 -0.008517 0.009441 -0.016012
# 2 -0.013456 0.017154 -0.005659 0.003075 -0.002914 0.005807
# 3 0.002693 -0.005659 0.014225 -0.003007 0.010263 -0.004770
# 4 -0.008517 0.003075 -0.003007 0.027173 -0.002812 0.009445
# 5 0.009441 -0.002914 0.010263 -0.002812 0.037685 -0.010956
# 6 -0.016012 0.005807 -0.004770 0.009445 -0.010956 0.039185
#
#
# Mechanical properties :
#
#
# Convention : Reuss Voigt Hill
#
# Bulk Modulus (GPa) = 30.47163 54.01493 42.24328
# Shear Modulus (GPa) = 23.42041 33.41910 28.41976
#
# Velocity S-wave (km/s) = 3.30307 3.94564 3.63856
# Velocity P-wave (km/s) = 5.36116 6.77642 6.10991
#
# Compressibility (1/GPa) = 0.03281741
#
# Stress axis : x y z
#
# Youngs Moduli (GPa) = 29.16962 58.29430 70.29796
#
# Poissons Ratio (x) = 0.78440 -0.18929
# Poissons Ratio (y) = 0.39250 0.39782
# Poissons Ratio (z) = -0.07854 0.32989
#
# Static dielectric constant tensor:
#      x y z
#    x 3.954790 0.010210 -0.313660 
#    y 0.010210 4.069590 0.174170 
#    z -0.313660 0.174170 4.298510 
# 
# 
# High freq. dielectric constant tensor:
#      x y z
#    x 1.845850 -0.004350 -0.010960 
#    y -0.004350 1.847760 0.014010 
#    z -0.010960 0.014010 1.845970 
# 
# From -- ./inp_files/432362.got.cif
#   From: 2010.06.25/outbox.cif.g09.slc.cpg/sg2_217_cif.got.tgz:432362.got - 2010.06.27 13:26:56.
