data_PCOD8029479
_publ_section_title
;
Structure prediction by ZEFSAII (Michael W. Deem and Ramdas Pophale) SiO2 
 PCOD8029479
Probable space group: P -1
;
_chemical_formula_sum "Si O2"
_cell_formula_units_Z 16
_cell_length_a 15.633344
_cell_length_b 14.084224
_cell_length_c 10.589610
_cell_angle_alpha 41.775251
_cell_angle_beta 49.287719
_cell_angle_gamma 27.439978
_cell_volume 715.474657
_symmetry_space_group_name_H-M "P -1"
_symmetry_group_IT_number 2
_symmetry_cell_setting 'triclinic'
loop_
_space_group_symop_operation_xyz
x,y,z
-x,-y,-z
loop_
_atom_site_type_symbol
_atom_site_label
_atom_site_fract_x
_atom_site_fract_y
_atom_site_fract_z
Si Si1 0.188369 0.321879 0.171539
Si Si2 0.970306 0.004037 0.878119
Si Si3 0.276241 0.488832 0.757269
Si Si4 0.543108 0.928320 0.385953
Si Si5 0.166198 0.151697 0.934749
Si Si6 0.325374 0.682697 0.689778
Si Si7 0.337459 0.480578 0.423518
Si Si8 0.864893 0.898796 0.711701
O O1 0.099906 0.271119 0.244406
O O2 0.025965 0.566798 0.159374
O O3 0.347181 0.115757 0.318567
O O4 0.277352 0.327642 0.968804
O O5 0.859066 0.247685 0.682186
O O6 0.169911 0.797462 0.825999
O O7 0.862971 0.963893 0.000776
O O8 0.000000 0.000000 0.000000
O O9 0.389134 0.477800 0.755226
O O10 0.362433 0.402522 0.620949
O O11 0.066213 0.762505 0.685116
O O12 0.671506 0.924353 0.212998
O O13 0.645983 0.673182 0.529298
O O14 0.500000 0.000000 0.500000
O O15 0.232086 0.051532 0.113433
O O16 0.499778 0.568960 0.712557
O O17 0.263217 0.858017 0.471319
#
# Coordination Sequence:
#
# PCOD8029479 Si02
#       8
#     2   2   2   2   2   2   2   2
#     4  11  24  44  72 104 139 185 231 292 354 412
#     4  12  29  48  73 101 145 194 236 282 344 426
#     4  11  22  42  73 106 143 177 234 296 358 414
#     4  12  30  48  69 102 146 190 238 282 342 430
#     4  11  26  46  73 103 137 187 234 296 349 412
#     4  12  24  44  72 107 143 184 228 293 357 412
#     4  12  27  45  72 108 139 185 236 295 352 413
#     4  11  20  42  73 103 143 176 233 292 359 409
#
# _framework density 22.362777999999999
#
# number of rings (size 3 to 8) (size 9 to 14) (size 15 to 20)
#    0.000    0.500    5.000    4.500    7.000    2.000 
#    0.000    0.000    0.000    0.000    0.000    0.000 
#    0.000    0.000    0.000    0.000    0.000    0.000 
#
# Total GULP energy -198515.637995 kJ/mol
# GULP energy per Si atom -12407.227375 kJ/mol
# Density = 2.231188 g / cm^3
# Si number density = 22.362778 Si / 1000 Ang^3
#
#
#
# Elastic Constant Matrix: (Units=GPa)
#
#
# Indices 1 2 3 4 5 6 
#
# 1 121.2019 23.2183 30.1783 19.7404 -1.8571 26.0170
# 2 23.2183 61.1979 15.4021 18.0959 1.3845 16.6786
# 3 30.1783 15.4021 55.6403 16.6704 -0.1017 5.1456
# 4 19.7404 18.0959 16.6704 37.3342 -0.5145 0.5174
# 5 -1.8571 1.3845 -0.1017 -0.5145 36.3353 1.0077
# 6 26.0170 16.6786 5.1456 0.5174 1.0077 35.7780
#
#
#
# Elastic Compliance Matrix: (Units=1/GPa)
#
#
# Indices 1 2 3 4 5 6 
#
# 1 0.011709 0.000000 -0.004392 -0.004111 0.000746 -0.007844
# 2 0.000000 0.022571 -0.002406 -0.009737 -0.000727 -0.010014
# 3 -0.004392 -0.002406 0.022947 -0.006776 -0.000196 0.001119
# 4 -0.004111 -0.009737 -0.006776 0.036599 0.000439 0.007961
# 5 0.000746 -0.000727 -0.000196 0.000439 0.027620 -0.000959
# 6 -0.007844 -0.010014 0.001119 0.007961 -0.000959 0.038074
#
#
# Mechanical properties :
#
#
# Convention : Reuss Voigt Hill
#
# Bulk Modulus (GPa) = 22.91977 41.73750 32.32863
# Shear Modulus (GPa) = 26.64387 33.17227 29.90807
#
# Velocity S-wave (km/s) = 3.45547 3.85563 3.66102
# Velocity P-wave (km/s) = 5.11778 6.20689 5.68846
#
# Compressibility (1/GPa) = 0.04363045
#
# Stress axis : x y z
#
# Youngs Moduli (GPa) = 85.40259 44.30480 43.57838
#
# Poissons Ratio (x) = 0.00002 0.19141
# Poissons Ratio (y) = 0.00004 0.10483
# Poissons Ratio (z) = 0.37512 0.10658
#
# Static dielectric constant tensor:
#      x y z
#    x 4.217180 -0.091310 -0.153120 
#    y -0.091310 4.000780 0.051400 
#    z -0.153120 0.051400 4.025520 
# 
# 
# High freq. dielectric constant tensor:
#      x y z
#    x 1.889280 -0.002500 -0.015210 
#    y -0.002500 1.885070 -0.000260 
#    z -0.015210 -0.000260 1.878520 
# 
# From -- ./inp_files/455450.got.cif
#   From: 2010.06.25/outbox.cif.g09.slc.cpg/sg2_228_cif.got.tgz:455450.got - 2010.06.27 13:26:56.
