data_PCOD8029698
_publ_section_title
;
Structure prediction by ZEFSAII (Michael W. Deem and Ramdas Pophale) SiO2 
 PCOD8029698
Probable space group: P -1
;
_chemical_formula_sum "Si O2"
_cell_formula_units_Z 16
_cell_length_a 11.733472
_cell_length_b 8.930821
_cell_length_c 14.802939
_cell_angle_alpha 39.891074
_cell_angle_beta 128.501413
_cell_angle_gamma 108.840440
_cell_volume 740.631420
_symmetry_space_group_name_H-M "P -1"
_symmetry_group_IT_number 2
_symmetry_cell_setting 'triclinic'
loop_
_space_group_symop_operation_xyz
x,y,z
-x,-y,-z
loop_
_atom_site_type_symbol
_atom_site_label
_atom_site_fract_x
_atom_site_fract_y
_atom_site_fract_z
Si Si1 0.804976 0.284961 0.946933
Si Si2 0.858769 0.412501 0.439221
Si Si3 0.519776 0.138939 0.678195
Si Si4 0.702556 0.428217 0.540845
Si Si5 0.255814 0.183054 0.944243
Si Si6 0.966311 0.443088 0.790950
Si Si7 0.360208 0.180381 0.400392
Si Si8 0.956110 0.868687 0.708453
O O1 0.922672 0.311351 0.916682
O O2 0.658174 0.533532 0.762950
O O3 0.895847 0.241867 0.105301
O O4 0.747435 0.054888 0.003759
O O5 0.750170 0.382242 0.481231
O O6 0.749363 0.600177 0.228057
O O7 0.000000 0.500000 0.500000
O O8 0.932582 0.153898 0.544408
O O9 0.661778 0.195074 0.670116
O O10 0.448747 0.341809 0.625776
O O11 0.392508 0.125283 0.548821
O O12 0.590062 0.886529 0.886080
O O13 0.840407 0.487565 0.631201
O O14 0.119261 0.261316 0.911305
O O15 0.984110 0.706663 0.706038
O O16 0.199123 0.142381 0.313236
O O17 0.500000 0.000000 0.500000
#
# Coordination Sequence:
#
# PCOD8029698 Si02
#       8
#     2   2   2   2   2   2   2   2
#     4  11  21  40  65 100 130 166 221 279 325 380
#     4  12  25  44  65  98 131 180 219 272 327 387
#     4  11  23  41  68  99 127 174 217 268 325 393
#     4  11  21  43  68  92 134 168 221 272 320 387
#     4  12  25  39  68 100 130 172 227 261 328 393
#     4  11  21  38  65  99 128 167 221 284 321 374
#     4  11  23  39  65 102 136 165 210 276 339 378
#     4  11  24  41  64  94 138 168 218 275 333 383
#
# _framework density 21.603186000000001
#
# number of rings (size 3 to 8) (size 9 to 14) (size 15 to 20)
#    0.000    0.750    6.250    3.375    5.250    1.000 
#    0.000    0.625    0.000    0.000    0.000    0.000 
#    0.000    0.000    0.000    0.000    0.000    0.000 
#
# Total GULP energy -198360.411435 kJ/mol
# GULP energy per Si atom -12397.525715 kJ/mol
# Density = 2.155402 g / cm^3
# Si number density = 21.603186 Si / 1000 Ang^3
#
#
#
# Elastic Constant Matrix: (Units=GPa)
#
#
# Indices 1 2 3 4 5 6 
#
# 1 45.9849 -6.4351 13.6180 -0.8134 6.1840 -14.9533
# 2 -6.4351 74.3110 40.7585 -8.5650 -1.6486 -2.7234
# 3 13.6180 40.7585 170.6258 2.7055 -4.6266 -7.1762
# 4 -0.8134 -8.5650 2.7055 31.9717 -1.3388 -0.2194
# 5 6.1840 -1.6486 -4.6266 -1.3388 33.4336 -2.0029
# 6 -14.9533 -2.7234 -7.1762 -0.2194 -2.0029 24.0934
#
#
#
# Elastic Compliance Matrix: (Units=1/GPa)
#
#
# Indices 1 2 3 4 5 6 
#
# 1 0.029772 0.005034 -0.002989 0.002292 -0.004514 0.017802
# 2 0.005034 0.017022 -0.004397 0.005075 -0.000272 0.003762
# 3 -0.002989 -0.004397 0.007208 -0.001812 0.001254 -0.000117
# 4 0.002292 0.005075 -0.001812 0.032903 0.001003 0.001839
# 5 -0.004514 -0.000272 0.001254 0.001003 0.030953 0.000124
# 6 0.017802 0.003762 -0.000117 0.001839 0.000124 0.052971
#
#
# Mechanical properties :
#
#
# Convention : Reuss Voigt Hill
#
# Bulk Modulus (GPa) = 20.28522 42.97829 31.63176
# Shear Modulus (GPa) = 26.04635 34.09841 30.07238
#
# Velocity S-wave (km/s) = 3.47605 3.97721 3.73505
# Velocity P-wave (km/s) = 5.05181 6.40536 5.76842
#
# Compressibility (1/GPa) = 0.04929698
#
# Stress axis : x y z
#
# Youngs Moduli (GPa) = 33.58828 58.74910 138.74349
#
# Poissons Ratio (x) = -0.29574 0.41466
# Poissons Ratio (y) = -0.16908 0.61011
# Poissons Ratio (z) = 0.10038 0.25834
#
# Static dielectric constant tensor:
#      x y z
#    x 3.875640 -0.229750 0.201160 
#    y -0.229750 4.102680 -0.047660 
#    z 0.201160 -0.047660 4.127010 
# 
# 
# High freq. dielectric constant tensor:
#      x y z
#    x 1.818260 -0.015170 0.018500 
#    y -0.015170 1.852860 0.002400 
#    z 0.018500 0.002400 1.858820 
# 
# From -- ./inp_files/274559.got.cif
#   From: 2010.06.25/outbox.cif.g09.slc.cpg/sg2_138_cif.got.tgz:274559.got - 2010.06.27 13:26:56.
