data_PCOD8029038
_publ_section_title
;
Structure prediction by ZEFSAII (Michael W. Deem and Ramdas Pophale) SiO2 
 PCOD8029038
Probable space group: P -1
;
_chemical_formula_sum "Si O2"
_cell_formula_units_Z 16
_cell_length_a 9.590496
_cell_length_b 18.440973
_cell_length_c 9.095728
_cell_angle_alpha 36.537899
_cell_angle_beta 104.059469
_cell_angle_gamma 120.217380
_cell_volume 785.782395
_symmetry_space_group_name_H-M "P -1"
_symmetry_group_IT_number 2
_symmetry_cell_setting 'triclinic'
loop_
_space_group_symop_operation_xyz
x,y,z
-x,-y,-z
loop_
_atom_site_type_symbol
_atom_site_label
_atom_site_fract_x
_atom_site_fract_y
_atom_site_fract_z
Si Si1 0.456078 0.340047 0.606524
Si Si2 0.617020 0.193652 0.052166
Si Si3 0.700466 0.098182 0.492131
Si Si4 0.384728 0.121251 0.699427
Si Si5 0.800459 0.929767 0.574538
Si Si6 0.276802 0.340171 0.833323
Si Si7 0.946405 0.338931 0.720569
Si Si8 0.252569 0.831147 0.306792
O O1 0.379779 0.239860 0.607407
O O2 0.304789 0.326909 0.688324
O O3 0.582100 0.503937 0.320606
O O4 0.562995 0.301261 0.807736
O O5 0.659751 0.205621 0.218589
O O6 0.468585 0.026932 0.261732
O O7 0.779024 0.222112 0.955936
O O8 0.821033 0.181572 0.525491
O O9 0.773225 0.035125 0.498116
O O10 0.284500 0.097554 0.561874
O O11 0.581625 0.179556 0.629440
O O12 0.287665 0.974195 0.003785
O O13 0.709016 0.776428 0.880713
O O14 0.000000 0.000000 0.500000
O O15 0.091303 0.312667 0.851236
O O16 0.901045 0.307117 0.588900
O O17 0.000000 0.500000 0.500000
#
# Coordination Sequence:
#
# PCOD8029038 Si02
#       8
#     2   2   2   2   2   2   2   2
#     4  11  22  42  65  91 125 168 214 250 311 382
#     4  11  19  40  64  89 124 161 208 261 302 367
#     4  11  22  37  65  93 121 159 214 263 303 366
#     4  11  21  38  63  93 122 161 212 259 304 372
#     4  12  25  40  61  94 134 166 200 261 322 368
#     4  11  24  41  63  91 129 172 201 254 323 371
#     4  12  23  41  65  91 126 166 211 256 310 371
#     4  11  20  36  64  94 119 160 216 259 302 360
#
# _framework density 20.361871000000001
#
# number of rings (size 3 to 8) (size 9 to 14) (size 15 to 20)
#    0.000    0.750    5.000    4.500    0.000    1.500 
#    0.000    3.125    0.000    0.000    0.000    0.000 
#    0.000    0.000    0.000    0.000    0.000    0.000 
#
# Total GULP energy -198371.738073 kJ/mol
# GULP energy per Si atom -12398.233630 kJ/mol
# Density = 2.031553 g / cm^3
# Si number density = 20.361871 Si / 1000 Ang^3
#
#
#
# Elastic Constant Matrix: (Units=GPa)
#
#
# Indices 1 2 3 4 5 6 
#
# 1 70.0946 24.6822 6.2852 -2.6092 -8.3260 -3.8023
# 2 24.6822 170.0408 42.7936 12.1244 4.8211 -17.9869
# 3 6.2852 42.7936 77.8778 8.6657 2.3907 -1.3603
# 4 -2.6092 12.1244 8.6657 28.6523 1.8706 4.3793
# 5 -8.3260 4.8211 2.3907 1.8706 29.0321 1.8416
# 6 -3.8023 -17.9869 -1.3603 4.3793 1.8416 30.8229
#
#
#
# Elastic Compliance Matrix: (Units=1/GPa)
#
#
# Indices 1 2 3 4 5 6 
#
# 1 0.015843 -0.002547 -0.000289 0.002316 0.004851 -0.000164
# 2 -0.002547 0.007947 -0.003679 -0.003081 -0.001847 0.004709
# 3 -0.000289 -0.003679 0.015201 -0.002872 -0.000470 -0.001076
# 4 0.002316 -0.003081 -0.002872 0.038403 -0.000614 -0.007059
# 5 0.004851 -0.001847 -0.000470 -0.000614 0.036385 -0.002587
# 6 -0.000164 0.004709 -0.001076 -0.007059 -0.002587 0.036281
#
#
# Mechanical properties :
#
#
# Convention : Reuss Voigt Hill
#
# Bulk Modulus (GPa) = 38.51991 51.72615 45.12303
# Shear Modulus (GPa) = 29.11319 33.98494 31.54906
#
# Velocity S-wave (km/s) = 3.78536 4.08983 3.94054
# Velocity P-wave (km/s) = 6.16960 6.91092 6.55076
#
# Compressibility (1/GPa) = 0.02596060
#
# Stress axis : x y z
#
# Youngs Moduli (GPa) = 63.12023 125.83668 65.78553
#
# Poissons Ratio (x) = 0.32051 0.01898
# Poissons Ratio (y) = 0.16077 0.24205
# Poissons Ratio (z) = 0.01821 0.46300
#
# Static dielectric constant tensor:
#      x y z
#    x 3.761590 -0.078380 0.024440 
#    y -0.078380 3.876020 0.140710 
#    z 0.024440 0.140710 3.765360 
# 
# 
# High freq. dielectric constant tensor:
#      x y z
#    x 1.796070 -0.009530 0.002840 
#    y -0.009530 1.794590 0.008270 
#    z 0.002840 0.008270 1.793980 
# 
# From -- ./inp_files/216514.got.cif
#   From: 2010.06.25/outbox.cif.g09.slc.cpg/sg2_109_cif.got.tgz:216514.got - 2010.06.27 13:26:56.
