data_PCOD8029919
_publ_section_title
;
Structure prediction by ZEFSAII (Michael W. Deem and Ramdas Pophale) SiO2 
 PCOD8029919
Probable space group: P -1
;
_chemical_formula_sum "Si O2"
_cell_formula_units_Z 14
_cell_length_a 14.780539
_cell_length_b 15.298809
_cell_length_c 8.601294
_cell_angle_alpha 130.490615
_cell_angle_beta 112.883836
_cell_angle_gamma 27.953099
_cell_volume 593.035500
_symmetry_space_group_name_H-M "P -1"
_symmetry_group_IT_number 2
_symmetry_cell_setting 'triclinic'
loop_
_space_group_symop_operation_xyz
x,y,z
-x,-y,-z
loop_
_atom_site_type_symbol
_atom_site_label
_atom_site_fract_x
_atom_site_fract_y
_atom_site_fract_z
Si Si1 0.584450 0.527986 0.161327
Si Si2 0.030400 0.758585 0.039846
Si Si3 0.481515 0.646192 0.590669
Si Si4 0.840503 0.422089 0.746288
Si Si5 0.684680 0.822809 0.048930
Si Si6 0.089218 0.443091 0.658858
Si Si7 0.301627 0.031508 0.496450
O O1 0.509279 0.614005 0.387546
O O2 0.477714 0.746104 0.241976
O O3 0.500000 0.500000 0.000000
O O4 0.854321 0.259803 0.004969
O O5 0.087998 0.719350 0.213628
O O6 0.144192 0.520191 0.777836
O O7 0.760625 0.044550 0.166706
O O8 0.500000 0.500000 0.500000
O O9 0.679494 0.513007 0.640787
O O10 0.060049 0.222371 0.561664
O O11 0.712155 0.676396 0.995905
O O12 0.620496 0.994972 0.317599
O O13 0.918764 0.608868 0.879102
O O14 0.500000 0.000000 0.000000
O O15 0.297492 0.137634 0.486199
O O16 0.000000 0.500000 0.500000
#
# Coordination Sequence:
#
# PCOD8029919 Si02
#       7
#     2   2   2   2   2   2   2
#     4  12  29  48  76 110 145 193 250 310 364 436
#     4  12  26  50  75 107 151 188 252 303 368 444
#     4  12  29  51  77 106 143 203 251 304 374 439
#     4  11  22  46  76 101 147 197 241 304 369 435
#     4  11  21  40  73 105 145 197 241 291 369 448
#     4  11  24  40  67 110 148 188 237 301 365 436
#     4  11  23  46  73 106 152 197 242 296 375 443
#
# _framework density 23.607355999999999
#
# number of rings (size 3 to 8) (size 9 to 14) (size 15 to 20)
#    0.000    0.571    4.286    3.429    8.000    5.714 
#    0.000    0.000    0.000    0.000    0.000    0.000 
#    0.000    0.000    0.000    0.000    0.000    0.000 
#
# Total GULP energy -173612.030925 kJ/mol
# GULP energy per Si atom -12400.859352 kJ/mol
# Density = 2.355362 g / cm^3
# Si number density = 23.607356 Si / 1000 Ang^3
#
#
#
# Elastic Constant Matrix: (Units=GPa)
#
#
# Indices 1 2 3 4 5 6 
#
# 1 123.3476 38.2372 32.3080 -4.4122 18.7647 -19.4779
# 2 38.2372 121.2817 32.2440 -6.3247 18.4390 -12.9727
# 3 32.3080 32.2440 79.4386 -9.6942 21.3380 -4.3333
# 4 -4.4122 -6.3247 -9.6942 34.1514 -4.1158 7.5711
# 5 18.7647 18.4390 21.3380 -4.1158 39.7209 -2.1722
# 6 -19.4779 -12.9727 -4.3333 7.5711 -2.1722 51.6220
#
#
#
# Elastic Compliance Matrix: (Units=1/GPa)
#
#
# Indices 1 2 3 4 5 6 
#
# 1 0.010225 -0.001841 -0.002676 -0.000780 -0.002445 0.003182
# 2 -0.001841 0.010035 -0.002596 0.000282 -0.002284 0.001472
# 3 -0.002676 -0.002596 0.016767 0.003406 -0.006240 -0.001017
# 4 -0.000780 0.000282 0.003406 0.031363 0.001412 -0.004478
# 5 -0.002445 -0.002284 -0.006240 0.001412 0.030839 -0.000930
# 6 0.003182 0.001472 -0.001017 -0.004478 -0.000930 0.021475
#
#
# Mechanical properties :
#
#
# Convention : Reuss Voigt Hill
#
# Bulk Modulus (GPa) = 43.85779 58.84960 51.35370
# Shear Modulus (GPa) = 35.07999 39.85076 37.46538
#
# Velocity S-wave (km/s) = 3.85902 4.11306 3.98807
# Velocity P-wave (km/s) = 6.20277 6.89485 6.55795
#
# Compressibility (1/GPa) = 0.02280096
#
# Stress axis : x y z
#
# Youngs Moduli (GPa) = 97.79526 99.64759 59.64072
#
# Poissons Ratio (x) = 0.18343 0.15962
# Poissons Ratio (y) = 0.18002 0.15485
# Poissons Ratio (z) = 0.26173 0.25872
#
# Static dielectric constant tensor:
#      x y z
#    x 4.159530 -0.312230 0.053540 
#    y -0.312230 4.143610 0.149020 
#    z 0.053540 0.149020 4.165960 
# 
# 
# High freq. dielectric constant tensor:
#      x y z
#    x 1.951050 -0.006090 0.003750 
#    y -0.006090 1.941830 0.002010 
#    z 0.003750 0.002010 1.924780 
# 
# From -- ./inp_files/315942.got.cif
#   From: 2010.06.25/outbox.cif.g09.slc.cpg/sg2_158_cif.got.tgz:315942.got - 2010.06.27 13:26:56.
