data_PCOD8029121
_publ_section_title
;
Structure prediction by ZEFSAII (Michael W. Deem and Ramdas Pophale) SiO2 
 PCOD8029121
Probable space group: P -1
;
_chemical_formula_sum "Si O2"
_cell_formula_units_Z 16
_cell_length_a 15.510062
_cell_length_b 18.914656
_cell_length_c 12.938976
_cell_angle_alpha 41.857007
_cell_angle_beta 137.259822
_cell_angle_gamma 160.589372
_cell_volume 832.981751
_symmetry_space_group_name_H-M "P -1"
_symmetry_group_IT_number 2
_symmetry_cell_setting 'triclinic'
loop_
_space_group_symop_operation_xyz
x,y,z
-x,-y,-z
loop_
_atom_site_type_symbol
_atom_site_label
_atom_site_fract_x
_atom_site_fract_y
_atom_site_fract_z
Si Si1 0.400089 0.866057 0.454099
Si Si2 0.391518 0.494373 0.270990
Si Si3 0.100379 0.958432 0.598715
Si Si4 0.037165 0.182470 0.805711
Si Si5 0.903995 0.151328 0.498052
Si Si6 0.572334 0.716931 0.979094
Si Si7 0.853757 0.541936 0.273253
Si Si8 0.423255 0.593263 0.414343
O O1 0.296127 0.674544 0.598362
O O2 0.168384 0.755023 0.307176
O O3 0.500000 0.000000 0.500000
O O4 0.639265 0.026275 0.410609
O O5 0.495513 0.621336 0.329525
O O6 0.506110 0.459470 0.396896
O O7 0.489615 0.642040 0.106273
O O8 0.072366 0.254557 0.259903
O O9 0.408582 0.179806 0.656221
O O10 0.086449 0.930667 0.493512
O O11 0.000000 0.000000 0.500000
O O12 0.165927 0.388076 0.727138
O O13 0.960956 0.128827 0.677080
O O14 0.258896 0.257853 0.943203
O O15 0.764735 0.959190 0.871491
O O16 0.122774 0.398830 0.390161
O O17 0.292998 0.519118 0.889766
#
# Coordination Sequence:
#
# PCOD8029121 Si02
#       8
#     2   2   2   2   2   2   2   2
#     4  11  23  40  62  83 120 159 209 254 285 349
#     4   9  18  33  52  80 112 156 189 239 286 348
#     4   9  20  33  55  86 115 152 202 242 294 353
#     4  11  23  37  55  91 129 161 191 239 308 368
#     4  11  20  35  58  86 120 150 195 248 297 343
#     4  11  22  37  57  86 133 161 193 238 303 368
#     4  11  23  39  57  86 120 163 207 235 296 365
#     4   9  18  33  53  78 113 150 199 237 291 337
#
# _framework density 19.208103000000001
#
# number of rings (size 3 to 8) (size 9 to 14) (size 15 to 20)
#    0.000    1.750    3.750    1.125    1.750    1.000 
#    6.750    0.000    0.000    3.000    0.000   15.750 
#    0.000    0.000    0.000    0.000    0.000    0.000 
#
# Total GULP energy -198218.281522 kJ/mol
# GULP energy per Si atom -12388.642595 kJ/mol
# Density = 1.916438 g / cm^3
# Si number density = 19.208103 Si / 1000 Ang^3
#
#
#
# Elastic Constant Matrix: (Units=GPa)
#
#
# Indices 1 2 3 4 5 6 
#
# 1 92.7680 57.5775 40.3075 -7.0580 -11.1686 4.2689
# 2 57.5775 152.3280 48.4630 2.0386 -9.2500 2.9459
# 3 40.3075 48.4630 72.6343 7.5830 -15.8536 4.1883
# 4 -7.0580 2.0386 7.5830 32.2155 8.9986 7.7749
# 5 -11.1686 -9.2500 -15.8536 8.9986 28.9874 -1.7480
# 6 4.2689 2.9459 4.1883 7.7749 -1.7480 39.4601
#
#
#
# Elastic Compliance Matrix: (Units=1/GPa)
#
#
# Indices 1 2 3 4 5 6 
#
# 1 0.017106 -0.004196 -0.007475 0.006552 -0.000996 -0.002079
# 2 -0.004196 0.009404 -0.004068 -0.000419 -0.000696 0.000235
# 3 -0.007475 -0.004068 0.024476 -0.010987 0.012694 0.001241
# 4 0.006552 -0.000419 -0.010987 0.041940 -0.017152 -0.008535
# 5 -0.000996 -0.000696 0.012694 -0.017152 0.046415 0.004248
# 6 -0.002079 0.000235 0.001241 -0.008535 0.004248 0.027287
#
#
# Mechanical properties :
#
#
# Convention : Reuss Voigt Hill
#
# Bulk Modulus (GPa) = 51.25869 67.82515 59.54192
# Shear Modulus (GPa) = 24.43717 31.55808 27.99763
#
# Velocity S-wave (km/s) = 3.57071 4.05774 3.82199
# Velocity P-wave (km/s) = 6.61391 7.57238 7.10932
#
# Compressibility (1/GPa) = 0.01950889
#
# Stress axis : x y z
#
# Youngs Moduli (GPa) = 58.46020 106.34276 40.85681
#
# Poissons Ratio (x) = 0.44616 0.30539
# Poissons Ratio (y) = 0.24527 0.16620
# Poissons Ratio (z) = 0.43697 0.43258
#
# Static dielectric constant tensor:
#      x y z
#    x 3.450780 0.144350 -0.015310 
#    y 0.144350 4.357320 0.078420 
#    z -0.015310 0.078420 3.218990 
# 
# 
# High freq. dielectric constant tensor:
#      x y z
#    x 1.734850 0.003360 -0.013380 
#    y 0.003360 1.778370 0.002510 
#    z -0.013380 0.002510 1.702690 
# 
# From -- ./inp_files/456717.got.cif
#   From: 2010.06.25/outbox.cif.g09.slc.cpg/sg2_229_cif.got.tgz:456717.got - 2010.06.27 13:26:56.
