data_PCOD8029960
_publ_section_title
;
Structure prediction by ZEFSAII (Michael W. Deem and Ramdas Pophale) SiO2 
 PCOD8029960
Probable space group: P -1
;
_chemical_formula_sum "Si O2"
_cell_formula_units_Z 16
_cell_length_a 11.815055
_cell_length_b 9.148074
_cell_length_c 12.264532
_cell_angle_alpha 75.453941
_cell_angle_beta 49.908540
_cell_angle_gamma 53.019609
_cell_volume 789.730428
_symmetry_space_group_name_H-M "P -1"
_symmetry_group_IT_number 2
_symmetry_cell_setting 'triclinic'
loop_
_space_group_symop_operation_xyz
x,y,z
-x,-y,-z
loop_
_atom_site_type_symbol
_atom_site_label
_atom_site_fract_x
_atom_site_fract_y
_atom_site_fract_z
Si Si1 0.433292 0.966379 0.658511
Si Si2 0.678974 0.289213 0.924147
Si Si3 0.874308 0.635430 0.203979
Si Si4 0.240483 0.486835 0.882884
Si Si5 0.215887 0.836749 0.885004
Si Si6 0.235030 0.222580 0.356292
Si Si7 0.563373 0.104055 0.867935
Si Si8 0.046314 0.615087 0.315830
O O1 0.314189 0.887282 0.727326
O O2 0.602583 0.828122 0.655751
O O3 0.500000 0.000000 0.500000
O O4 0.292370 0.160282 0.773022
O O5 0.665528 0.170034 0.862410
O O6 0.858198 0.287424 0.798629
O O7 0.500000 0.500000 0.000000
O O8 0.699260 0.188154 0.043575
O O9 0.816984 0.510096 0.208717
O O10 0.893078 0.639729 0.322227
O O11 0.067630 0.570922 0.051802
O O12 0.284865 0.635018 0.834395
O O13 0.399091 0.282638 0.869651
O O14 0.000000 0.000000 0.000000
O O15 0.053370 0.290986 0.525231
O O16 0.199830 0.391941 0.272989
O O17 0.286719 0.048462 0.282362
O O18 0.500000 0.000000 0.000000
#
# Coordination Sequence:
#
# PCOD8029960 Si02
#       8
#     2   2   2   2   2   2   2   2
#     4  12  23  42  69  94 132 182 221 269 336 410
#     4  12  23  41  71  97 133 173 225 281 330 397
#     4  11  21  41  66  96 134 170 214 279 332 393
#     4  11  23  39  68  99 135 168 224 282 331 392
#     4  12  24  41  65 104 129 174 225 274 333 392
#     4  11  25  41  68  95 133 181 223 270 343 408
#     4  12  24  41  66 101 136 173 226 278 335 397
#     4  11  23  45  66  98 132 177 224 275 341 401
#
# _framework density 20.260076999999999
#
# number of rings (size 3 to 8) (size 9 to 14) (size 15 to 20)
#    0.000    0.500    6.250    3.000    0.000    1.500 
#    0.000    0.625    5.500    0.000    0.000    0.000 
#    0.000    0.000    0.000    0.000    0.000    0.000 
#
# Total GULP energy -198311.436428 kJ/mol
# GULP energy per Si atom -12394.464777 kJ/mol
# Density = 2.021396 g / cm^3
# Si number density = 20.260077 Si / 1000 Ang^3
#
#
#
# Elastic Constant Matrix: (Units=GPa)
#
#
# Indices 1 2 3 4 5 6 
#
# 1 116.5933 36.9837 51.6018 -5.6570 4.7844 14.6527
# 2 36.9837 118.7156 55.1767 8.4387 -6.3638 5.9175
# 3 51.6018 55.1767 91.0237 -2.7233 0.5086 15.6868
# 4 -5.6570 8.4387 -2.7233 37.1949 2.5356 1.0949
# 5 4.7844 -6.3638 0.5086 2.5356 27.8003 5.4999
# 6 14.6527 5.9175 15.6868 1.0949 5.4999 41.9736
#
#
#
# Elastic Compliance Matrix: (Units=1/GPa)
#
#
# Indices 1 2 3 4 5 6 
#
# 1 0.011833 -0.001242 -0.005605 0.001860 -0.002064 -0.001639
# 2 -0.001242 0.012571 -0.007225 -0.003830 0.003371 0.001020
# 3 -0.005605 -0.007225 0.019351 0.002357 -0.000415 -0.004264
# 4 0.001860 -0.003830 0.002357 0.028492 -0.003589 -0.001263
# 5 -0.002064 0.003371 -0.000415 -0.003589 0.038328 -0.004529
# 6 -0.001639 0.001020 -0.004264 -0.001263 -0.004529 0.026473
#
#
# Mechanical properties :
#
#
# Convention : Reuss Voigt Hill
#
# Bulk Modulus (GPa) = 64.06443 68.20633 66.13538
# Shear Modulus (GPa) = 29.34354 33.56512 31.45433
#
# Velocity S-wave (km/s) = 3.80984 4.07469 3.94449
# Velocity P-wave (km/s) = 7.14443 7.47502 7.31159
#
# Compressibility (1/GPa) = 0.01560929
#
# Stress axis : x y z
#
# Youngs Moduli (GPa) = 84.51291 79.55068 51.67631
#
# Poissons Ratio (x) = 0.09881 0.28967
# Poissons Ratio (y) = 0.10497 0.37336
# Poissons Ratio (z) = 0.47373 0.57476
#
# Static dielectric constant tensor:
#      x y z
#    x 4.074920 -0.321480 0.027830 
#    y -0.321480 4.299560 0.227310 
#    z 0.027830 0.227310 3.684040 
# 
# 
# High freq. dielectric constant tensor:
#      x y z
#    x 1.799910 -0.009290 0.003720 
#    y -0.009290 1.806140 0.011780 
#    z 0.003720 0.011780 1.780320 
# 
# From -- ./inp_files/223427.got.cif
#   From: 2010.06.25/outbox.cif.g09.slc.cpg/sg2_112_cif.got.tgz:223427.got - 2010.06.27 13:26:56.
