data_PCOD8029765
_publ_section_title
;
Structure prediction by ZEFSAII (Michael W. Deem and Ramdas Pophale) SiO2 
 PCOD8029765
Probable space group: P -1
;
_chemical_formula_sum "Si O2"
_cell_formula_units_Z 14
_cell_length_a 8.767467
_cell_length_b 10.477684
_cell_length_c 18.132715
_cell_angle_alpha 138.494158
_cell_angle_beta 40.274297
_cell_angle_gamma 137.501888
_cell_volume 657.891924
_symmetry_space_group_name_H-M "P -1"
_symmetry_group_IT_number 2
_symmetry_cell_setting 'triclinic'
loop_
_space_group_symop_operation_xyz
x,y,z
-x,-y,-z
loop_
_atom_site_type_symbol
_atom_site_label
_atom_site_fract_x
_atom_site_fract_y
_atom_site_fract_z
Si Si1 0.774894 0.317088 0.052412
Si Si2 0.427968 0.718352 0.053436
Si Si3 0.119135 0.413606 0.159510
Si Si4 0.449390 0.831960 0.784448
Si Si5 0.907032 0.774355 0.635878
Si Si6 0.170489 0.246655 0.793889
Si Si7 0.761202 0.423137 0.656943
O O1 0.583218 0.155821 0.109419
O O2 0.846682 0.555991 0.160843
O O3 0.652056 0.307394 0.013318
O O4 0.026338 0.258346 0.928806
O O5 0.225893 0.541531 0.101327
O O6 0.434380 0.929407 0.180581
O O7 0.717323 0.728496 0.951788
O O8 0.137016 0.545318 0.283880
O O9 0.816239 0.287846 0.209734
O O10 0.659812 0.727412 0.652853
O O11 0.820506 0.641507 0.686253
O O12 0.114764 0.714253 0.491445
O O13 0.024259 0.022803 0.713873
O O14 0.462213 0.281788 0.713364
#
# Coordination Sequence:
#
# PCOD8029765 Si02
#       7
#     2   2   2   2   2   2   2
#     4  11  22  39  70  96 126 157 213 270 315 367
#     4  11  23  42  62  97 131 168 205 262 326 377
#     4  11  25  41  61  94 138 163 203 263 325 384
#     4  12  24  40  66  99 126 167 211 261 320 382
#     4  11  25  42  71  91 123 171 224 257 309 366
#     4  11  21  39  66  97 122 159 210 268 312 365
#     4  11  25  46  63  94 128 171 214 266 303 380
#
# _framework density 21.280093000000001
#
# number of rings (size 3 to 8) (size 9 to 14) (size 15 to 20)
#    0.000    0.857    4.286    3.000    4.000    1.714 
#    0.000    0.714    0.000    0.000    0.000    0.000 
#    0.000    0.000    0.000    0.000    0.000    0.000 
#
# Total GULP energy -173456.111740 kJ/mol
# GULP energy per Si atom -12389.722267 kJ/mol
# Density = 2.123166 g / cm^3
# Si number density = 21.280093 Si / 1000 Ang^3
#
#
#
# Elastic Constant Matrix: (Units=GPa)
#
#
# Indices 1 2 3 4 5 6 
#
# 1 79.8026 27.8360 39.6623 -12.4228 -4.2685 17.8204
# 2 27.8360 82.0704 41.2204 6.2871 -14.2490 15.1952
# 3 39.6623 41.2204 101.3168 3.5751 -22.6181 10.3322
# 4 -12.4228 6.2871 3.5751 28.4895 6.0946 -4.3667
# 5 -4.2685 -14.2490 -22.6181 6.0946 33.5918 -9.3921
# 6 17.8204 15.1952 10.3322 -4.3667 -9.3921 27.2829
#
#
#
# Elastic Compliance Matrix: (Units=1/GPa)
#
#
# Indices 1 2 3 4 5 6 
#
# 1 0.021659 -0.003767 -0.008448 0.011806 -0.009540 -0.010244
# 2 -0.003767 0.017740 -0.004043 -0.006761 0.003985 -0.005598
# 3 -0.008448 -0.004043 0.017121 -0.006692 0.011080 0.004029
# 4 0.011806 -0.006761 -0.006692 0.045718 -0.013850 0.001138
# 5 -0.009540 0.003985 0.011080 -0.013850 0.043761 0.012664
# 6 -0.010244 -0.005598 0.004029 0.001138 0.012664 0.049478
#
#
# Mechanical properties :
#
#
# Convention : Reuss Voigt Hill
#
# Bulk Modulus (GPa) = 41.66258 53.40301 47.53279
# Shear Modulus (GPa) = 21.18708 28.17093 24.67900
#
# Velocity S-wave (km/s) = 3.15878 3.64238 3.40916
# Velocity P-wave (km/s) = 5.73799 6.54515 6.15482
#
# Compressibility (1/GPa) = 0.02400236
#
# Stress axis : x y z
#
# Youngs Moduli (GPa) = 46.17105 56.37130 58.40837
#
# Poissons Ratio (x) = 0.21236 0.49341
# Poissons Ratio (y) = 0.17394 0.23617
# Poissons Ratio (z) = 0.39003 0.22794
#
# Static dielectric constant tensor:
#      x y z
#    x 3.834760 0.002800 -0.302150 
#    y 0.002800 4.035510 -0.120620 
#    z -0.302150 -0.120620 3.927180 
# 
# 
# High freq. dielectric constant tensor:
#      x y z
#    x 1.828990 0.008310 -0.025880 
#    y 0.008310 1.846850 -0.008290 
#    z -0.025880 -0.008290 1.827520 
# 
# From -- ./inp_files/588699.got.cif
#   From: 2010.06.25/outbox.cif.g09.slc.cpg/sg2_295_cif.got.tgz:588699.got - 2010.06.27 13:26:56.
