data_PCOD8029225
_publ_section_title
;
Structure prediction by ZEFSAII (Michael W. Deem and Ramdas Pophale) SiO2 
 PCOD8029225
Probable space group: P -1
;
_chemical_formula_sum "Si O2"
_cell_formula_units_Z 16
_cell_length_a 16.510853
_cell_length_b 5.063819
_cell_length_c 9.837971
_cell_angle_alpha 89.758850
_cell_angle_beta 66.313566
_cell_angle_gamma 89.245448
_cell_volume 753.174929
_symmetry_space_group_name_H-M "P -1"
_symmetry_group_IT_number 2
_symmetry_cell_setting 'triclinic'
loop_
_space_group_symop_operation_xyz
x,y,z
-x,-y,-z
loop_
_atom_site_type_symbol
_atom_site_label
_atom_site_fract_x
_atom_site_fract_y
_atom_site_fract_z
Si Si1 0.300466 0.461762 0.147015
Si Si2 0.766822 0.528996 0.239063
Si Si3 0.012467 0.023869 0.152379
Si Si4 0.490153 0.024826 0.346154
Si Si5 0.592385 0.521002 0.193664
Si Si6 0.875622 0.478780 0.897173
Si Si7 0.183657 0.974672 0.635272
Si Si8 0.311096 0.963399 0.318378
O O1 0.200701 0.468715 0.160148
O O2 0.321559 0.170989 0.189581
O O3 0.312708 0.671129 0.257235
O O4 0.369983 0.524114 0.981903
O O5 0.668740 0.477832 0.252945
O O6 0.789776 0.323254 0.342153
O O7 0.770978 0.826000 0.290463
O O8 0.838999 0.491470 0.073815
O O9 0.047687 0.308734 0.169999
O O10 0.921313 0.980262 0.293285
O O11 0.083146 0.808611 0.157594
O O12 0.000000 0.000000 0.000000
O O13 0.516091 0.314215 0.276684
O O14 0.388866 0.981665 0.375883
O O15 0.500000 0.000000 0.500000
O O16 0.552966 0.814701 0.228551
O O17 0.219232 0.021692 0.459079
#
# Coordination Sequence:
#
# PCOD8029225 Si02
#       8
#     2   2   2   2   2   2   2   2
#     4  11  26  46  66  90 130 176 224 248 305 378
#     4  11  20  38  62  94 129 159 204 265 327 385
#     4  12  21  38  65 102 129 156 212 267 326 378
#     4  12  25  43  68 100 132 158 209 269 331 372
#     4  11  24  41  68  96 124 173 213 259 314 372
#     4  11  22  40  64  95 128 163 206 271 311 375
#     4  12  24  38  63  94 130 166 210 259 336 372
#     4  12  26  45  63  90 131 175 211 264 310 381
#
# _framework density 21.243407000000001
#
# number of rings (size 3 to 8) (size 9 to 14) (size 15 to 20)
#    0.000    0.500    2.500    6.750    0.000    7.000 
#    0.000    3.750    0.000    0.000    0.000    0.000 
#    0.000    0.000    0.000    0.000    0.000    0.000 
#
# Total GULP energy -198552.269804 kJ/mol
# GULP energy per Si atom -12409.516863 kJ/mol
# Density = 2.119506 g / cm^3
# Si number density = 21.243407 Si / 1000 Ang^3
#
#
#
# Elastic Constant Matrix: (Units=GPa)
#
#
# Indices 1 2 3 4 5 6 
#
# 1 81.8298 18.2685 52.5671 5.3359 1.5743 0.9374
# 2 18.2685 94.6951 14.1906 -0.6036 0.6840 4.8002
# 3 52.5671 14.1906 79.0641 -13.0175 -11.5632 13.8053
# 4 5.3359 -0.6036 -13.0175 20.4599 -7.8700 0.8774
# 5 1.5743 0.6840 -11.5632 -7.8700 31.8991 -0.8950
# 6 0.9374 4.8002 13.8053 0.8774 -0.8950 43.4564
#
#
#
# Elastic Compliance Matrix: (Units=1/GPa)
#
#
# Indices 1 2 3 4 5 6 
#
# 1 0.048177 -0.002924 -0.048435 -0.057007 -0.033512 0.015132
# 2 -0.002924 0.011121 0.000528 0.001666 0.000470 -0.001357
# 3 -0.048435 0.000528 0.066855 0.073018 0.044044 -0.020819
# 4 -0.057007 0.001666 0.073018 0.135076 0.061909 -0.023603
# 5 -0.033512 0.000470 0.044044 0.061909 0.063860 -0.013256
# 6 0.015132 -0.001357 -0.020819 -0.023603 -0.013256 0.029653
#
#
# Mechanical properties :
#
#
# Convention : Reuss Voigt Hill
#
# Bulk Modulus (GPa) = 40.83316 47.29350 44.06333
# Shear Modulus (GPa) = 10.76269 30.53394 20.64832
#
# Velocity S-wave (km/s) = 2.25330 3.79534 3.12105
# Velocity P-wave (km/s) = 5.10227 6.44338 5.81164
#
# Compressibility (1/GPa) = 0.02448990
#
# Stress axis : x y z
#
# Youngs Moduli (GPa) = 20.75693 89.91826 14.95775
#
# Poissons Ratio (x) = 0.26294 0.72448
# Poissons Ratio (y) = 0.06070 -0.00790
# Poissons Ratio (z) = 1.00537 -0.04749
#
# Static dielectric constant tensor:
#      x y z
#    x 3.897260 0.036870 -0.131140 
#    y 0.036870 3.949550 0.034060 
#    z -0.131140 0.034060 3.766210 
# 
# 
# High freq. dielectric constant tensor:
#      x y z
#    x 1.839760 0.001660 -0.010650 
#    y 0.001660 1.850450 0.000710 
#    z -0.010650 0.000710 1.828220 
# 
# From -- ./inp_files/289003.got.cif
#   From: 2010.06.25/outbox.cif.g09.slc.cpg/sg2_145_cif.got.tgz:289003.got - 2010.06.27 13:26:56.
