data_PCOD8029452
_publ_section_title
;
Structure prediction by ZEFSAII (Michael W. Deem and Ramdas Pophale) SiO2 
 PCOD8029452
Probable space group: P -1
;
_chemical_formula_sum "Si O2"
_cell_formula_units_Z 16
_cell_length_a 11.470289
_cell_length_b 8.198355
_cell_length_c 12.064463
_cell_angle_alpha 130.163628
_cell_angle_beta 131.443642
_cell_angle_gamma 67.813964
_cell_volume 647.500306
_symmetry_space_group_name_H-M "P -1"
_symmetry_group_IT_number 2
_symmetry_cell_setting 'triclinic'
loop_
_space_group_symop_operation_xyz
x,y,z
-x,-y,-z
loop_
_atom_site_type_symbol
_atom_site_label
_atom_site_fract_x
_atom_site_fract_y
_atom_site_fract_z
Si Si1 0.463678 0.914424 0.175449
Si Si2 0.092231 0.467848 0.157099
Si Si3 0.349591 0.192340 0.948038
Si Si4 0.856041 0.801513 0.563119
Si Si5 0.472369 0.372235 0.719717
Si Si6 0.343667 0.807631 0.423725
Si Si7 0.148832 0.007807 0.944935
Si Si8 0.069605 0.245764 0.648660
O O1 0.525318 0.941737 0.097957
O O2 0.518852 0.702760 0.178848
O O3 0.532929 0.128581 0.374122
O O4 0.274739 0.897234 0.050234
O O5 0.268695 0.569007 0.296350
O O6 0.094897 0.213932 0.066932
O O7 0.026982 0.585077 0.273613
O O8 0.000000 0.500000 0.000000
O O9 0.242597 0.271894 0.817866
O O10 0.451235 0.392333 0.153760
O O11 0.233891 0.070727 0.909529
O O12 0.708275 0.644564 0.443967
O O13 0.923026 0.690157 0.447823
O O14 0.793370 0.032090 0.595868
O O15 0.997033 0.841278 0.757239
O O16 0.564716 0.196621 0.636497
O O17 0.000000 0.000000 0.500000
#
# Coordination Sequence:
#
# PCOD8029452 Si02
#       8
#     2   2   2   2   2   2   2   2
#     4  11  25  41  63 100 134 167 209 277 335 374
#     4  12  20  37  67  98 127 167 224 267 308 385
#     4  12  21  42  70  95 126 174 225 263 312 395
#     4  11  22  39  66  94 128 173 218 261 323 385
#     4  11  24  43  70  94 128 175 224 259 317 396
#     4  11  20  42  67  91 127 174 222 254 314 398
#     4  12  25  42  65  98 135 167 214 277 329 372
#     4  12  19  36  68 101 122 165 228 270 303 375
#
# _framework density 24.710412000000002
#
# number of rings (size 3 to 8) (size 9 to 14) (size 15 to 20)
#    0.000    0.500    8.750    2.250    0.000    0.500 
#    0.000    3.125    0.000    0.000    0.000    0.000 
#    0.000    0.000    0.000    0.000    0.000    0.000 
#
# Total GULP energy -198349.259706 kJ/mol
# GULP energy per Si atom -12396.828732 kJ/mol
# Density = 2.465417 g / cm^3
# Si number density = 24.710412 Si / 1000 Ang^3
#
#
#
# Elastic Constant Matrix: (Units=GPa)
#
#
# Indices 1 2 3 4 5 6 
#
# 1 126.4429 6.8414 54.5022 6.3216 -10.7844 -25.5555
# 2 6.8414 18.0405 22.0015 -0.5893 4.6415 -14.7880
# 3 54.5022 22.0015 173.2772 3.2552 29.2874 -16.3025
# 4 6.3216 -0.5893 3.2552 28.2804 -11.3039 6.1834
# 5 -10.7844 4.6415 29.2874 -11.3039 64.5273 3.5991
# 6 -25.5555 -14.7880 -16.3025 6.1834 3.5991 30.8571
#
#
#
# Elastic Compliance Matrix: (Units=1/GPa)
#
#
# Indices 1 2 3 4 5 6 
#
# 1 0.012329 0.011594 -0.004178 -0.004547 0.001529 0.014292
# 2 0.011594 0.119566 -0.010988 -0.016396 -0.008192 0.065338
# 3 -0.004178 -0.010988 0.008852 -0.001155 -0.003941 -0.003359
# 4 -0.004547 -0.016396 -0.001155 0.045113 0.010099 -0.022451
# 5 0.001529 -0.008192 -0.003941 0.010099 0.020410 -0.009146
# 6 0.014292 0.065338 -0.003359 -0.022451 -0.009146 0.079348
#
#
# Mechanical properties :
#
#
# Convention : Reuss Voigt Hill
#
# Bulk Modulus (GPa) = 7.48497 53.82788 30.65642
# Shear Modulus (GPa) = 14.82366 40.36064 27.59215
#
# Velocity S-wave (km/s) = 2.45193 4.04585 3.34521
# Velocity P-wave (km/s) = 3.32440 6.60727 5.23009
#
# Compressibility (1/GPa) = 0.13360110
#
# Stress axis : x y z
#
# Youngs Moduli (GPa) = 81.11082 8.36357 112.96409
#
# Poissons Ratio (x) = -0.09697 0.47201
# Poissons Ratio (y) = -0.94038 1.24130
# Poissons Ratio (z) = 0.33891 0.09190
#
# Static dielectric constant tensor:
#      x y z
#    x 4.729830 -0.244060 -0.005830 
#    y -0.244060 3.787530 0.075210 
#    z -0.005830 0.075210 4.805390 
# 
# 
# High freq. dielectric constant tensor:
#      x y z
#    x 2.001460 -0.011940 0.002780 
#    y -0.011940 1.931360 0.007570 
#    z 0.002780 0.007570 2.003930 
# 
# From -- ./inp_files/420140.got.cif
#   From: 2010.06.25/outbox.cif.g09.slc.cpg/sg2_211_cif.got.tgz:420140.got - 2010.06.27 13:26:56.
