data_PCOD8029859
_publ_section_title
;
Structure prediction by ZEFSAII (Michael W. Deem and Ramdas Pophale) SiO2 
 PCOD8029859
Probable space group: P -1
;
_chemical_formula_sum "Si O2"
_cell_formula_units_Z 12
_cell_length_a 16.016482
_cell_length_b 12.640155
_cell_length_c 19.217449
_cell_angle_alpha 29.475237
_cell_angle_beta 19.848274
_cell_angle_gamma 26.820835
_cell_volume 583.565957
_symmetry_space_group_name_H-M "P -1"
_symmetry_group_IT_number 2
_symmetry_cell_setting 'triclinic'
loop_
_space_group_symop_operation_xyz
x,y,z
-x,-y,-z
loop_
_atom_site_type_symbol
_atom_site_label
_atom_site_fract_x
_atom_site_fract_y
_atom_site_fract_z
Si Si1 0.539473 0.385077 0.854852
Si Si2 0.297573 0.568224 0.682939
Si Si3 0.135012 0.069571 0.575978
Si Si4 0.251450 0.228994 0.536161
Si Si5 0.717119 0.570316 0.826008
Si Si6 0.315515 0.273604 0.965119
O O1 0.630815 0.589907 0.685389
O O2 0.361797 0.439054 0.892848
O O3 0.818604 0.141070 0.763032
O O4 0.354690 0.367386 0.072688
O O5 0.500000 0.500000 0.500000
O O6 0.392546 0.339365 0.791036
O O7 0.306011 0.785690 0.595903
O O8 0.004277 0.652635 0.828644
O O9 0.119171 0.153817 0.619206
O O10 0.281645 0.193900 0.343389
O O11 0.019195 0.349060 0.708369
O O12 0.500000 0.000000 0.500000
O O13 0.500000 0.500000 0.000000
O O14 0.500000 0.000000 0.000000
#
# Coordination Sequence:
#
# PCOD8029859 Si02
#       6
#     2   2   2   2   2   2
#     4  11  22  42  67  96 130 174 222 265 334 398
#     4  11  27  46  69 102 132 175 231 278 332 397
#     4  11  22  41  66  93 136 169 218 284 322 388
#     4  11  23  39  62  96 135 164 214 283 329 386
#     4  11  21  40  67  95 123 180 219 254 336 403
#     4  11  25  46  70  95 135 180 220 278 336 391
#
# _framework density 20.563227000000001
#
# number of rings (size 3 to 8) (size 9 to 14) (size 15 to 20)
#    0.000    1.000    5.000    2.000    2.333    5.333 
#    3.000    0.000    0.000    0.000    0.000    0.000 
#    0.000    0.000    0.000    0.000    0.000    0.000 
#
# Total GULP energy -148805.317856 kJ/mol
# GULP energy per Si atom -12400.443155 kJ/mol
# Density = 2.051642 g / cm^3
# Si number density = 20.563227 Si / 1000 Ang^3
#
#
#
# Elastic Constant Matrix: (Units=GPa)
#
#
# Indices 1 2 3 4 5 6 
#
# 1 123.6240 38.0642 55.7078 6.1982 4.6664 -5.1519
# 2 38.0642 126.2857 54.9299 -4.0331 13.4863 -12.0258
# 3 55.7078 54.9299 132.4582 13.8203 22.2530 -2.8903
# 4 6.1982 -4.0331 13.8203 17.5301 7.8249 0.8286
# 5 4.6664 13.4863 22.2530 7.8249 39.9659 -1.2063
# 6 -5.1519 -12.0258 -2.8903 0.8286 -1.2063 39.0272
#
#
#
# Elastic Compliance Matrix: (Units=1/GPa)
#
#
# Indices 1 2 3 4 5 6 
#
# 1 0.010353 -0.001687 -0.003747 -0.001951 0.001849 0.000668
# 2 -0.001687 0.010984 -0.004127 0.007406 -0.002582 0.002619
# 3 -0.003747 -0.004127 0.012204 -0.007649 -0.003492 -0.000808
# 4 -0.001951 0.007406 -0.007649 0.070794 -0.011885 -0.000412
# 5 0.001849 -0.002582 -0.003492 -0.011885 0.029959 0.000368
# 6 0.000668 0.002619 -0.000808 -0.000412 0.000368 0.026479
#
#
# Mechanical properties :
#
#
# Convention : Reuss Voigt Hill
#
# Bulk Modulus (GPa) = 69.35505 75.53020 72.44262
# Shear Modulus (GPa) = 27.07073 34.88237 30.97655
#
# Velocity S-wave (km/s) = 3.63225 4.12314 3.88545
# Velocity P-wave (km/s) = 7.16881 7.71217 7.44545
#
# Compressibility (1/GPa) = 0.01441856
#
# Stress axis : x y z
#
# Youngs Moduli (GPa) = 96.59232 91.04192 81.93980
#
# Poissons Ratio (x) = 0.15357 0.30703
# Poissons Ratio (y) = 0.16293 0.33819
# Poissons Ratio (z) = 0.36193 0.37576
#
# Static dielectric constant tensor:
#      x y z
#    x -1.044080 0.958060 0.222330 
#    y 0.958060 3.268850 -0.035500 
#    z 0.222330 -0.035500 3.829420 
# 
# 
# High freq. dielectric constant tensor:
#      x y z
#    x 1.811580 0.004350 -0.007070 
#    y 0.004350 1.802850 -0.002010 
#    z -0.007070 -0.002010 1.812140 
# 
# From -- ./inp_files/21820.got.cif
#   From: 2010.06.25/outbox.cif.g09.slc.cpg/sg2_11_cif.got.tgz:21820.got - 2010.06.27 13:26:56.
