data_PCOD8029948
_publ_section_title
;
Structure prediction by ZEFSAII (Michael W. Deem and Ramdas Pophale) SiO2 
 PCOD8029948
Probable space group: P -1
;
_chemical_formula_sum "Si O2"
_cell_formula_units_Z 16
_cell_length_a 16.137227
_cell_length_b 9.036637
_cell_length_c 10.931587
_cell_angle_alpha 137.126979
_cell_angle_beta 72.711772
_cell_angle_gamma 133.979653
_cell_volume 703.707583
_symmetry_space_group_name_H-M "P -1"
_symmetry_group_IT_number 2
_symmetry_cell_setting 'triclinic'
loop_
_space_group_symop_operation_xyz
x,y,z
-x,-y,-z
loop_
_atom_site_type_symbol
_atom_site_label
_atom_site_fract_x
_atom_site_fract_y
_atom_site_fract_z
Si Si1 0.667657 0.084831 0.942874
Si Si2 0.603295 0.443042 0.175061
Si Si3 0.918465 0.937104 0.884581
Si Si4 0.366972 0.719466 0.458719
Si Si5 0.639046 0.815025 0.173119
Si Si6 0.841260 0.243299 0.161869
Si Si7 0.320350 0.329166 0.446204
Si Si8 0.071070 0.160241 0.439082
O O1 0.549887 0.836168 0.939091
O O2 0.677707 0.926281 0.733757
O O3 0.660819 0.315757 0.030948
O O4 0.791578 0.290544 0.096960
O O5 0.668595 0.745061 0.244965
O O6 0.623094 0.528233 0.360076
O O7 0.766317 0.584335 0.739016
O O8 0.991310 0.004379 0.766346
O O9 0.933608 0.226422 0.060714
O O10 0.000000 0.000000 0.000000
O O11 0.403350 0.595375 0.463744
O O12 0.500000 0.000000 0.500000
O O13 0.338486 0.887824 0.644619
O O14 0.734588 0.913010 0.084682
O O15 0.500000 0.500000 0.000000
O O16 0.904621 0.537046 0.400275
O O17 0.185391 0.198650 0.417309
O O18 0.000000 0.000000 0.500000
#
# Coordination Sequence:
#
# PCOD8029948 Si02
#       8
#     2   2   2   2   2   2   2   2
#     4  11  21  41  66 100 140 189 228 301 360 442
#     4  11  24  38  64 105 147 183 240 289 363 451
#     4  11  26  50  74 110 149 195 252 312 375 453
#     4  11  22  44  76 107 149 195 243 304 379 450
#     4  12  23  41  69 107 147 196 239 297 383 445
#     4  12  22  48  74  95 149 193 243 312 374 443
#     4  11  22  45  67 101 144 183 243 305 372 433
#     4  11  25  48  75 101 139 197 254 312 376 440
#
# _framework density 22.736716999999999
#
# number of rings (size 3 to 8) (size 9 to 14) (size 15 to 20)
#    0.000    0.750    7.500    1.875    1.750    2.000 
#    4.500    0.000    0.000    0.000    0.000    0.000 
#    0.000    0.000    0.000    0.000    0.000    0.000 
#
# Total GULP energy -198225.044438 kJ/mol
# GULP energy per Si atom -12389.065277 kJ/mol
# Density = 2.268497 g / cm^3
# Si number density = 22.736717 Si / 1000 Ang^3
#
#
#
# Elastic Constant Matrix: (Units=GPa)
#
#
# Indices 1 2 3 4 5 6 
#
# 1 101.2983 19.2292 65.4326 -14.8930 -4.9006 -12.9636
# 2 19.2292 112.5276 35.0763 -21.7311 8.7886 -7.6190
# 3 65.4326 35.0763 148.1830 -26.3366 -25.4891 -3.3161
# 4 -14.8930 -21.7311 -26.3366 26.3635 1.8886 1.9909
# 5 -4.9006 8.7886 -25.4891 1.8886 42.7511 -9.8425
# 6 -12.9636 -7.6190 -3.3161 1.9909 -9.8425 26.2599
#
#
#
# Elastic Compliance Matrix: (Units=1/GPa)
#
#
# Indices 1 2 3 4 5 6 
#
# 1 0.014940 0.000269 -0.006305 0.001946 -0.000754 0.006227
# 2 0.000269 0.011302 -0.002025 0.007605 -0.003548 0.001250
# 3 -0.006305 -0.002025 0.012346 0.006629 0.006734 -0.000120
# 4 0.001946 0.007605 0.006629 0.051880 0.000368 0.000209
# 5 -0.000754 -0.003548 0.006734 0.000368 0.030534 0.010865
# 6 0.006227 0.001250 -0.000120 0.000209 0.010865 0.045559
#
#
# Mechanical properties :
#
#
# Convention : Reuss Voigt Hill
#
# Bulk Modulus (GPa) = 44.51177 66.83166 55.67172
# Shear Modulus (GPa) = 26.29206 35.22630 30.75918
#
# Velocity S-wave (km/s) = 3.40423 3.94040 3.68209
# Velocity P-wave (km/s) = 5.92210 7.08236 6.52806
#
# Compressibility (1/GPa) = 0.02246597
#
# Stress axis : x y z
#
# Youngs Moduli (GPa) = 66.93402 88.47694 81.00089
#
# Poissons Ratio (x) = -0.02378 0.51072
# Poissons Ratio (y) = -0.01799 0.16400
# Poissons Ratio (z) = 0.42203 0.17914
#
# Static dielectric constant tensor:
#      x y z
#    x 4.216830 -0.076490 -0.261220 
#    y -0.076490 4.158080 0.085820 
#    z -0.261220 0.085820 4.360990 
# 
# 
# High freq. dielectric constant tensor:
#      x y z
#    x 1.892870 -0.005390 -0.019210 
#    y -0.005390 1.885770 -0.014850 
#    z -0.019210 -0.014850 1.911310 
# 
# From -- ./inp_files/448338.got.cif
#   From: 2010.06.25/outbox.cif.g09.slc.cpg/sg2_225_cif.got.tgz:448338.got - 2010.06.27 13:26:56.
