data_PCOD8029961
_publ_section_title
;
Structure prediction by ZEFSAII (Michael W. Deem and Ramdas Pophale) SiO2 
 PCOD8029961
Probable space group: P -1
;
_chemical_formula_sum "Si O2"
_cell_formula_units_Z 16
_cell_length_a 11.227177
_cell_length_b 12.482861
_cell_length_c 11.639658
_cell_angle_alpha 47.149649
_cell_angle_beta 64.906628
_cell_angle_gamma 101.811218
_cell_volume 725.239789
_symmetry_space_group_name_H-M "P -1"
_symmetry_group_IT_number 2
_symmetry_cell_setting 'triclinic'
loop_
_space_group_symop_operation_xyz
x,y,z
-x,-y,-z
loop_
_atom_site_type_symbol
_atom_site_label
_atom_site_fract_x
_atom_site_fract_y
_atom_site_fract_z
Si Si1 0.826217 0.516280 0.341094
Si Si2 0.240368 0.459742 0.287553
Si Si3 0.383526 0.266463 0.398809
Si Si4 0.934198 0.162195 0.809652
Si Si5 0.109154 0.771061 0.824369
Si Si6 0.223041 0.554534 0.971599
Si Si7 0.416138 0.290122 0.631039
Si Si8 0.697394 0.232451 0.796576
O O1 0.598988 0.329795 0.530835
O O2 0.836366 0.385963 0.518279
O O3 0.904246 0.717658 0.240944
O O4 0.962663 0.619689 0.099965
O O5 0.361448 0.410387 0.248837
O O6 0.347567 0.658152 0.189439
O O7 0.032967 0.235929 0.590083
O O8 0.211265 0.521838 0.136264
O O9 0.602110 0.394145 0.191745
O O10 0.341473 0.248618 0.563355
O O11 0.227126 0.019819 0.595338
O O12 0.818667 0.219924 0.833668
O O13 0.769486 0.903138 0.073569
O O14 0.256439 0.753513 0.780997
O O15 0.983083 0.670291 0.832919
O O16 0.500000 0.500000 0.500000
O O17 0.500000 0.000000 0.000000
#
# Coordination Sequence:
#
# PCOD8029961 Si02
#       8
#     2   2   2   2   2   2   2   2
#     4  11  21  41  66  97 135 173 226 281 336 404
#     4  11  26  45  71 102 143 185 226 284 348 412
#     4  12  26  46  69 104 140 179 231 289 345 407
#     4  11  23  42  68  98 142 178 227 281 339 413
#     4  11  24  45  75 101 131 186 234 282 345 402
#     4  11  25  49  70  99 140 181 237 283 337 415
#     4  12  25  39  68 103 138 179 222 281 349 405
#     4  11  22  42  67 103 137 183 226 278 348 405
#
# _framework density 22.061669999999999
#
# number of rings (size 3 to 8) (size 9 to 14) (size 15 to 20)
#    0.000    0.750    3.750    5.250    1.750    1.500 
#    6.750    0.000    0.000    0.000    0.000    0.000 
#    0.000    0.000    0.000    0.000    0.000    0.000 
#
# Total GULP energy -198335.655254 kJ/mol
# GULP energy per Si atom -12395.978453 kJ/mol
# Density = 2.201146 g / cm^3
# Si number density = 22.061670 Si / 1000 Ang^3
#
#
#
# Elastic Constant Matrix: (Units=GPa)
#
#
# Indices 1 2 3 4 5 6 
#
# 1 92.9992 44.2071 28.0647 -10.2490 4.8650 2.1795
# 2 44.2071 104.4731 33.2108 -16.6172 7.8902 -3.6688
# 3 28.0647 33.2108 99.5788 -14.3571 -3.2630 0.2545
# 4 -10.2490 -16.6172 -14.3571 44.3508 -2.0203 -1.9426
# 5 4.8650 7.8902 -3.2630 -2.0203 28.9165 1.6255
# 6 2.1795 -3.6688 0.2545 -1.9426 1.6255 37.7672
#
#
#
# Elastic Compliance Matrix: (Units=1/GPa)
#
#
# Indices 1 2 3 4 5 6 
#
# 1 0.013981 -0.005095 -0.002201 0.000506 -0.001107 -0.001213
# 2 -0.005095 0.013338 -0.002698 0.002893 -0.002990 0.001885
# 3 -0.002201 -0.002698 0.012007 0.002479 0.002646 -0.000202
# 4 0.000506 0.002893 0.002479 0.024662 0.001046 0.001459
# 5 -0.001107 -0.002990 0.002646 0.001046 0.036054 -0.001742
# 6 -0.001213 0.001885 -0.000202 0.001459 -0.001742 0.026883
#
#
# Mechanical properties :
#
#
# Convention : Reuss Voigt Hill
#
# Bulk Modulus (GPa) = 51.71362 56.44628 54.07995
# Shear Modulus (GPa) = 32.60325 34.97813 33.79069
#
# Velocity S-wave (km/s) = 3.84842 3.98612 3.91787
# Velocity P-wave (km/s) = 6.57560 6.84301 6.71063
#
# Compressibility (1/GPa) = 0.01933727
#
# Stress axis : x y z
#
# Youngs Moduli (GPa) = 71.52587 74.97646 83.28327
#
# Poissons Ratio (x) = 0.38198 0.18334
# Poissons Ratio (y) = 0.36440 0.22471
# Poissons Ratio (z) = 0.15746 0.20229
#
# Static dielectric constant tensor:
#      x y z
#    x 4.722320 0.044680 -0.336020 
#    y 0.044680 3.871520 -0.083760 
#    z -0.336020 -0.083760 4.177430 
# 
# 
# High freq. dielectric constant tensor:
#      x y z
#    x 1.879160 0.002740 -0.000870 
#    y 0.002740 1.862970 -0.005000 
#    z -0.000870 -0.005000 1.868580 
# 
# From -- ./inp_files/427549.got.cif
#   From: 2010.06.25/outbox.cif.g09.slc.cpg/sg2_214_cif.got.tgz:427549.got - 2010.06.27 13:26:56.
