data_PCOD8029057
_publ_section_title
;
Structure prediction by ZEFSAII (Michael W. Deem and Ramdas Pophale) SiO2 
 PCOD8029057
Probable space group: P -1
;
_chemical_formula_sum "Si O2"
_cell_formula_units_Z 16
_cell_length_a 11.489407
_cell_length_b 16.175076
_cell_length_c 9.822570
_cell_angle_alpha 80.003991
_cell_angle_beta 52.732858
_cell_angle_gamma 124.435015
_cell_volume 740.538119
_symmetry_space_group_name_H-M "P -1"
_symmetry_group_IT_number 2
_symmetry_cell_setting 'triclinic'
loop_
_space_group_symop_operation_xyz
x,y,z
-x,-y,-z
loop_
_atom_site_type_symbol
_atom_site_label
_atom_site_fract_x
_atom_site_fract_y
_atom_site_fract_z
Si Si1 0.764412 0.680201 0.315523
Si Si2 0.696159 0.130237 0.495063
Si Si3 0.981232 0.918766 0.879330
Si Si4 0.055046 0.517826 0.111634
Si Si5 0.505582 0.592543 0.800193
Si Si6 0.780516 0.221812 0.114541
Si Si7 0.180812 0.275108 0.195657
Si Si8 0.434855 0.164455 0.694664
O O1 0.500000 0.500000 0.500000
O O2 0.840992 0.791403 0.127773
O O3 0.689087 0.690942 0.505919
O O4 0.020907 0.740708 0.126883
O O5 0.857501 0.254179 0.214038
O O6 0.477049 0.087813 0.728137
O O7 0.926089 0.216088 0.420015
O O8 0.541126 0.968819 0.605296
O O9 0.790702 0.909310 0.018490
O O10 0.946478 0.858901 0.774900
O O11 0.303449 0.099563 0.649516
O O12 0.739702 0.358039 0.443896
O O13 0.249247 0.533642 0.007748
O O14 0.203164 0.679230 0.997923
O O15 0.000000 0.500000 0.000000
O O16 0.709322 0.714222 0.748515
O O17 0.420214 0.451938 0.907926
#
# Coordination Sequence:
#
# PCOD8029057 Si02
#       8
#     2   2   2   2   2   2   2   2
#     4  12  20  37  60  96 122 160 216 267 308 358
#     4  11  19  41  62  93 122 177 203 262 315 388
#     4  11  22  38  65  95 126 165 210 270 314 374
#     4  12  22  38  61  96 127 161 211 269 309 367
#     4  11  25  40  64  94 132 169 211 259 318 385
#     4  11  22  35  65  94 126 160 221 261 317 363
#     4  11  22  44  63  89 132 178 206 248 330 391
#     4  11  22  36  64  97 125 157 217 268 314 360
#
# _framework density 21.605909
#
# number of rings (size 3 to 8) (size 9 to 14) (size 15 to 20)
#    0.000    0.750    6.250    3.000    0.000    0.000 
#    0.000    3.125    0.000    0.000    0.000    0.000 
#    0.000    0.000    0.000    0.000    0.000    0.000 
#
# Total GULP energy -198231.351523 kJ/mol
# GULP energy per Si atom -12389.459470 kJ/mol
# Density = 2.155673 g / cm^3
# Si number density = 21.605909 Si / 1000 Ang^3
#
#
#
# Elastic Constant Matrix: (Units=GPa)
#
#
# Indices 1 2 3 4 5 6 
#
# 1 123.4955 53.2617 39.6365 3.5738 -28.4001 9.0423
# 2 53.2617 99.0518 27.4806 -2.2278 -5.1604 -1.8103
# 3 39.6365 27.4806 58.7393 -1.0476 -8.8943 1.1052
# 4 3.5738 -2.2278 -1.0476 28.8723 -10.5789 0.4400
# 5 -28.4001 -5.1604 -8.8943 -10.5789 34.4526 -1.1839
# 6 9.0423 -1.8103 1.1052 0.4400 -1.1839 38.4939
#
#
#
# Elastic Compliance Matrix: (Units=1/GPa)
#
#
# Indices 1 2 3 4 5 6 
#
# 1 0.015138 -0.006042 -0.005730 0.001307 0.010380 -0.003371
# 2 -0.006042 0.014059 -0.003056 0.000421 -0.003464 0.002057
# 3 -0.005730 -0.003056 0.022519 0.001714 0.001178 0.000572
# 4 0.001307 0.000421 0.001714 0.039605 0.013731 -0.000367
# 5 0.010380 -0.003464 0.001178 0.013731 0.041532 -0.001515
# 6 -0.003371 0.002057 0.000572 -0.000367 -0.001515 0.026808
#
#
# Mechanical properties :
#
#
# Convention : Reuss Voigt Hill
#
# Bulk Modulus (GPa) = 45.33019 58.00492 51.66755
# Shear Modulus (GPa) = 25.42325 31.09095 28.25710
#
# Velocity S-wave (km/s) = 3.43400 3.79753 3.62033
# Velocity P-wave (km/s) = 6.06211 6.79216 6.43749
#
# Compressibility (1/GPa) = 0.02206035
#
# Stress axis : x y z
#
# Youngs Moduli (GPa) = 66.05679 71.12858 44.40710
#
# Poissons Ratio (x) = 0.42975 0.25446
# Poissons Ratio (y) = 0.39911 0.13571
# Poissons Ratio (z) = 0.37851 0.21737
#
# Static dielectric constant tensor:
#      x y z
#    x 4.486450 -0.807380 -0.043250 
#    y -0.807380 4.780020 -0.251410 
#    z -0.043250 -0.251410 3.534140 
# 
# 
# High freq. dielectric constant tensor:
#      x y z
#    x 1.836130 -0.029230 -0.034840 
#    y -0.029230 1.844390 -0.029200 
#    z -0.034840 -0.029200 1.832910 
# 
# From -- ./inp_files/277784.got.cif
#   From: 2010.06.25/outbox.cif.g09.slc.cpg/sg2_139_cif.got.tgz:277784.got - 2010.06.27 13:26:56.
