data_PCOD8029389
_publ_section_title
;
Structure prediction by ZEFSAII (Michael W. Deem and Ramdas Pophale) SiO2 
 PCOD8029389
Probable space group: P -1
;
_chemical_formula_sum "Si O2"
_cell_formula_units_Z 12
_cell_length_a 13.158268
_cell_length_b 15.514545
_cell_length_c 18.742042
_cell_angle_alpha 160.407488
_cell_angle_beta 26.721018
_cell_angle_gamma 151.793290
_cell_volume 556.478824
_symmetry_space_group_name_H-M "P -1"
_symmetry_group_IT_number 2
_symmetry_cell_setting 'triclinic'
loop_
_space_group_symop_operation_xyz
x,y,z
-x,-y,-z
loop_
_atom_site_type_symbol
_atom_site_label
_atom_site_fract_x
_atom_site_fract_y
_atom_site_fract_z
Si Si1 0.907054 0.046700 0.018538
Si Si2 0.126160 0.385718 0.498088
Si Si3 0.747351 0.731641 0.523216
Si Si4 0.249208 0.838099 0.552747
Si Si5 0.582136 0.577741 0.789436
Si Si6 0.886332 0.341607 0.878165
O O1 0.834424 0.316680 0.266755
O O2 0.667112 0.827085 0.982739
O O3 0.000000 0.000000 0.000000
O O4 0.103066 0.032820 0.826498
O O5 0.133418 0.218137 0.434208
O O6 0.336487 0.357506 0.292764
O O7 0.877748 0.303712 0.549207
O O8 0.500000 0.500000 0.500000
O O9 0.913451 0.632854 0.286469
O O10 0.738672 0.031651 0.741314
O O11 0.283845 0.637746 0.436486
O O12 0.500000 0.000000 0.500000
O O13 0.300504 0.499618 0.908535
O O14 0.000000 0.500000 0.000000
#
# Coordination Sequence:
#
# PCOD8029389 Si02
#       6
#     2   2   2   2   2   2
#     4  11  20  41  64  91 129 172 212 257 325 388
#     4  11  23  42  68  93 129 174 216 265 325 392
#     4  11  26  48  69 100 131 175 229 272 335 396
#     4  11  25  38  60 101 134 166 213 263 326 390
#     4  11  23  42  65  95 131 170 216 270 322 389
#     4  11  27  46  70  99 133 174 224 282 330 391
#
# _framework density 21.564162
#
# number of rings (size 3 to 8) (size 9 to 14) (size 15 to 20)
#    0.000    1.000    3.333    3.000    4.667    7.333 
#    0.000    0.000    0.000    0.000    0.000    0.000 
#    0.000    0.000    0.000    0.000    0.000    0.000 
#
# Total GULP energy -148769.064439 kJ/mol
# GULP energy per Si atom -12397.422037 kJ/mol
# Density = 2.151508 g / cm^3
# Si number density = 21.564162 Si / 1000 Ang^3
#
#
#
# Elastic Constant Matrix: (Units=GPa)
#
#
# Indices 1 2 3 4 5 6 
#
# 1 133.4140 38.6578 31.0738 -17.0932 11.0688 2.5915
# 2 38.6578 121.1266 28.2332 -12.7807 9.6874 16.0642
# 3 31.0738 28.2332 86.7346 -7.5088 11.6657 12.3759
# 4 -17.0932 -12.7807 -7.5088 32.3683 2.9154 -4.1034
# 5 11.0688 9.6874 11.6657 2.9154 37.8505 -1.9308
# 6 2.5915 16.0642 12.3759 -4.1034 -1.9308 39.4151
#
#
#
# Elastic Compliance Matrix: (Units=1/GPa)
#
#
# Indices 1 2 3 4 5 6 
#
# 1 0.009224 -0.002040 -0.002255 0.003855 -0.001713 0.001250
# 2 -0.002040 0.010118 -0.001644 0.002280 -0.001831 -0.003326
# 3 -0.002255 -0.001644 0.013968 0.001259 -0.003506 -0.003608
# 4 0.003855 0.002280 0.001259 0.034774 -0.004685 0.001813
# 5 -0.001713 -0.001831 -0.003506 -0.004685 0.028978 0.002892
# 6 0.001250 -0.003326 -0.003608 0.001813 0.002892 0.028107
#
#
# Mechanical properties :
#
#
# Convention : Reuss Voigt Hill
#
# Bulk Modulus (GPa) = 46.66118 59.68943 53.17531
# Shear Modulus (GPa) = 34.67604 38.14749 36.41177
#
# Velocity S-wave (km/s) = 4.01439 4.21054 4.11363
# Velocity P-wave (km/s) = 6.57057 7.16786 6.87570
#
# Compressibility (1/GPa) = 0.02143109
#
# Stress axis : x y z
#
# Youngs Moduli (GPa) = 108.41834 98.83007 71.59356
#
# Poissons Ratio (x) = 0.20164 0.16141
# Poissons Ratio (y) = 0.22120 0.11773
# Poissons Ratio (z) = 0.24444 0.16252
#
# Static dielectric constant tensor:
#      x y z
#    x 4.521770 -0.037500 -0.344170 
#    y -0.037500 3.826400 0.139720 
#    z -0.344170 0.139720 4.458040 
# 
# 
# High freq. dielectric constant tensor:
#      x y z
#    x 1.862570 0.007890 0.005290 
#    y 0.007890 1.839270 -0.003290 
#    z 0.005290 -0.003290 1.856100 
# 
# From -- ./inp_files/26623.got.cif
#   From: 2010.06.25/outbox.cif.g09.slc.cpg/sg2_14_cif.got.tgz:26623.got - 2010.06.27 13:26:56.
