data_PCOD8029829
_publ_section_title
;
Structure prediction by ZEFSAII (Michael W. Deem and Ramdas Pophale) SiO2 
 PCOD8029829
Probable space group: P -1
;
_chemical_formula_sum "Si O2"
_cell_formula_units_Z 16
_cell_length_a 22.632267
_cell_length_b 27.843408
_cell_length_c 6.768562
_cell_angle_alpha 101.160303
_cell_angle_beta 75.402356
_cell_angle_gamma 168.866137
_cell_volume 763.385809
_symmetry_space_group_name_H-M "P -1"
_symmetry_group_IT_number 2
_symmetry_cell_setting 'triclinic'
loop_
_space_group_symop_operation_xyz
x,y,z
-x,-y,-z
loop_
_atom_site_type_symbol
_atom_site_label
_atom_site_fract_x
_atom_site_fract_y
_atom_site_fract_z
Si Si1 0.844070 0.173723 0.469035
Si Si2 0.859959 0.021702 0.095031
Si Si3 0.238186 0.227371 0.056794
Si Si4 0.859658 0.273086 0.837989
Si Si5 0.817323 0.401931 0.485412
Si Si6 0.170040 0.334412 0.350728
Si Si7 0.652644 0.572539 0.332392
Si Si8 0.837913 0.509126 0.834233
O O1 0.858211 0.221722 0.677617
O O2 0.151000 0.378188 0.380029
O O3 0.871128 0.228283 0.291374
O O4 0.527652 0.890924 0.525129
O O5 0.037074 0.118573 0.142343
O O6 0.047936 0.178692 0.859510
O O7 0.856920 0.064729 0.287834
O O8 0.492948 0.720844 0.102259
O O9 0.532675 0.459128 0.840318
O O10 0.374320 0.325785 0.241897
O O11 0.000000 0.000000 0.000000
O O12 0.993975 0.425112 0.721413
O O13 0.099630 0.453023 0.960971
O O14 0.500000 0.000000 0.000000
O O15 0.796655 0.425014 0.694510
O O16 0.000000 0.500000 0.500000
O O17 0.197526 0.345880 0.568477
O O18 0.500000 0.500000 0.500000
#
# Coordination Sequence:
#
# PCOD8029829 Si02
#       8
#     2   2   2   2   2   2   2   2
#     4  11  25  43  68  98 134 172 222 275 329 396
#     4  11  22  40  65  91 131 172 222 274 326 386
#     4  11  23  39  61  92 131 172 219 273 325 382
#     4  11  26  46  69 104 136 168 221 275 330 407
#     4  11  24  45  72  97 132 178 211 269 340 398
#     4  11  22  42  64  93 129 174 225 270 326 391
#     4  11  21  40  65  88 124 181 222 268 328 391
#     4  11  25  44  68  99 135 174 220 278 331 393
#
# _framework density 20.959258999999999
#
# number of rings (size 3 to 8) (size 9 to 14) (size 15 to 20)
#    0.000    1.000    3.750    3.000    1.750    8.500 
#    2.250    0.000    0.000    0.000    0.000    0.000 
#    0.000    0.000    0.000    0.000    0.000    0.000 
#
# Total GULP energy -198342.591942 kJ/mol
# GULP energy per Si atom -12396.411996 kJ/mol
# Density = 2.091155 g / cm^3
# Si number density = 20.959259 Si / 1000 Ang^3
#
#
#
# Elastic Constant Matrix: (Units=GPa)
#
#
# Indices 1 2 3 4 5 6 
#
# 1 129.6802 45.3120 58.5818 1.6071 1.7551 -3.9452
# 2 45.3120 115.3000 50.5525 8.1746 4.3199 -9.7518
# 3 58.5818 50.5525 139.2722 15.8435 12.4579 -6.2258
# 4 1.6071 8.1746 15.8435 23.8417 5.2485 -2.2937
# 5 1.7551 4.3199 12.4579 5.2485 36.8176 0.9709
# 6 -3.9452 -9.7518 -6.2258 -2.2937 0.9709 41.8117
#
#
#
# Elastic Compliance Matrix: (Units=1/GPa)
#
#
# Indices 1 2 3 4 5 6 
#
# 1 0.010262 -0.002613 -0.003722 0.002511 0.000721 -0.000074
# 2 -0.002613 0.011149 -0.002665 -0.001675 -0.000092 0.001867
# 3 -0.003722 -0.002665 0.010540 -0.005291 -0.002331 0.000360
# 4 0.002511 -0.001675 -0.005291 0.047111 -0.004895 0.001756
# 5 0.000721 -0.000092 -0.002331 -0.004895 0.028657 -0.001235
# 6 -0.000074 0.001867 0.000360 0.001756 -0.001235 0.024524
#
#
# Mechanical properties :
#
#
# Convention : Reuss Voigt Hill
#
# Bulk Modulus (GPa) = 71.67964 77.01610 74.34787
# Shear Modulus (GPa) = 32.28051 35.81460 34.04755
#
# Velocity S-wave (km/s) = 3.92874 4.13821 4.03484
# Velocity P-wave (km/s) = 7.40633 7.72389 7.56678
#
# Compressibility (1/GPa) = 0.01395096
#
# Stress axis : x y z
#
# Youngs Moduli (GPa) = 97.44414 89.69794 94.87878
#
# Poissons Ratio (x) = 0.23434 0.35312
# Poissons Ratio (y) = 0.25458 0.25290
# Poissons Ratio (z) = 0.36267 0.23909
#
# Static dielectric constant tensor:
#      x y z
#    x 3.450930 -0.070120 0.029530 
#    y -0.070120 3.732920 0.062600 
#    z 0.029530 0.062600 3.963750 
# 
# 
# High freq. dielectric constant tensor:
#      x y z
#    x 1.830800 0.006330 -0.006300 
#    y 0.006330 1.827210 0.005800 
#    z -0.006300 0.005800 1.826070 
# 
# From -- ./inp_files/125356.got.cif
#   From: 2010.06.25/outbox.cif.g09.slc.cpg/sg2_63_cif.got.tgz:125356.got - 2010.06.27 13:26:56.
