data_PCOD8029536
_publ_section_title
;
Structure prediction by ZEFSAII (Michael W. Deem and Ramdas Pophale) SiO2 
 PCOD8029536
Probable space group: P -1
;
_chemical_formula_sum "Si O2"
_cell_formula_units_Z 16
_cell_length_a 18.541525
_cell_length_b 18.433682
_cell_length_c 8.870512
_cell_angle_alpha 51.024914
_cell_angle_beta 49.484511
_cell_angle_gamma 20.484548
_cell_volume 804.232762
_symmetry_space_group_name_H-M "P -1"
_symmetry_group_IT_number 2
_symmetry_cell_setting 'triclinic'
loop_
_space_group_symop_operation_xyz
x,y,z
-x,-y,-z
loop_
_atom_site_type_symbol
_atom_site_label
_atom_site_fract_x
_atom_site_fract_y
_atom_site_fract_z
Si Si1 0.976699 0.519150 0.187633
Si Si2 0.322512 0.717924 0.028081
Si Si3 0.867858 0.801923 0.447397
Si Si4 0.416143 0.464449 0.815236
Si Si5 0.213537 0.826656 0.531200
Si Si6 0.926359 0.944704 0.310966
Si Si7 0.161160 0.508795 0.163071
Si Si8 0.579117 0.843475 0.500288
O O1 0.735342 0.735064 0.293032
O O2 0.086891 0.329837 0.346733
O O3 0.095218 0.503621 0.118181
O O4 0.000000 0.500000 0.000000
O O5 0.433812 0.678814 0.057983
O O6 0.149944 0.798381 0.220038
O O7 0.500000 0.500000 0.000000
O O8 0.216065 0.887202 0.845906
O O9 0.965176 0.802363 0.408704
O O10 0.960199 0.716729 0.263854
O O11 0.616894 0.035825 0.469530
O O12 0.258153 0.692475 0.740910
O O13 0.573042 0.335897 0.631310
O O14 0.272835 0.499307 0.949235
O O15 0.189361 0.937100 0.528166
O O16 0.000000 0.000000 0.500000
O O17 0.313210 0.321473 0.315116
O O18 0.500000 0.000000 0.500000
#
# Coordination Sequence:
#
# PCOD8029536 Si02
#       8
#     2   2   2   2   2   2   2   2
#     4  11  25  44  63  98 137 162 208 272 322 377
#     4  11  21  40  62  91 125 157 212 266 306 367
#     4  11  23  42  67  96 126 169 214 264 317 380
#     4  11  24  41  66  90 128 174 207 260 327 372
#     4  11  24  44  59  89 135 171 207 260 317 384
#     4  11  24  38  65  94 124 164 213 262 314 377
#     4  11  23  42  68  96 125 165 220 262 317 379
#     4  11  20  44  71  89 126 172 211 264 318 379
#
# _framework density 19.894736000000002
#
# number of rings (size 3 to 8) (size 9 to 14) (size 15 to 20)
#    0.000    1.000    5.000    2.250    1.750    4.500 
#    2.250    0.000    0.000    0.000    0.000    0.000 
#    0.000    0.000    0.000    0.000    0.000    0.000 
#
# Total GULP energy -198397.624265 kJ/mol
# GULP energy per Si atom -12399.851517 kJ/mol
# Density = 1.984946 g / cm^3
# Si number density = 19.894736 Si / 1000 Ang^3
#
#
#
# Elastic Constant Matrix: (Units=GPa)
#
#
# Indices 1 2 3 4 5 6 
#
# 1 153.8545 40.2031 60.1309 3.4456 -2.6631 6.5176
# 2 40.2031 105.7382 38.5548 9.4974 0.3158 -3.2885
# 3 60.1309 38.5548 97.9872 15.2871 -3.8583 0.2377
# 4 3.4456 9.4974 15.2871 18.8862 5.4055 2.3520
# 5 -2.6631 0.3158 -3.8583 5.4055 35.4560 3.1966
# 6 6.5176 -3.2885 0.2377 2.3520 3.1966 40.7788
#
#
#
# Elastic Compliance Matrix: (Units=1/GPa)
#
#
# Indices 1 2 3 4 5 6 
#
# 1 0.009118 -0.001881 -0.005498 0.004056 -0.000354 -0.001783
# 2 -0.001881 0.011568 -0.002902 -0.003251 -0.000196 0.001453
# 3 -0.005498 -0.002902 0.016735 -0.012122 0.003192 0.000996
# 4 0.004056 -0.003251 -0.012122 0.067253 -0.010890 -0.003865
# 5 -0.000354 -0.000196 0.003192 -0.010890 0.030343 -0.001728
# 6 -0.001783 0.001453 0.000996 -0.003865 -0.001728 0.025277
#
#
# Mechanical properties :
#
#
# Convention : Reuss Voigt Hill
#
# Bulk Modulus (GPa) = 59.30800 70.59526 64.95163
# Shear Modulus (GPa) = 26.81301 33.60360 30.20831
#
# Velocity S-wave (km/s) = 3.67515 4.11429 3.90090
# Velocity P-wave (km/s) = 6.91987 7.62439 7.28065
#
# Compressibility (1/GPa) = 0.01686113
#
# Stress axis : x y z
#
# Youngs Moduli (GPa) = 109.66718 86.44375 59.75375
#
# Poissons Ratio (x) = 0.16260 0.32852
# Poissons Ratio (y) = 0.20628 0.17338
# Poissons Ratio (z) = 0.60295 0.25082
#
# Static dielectric constant tensor:
#      x y z
#    x 3.680080 0.048210 -0.064330 
#    y 0.048210 3.955030 0.115900 
#    z -0.064330 0.115900 3.446480 
# 
# 
# High freq. dielectric constant tensor:
#      x y z
#    x 1.783570 -0.000690 -0.001910 
#    y -0.000690 1.794450 0.004440 
#    z -0.001910 0.004440 1.766800 
# 
# From -- ./inp_files/39280.got.cif
#   From: 2010.06.25/outbox.cif.g09.slc.cpg/sg2_20_cif.got.tgz:39280.got - 2010.06.27 13:26:56.
