data_PCOD8029364
_publ_section_title
;
Structure prediction by ZEFSAII (Michael W. Deem and Ramdas Pophale) SiO2 
 PCOD8029364
Probable space group: P -1
;
_chemical_formula_sum "Si O2"
_cell_formula_units_Z 16
_cell_length_a 9.603978
_cell_length_b 11.308154
_cell_length_c 23.082587
_cell_angle_alpha 41.191385
_cell_angle_beta 151.109237
_cell_angle_gamma 127.313493
_cell_volume 786.632084
_symmetry_space_group_name_H-M "P -1"
_symmetry_group_IT_number 2
_symmetry_cell_setting 'triclinic'
loop_
_space_group_symop_operation_xyz
x,y,z
-x,-y,-z
loop_
_atom_site_type_symbol
_atom_site_label
_atom_site_fract_x
_atom_site_fract_y
_atom_site_fract_z
Si Si1 0.456507 0.786365 0.662069
Si Si2 0.906684 0.886400 0.345217
Si Si3 0.037385 0.726447 0.820437
Si Si4 0.020369 0.687382 0.341104
Si Si5 0.534131 0.831304 0.427868
Si Si6 0.050120 0.472257 0.247925
Si Si7 0.445884 0.315215 0.636269
Si Si8 0.585806 0.551115 0.150452
O O1 0.489043 0.623761 0.779307
O O2 0.728312 0.772841 0.722669
O O3 0.173581 0.792071 0.516961
O O4 0.425740 0.961805 0.627352
O O5 0.605979 0.845788 0.279744
O O6 0.914859 0.792687 0.321227
O O7 0.901536 0.100758 0.258236
O O8 0.050623 0.554417 0.844922
O O9 0.284225 0.675677 0.977203
O O10 0.198913 0.813729 0.322330
O O11 0.215353 0.495660 0.499111
O O12 0.740653 0.667262 0.208804
O O13 0.733437 0.713710 0.591187
O O14 0.630797 0.750023 0.430914
O O15 0.224019 0.643885 0.252579
O O16 0.778279 0.499410 0.182305
#
# Coordination Sequence:
#
# PCOD8029364 Si02
#       8
#     2   2   2   2   2   2   2   2
#     4  12  24  44  67  97 126 168 220 265 311 375
#     4  12  24  41  68  99 125 166 218 270 312 370
#     4  12  27  44  62  96 136 171 207 261 324 380
#     4  11  21  41  65  94 130 167 212 265 316 373
#     4  11  20  40  70  96 128 160 219 273 311 362
#     4  11  22  43  67  94 129 170 211 266 316 379
#     4  11  22  39  68 101 123 162 218 268 319 366
#     4  12  26  44  66  92 133 176 209 253 327 390
#
# _framework density 20.339874999999999
#
# number of rings (size 3 to 8) (size 9 to 14) (size 15 to 20)
#    0.000    0.500    6.250    3.750    3.500    1.500 
#    0.000    0.625    0.000    0.000    0.000    0.000 
#    0.000    0.000    0.000    0.000    0.000    0.000 
#
# Total GULP energy -198463.895227 kJ/mol
# GULP energy per Si atom -12403.993452 kJ/mol
# Density = 2.029358 g / cm^3
# Si number density = 20.339875 Si / 1000 Ang^3
#
#
#
# Elastic Constant Matrix: (Units=GPa)
#
#
# Indices 1 2 3 4 5 6 
#
# 1 73.9450 35.6428 14.5813 -0.0779 -7.5747 14.0395
# 2 35.6428 93.5156 22.4805 6.6353 1.0980 -3.0896
# 3 14.5813 22.4805 65.5404 0.5096 -8.4744 10.9677
# 4 -0.0779 6.6353 0.5096 23.1060 -4.3417 -10.4499
# 5 -7.5747 1.0980 -8.4744 -4.3417 17.8711 -2.2403
# 6 14.0395 -3.0896 10.9677 -10.4499 -2.2403 34.2162
#
#
#
# Elastic Compliance Matrix: (Units=1/GPa)
#
#
# Indices 1 2 3 4 5 6 
#
# 1 0.019727 -0.008116 0.000890 0.000052 0.008222 -0.008558
# 2 -0.008116 0.015538 -0.005232 -0.003507 -0.007117 0.004873
# 3 0.000890 -0.005232 0.019081 -0.000142 0.008908 -0.006414
# 4 0.000052 -0.003507 -0.000142 0.055219 0.015793 0.017606
# 5 0.008222 -0.007117 0.008908 0.015793 0.068243 0.002420
# 6 -0.008558 0.004873 -0.006414 0.017606 0.002420 0.040769
#
#
# Mechanical properties :
#
#
# Convention : Reuss Voigt Hill
#
# Bulk Modulus (GPa) = 33.98008 42.04557 38.01282
# Shear Modulus (GPa) = 19.73918 25.72509 22.73213
#
# Velocity S-wave (km/s) = 3.11861 3.56021 3.34670
# Velocity P-wave (km/s) = 5.45069 6.13323 5.80201
#
# Compressibility (1/GPa) = 0.02942901
#
# Stress axis : x y z
#
# Youngs Moduli (GPa) = 50.69139 64.35879 52.40883
#
# Poissons Ratio (x) = 0.52232 -0.04663
# Poissons Ratio (y) = 0.41140 0.27422
# Poissons Ratio (z) = -0.04510 0.33675
#
# Static dielectric constant tensor:
#      x y z
#    x 3.455650 0.167880 0.013120 
#    y 0.167880 3.963300 0.166460 
#    z 0.013120 0.166460 3.424310 
# 
# 
# High freq. dielectric constant tensor:
#      x y z
#    x 1.809000 0.002760 -0.006680 
#    y 0.002760 1.812950 0.015750 
#    z -0.006680 0.015750 1.765500 
# 
# From -- ./inp_files/184298.got.cif
#   From: 2010.06.25/outbox.cif.g09.slc.cpg/sg2_93_cif.got.tgz:184298.got - 2010.06.27 13:26:56.
