data_PCOD8029804
_publ_section_title
;
Structure prediction by ZEFSAII (Michael W. Deem and Ramdas Pophale) SiO2 
 PCOD8029804
Probable space group: P -1
;
_chemical_formula_sum "Si O2"
_cell_formula_units_Z 16
_cell_length_a 7.560195
_cell_length_b 9.680919
_cell_length_c 13.026928
_cell_angle_alpha 68.222078
_cell_angle_beta 60.560663
_cell_angle_gamma 100.514420
_cell_volume 688.143934
_symmetry_space_group_name_H-M "P -1"
_symmetry_group_IT_number 2
_symmetry_cell_setting 'triclinic'
loop_
_space_group_symop_operation_xyz
x,y,z
-x,-y,-z
loop_
_atom_site_type_symbol
_atom_site_label
_atom_site_fract_x
_atom_site_fract_y
_atom_site_fract_z
Si Si1 0.223431 0.102823 0.526281
Si Si2 0.944870 0.550578 0.204927
Si Si3 0.698912 0.197973 0.100624
Si Si4 0.601597 0.634312 0.847235
Si Si5 0.527104 0.534259 0.678309
Si Si6 0.944714 0.213178 0.225847
Si Si7 0.802882 0.420025 0.498286
Si Si8 0.248240 0.931592 0.363877
O O1 0.420207 0.288832 0.441699
O O2 0.989271 0.116559 0.613491
O O3 0.257294 0.066131 0.408604
O O4 0.250193 0.962073 0.626013
O O5 0.741614 0.561124 0.196617
O O6 0.882530 0.541593 0.344336
O O7 0.964659 0.384616 0.216760
O O8 0.174596 0.720077 0.065373
O O9 0.593158 0.314174 0.144259
O O10 0.893213 0.201531 0.122408
O O11 0.477532 0.016353 0.203005
O O12 0.660678 0.566677 0.741864
O O13 0.820736 0.784452 0.798506
O O14 0.500000 0.500000 0.000000
O O15 0.584534 0.420703 0.615412
O O16 0.753981 0.231509 0.538212
O O17 0.000000 0.500000 0.500000
#
# Coordination Sequence:
#
# PCOD8029804 Si02
#       8
#     2   2   2   2   2   2   2   2
#     4  11  21  39  71 104 135 173 235 291 340 400
#     4  12  25  44  67 101 143 186 227 286 348 417
#     4  12  25  42  69 106 144 176 232 286 354 413
#     4  12  22  39  70 103 138 179 224 288 343 404
#     4  12  25  45  70 102 139 184 239 280 344 419
#     4  12  22  38  69 107 139 174 227 288 348 395
#     4  12  26  46  71  99 134 188 239 280 343 420
#     4  11  22  43  69 104 137 178 229 293 344 404
#
# _framework density 23.25095
#
# number of rings (size 3 to 8) (size 9 to 14) (size 15 to 20)
#    0.000    0.250    7.500    3.000    1.750    1.000 
#    0.000    1.250    2.750    0.000    0.000    0.000 
#    0.000    0.000    0.000    0.000    0.000    0.000 
#
# Total GULP energy -198234.528141 kJ/mol
# GULP energy per Si atom -12389.658009 kJ/mol
# Density = 2.319803 g / cm^3
# Si number density = 23.250950 Si / 1000 Ang^3
#
#
#
# Elastic Constant Matrix: (Units=GPa)
#
#
# Indices 1 2 3 4 5 6 
#
# 1 76.2470 4.4820 35.8578 -0.0964 -6.5487 -0.8145
# 2 4.4820 58.7951 29.8647 -1.1318 -5.7060 -7.0750
# 3 35.8578 29.8647 161.9329 -16.0851 -4.1143 -1.6853
# 4 -0.0964 -1.1318 -16.0851 28.0186 1.2704 2.9784
# 5 -6.5487 -5.7060 -4.1143 1.2704 39.6956 -2.3187
# 6 -0.8145 -7.0750 -1.6853 2.9784 -2.3187 20.7299
#
#
#
# Elastic Compliance Matrix: (Units=1/GPa)
#
#
# Indices 1 2 3 4 5 6 
#
# 1 0.014992 0.001057 -0.003665 -0.002250 0.002390 0.001242
# 2 0.001057 0.020107 -0.004026 -0.002412 0.003149 0.007275
# 3 -0.003665 -0.004026 0.008166 0.004709 -0.000581 -0.001596
# 4 -0.002250 -0.002412 0.004709 0.039047 -0.001850 -0.006346
# 5 0.002390 0.003149 -0.000581 -0.001850 0.026291 0.004328
# 6 0.001242 0.007275 -0.001596 -0.006346 0.004328 0.052037
#
#
# Mechanical properties :
#
#
# Convention : Reuss Voigt Hill
#
# Bulk Modulus (GPa) = 33.33631 48.59824 40.96728
# Shear Modulus (GPa) = 27.18758 32.80686 29.99722
#
# Velocity S-wave (km/s) = 3.42323 3.76039 3.59576
# Velocity P-wave (km/s) = 5.47662 6.30881 5.90739
#
# Compressibility (1/GPa) = 0.02999732
#
# Stress axis : x y z
#
# Youngs Moduli (GPa) = 66.70127 49.73285 122.46301
#
# Poissons Ratio (x) = -0.05255 0.44877
# Poissons Ratio (y) = -0.07048 0.49305
# Poissons Ratio (z) = 0.24443 0.20023
#
# Static dielectric constant tensor:
#      x y z
#    x 4.683190 -0.604960 -0.245440 
#    y -0.604960 5.529500 -0.014580 
#    z -0.245440 -0.014580 4.454870 
# 
# 
# High freq. dielectric constant tensor:
#      x y z
#    x 1.925980 -0.015090 -0.007300 
#    y -0.015090 1.878590 -0.025320 
#    z -0.007300 -0.025320 1.926850 
# 
# From -- ./inp_files/492444.got.cif
#   From: 2010.06.25/outbox.cif.g09.slc.cpg/sg2_247_cif.got.tgz:492444.got - 2010.06.27 13:26:56.
