data_PCOD8029678
_publ_section_title
;
Structure prediction by ZEFSAII (Michael W. Deem and Ramdas Pophale) SiO2 
 PCOD8029678
Probable space group: P -1
;
_chemical_formula_sum "Si O2"
_cell_formula_units_Z 14
_cell_length_a 25.214032
_cell_length_b 14.047169
_cell_length_c 25.748940
_cell_angle_alpha 23.010341
_cell_angle_beta 168.846867
_cell_angle_gamma 158.835817
_cell_volume 634.930668
_symmetry_space_group_name_H-M "P -1"
_symmetry_group_IT_number 2
_symmetry_cell_setting 'triclinic'
loop_
_space_group_symop_operation_xyz
x,y,z
-x,-y,-z
loop_
_atom_site_type_symbol
_atom_site_label
_atom_site_fract_x
_atom_site_fract_y
_atom_site_fract_z
Si Si1 0.277919 0.344554 0.992589
Si Si2 0.757932 0.943738 0.447779
Si Si3 0.983484 0.254352 0.951084
Si Si4 0.417293 0.715492 0.534860
Si Si5 0.141208 0.402849 0.518329
Si Si6 0.906727 0.395937 0.021091
Si Si7 0.244807 0.569963 0.742702
O O1 0.143029 0.388194 0.786492
O O2 0.055089 0.427016 0.772679
O O3 0.630322 0.515335 0.253963
O O4 0.243959 0.048169 0.115097
O O5 0.446443 0.703911 0.257310
O O6 0.668127 0.127488 0.308871
O O7 0.914216 0.102782 0.464940
O O8 0.984007 0.840048 0.745201
O O9 0.314361 0.276600 0.247782
O O10 0.947479 0.376226 0.910539
O O11 0.869211 0.375135 0.732507
O O12 0.354583 0.471217 0.638276
O O13 0.500000 0.000000 0.500000
O O14 0.000000 0.500000 0.000000
O O15 0.000000 0.500000 0.500000
O O16 0.500000 0.500000 0.000000
#
# Coordination Sequence:
#
# PCOD8029678 Si02
#       7
#     2   2   2   2   2   2   2
#     4  11  21  38  62 101 136 171 212 283 346 405
#     4  11  25  47  65  96 135 181 231 277 341 406
#     4  12  25  41  69 101 139 176 240 268 336 419
#     4  12  22  42  69 108 140 172 217 287 358 407
#     4  11  22  41  70  98 139 171 209 286 354 399
#     4  12  28  50  69  92 138 195 233 280 323 405
#     4  11  23  38  65  98 129 167 228 288 347 394
#
# _framework density 22.049654
#
# number of rings (size 3 to 8) (size 9 to 14) (size 15 to 20)
#    0.000    0.571    2.857    6.857    4.000    0.000 
#    0.000    4.286    0.000    0.000    0.000    0.000 
#    0.000    0.000    0.000    0.000    0.000    0.000 
#
# Total GULP energy -173478.501848 kJ/mol
# GULP energy per Si atom -12391.321561 kJ/mol
# Density = 2.199947 g / cm^3
# Si number density = 22.049654 Si / 1000 Ang^3
#
#
#
# Elastic Constant Matrix: (Units=GPa)
#
#
# Indices 1 2 3 4 5 6 
#
# 1 120.8727 45.9388 33.1381 -4.4322 -12.8245 4.7914
# 2 45.9388 80.7116 23.7647 0.9896 -4.2341 29.8439
# 3 33.1381 23.7647 125.0325 2.5584 -7.4198 3.9605
# 4 -4.4322 0.9896 2.5584 40.7573 -2.2185 2.7588
# 5 -12.8245 -4.2341 -7.4198 -2.2185 42.4762 -6.1075
# 6 4.7914 29.8439 3.9605 2.7588 -6.1075 29.7245
#
#
#
# Elastic Compliance Matrix: (Units=1/GPa)
#
#
# Indices 1 2 3 4 5 6 
#
# 1 0.012461 -0.009592 -0.001548 0.001319 0.003825 0.008492
# 2 -0.009592 0.028530 -0.002266 0.000041 -0.004430 -0.027710
# 3 -0.001548 -0.002266 0.008865 -0.000723 0.001051 0.001627
# 4 0.001319 0.000041 -0.000723 0.024942 0.001260 -0.002213
# 5 0.003825 -0.004430 0.001051 0.001260 0.025781 0.008872
# 6 0.008492 -0.027710 0.001627 -0.002213 0.008872 0.061906
#
#
# Mechanical properties :
#
#
# Convention : Reuss Voigt Hill
#
# Bulk Modulus (GPa) = 43.39903 59.14446 51.27174
# Shear Modulus (GPa) = 25.38354 37.50995 31.44674
#
# Velocity S-wave (km/s) = 3.39661 4.12898 3.78057
# Velocity P-wave (km/s) = 5.92518 7.04364 6.50848
#
# Compressibility (1/GPa) = 0.02304199
#
# Stress axis : x y z
#
# Youngs Moduli (GPa) = 80.25218 35.05124 112.80674
#
# Poissons Ratio (x) = 0.33620 0.17467
# Poissons Ratio (y) = 0.76976 0.25567
# Poissons Ratio (z) = 0.12426 0.07944
#
# Static dielectric constant tensor:
#      x y z
#    x 3.764390 0.053220 -0.305440 
#    y 0.053220 3.570480 -1.026760 
#    z -0.305440 -1.026760 0.591820 
# 
# 
# High freq. dielectric constant tensor:
#      x y z
#    x 1.867310 0.016590 -0.002540 
#    y 0.016590 1.846210 0.003540 
#    z -0.002540 0.003540 1.895720 
# 
# From -- ./inp_files/454702.got.cif
#   From: 2010.06.25/outbox.cif.g09.slc.cpg/sg2_228_cif.got.tgz:454702.got - 2010.06.27 13:26:56.
