data_PCOD8029770
_publ_section_title
;
Structure prediction by ZEFSAII (Michael W. Deem and Ramdas Pophale) SiO2 
 PCOD8029770
Probable space group: P -1
;
_chemical_formula_sum "Si O2"
_cell_formula_units_Z 16
_cell_length_a 14.975637
_cell_length_b 15.886663
_cell_length_c 11.438504
_cell_angle_alpha 117.353597
_cell_angle_beta 147.493842
_cell_angle_gamma 38.585046
_cell_volume 732.419975
_symmetry_space_group_name_H-M "P -1"
_symmetry_group_IT_number 2
_symmetry_cell_setting 'triclinic'
loop_
_space_group_symop_operation_xyz
x,y,z
-x,-y,-z
loop_
_atom_site_type_symbol
_atom_site_label
_atom_site_fract_x
_atom_site_fract_y
_atom_site_fract_z
Si Si1 0.129778 0.837021 0.274826
Si Si2 0.927405 0.099745 0.091374
Si Si3 0.786566 0.742913 0.158254
Si Si4 0.318115 0.088434 0.473444
Si Si5 0.419398 0.486332 0.781503
Si Si6 0.229742 0.427769 0.112636
Si Si7 0.296095 0.054206 0.972564
Si Si8 0.194524 0.626777 0.050918
O O1 0.459939 0.718396 0.574626
O O2 0.116811 0.766166 0.109982
O O3 0.931578 0.024189 0.155198
O O4 0.016176 0.847159 0.278416
O O5 0.195235 0.047764 0.363084
O O6 0.607457 0.300450 0.862016
O O7 0.000000 0.000000 0.000000
O O8 0.480131 0.907636 0.989287
O O9 0.068651 0.632923 0.481530
O O10 0.786291 0.632885 0.055613
O O11 0.783571 0.804708 0.074418
O O12 0.521909 0.034987 0.763585
O O13 0.038429 0.285303 0.254608
O O14 0.500000 0.000000 0.500000
O O15 0.500000 0.500000 0.000000
O O16 0.495742 0.513719 0.767455
O O17 0.173953 0.560225 0.088704
O O18 0.000000 0.500000 0.000000
#
# Coordination Sequence:
#
# PCOD8029770 Si02
#       8
#     2   2   2   2   2   2   2   2
#     4  12  23  43  67  96 136 181 234 286 346 409
#     4  11  22  39  66 100 133 176 227 285 334 407
#     4  11  25  45  69  98 141 181 234 283 347 423
#     4  11  21  39  66  99 133 171 230 279 340 401
#     4  11  24  46  71 101 142 184 225 285 357 419
#     4  12  27  41  67 100 137 180 232 292 350 414
#     4  11  24  45  69  99 136 189 229 285 351 417
#     4  11  23  42  66  97 138 180 229 287 349 410
#
# _framework density 21.845389000000001
#
# number of rings (size 3 to 8) (size 9 to 14) (size 15 to 20)
#    0.000    0.750    3.750    4.875    1.750    3.500 
#    0.000    1.875    0.000    0.000    0.000    0.000 
#    0.000    0.000    0.000    0.000    0.000    0.000 
#
# Total GULP energy -198323.233939 kJ/mol
# GULP energy per Si atom -12395.202121 kJ/mol
# Density = 2.179567 g / cm^3
# Si number density = 21.845389 Si / 1000 Ang^3
#
#
#
# Elastic Constant Matrix: (Units=GPa)
#
#
# Indices 1 2 3 4 5 6 
#
# 1 122.9316 29.6337 16.9152 -2.5281 11.3406 6.5126
# 2 29.6337 93.2304 19.0724 -4.2007 -1.4556 6.0971
# 3 16.9152 19.0724 102.1199 -5.6487 -2.0459 -0.8896
# 4 -2.5281 -4.2007 -5.6487 26.6558 -1.8985 -2.8872
# 5 11.3406 -1.4556 -2.0459 -1.8985 41.8170 -4.7997
# 6 6.5126 6.0971 -0.8896 -2.8872 -4.7997 34.0344
#
#
#
# Elastic Compliance Matrix: (Units=1/GPa)
#
#
# Indices 1 2 3 4 5 6 
#
# 1 0.009285 -0.002659 -0.001123 -0.000171 -0.002874 -0.001749
# 2 -0.002659 0.012093 -0.001746 0.001192 0.000942 -0.001469
# 3 -0.001123 -0.001746 0.010446 0.002021 0.000974 0.001110
# 4 -0.000171 0.001192 0.002021 0.038659 0.002341 0.003482
# 5 -0.002874 0.000942 0.000974 0.002341 0.025360 0.004182
# 6 -0.001749 -0.001469 0.001110 0.003482 0.004182 0.030894
#
#
# Mechanical properties :
#
#
# Convention : Reuss Voigt Hill
#
# Bulk Modulus (GPa) = 48.15732 49.94715 49.05224
# Shear Modulus (GPa) = 34.55041 37.34549 35.94795
#
# Velocity S-wave (km/s) = 3.98123 4.13914 4.06095
# Velocity P-wave (km/s) = 6.57466 6.76438 6.67019
#
# Compressibility (1/GPa) = 0.02076528
#
# Stress axis : x y z
#
# Youngs Moduli (GPa) = 107.70544 82.69171 95.73411
#
# Poissons Ratio (x) = 0.21992 0.10755
# Poissons Ratio (y) = 0.28644 0.16716
# Poissons Ratio (z) = 0.12100 0.14438
#
# Static dielectric constant tensor:
#      x y z
#    x 4.276210 0.227920 -0.083670 
#    y 0.227920 4.211390 -0.158710 
#    z -0.083670 -0.158710 4.178460 
# 
# 
# High freq. dielectric constant tensor:
#      x y z
#    x 1.872980 0.003160 0.004430 
#    y 0.003160 1.846520 -0.010500 
#    z 0.004430 -0.010500 1.864610 
# 
# From -- ./inp_files/455859.got.cif
#   From: 2010.06.25/outbox.cif.g09.slc.cpg/sg2_228_cif.got.tgz:455859.got - 2010.06.27 13:26:56.
