data_PCOD8029475
_publ_section_title
;
Structure prediction by ZEFSAII (Michael W. Deem and Ramdas Pophale) SiO2 
 PCOD8029475
Probable space group: P -1
;
_chemical_formula_sum "Si O2"
_cell_formula_units_Z 14
_cell_length_a 19.257766
_cell_length_b 5.456742
_cell_length_c 19.933432
_cell_angle_alpha 65.906720
_cell_angle_beta 20.884214
_cell_angle_gamma 56.817878
_cell_volume 586.437460
_symmetry_space_group_name_H-M "P -1"
_symmetry_group_IT_number 2
_symmetry_cell_setting 'triclinic'
loop_
_space_group_symop_operation_xyz
x,y,z
-x,-y,-z
loop_
_atom_site_type_symbol
_atom_site_label
_atom_site_fract_x
_atom_site_fract_y
_atom_site_fract_z
Si Si1 0.878402 0.570926 0.895374
Si Si2 0.671630 0.685438 0.417733
Si Si3 0.384054 0.812984 0.155068
Si Si4 0.088602 0.719690 0.871161
Si Si5 0.966208 0.817726 0.466658
Si Si6 0.832641 0.236704 0.843414
Si Si7 0.686470 0.339422 0.187797
O O1 0.851543 0.434517 0.865166
O O2 0.114285 0.305130 0.746502
O O3 0.872288 0.896329 0.860702
O O4 0.682337 0.626809 0.120416
O O5 0.755998 0.402117 0.321030
O O6 0.561607 0.616715 0.589859
O O7 0.500000 0.000000 0.500000
O O8 0.170204 0.876069 0.296218
O O9 0.280385 0.918080 0.312439
O O10 0.576365 0.448030 0.022787
O O11 0.500000 0.000000 0.000000
O O12 0.236741 0.734391 0.795834
O O13 0.000000 0.500000 0.000000
O O14 0.865558 0.042338 0.015972
O O15 0.000000 0.500000 0.500000
O O16 0.976228 0.805868 0.378115
#
# Coordination Sequence:
#
# PCOD8029475 Si02
#       7
#     2   2   2   2   2   2   2
#     4  12  29  49  69 110 158 201 248 309 382 460
#     4  12  24  46  76 104 137 198 261 317 371 435
#     4  11  24  48  79 114 150 196 247 310 373 442
#     4  11  20  42  72 101 132 172 256 319 362 443
#     4  11  25  46  83 118 144 193 265 303 358 462
#     4  12  28  51  74 109 164 197 241 312 381 445
#     4  11  24  44  68 100 140 191 238 310 383 437
#
# _framework density 23.872962000000001
#
# number of rings (size 3 to 8) (size 9 to 14) (size 15 to 20)
#    0.000    0.571    4.286    3.429    4.000    2.286 
#    0.000    2.857    0.000    0.000    0.000    0.000 
#    0.000    0.000    0.000    0.000    0.000    0.000 
#
# Total GULP energy -173526.977512 kJ/mol
# GULP energy per Si atom -12394.784108 kJ/mol
# Density = 2.381863 g / cm^3
# Si number density = 23.872962 Si / 1000 Ang^3
#
#
#
# Elastic Constant Matrix: (Units=GPa)
#
#
# Indices 1 2 3 4 5 6 
#
# 1 81.9775 22.7797 41.7360 -5.3802 18.2895 5.2559
# 2 22.7797 120.8465 53.8515 -17.7157 11.8568 2.9307
# 3 41.7360 53.8515 172.0159 -16.2722 34.7543 -2.0794
# 4 -5.3802 -17.7157 -16.2722 49.9921 1.8487 5.3728
# 5 18.2895 11.8568 34.7543 1.8487 45.7260 -1.5599
# 6 5.2559 2.9307 -2.0794 5.3728 -1.5599 35.5790
#
#
#
# Elastic Compliance Matrix: (Units=1/GPa)
#
#
# Indices 1 2 3 4 5 6 
#
# 1 0.014834 -0.001162 -0.002394 0.000823 -0.003932 -0.002532
# 2 -0.001162 0.010108 -0.002562 0.002770 -0.000363 -0.001245
# 3 -0.002394 -0.002562 0.008319 0.001654 -0.004748 0.000593
# 4 0.000823 0.002770 0.001654 0.022137 -0.003328 -0.003742
# 5 -0.003932 -0.000363 -0.004748 -0.003328 0.027349 0.002035
# 6 -0.002532 -0.001245 0.000593 -0.003742 0.002035 0.029272
#
#
# Mechanical properties :
#
#
# Convention : Reuss Voigt Hill
#
# Bulk Modulus (GPa) = 47.56058 67.95267 57.75662
# Shear Modulus (GPa) = 38.09185 43.35759 40.72472
#
# Velocity S-wave (km/s) = 3.99884 4.26629 4.13473
# Velocity P-wave (km/s) = 6.42546 7.26597 6.85861
#
# Compressibility (1/GPa) = 0.02102582
#
# Stress axis : x y z
#
# Youngs Moduli (GPa) = 67.41456 98.93601 120.20413
#
# Poissons Ratio (x) = 0.11492 0.28773
# Poissons Ratio (y) = 0.07831 0.30796
# Poissons Ratio (z) = 0.16137 0.25348
#
# Static dielectric constant tensor:
#      x y z
#    x 3.665480 -0.133420 0.795590 
#    y -0.133420 4.424640 0.154890 
#    z 0.795590 0.154890 4.648490 
# 
# 
# High freq. dielectric constant tensor:
#      x y z
#    x 1.933910 0.006710 0.015730 
#    y 0.006710 1.950070 -0.013470 
#    z 0.015730 -0.013470 1.965700 
# 
# From -- ./inp_files/600742.got.cif
#   From: 2010.06.25/outbox.cif.g09.slc.cpg/sg2_301_cif.got.tgz:600742.got - 2010.06.27 13:26:56.
