data_PCOD8029309
_publ_section_title
;
Structure prediction by ZEFSAII (Michael W. Deem and Ramdas Pophale) SiO2 
 PCOD8029309
Probable space group: P -1
;
_chemical_formula_sum "Si O2"
_cell_formula_units_Z 14
_cell_length_a 11.168993
_cell_length_b 8.396661
_cell_length_c 14.110935
_cell_angle_alpha 71.734026
_cell_angle_beta 54.363891
_cell_angle_gamma 114.993832
_cell_volume 633.910721
_symmetry_space_group_name_H-M "P -1"
_symmetry_group_IT_number 2
_symmetry_cell_setting 'triclinic'
loop_
_space_group_symop_operation_xyz
x,y,z
-x,-y,-z
loop_
_atom_site_type_symbol
_atom_site_label
_atom_site_fract_x
_atom_site_fract_y
_atom_site_fract_z
Si Si1 0.431485 0.245867 0.591296
Si Si2 0.182294 0.271089 0.422788
Si Si3 0.279072 0.754790 0.438194
Si Si4 0.504563 0.742406 0.646402
Si Si5 0.166377 0.797526 0.291747
Si Si6 0.921883 0.824594 0.976838
Si Si7 0.566564 0.678882 0.024902
O O1 0.500000 0.500000 0.500000
O O2 0.574389 0.284227 0.602722
O O3 0.505364 0.216613 0.466624
O O4 0.155957 0.967937 0.790471
O O5 0.348266 0.298988 0.404497
O O6 0.341705 0.509643 0.227099
O O7 0.035979 0.265581 0.556231
O O8 0.000000 0.000000 0.500000
O O9 0.309432 0.821846 0.300249
O O10 0.998144 0.474569 0.644663
O O11 0.370677 0.995831 0.406842
O O12 0.239461 0.475807 0.858765
O O13 0.356920 0.070127 0.093503
O O14 0.782758 0.802338 0.964601
O O15 0.000000 0.000000 0.000000
O O16 0.500000 0.500000 0.000000
#
# Coordination Sequence:
#
# PCOD8029309 Si02
#       7
#     2   2   2   2   2   2   2
#     4  12  24  44  71  93 127 180 226 270 342 398
#     4  11  20  39  72  97 129 173 223 272 328 396
#     4  11  25  43  65  97 141 175 218 280 334 398
#     4  11  23  43  65 101 133 172 223 270 333 396
#     4  11  23  44  64  97 140 174 216 278 333 391
#     4  11  24  41  68 103 131 170 229 283 320 399
#     4  11  22  39  69 102 128 169 228 274 328 395
#
# _framework density 22.085129999999999
#
# number of rings (size 3 to 8) (size 9 to 14) (size 15 to 20)
#    0.000    0.857    4.286    3.857    2.000    0.571 
#    0.000    5.714    0.000    0.000    0.000    0.000 
#    0.000    0.000    0.000    0.000    0.000    0.000 
#
# Total GULP energy -173574.440598 kJ/mol
# GULP energy per Si atom -12398.174328 kJ/mol
# Density = 2.203486 g / cm^3
# Si number density = 22.085130 Si / 1000 Ang^3
#
#
#
# Elastic Constant Matrix: (Units=GPa)
#
#
# Indices 1 2 3 4 5 6 
#
# 1 145.2298 30.8104 55.0930 -9.4732 8.2118 14.6383
# 2 30.8104 107.5557 39.8859 -33.3142 8.7676 13.7919
# 3 55.0930 39.8859 167.2178 -22.0427 17.8068 3.8701
# 4 -9.4732 -33.3142 -22.0427 38.9242 -4.8343 -3.1369
# 5 8.2118 8.7676 17.8068 -4.8343 30.3755 -4.9573
# 6 14.6383 13.7919 3.8701 -3.1369 -4.9573 35.2624
#
#
#
# Elastic Compliance Matrix: (Units=1/GPa)
#
#
# Indices 1 2 3 4 5 6 
#
# 1 0.008364 -0.001297 -0.002365 -0.000787 -0.001104 -0.002931
# 2 -0.001297 0.014058 -0.001241 0.010428 -0.002001 -0.004177
# 3 -0.002365 -0.001241 0.007684 0.002365 -0.003065 0.000403
# 4 -0.000787 0.010428 0.002365 0.035892 0.001427 -0.000618
# 5 -0.001104 -0.002001 -0.003065 0.001427 0.036947 0.006899
# 6 -0.002931 -0.004177 0.000403 -0.000618 0.006899 0.032080
#
#
# Mechanical properties :
#
#
# Convention : Reuss Voigt Hill
#
# Bulk Modulus (GPa) = 49.26009 74.62022 61.94016
# Shear Modulus (GPa) = 32.98177 40.52669 36.75423
#
# Velocity S-wave (km/s) = 3.86864 4.28836 4.08390
# Velocity P-wave (km/s) = 6.50447 7.64074 7.09539
#
# Compressibility (1/GPa) = 0.02030041
#
# Stress axis : x y z
#
# Youngs Moduli (GPa) = 119.55483 71.13245 130.13563
#
# Poissons Ratio (x) = 0.09226 0.30774
# Poissons Ratio (y) = 0.15507 0.16156
# Poissons Ratio (z) = 0.28272 0.08831
#
# Static dielectric constant tensor:
#      x y z
#    x 3.946390 0.547480 -0.101850 
#    y 0.547480 3.676270 -0.028290 
#    z -0.101850 -0.028290 4.051980 
# 
# 
# High freq. dielectric constant tensor:
#      x y z
#    x 1.875360 0.019310 0.007690 
#    y 0.019310 1.871720 -0.021000 
#    z 0.007690 -0.021000 1.877240 
# 
# From -- ./inp_files/390008.got.cif
#   From: 2010.06.25/outbox.cif.g09.slc.cpg/sg2_196_cif.got.tgz:390008.got - 2010.06.27 13:26:56.
