data_PCOD8029967
_publ_section_title
;
Structure prediction by ZEFSAII (Michael W. Deem and Ramdas Pophale) SiO2 
 PCOD8029967
Probable space group: P -1
;
_chemical_formula_sum "Si O2"
_cell_formula_units_Z 16
_cell_length_a 17.515858
_cell_length_b 11.209961
_cell_length_c 8.652689
_cell_angle_alpha 56.340854
_cell_angle_beta 84.145855
_cell_angle_gamma 39.568905
_cell_volume 711.410779
_symmetry_space_group_name_H-M "P -1"
_symmetry_group_IT_number 2
_symmetry_cell_setting 'triclinic'
loop_
_space_group_symop_operation_xyz
x,y,z
-x,-y,-z
loop_
_atom_site_type_symbol
_atom_site_label
_atom_site_fract_x
_atom_site_fract_y
_atom_site_fract_z
Si Si1 0.303011 0.314163 0.054144
Si Si2 0.158288 0.074035 0.871761
Si Si3 0.840338 0.208895 0.441400
Si Si4 0.165144 0.763936 0.208947
Si Si5 0.252054 0.225692 0.856110
Si Si6 0.143347 0.406541 0.256894
Si Si7 0.626147 0.835801 0.423533
Si Si8 0.092536 0.178310 0.457926
O O1 0.151362 0.511518 0.041201
O O2 0.445502 0.104509 0.292140
O O3 0.282774 0.491191 0.831999
O O4 0.338080 0.121117 0.074227
O O5 0.244362 0.068885 0.936670
O O6 0.167327 0.074561 0.685784
O O7 0.983473 0.349769 0.765604
O O8 0.232903 0.804870 0.102142
O O9 0.834162 0.229654 0.611095
O O10 0.818677 0.081301 0.476337
O O11 0.000000 0.000000 0.500000
O O12 0.280435 0.458466 0.344702
O O13 0.000000 0.000000 0.000000
O O14 0.348296 0.157315 0.761655
O O15 0.085507 0.568331 0.661363
O O16 0.307380 0.145941 0.494362
O O17 0.113565 0.294907 0.278832
#
# Coordination Sequence:
#
# PCOD8029967 Si02
#       8
#     2   2   2   2   2   2   2   2
#     4  12  27  41  66  97 135 171 210 268 318 392
#     4  11  22  40  69  95 126 168 218 271 316 377
#     4  12  24  41  63 101 131 163 216 271 321 372
#     4  12  24  40  68  97 127 169 218 267 316 382
#     4  11  21  41  67  93 125 177 213 260 322 377
#     4  11  23  42  67  96 128 172 218 262 321 380
#     4  12  23  46  66  92 133 176 217 252 324 393
#     4  11  22  41  69  95 131 162 219 274 318 371
#
# _framework density 22.490524000000001
#
# number of rings (size 3 to 8) (size 9 to 14) (size 15 to 20)
#    0.000    0.500    6.250    3.000    3.500    1.000 
#    0.000    2.500    0.000    0.000    0.000    0.000 
#    0.000    0.000    0.000    0.000    0.000    0.000 
#
# Total GULP energy -198370.102189 kJ/mol
# GULP energy per Si atom -12398.131387 kJ/mol
# Density = 2.243933 g / cm^3
# Si number density = 22.490524 Si / 1000 Ang^3
#
#
#
# Elastic Constant Matrix: (Units=GPa)
#
#
# Indices 1 2 3 4 5 6 
#
# 1 97.8119 20.3681 24.4357 -14.0883 -16.6438 12.4948
# 2 20.3681 54.5394 5.1055 0.0755 -10.6592 6.3998
# 3 24.4357 5.1055 78.0110 -5.4079 -15.3228 3.8389
# 4 -14.0883 0.0755 -5.4079 33.2846 -0.0462 1.1193
# 5 -16.6438 -10.6592 -15.3228 -0.0462 35.7730 4.5606
# 6 12.4948 6.3998 3.8389 1.1193 4.5606 38.8271
#
#
#
# Elastic Compliance Matrix: (Units=1/GPa)
#
#
# Indices 1 2 3 4 5 6 
#
# 1 0.013756 -0.003452 -0.002531 0.005572 0.004848 -0.004338
# 2 -0.003452 0.020954 0.000826 -0.001265 0.005375 -0.003020
# 3 -0.002531 0.000826 0.014830 0.001394 0.005612 -0.001487
# 4 0.005572 -0.001265 0.001394 0.032739 0.003243 -0.003047
# 5 0.004848 0.005375 0.005612 0.003243 0.035140 -0.007222
# 6 -0.004338 -0.003020 -0.001487 -0.003047 -0.007222 0.028732
#
#
# Mechanical properties :
#
#
# Convention : Reuss Voigt Hill
#
# Bulk Modulus (GPa) = 25.49278 36.68676 31.08977
# Shear Modulus (GPa) = 29.49185 33.60714 31.54950
#
# Velocity S-wave (km/s) = 3.62512 3.86979 3.74945
# Velocity P-wave (km/s) = 5.37415 6.02615 5.70946
#
# Compressibility (1/GPa) = 0.03922680
#
# Stress axis : x y z
#
# Youngs Moduli (GPa) = 72.69350 47.72451 67.43278
#
# Poissons Ratio (x) = 0.16473 0.17068
# Poissons Ratio (y) = 0.25092 -0.05573
# Poissons Ratio (z) = 0.18400 -0.03944
#
# Static dielectric constant tensor:
#      x y z
#    x 4.419720 0.256060 -0.358240 
#    y 0.256060 3.936860 0.099860 
#    z -0.358240 0.099860 4.137420 
# 
# 
# High freq. dielectric constant tensor:
#      x y z
#    x 1.898720 0.015180 -0.009070 
#    y 0.015180 1.875100 0.032110 
#    z -0.009070 0.032110 1.872370 
# 
# From -- ./inp_files/278018.got.cif
#   From: 2010.06.25/outbox.cif.g09.slc.cpg/sg2_140_cif.got.tgz:278018.got - 2010.06.27 13:26:56.
