data_PCOD8029776
_publ_section_title
;
Structure prediction by ZEFSAII (Michael W. Deem and Ramdas Pophale) SiO2 
 PCOD8029776
Probable space group: P -1
;
_chemical_formula_sum "Si O2"
_cell_formula_units_Z 16
_cell_length_a 14.948158
_cell_length_b 18.786574
_cell_length_c 7.615836
_cell_angle_alpha 79.992845
_cell_angle_beta 59.770930
_cell_angle_gamma 29.130541
_cell_volume 696.806781
_symmetry_space_group_name_H-M "P -1"
_symmetry_group_IT_number 2
_symmetry_cell_setting 'triclinic'
loop_
_space_group_symop_operation_xyz
x,y,z
-x,-y,-z
loop_
_atom_site_type_symbol
_atom_site_label
_atom_site_fract_x
_atom_site_fract_y
_atom_site_fract_z
Si Si1 0.929344 0.724716 0.994942
Si Si2 0.111167 0.858326 0.548694
Si Si3 0.563521 0.465980 0.150452
Si Si4 0.503224 0.362232 0.458133
Si Si5 0.755989 0.950051 0.781362
Si Si6 0.208759 0.329370 0.034017
Si Si7 0.377660 0.289983 0.552973
Si Si8 0.167828 0.112558 0.683535
O O1 0.843790 0.829497 0.870199
O O2 0.254521 0.516807 0.775234
O O3 0.809159 0.724118 0.068971
O O4 0.807329 0.827725 0.260577
O O5 0.403808 0.640487 0.291163
O O6 0.194068 0.829502 0.675464
O O7 0.892738 0.936215 0.713979
O O8 0.000000 0.000000 0.500000
O O9 0.443815 0.472005 0.357761
O O10 0.500000 0.500000 0.000000
O O11 0.880934 0.264732 0.959942
O O12 0.491515 0.295706 0.384341
O O13 0.816127 0.891240 0.541825
O O14 0.432185 0.169435 0.029917
O O15 0.312864 0.329201 0.811347
O O16 0.916281 0.532652 0.326943
O O17 0.604466 0.085389 0.369535
#
# Coordination Sequence:
#
# PCOD8029776 Si02
#       8
#     2   2   2   2   2   2   2   2
#     4  11  21  39  67  93 119 172 217 259 320 378
#     4  12  23  39  63  94 127 167 209 258 319 383
#     4  12  23  41  61  95 132 171 208 261 321 386
#     4  11  22  41  66  90 132 171 213 258 319 392
#     4  11  22  40  62  93 128 167 211 263 314 385
#     4   9  20  40  65  87 127 167 211 264 323 370
#     4   9  21  40  63  94 122 168 214 265 318 376
#     4  11  22  39  64  94 129 162 218 263 319 376
#
# _framework density 22.961888999999999
#
# number of rings (size 3 to 8) (size 9 to 14) (size 15 to 20)
#    0.000    1.250    3.750    3.000    0.000    2.500 
#    2.250    0.625    0.000    0.000    0.000    0.000 
#    0.000    0.000    0.000    0.000    0.000    0.000 
#
# Total GULP energy -198218.482388 kJ/mol
# GULP energy per Si atom -12388.655149 kJ/mol
# Density = 2.290963 g / cm^3
# Si number density = 22.961889 Si / 1000 Ang^3
#
#
#
# Elastic Constant Matrix: (Units=GPa)
#
#
# Indices 1 2 3 4 5 6 
#
# 1 71.5336 38.9030 31.2985 13.1292 -15.6552 -10.9557
# 2 38.9030 117.0661 26.3733 15.8498 -12.7863 5.8456
# 3 31.2985 26.3733 61.6980 24.0725 -15.7190 -2.0869
# 4 13.1292 15.8498 24.0725 47.1426 -7.7483 -8.4873
# 5 -15.6552 -12.7863 -15.7190 -7.7483 21.4273 8.3172
# 6 -10.9557 5.8456 -2.0869 -8.4873 8.3172 40.3386
#
#
#
# Elastic Compliance Matrix: (Units=1/GPa)
#
#
# Indices 1 2 3 4 5 6 
#
# 1 0.022220 -0.005489 -0.007971 0.001648 0.005524 0.005626
# 2 -0.005489 0.011357 -0.000500 -0.002277 0.003251 -0.004312
# 3 -0.007971 -0.000500 0.027591 -0.010648 0.012388 -0.005459
# 4 0.001648 -0.002277 -0.010648 0.028030 -0.000225 0.006171
# 5 0.005524 0.003251 0.012388 -0.000225 0.066330 -0.012054
# 6 0.005626 -0.004312 -0.005459 0.006171 -0.012054 0.030444
#
#
# Mechanical properties :
#
#
# Convention : Reuss Voigt Hill
#
# Bulk Modulus (GPa) = 30.07622 49.27190 39.67406
# Shear Modulus (GPa) = 22.22469 32.02990 27.12729
#
# Velocity S-wave (km/s) = 3.11448 3.73891 3.44089
# Velocity P-wave (km/s) = 5.10490 6.33593 5.75343
#
# Compressibility (1/GPa) = 0.03324886
#
# Stress axis : x y z
#
# Youngs Moduli (GPa) = 45.00387 88.04776 36.24375
#
# Poissons Ratio (x) = 0.48331 0.28890
# Poissons Ratio (y) = 0.24703 0.01811
# Poissons Ratio (z) = 0.35873 0.04399
#
# Static dielectric constant tensor:
#      x y z
#    x 4.162120 0.037080 -0.172150 
#    y 0.037080 4.385990 0.376800 
#    z -0.172150 0.376800 3.982980 
# 
# 
# High freq. dielectric constant tensor:
#      x y z
#    x 1.906310 0.002040 -0.026260 
#    y 0.002040 1.919550 0.027850 
#    z -0.026260 0.027850 1.886740 
# 
# From -- ./inp_files/318043.got.cif
#   From: 2010.06.25/outbox.cif.g09.slc.cpg/sg2_160_cif.got.tgz:318043.got - 2010.06.27 13:26:56.
