data_PCOD8029182
_publ_section_title
;
Structure prediction by ZEFSAII (Michael W. Deem and Ramdas Pophale) SiO2 
 PCOD8029182
Probable space group: P -1
;
_chemical_formula_sum "Si O2"
_cell_formula_units_Z 16
_cell_length_a 12.914103
_cell_length_b 20.937658
_cell_length_c 10.443169
_cell_angle_alpha 46.335997
_cell_angle_beta 63.450283
_cell_angle_gamma 26.980135
_cell_volume 795.587055
_symmetry_space_group_name_H-M "P -1"
_symmetry_group_IT_number 2
_symmetry_cell_setting 'triclinic'
loop_
_space_group_symop_operation_xyz
x,y,z
-x,-y,-z
loop_
_atom_site_type_symbol
_atom_site_label
_atom_site_fract_x
_atom_site_fract_y
_atom_site_fract_z
Si Si1 0.371652 0.736799 0.908168
Si Si2 0.725537 0.331339 0.287398
Si Si3 0.276057 0.723180 0.353488
Si Si4 0.367687 0.994939 0.968528
Si Si5 0.096444 0.054224 0.225850
Si Si6 0.450481 0.355358 0.328360
Si Si7 0.898129 0.661207 0.278047
Si Si8 0.734347 0.093741 0.017354
O O1 0.431268 0.750453 0.728519
O O2 0.374325 0.806731 0.921376
O O3 0.092552 0.875687 0.857406
O O4 0.616170 0.504048 0.125852
O O5 0.825730 0.225396 0.516627
O O6 0.480902 0.440146 0.217042
O O7 0.964021 0.166257 0.281386
O O8 0.500000 0.500000 0.500000
O O9 0.362055 0.767347 0.227713
O O10 0.052771 0.866044 0.169359
O O11 0.369630 0.931133 0.931668
O O12 0.231738 0.184475 0.755600
O O13 0.675057 0.796414 0.108294
O O14 0.186087 0.079900 0.065833
O O15 0.371571 0.813673 0.429099
O O16 0.145201 0.539758 0.244445
O O17 0.000000 0.500000 0.500000
#
# Coordination Sequence:
#
# PCOD8029182 Si02
#       8
#     2   2   2   2   2   2   2   2
#     4  11  21  37  57  94 127 159 192 237 300 372
#     4  11  21  35  59  93 126 159 194 240 301 359
#     4  11  22  35  55  90 129 165 193 228 295 372
#     4  11  24  41  64  88 118 158 201 254 296 349
#     4  11  20  37  60  92 125 155 197 245 299 357
#     4  11  21  36  63  87 122 158 202 252 294 346
#     4  11  24  43  63  89 111 152 212 256 299 342
#     4  11  23  39  57  85 129 160 197 239 295 363
#
# _framework density 20.110935999999999
#
# number of rings (size 3 to 8) (size 9 to 14) (size 15 to 20)
#    0.000    1.000    2.500    8.250    1.750    0.000 
#    0.000    0.625    0.000    0.750    0.000    0.000 
#    0.000    0.000    0.000    0.000    0.000    0.000 
#
# Total GULP energy -198348.057958 kJ/mol
# GULP energy per Si atom -12396.753622 kJ/mol
# Density = 2.006516 g / cm^3
# Si number density = 20.110936 Si / 1000 Ang^3
#
#
#
# Elastic Constant Matrix: (Units=GPa)
#
#
# Indices 1 2 3 4 5 6 
#
# 1 128.4237 48.8703 41.7049 -16.9442 -3.8397 15.5521
# 2 48.8703 89.4646 28.5714 -8.9567 10.1332 3.2595
# 3 41.7049 28.5714 101.0725 -13.4625 -6.5391 13.8633
# 4 -16.9442 -8.9567 -13.4625 34.2556 9.4906 4.6645
# 5 -3.8397 10.1332 -6.5391 9.4906 28.5719 -4.1816
# 6 15.5521 3.2595 13.8633 4.6645 -4.1816 43.3500
#
#
#
# Elastic Compliance Matrix: (Units=1/GPa)
#
#
# Indices 1 2 3 4 5 6 
#
# 1 0.011369 -0.005163 -0.002244 0.003496 0.001211 -0.003232
# 2 -0.005163 0.015958 -0.002585 0.002698 -0.007777 0.000438
# 3 -0.002244 -0.002585 0.012510 0.002995 0.002025 -0.003128
# 4 0.003496 0.002698 0.002995 0.037577 -0.013418 -0.007753
# 5 0.001211 -0.007777 0.002025 -0.013418 0.043595 0.005152
# 6 -0.003232 0.000438 -0.003128 -0.007753 0.005152 0.026526
#
#
# Mechanical properties :
#
#
# Convention : Reuss Voigt Hill
#
# Bulk Modulus (GPa) = 50.37008 61.91710 56.14359
# Shear Modulus (GPa) = 28.71293 34.55646 31.63469
#
# Velocity S-wave (km/s) = 3.78263 4.14973 3.97042
# Velocity P-wave (km/s) = 6.64667 7.33586 6.99975
#
# Compressibility (1/GPa) = 0.01985305
#
# Stress axis : x y z
#
# Youngs Moduli (GPa) = 87.95651 62.66281 79.93857
#
# Poissons Ratio (x) = 0.32354 0.17941
# Poissons Ratio (y) = 0.45413 0.20662
# Poissons Ratio (z) = 0.19740 0.16196
#
# Static dielectric constant tensor:
#      x y z
#    x 3.637880 0.060060 -0.069720 
#    y 0.060060 3.616140 -0.094560 
#    z -0.069720 -0.094560 3.905580 
# 
# 
# High freq. dielectric constant tensor:
#      x y z
#    x 1.764510 0.018790 -0.004910 
#    y 0.018790 1.775820 -0.016620 
#    z -0.004910 -0.016620 1.803430 
# 
# From -- ./inp_files/438032.got.cif
#   From: 2010.06.25/outbox.cif.g09.slc.cpg/sg2_220_cif.got.tgz:438032.got - 2010.06.27 13:26:56.
