data_PCOD8029247
_publ_section_title
;
Structure prediction by ZEFSAII (Michael W. Deem and Ramdas Pophale) SiO2 
 PCOD8029247
Probable space group: P -1
;
_chemical_formula_sum "Si O2"
_cell_formula_units_Z 14
_cell_length_a 11.090393
_cell_length_b 11.611461
_cell_length_c 12.443866
_cell_angle_alpha 135.314898
_cell_angle_beta 128.206954
_cell_angle_gamma 86.717523
_cell_volume 639.055198
_symmetry_space_group_name_H-M "P -1"
_symmetry_group_IT_number 2
_symmetry_cell_setting 'triclinic'
loop_
_space_group_symop_operation_xyz
x,y,z
-x,-y,-z
loop_
_atom_site_type_symbol
_atom_site_label
_atom_site_fract_x
_atom_site_fract_y
_atom_site_fract_z
Si Si1 0.541746 0.227978 0.988056
Si Si2 0.849476 0.167499 0.187497
Si Si3 0.834737 0.259271 0.473938
Si Si4 0.283374 0.693435 0.078468
Si Si5 0.292893 0.392878 0.512584
Si Si6 0.535114 0.317893 0.388298
Si Si7 0.545516 0.822788 0.516906
O O1 0.588087 0.312768 0.946236
O O2 0.305509 0.977822 0.696332
O O3 0.727599 0.236547 0.124503
O O4 0.550555 0.388493 0.178980
O O5 0.918696 0.242180 0.398397
O O6 0.058623 0.295345 0.316380
O O7 0.709201 0.901275 0.918825
O O8 0.680196 0.296670 0.385533
O O9 0.035229 0.463755 0.790944
O O10 0.373142 0.711299 0.255068
O O11 0.315740 0.911044 0.216740
O O12 0.391427 0.459349 0.486370
O O13 0.290377 0.205504 0.431334
O O14 0.588071 0.323479 0.546174
#
# Coordination Sequence:
#
# PCOD8029247 Si02
#       7
#     2   2   2   2   2   2   2
#     4  11  20  40  68  98 123 162 218 264 310 373
#     4  11  20  38  67 103 122 162 210 263 327 361
#     4  11  20  39  71  96 118 171 216 261 308 369
#     4  11  24  47  64  85 133 174 222 243 306 395
#     4  12  23  40  68  97 133 156 209 275 320 360
#     4  11  22  41  65  97 132 158 211 261 321 384
#     4  11  27  45  59  95 132 178 203 255 318 383
#
# _framework density 21.907340999999999
#
# number of rings (size 3 to 8) (size 9 to 14) (size 15 to 20)
#    0.000    0.857    7.143    2.571    0.000    1.714 
#    2.571    0.714    0.000    0.000    0.000    0.000 
#    0.000    0.000    0.000    0.000    0.000    0.000 
#
# Total GULP energy -173601.429570 kJ/mol
# GULP energy per Si atom -12400.102112 kJ/mol
# Density = 2.185748 g / cm^3
# Si number density = 21.907341 Si / 1000 Ang^3
#
#
#
# Elastic Constant Matrix: (Units=GPa)
#
#
# Indices 1 2 3 4 5 6 
#
# 1 72.4553 54.2831 48.2164 0.1632 4.0025 21.6393
# 2 54.2831 111.6580 50.5257 0.1276 -6.6347 14.1789
# 3 48.2164 50.5257 143.5902 3.3206 -1.7833 22.3910
# 4 0.1632 0.1276 3.3206 22.7606 10.8290 0.1953
# 5 4.0025 -6.6347 -1.7833 10.8290 29.7362 4.5445
# 6 21.6393 14.1789 22.3910 0.1953 4.5445 28.6965
#
#
#
# Elastic Compliance Matrix: (Units=1/GPa)
#
#
# Indices 1 2 3 4 5 6 
#
# 1 0.028569 -0.010882 -0.004025 0.003346 -0.005881 -0.012117
# 2 -0.010882 0.015216 -0.001770 -0.002337 0.005417 0.001227
# 3 -0.004025 -0.001770 0.009635 -0.002376 0.002192 -0.003939
# 4 0.003346 -0.002337 -0.002376 0.054463 -0.021486 0.003518
# 5 -0.005881 0.005417 0.002192 -0.021486 0.044636 -0.006874
# 6 -0.012117 0.001227 -0.003939 0.003518 -0.006874 0.047517
#
#
# Mechanical properties :
#
#
# Convention : Reuss Voigt Hill
#
# Bulk Modulus (GPa) = 49.83589 70.41710 60.12650
# Shear Modulus (GPa) = 20.82639 27.88389 24.35514
#
# Velocity S-wave (km/s) = 3.08662 3.57152 3.33789
# Velocity P-wave (km/s) = 5.95826 7.01574 6.50851
#
# Compressibility (1/GPa) = 0.02006586
#
# Stress axis : x y z
#
# Youngs Moduli (GPa) = 35.00245 65.71983 103.78755
#
# Poissons Ratio (x) = 0.71519 0.41775
# Poissons Ratio (y) = 0.38091 0.18370
# Poissons Ratio (z) = 0.14089 0.11632
#
# Static dielectric constant tensor:
#      x y z
#    x 4.191980 0.173310 -0.304900 
#    y 0.173310 3.908410 0.213520 
#    z -0.304900 0.213520 3.927000 
# 
# 
# High freq. dielectric constant tensor:
#      x y z
#    x 1.872230 0.017700 -0.018220 
#    y 0.017700 1.847760 0.017590 
#    z -0.018220 0.017590 1.858410 
# 
# From -- ./inp_files/426731.got.cif
#   From: 2010.06.25/outbox.cif.g09.slc.cpg/sg2_214_cif.got.tgz:426731.got - 2010.06.27 13:26:56.
