data_PCOD8029910
_publ_section_title
;
Structure prediction by ZEFSAII (Michael W. Deem and Ramdas Pophale) SiO2 
 PCOD8029910
Probable space group: P -1
;
_chemical_formula_sum "Si O2"
_cell_formula_units_Z 16
_cell_length_a 9.780098
_cell_length_b 21.792945
_cell_length_c 8.460828
_cell_angle_alpha 25.666617
_cell_angle_beta 122.900192
_cell_angle_gamma 128.626558
_cell_volume 609.191340
_symmetry_space_group_name_H-M "P -1"
_symmetry_group_IT_number 2
_symmetry_cell_setting 'triclinic'
loop_
_space_group_symop_operation_xyz
x,y,z
-x,-y,-z
loop_
_atom_site_type_symbol
_atom_site_label
_atom_site_fract_x
_atom_site_fract_y
_atom_site_fract_z
Si Si1 0.245483 0.073679 0.323495
Si Si2 0.340036 0.550263 0.324313
Si Si3 0.448527 0.266529 0.708341
Si Si4 0.081672 0.271740 0.942376
Si Si5 0.914173 0.111689 0.615339
Si Si6 0.293206 0.755011 0.303739
Si Si7 0.208869 0.398250 0.070530
Si Si8 0.388957 0.850629 0.485806
O O1 0.406659 0.055395 0.561871
O O2 0.110497 0.915798 0.528131
O O3 0.313157 0.172174 0.975980
O O4 0.139788 0.136640 0.231819
O O5 0.500000 0.500000 0.500000
O O6 0.375515 0.620880 0.358056
O O7 0.155664 0.407866 0.542282
O O8 0.333031 0.673492 0.908152
O O9 0.531270 0.173471 0.860631
O O10 0.372846 0.367375 0.318325
O O11 0.870237 0.211009 0.950792
O O12 0.179784 0.342088 0.002242
O O13 0.726340 0.072221 0.670817
O O14 0.034503 0.288395 0.309275
O O15 0.000000 0.000000 0.000000
O O16 0.350206 0.850824 0.276950
O O17 0.236117 0.572691 0.709450
#
# Coordination Sequence:
#
# PCOD8029910 Si02
#       8
#     2   2   2   2   2   2   2   2
#     4  11  25  48  73  96 141 191 234 277 342 417
#     4  11  21  40  71 105 141 174 226 283 353 424
#     4  11  23  41  70 101 139 182 223 286 351 417
#     4  12  25  43  68 108 143 177 227 292 355 415
#     4  12  26  48  70 101 140 189 244 282 331 415
#     4  12  26  41  70 113 141 170 232 294 361 416
#     4  12  26  42  73 101 144 184 224 292 360 405
#     4  11  25  43  74 102 137 189 227 288 351 405
#
# _framework density 26.264327999999999
#
# number of rings (size 3 to 8) (size 9 to 14) (size 15 to 20)
#    0.000    0.500    5.000    4.125    3.500    1.500 
#    0.000    0.625    0.000    0.000    0.000    0.000 
#    0.000    0.000    0.000    0.000    0.000    0.000 
#
# Total GULP energy -198399.160945 kJ/mol
# GULP energy per Si atom -12399.947559 kJ/mol
# Density = 2.620455 g / cm^3
# Si number density = 26.264328 Si / 1000 Ang^3
#
#
#
# Elastic Constant Matrix: (Units=GPa)
#
#
# Indices 1 2 3 4 5 6 
#
# 1 91.8661 6.5423 14.2063 12.5786 33.6511 1.1464
# 2 6.5423 113.0591 16.3949 18.8475 9.0553 -22.6746
# 3 14.2063 16.3949 77.3490 24.4754 24.2034 8.0431
# 4 12.5786 18.8475 24.4754 43.7334 6.3359 -6.1014
# 5 33.6511 9.0553 24.2034 6.3359 51.6283 -14.1609
# 6 1.1464 -22.6746 8.0431 -6.1014 -14.1609 47.8994
#
#
#
# Elastic Compliance Matrix: (Units=1/GPa)
#
#
# Indices 1 2 3 4 5 6 
#
# 1 0.015852 -0.000683 0.003448 -0.005142 -0.012764 -0.005710
# 2 -0.000683 0.010648 -0.002413 -0.002485 0.001551 0.005604
# 3 0.003448 -0.002413 0.021764 -0.011627 -0.013434 -0.010332
# 4 -0.005142 -0.002485 -0.011627 0.031860 0.007278 0.007109
# 5 -0.012764 0.001551 -0.013434 0.007278 0.036978 0.015155
# 6 -0.005710 0.005604 -0.010332 0.007109 0.015155 0.030788
#
#
# Mechanical properties :
#
#
# Convention : Reuss Voigt Hill
#
# Bulk Modulus (GPa) = 20.42159 39.61789 30.01974
# Shear Modulus (GPa) = 30.57935 44.99427 37.78681
#
# Velocity S-wave (km/s) = 3.41587 4.14349 3.79715
# Velocity P-wave (km/s) = 4.83217 6.16509 5.53888
#
# Compressibility (1/GPa) = 0.04896779
#
# Stress axis : x y z
#
# Youngs Moduli (GPa) = 63.08473 93.91062 45.94753
#
# Poissons Ratio (x) = 0.06414 -0.15844
# Poissons Ratio (y) = 0.04309 0.11089
# Poissons Ratio (z) = -0.21754 0.22665
#
# Static dielectric constant tensor:
#      x y z
#    x 3.774960 -0.599990 -0.111200 
#    y -0.599990 4.653940 -0.340860 
#    z -0.111200 -0.340860 5.149820 
# 
# 
# High freq. dielectric constant tensor:
#      x y z
#    x 2.064090 0.005130 -0.015590 
#    y 0.005130 2.064390 -0.008150 
#    z -0.015590 -0.008150 2.075730 
# 
# From -- ./inp_files/222879.got.cif
#   From: 2010.06.25/outbox.cif.g09.slc.cpg/sg2_112_cif.got.tgz:222879.got - 2010.06.27 13:26:56.
