data_PCOD8029997
_publ_section_title
;
Structure prediction by ZEFSAII (Michael W. Deem and Ramdas Pophale) SiO2 
 PCOD8029997
Probable space group: P -1
;
_chemical_formula_sum "Si O2"
_cell_formula_units_Z 16
_cell_length_a 19.550573
_cell_length_b 25.160675
_cell_length_c 8.386635
_cell_angle_alpha 140.184804
_cell_angle_beta 148.414077
_cell_angle_gamma 20.625870
_cell_volume 751.622536
_symmetry_space_group_name_H-M "P -1"
_symmetry_group_IT_number 2
_symmetry_cell_setting 'triclinic'
loop_
_space_group_symop_operation_xyz
x,y,z
-x,-y,-z
loop_
_atom_site_type_symbol
_atom_site_label
_atom_site_fract_x
_atom_site_fract_y
_atom_site_fract_z
Si Si1 0.620789 0.243819 0.703385
Si Si2 0.419354 0.557786 0.300482
Si Si3 0.375271 0.969698 0.355213
Si Si4 0.845320 0.425716 0.388183
Si Si5 0.638513 0.054258 0.374962
Si Si6 0.866719 0.283288 0.370351
Si Si7 0.908069 0.122505 0.705353
Si Si8 0.641752 0.828749 0.241800
O O1 0.333432 0.411952 0.512814
O O2 0.688655 0.125521 0.665625
O O3 0.721185 0.175636 0.570149
O O4 0.750049 0.256124 0.053495
O O5 0.500000 0.500000 0.500000
O O6 0.666571 0.445076 0.436138
O O7 0.238588 0.731158 0.346690
O O8 0.288048 0.543209 0.955465
O O9 0.487760 0.905298 0.612117
O O10 0.526140 0.852634 0.231739
O O11 0.334814 0.085566 0.494633
O O12 0.126598 0.051652 0.067164
O O13 0.915191 0.308625 0.364995
O O14 0.082867 0.349954 0.634598
O O15 0.483599 0.127744 0.075081
O O16 0.876067 0.871118 0.391768
O O17 0.000000 0.000000 0.500000
#
# Coordination Sequence:
#
# PCOD8029997 Si02
#       8
#     2   2   2   2   2   2   2   2
#     4  11  22  40  67  94 133 165 211 273 337 379
#     4  11  23  37  62 101 128 163 216 266 326 389
#     4  11  24  42  64  94 137 165 223 275 309 396
#     4  11  21  46  66  88 131 181 208 265 321 392
#     4  12  24  40  67 105 121 177 221 266 331 386
#     4  11  21  41  69  90 133 168 216 269 325 387
#     4  12  23  40  64  99 136 166 206 276 346 382
#     4  11  24  43  68  90 132 181 224 257 322 390
#
# _framework density 21.287282000000001
#
# number of rings (size 3 to 8) (size 9 to 14) (size 15 to 20)
#    0.000    0.750    6.250    2.250    3.500    1.500 
#    0.000    0.625    0.000    0.000    0.000    0.000 
#    0.000    0.000    0.000    0.000    0.000    0.000 
#
# Total GULP energy -198208.748187 kJ/mol
# GULP energy per Si atom -12388.046762 kJ/mol
# Density = 2.123883 g / cm^3
# Si number density = 21.287282 Si / 1000 Ang^3
#
#
#
# Elastic Constant Matrix: (Units=GPa)
#
#
# Indices 1 2 3 4 5 6 
#
# 1 96.5145 49.3514 40.6986 -18.4709 -17.1998 -27.1004
# 2 49.3514 126.2789 46.3266 -8.8151 -2.2117 -21.6010
# 3 40.6986 46.3266 53.8174 -18.3945 -13.5488 -13.1077
# 4 -18.4709 -8.8151 -18.3945 35.8134 0.1442 6.0292
# 5 -17.1998 -2.2117 -13.5488 0.1442 33.1626 3.9188
# 6 -27.1004 -21.6010 -13.1077 6.0292 3.9188 36.2188
#
#
#
# Elastic Compliance Matrix: (Units=1/GPa)
#
#
# Indices 1 2 3 4 5 6 
#
# 1 0.019057 -0.003104 -0.006745 0.004121 0.005882 0.008644
# 2 -0.003104 0.013450 -0.011581 -0.004706 -0.005768 0.002915
# 3 -0.006745 -0.011581 0.041945 0.015283 0.012884 -0.000712
# 4 0.004121 -0.004706 0.015283 0.036910 0.008050 -0.001207
# 5 0.005882 -0.005768 0.012884 0.008050 0.038029 0.000169
# 6 0.008644 0.002915 -0.000712 -0.001207 0.000169 0.035742
#
#
# Mechanical properties :
#
#
# Convention : Reuss Voigt Hill
#
# Bulk Modulus (GPa) = 31.65366 61.04045 46.34706
# Shear Modulus (GPa) = 20.96238 30.38790 25.67514
#
# Velocity S-wave (km/s) = 3.14146 3.78234 3.47670
# Velocity P-wave (km/s) = 5.29720 6.91460 6.15922
#
# Compressibility (1/GPa) = 0.03159193
#
# Stress axis : x y z
#
# Youngs Moduli (GPa) = 52.47551 74.35031 23.84077
#
# Poissons Ratio (x) = 0.23077 0.16080
# Poissons Ratio (y) = 0.16287 0.27611
# Poissons Ratio (z) = 0.35393 0.86107
#
# Static dielectric constant tensor:
#      x y z
#    x 3.724330 -0.188770 -0.074310 
#    y -0.188770 4.093350 -0.088620 
#    z -0.074310 -0.088620 3.519940 
# 
# 
# High freq. dielectric constant tensor:
#      x y z
#    x 1.835460 -0.014920 0.001840 
#    y -0.014920 1.842030 -0.002620 
#    z 0.001840 -0.002620 1.817280 
# 
# From -- ./inp_files/298120.got.cif
#   From: 2010.06.25/outbox.cif.g09.slc.cpg/sg2_150_cif.got.tgz:298120.got - 2010.06.27 13:26:56.
