data_PCOD8029289
_publ_section_title
;
Structure prediction by ZEFSAII (Michael W. Deem and Ramdas Pophale) SiO2 
 PCOD8029289
Probable space group: P -1
;
_chemical_formula_sum "Si O2"
_cell_formula_units_Z 16
_cell_length_a 17.151256
_cell_length_b 9.568244
_cell_length_c 8.596307
_cell_angle_alpha 61.035153
_cell_angle_beta 77.954737
_cell_angle_gamma 37.100198
_cell_volume 701.115743
_symmetry_space_group_name_H-M "P -1"
_symmetry_group_IT_number 2
_symmetry_cell_setting 'triclinic'
loop_
_space_group_symop_operation_xyz
x,y,z
-x,-y,-z
loop_
_atom_site_type_symbol
_atom_site_label
_atom_site_fract_x
_atom_site_fract_y
_atom_site_fract_z
Si Si1 0.613655 0.074718 0.050348
Si Si2 0.190775 0.500555 0.844986
Si Si3 0.899613 0.879492 0.758967
Si Si4 0.392202 0.633975 0.340792
Si Si5 0.633252 0.129073 0.360958
Si Si6 0.304622 0.624648 0.842265
Si Si7 0.844943 0.633674 0.762407
Si Si8 0.068931 0.060198 0.938342
O O1 0.662449 0.058867 0.205661
O O2 0.695014 0.777661 0.152632
O O3 0.651223 0.137254 0.863465
O O4 0.450524 0.309892 0.999229
O O5 0.225474 0.631786 0.758441
O O6 0.037233 0.735195 0.706784
O O7 0.199281 0.425809 0.059691
O O8 0.901265 0.694346 0.800238
O O9 0.749060 0.202924 0.610733
O O10 0.911707 0.885254 0.934323
O O11 0.500000 0.500000 0.500000
O O12 0.469418 0.380143 0.332772
O O13 0.673614 0.245097 0.327911
O O14 0.716784 0.876096 0.573642
O O15 0.214702 0.812711 0.929341
O O16 0.960294 0.364802 0.745159
O O17 0.000000 0.000000 0.000000
#
# Coordination Sequence:
#
# PCOD8029289 Si02
#       8
#     2   2   2   2   2   2   2   2
#     4  11  23  41  67  93 136 175 212 266 330 387
#     4  11  22  42  67  94 125 176 217 263 328 388
#     4  11  21  38  69  93 123 167 229 260 314 375
#     4  11  20  39  68  97 123 169 229 266 301 384
#     4  11  24  42  64 100 129 170 219 267 326 379
#     4  11  23  41  65  94 131 172 210 267 338 378
#     4  11  23  41  68  94 126 170 225 264 309 390
#     4  11  21  40  67  98 126 167 213 273 320 379
#
# _framework density 22.820767
#
# number of rings (size 3 to 8) (size 9 to 14) (size 15 to 20)
#    0.000    1.000    5.000    4.875    1.750    0.500 
#    0.000    2.500    2.750    0.000    0.000    0.000 
#    0.000    0.000    0.000    0.000    0.000    0.000 
#
# Total GULP energy -198212.833234 kJ/mol
# GULP energy per Si atom -12388.302077 kJ/mol
# Density = 2.276883 g / cm^3
# Si number density = 22.820767 Si / 1000 Ang^3
#
#
#
# Elastic Constant Matrix: (Units=GPa)
#
#
# Indices 1 2 3 4 5 6 
#
# 1 104.3258 60.6254 32.1494 -19.5977 10.2392 -8.4651
# 2 60.6254 192.1996 25.4097 -28.5234 10.9338 -17.8840
# 3 32.1494 25.4097 68.5130 -7.1956 15.2652 -1.6198
# 4 -19.5977 -28.5234 -7.1956 32.4610 -4.1510 10.6049
# 5 10.2392 10.9338 15.2652 -4.1510 18.1424 -4.0664
# 6 -8.4651 -17.8840 -1.6198 10.6049 -4.0664 45.5246
#
#
#
# Elastic Compliance Matrix: (Units=1/GPa)
#
#
# Indices 1 2 3 4 5 6 
#
# 1 0.013684 -0.002978 -0.004623 0.004466 -0.000998 0.000081
# 2 -0.002978 0.006922 -0.000553 0.003648 -0.000919 0.001214
# 3 -0.004623 -0.000553 0.020123 -0.000128 -0.014380 -0.001616
# 4 0.004466 0.003648 -0.000128 0.039209 0.002877 -0.006618
# 5 -0.000998 -0.000919 -0.014380 0.002877 0.070009 0.004525
# 6 0.000081 0.001214 -0.001616 -0.006618 0.004525 0.024346
#
#
# Mechanical properties :
#
#
# Convention : Reuss Voigt Hill
#
# Bulk Modulus (GPa) = 40.95076 66.82306 53.88691
# Shear Modulus (GPa) = 25.15817 35.68251 30.42034
#
# Velocity S-wave (km/s) = 3.32388 3.95853 3.65500
# Velocity P-wave (km/s) = 5.71965 7.08791 6.44022
#
# Compressibility (1/GPa) = 0.02441957
#
# Stress axis : x y z
#
# Youngs Moduli (GPa) = 73.07713 144.46686 49.69470
#
# Poissons Ratio (x) = 0.43024 0.22976
# Poissons Ratio (y) = 0.21763 0.02749
# Poissons Ratio (z) = 0.33786 0.07993
#
# Static dielectric constant tensor:
#      x y z
#    x 4.196010 -0.474520 0.286130 
#    y -0.474520 5.271830 -0.370350 
#    z 0.286130 -0.370350 3.818810 
# 
# 
# High freq. dielectric constant tensor:
#      x y z
#    x 1.888880 -0.009850 0.021680 
#    y -0.009850 1.936470 -0.011210 
#    z 0.021680 -0.011210 1.867240 
# 
# From -- ./inp_files/328564.got.cif
#   From: 2010.06.25/outbox.cif.g09.slc.cpg/sg2_165_cif.got.tgz:328564.got - 2010.06.27 13:26:56.
