data_PCOD8029696
_publ_section_title
;
Structure prediction by ZEFSAII (Michael W. Deem and Ramdas Pophale) SiO2 
 PCOD8029696
Probable space group: P -1
;
_chemical_formula_sum "Si O2"
_cell_formula_units_Z 16
_cell_length_a 16.424242
_cell_length_b 8.982084
_cell_length_c 13.170170
_cell_angle_alpha 35.564368
_cell_angle_beta 44.522568
_cell_angle_gamma 62.152416
_cell_volume 761.424324
_symmetry_space_group_name_H-M "P -1"
_symmetry_group_IT_number 2
_symmetry_cell_setting 'triclinic'
loop_
_space_group_symop_operation_xyz
x,y,z
-x,-y,-z
loop_
_atom_site_type_symbol
_atom_site_label
_atom_site_fract_x
_atom_site_fract_y
_atom_site_fract_z
Si Si1 0.164470 0.875705 0.952231
Si Si2 0.000265 0.064962 0.308651
Si Si3 0.932124 0.830974 0.296711
Si Si4 0.780912 0.527383 0.022863
Si Si5 0.369580 0.725460 0.520643
Si Si6 0.184172 0.746166 0.311089
Si Si7 0.647291 0.855781 0.211292
Si Si8 0.764937 0.032321 0.654981
O O1 0.174598 0.612187 0.033681
O O2 0.122627 0.070027 0.806960
O O3 0.293722 0.031420 0.796929
O O4 0.066487 0.801095 0.171883
O O5 0.057332 0.817363 0.397484
O O6 0.105706 0.337893 0.079070
O O7 0.937463 0.042749 0.265389
O O8 0.901185 0.044901 0.494197
O O9 0.841832 0.539541 0.562064
O O10 0.686293 0.313511 0.294937
O O11 0.717166 0.742662 0.912833
O O12 0.510515 0.869519 0.325851
O O13 0.343794 0.443168 0.644104
O O14 0.314382 0.924766 0.393235
O O15 0.233170 0.743938 0.384875
O O16 0.283901 0.965014 0.040593
#
# Coordination Sequence:
#
# PCOD8029696 Si02
#       8
#     2   2   2   2   2   2   2   2
#     4  11  23  40  62  95 131 163 207 260 315 376
#     4  11  21  38  65  96 128 162 200 262 318 373
#     4  11  22  36  65  97 126 166 207 253 320 381
#     4  11  23  43  63  95 130 164 205 261 318 367
#     4  11  24  46  66  89 124 168 219 260 303 371
#     4  11  21  40  62  96 127 163 208 259 319 368
#     4  11  24  44  65  88 128 167 211 268 304 362
#     4  11  23  39  66  96 124 164 209 253 321 377
#
# _framework density 21.013252999999999
#
# number of rings (size 3 to 8) (size 9 to 14) (size 15 to 20)
#    0.000    1.000    3.750    4.875    1.750    5.000 
#    2.250    0.625    0.000    0.000    0.000    0.000 
#    0.000    0.000    0.000    0.000    0.000    0.000 
#
# Total GULP energy -198405.719625 kJ/mol
# GULP energy per Si atom -12400.357477 kJ/mol
# Density = 2.096543 g / cm^3
# Si number density = 21.013253 Si / 1000 Ang^3
#
#
#
# Elastic Constant Matrix: (Units=GPa)
#
#
# Indices 1 2 3 4 5 6 
#
# 1 110.4221 33.8425 63.5677 -2.2164 -1.8876 4.6657
# 2 33.8425 89.9052 29.9018 -5.8179 -7.2371 21.0193
# 3 63.5677 29.9018 103.2248 0.5304 -0.3688 0.2761
# 4 -2.2164 -5.8179 0.5304 28.6449 7.4913 -1.0482
# 5 -1.8876 -7.2371 -0.3688 7.4913 26.7269 0.3452
# 6 4.6657 21.0193 0.2761 -1.0482 0.3452 36.3195
#
#
#
# Elastic Compliance Matrix: (Units=1/GPa)
#
#
# Indices 1 2 3 4 5 6 
#
# 1 0.014649 -0.002662 -0.008253 0.000737 -0.000003 -0.000257
# 2 -0.002662 0.015465 -0.002814 0.001736 0.003585 -0.008571
# 3 -0.008253 -0.002814 0.015581 -0.001189 -0.000830 0.002544
# 4 0.000737 0.001736 -0.001189 0.037999 -0.010146 0.000103
# 5 -0.000003 0.003585 -0.000830 -0.010146 0.041254 -0.002753
# 6 -0.000257 -0.008571 0.002544 0.000103 -0.002753 0.032537
#
#
# Mechanical properties :
#
#
# Convention : Reuss Voigt Hill
#
# Bulk Modulus (GPa) = 54.83018 62.01956 58.42487
# Shear Modulus (GPa) = 26.17502 30.08761 28.13132
#
# Velocity S-wave (km/s) = 3.53320 3.78807 3.66285
# Velocity P-wave (km/s) = 6.54175 6.97934 6.76408
#
# Compressibility (1/GPa) = 0.01823813
#
# Stress axis : x y z
#
# Youngs Moduli (GPa) = 68.26611 64.66025 64.17904
#
# Poissons Ratio (x) = 0.17210 0.52967
# Poissons Ratio (y) = 0.18170 0.18061
# Poissons Ratio (z) = 0.56340 0.18196
#
# Static dielectric constant tensor:
#      x y z
#    x 3.776400 0.199670 0.040540 
#    y 0.199670 3.846020 0.103020 
#    z 0.040540 0.103020 3.688600 
# 
# 
# High freq. dielectric constant tensor:
#      x y z
#    x 1.821280 0.015710 0.012820 
#    y 0.015710 1.820350 0.003210 
#    z 0.012820 0.003210 1.815900 
# 
# From -- ./inp_files/176733.got.cif
#   From: 2010.06.25/outbox.cif.g09.slc.cpg/sg2_89_cif.got.tgz:176733.got - 2010.06.27 13:26:56.
