data_PCOD8029686
_publ_section_title
;
Structure prediction by ZEFSAII (Michael W. Deem and Ramdas Pophale) SiO2 
 PCOD8029686
Probable space group: P -1
;
_chemical_formula_sum "Si O2"
_cell_formula_units_Z 16
_cell_length_a 10.176908
_cell_length_b 14.084083
_cell_length_c 13.600968
_cell_angle_alpha 45.464750
_cell_angle_beta 31.674292
_cell_angle_gamma 43.456517
_cell_volume 684.953548
_symmetry_space_group_name_H-M "P -1"
_symmetry_group_IT_number 2
_symmetry_cell_setting 'triclinic'
loop_
_space_group_symop_operation_xyz
x,y,z
-x,-y,-z
loop_
_atom_site_type_symbol
_atom_site_label
_atom_site_fract_x
_atom_site_fract_y
_atom_site_fract_z
Si Si1 0.171327 0.525423 0.151692
Si Si2 0.774053 0.456104 0.122999
Si Si3 0.460124 0.238622 0.255523
Si Si4 0.162412 0.179430 0.781958
Si Si5 0.320490 0.573822 0.469863
Si Si6 0.774661 0.089325 0.979073
Si Si7 0.702202 0.173639 0.354978
Si Si8 0.026539 0.855716 0.379063
O O1 0.393359 0.410872 0.162779
O O2 0.099525 0.685287 0.122188
O O3 0.898353 0.496493 0.355653
O O4 0.255979 0.506171 0.999158
O O5 0.492025 0.546919 0.281618
O O6 0.835144 0.287407 0.222355
O O7 0.000000 0.500000 0.000000
O O8 0.672710 0.178274 0.251359
O O9 0.198008 0.203285 0.477753
O O10 0.546855 0.174877 0.138387
O O11 0.411505 0.218745 0.557621
O O12 0.068196 0.088116 0.827275
O O13 0.237626 0.070517 0.905742
O O14 0.500000 0.500000 0.500000
O O15 0.183950 0.746121 0.444725
O O16 0.747655 0.152740 0.840730
O O17 0.888348 0.017831 0.385729
#
# Coordination Sequence:
#
# PCOD8029686 Si02
#       8
#     2   2   2   2   2   2   2   2
#     4  11  24  42  68  99 130 177 221 267 334 390
#     4  12  25  45  73  93 129 178 232 276 324 383
#     4  11  23  39  67 102 142 170 213 268 327 408
#     4  11  22  38  64  97 138 178 211 259 329 394
#     4  11  24  46  71  93 129 169 221 284 325 382
#     4  11  21  38  63  94 142 177 206 261 322 404
#     4  12  23  43  66 100 140 176 214 275 328 394
#     4  11  23  41  69 102 132 174 217 263 339 399
#
# _framework density 23.359248999999998
#
# number of rings (size 3 to 8) (size 9 to 14) (size 15 to 20)
#    0.000    0.750    5.000    4.125    0.000    3.500 
#    0.000    1.250    2.750    0.000    0.000    0.000 
#    0.000    0.000    0.000    0.000    0.000    0.000 
#
# Total GULP energy -198347.527093 kJ/mol
# GULP energy per Si atom -12396.720443 kJ/mol
# Density = 2.330608 g / cm^3
# Si number density = 23.359249 Si / 1000 Ang^3
#
#
#
# Elastic Constant Matrix: (Units=GPa)
#
#
# Indices 1 2 3 4 5 6 
#
# 1 68.8776 41.4161 20.6453 -8.0822 5.2292 -10.8657
# 2 41.4161 176.9063 41.6195 -20.3224 4.5064 -13.1852
# 3 20.6453 41.6195 121.4232 -0.0919 12.6014 3.3942
# 4 -8.0822 -20.3224 -0.0919 51.9023 9.7370 3.1650
# 5 5.2292 4.5064 12.6014 9.7370 19.4323 -5.4004
# 6 -10.8657 -13.1852 3.3942 3.1650 -5.4004 32.9903
#
#
#
# Elastic Compliance Matrix: (Units=1/GPa)
#
#
# Indices 1 2 3 4 5 6 
#
# 1 0.018078 -0.003215 -0.001813 0.001793 -0.002661 0.004248
# 2 -0.003215 0.007269 -0.001976 0.002264 -0.000173 0.001804
# 3 -0.001813 -0.001976 0.010024 0.000450 -0.006772 -0.003570
# 4 0.001793 0.002264 0.000450 0.023201 -0.013767 -0.003030
# 5 -0.002661 -0.000173 -0.006772 -0.013767 0.066846 0.012014
# 6 0.004248 0.001804 -0.003570 -0.003030 0.012014 0.035057
#
#
# Mechanical properties :
#
#
# Convention : Reuss Voigt Hill
#
# Bulk Modulus (GPa) = 46.80924 63.84099 55.32512
# Shear Modulus (GPa) = 27.53247 38.43338 32.98293
#
# Velocity S-wave (km/s) = 3.43688 4.06065 3.76172
# Velocity P-wave (km/s) = 5.98597 7.02671 6.52711
#
# Compressibility (1/GPa) = 0.02136330
#
# Stress axis : x y z
#
# Youngs Moduli (GPa) = 55.31620 137.56500 99.76033
#
# Poissons Ratio (x) = 0.44233 0.18085
# Poissons Ratio (y) = 0.17786 0.19710
# Poissons Ratio (z) = 0.10028 0.27179
#
# Static dielectric constant tensor:
#      x y z
#    x 3.633490 -0.117130 0.060010 
#    y -0.117130 4.369520 -0.251690 
#    z 0.060010 -0.251690 4.711230 
# 
# 
# High freq. dielectric constant tensor:
#      x y z
#    x 1.863760 -0.007620 0.002660 
#    y -0.007620 1.938290 -0.010600 
#    z 0.002660 -0.010600 1.965590 
# 
# From -- ./inp_files/521416.got.cif
#   From: 2010.06.25/outbox.cif.g09.slc.cpg/sg2_261_cif.got.tgz:521416.got - 2010.06.27 13:26:56.
