data_PCOD8029508
_publ_section_title
;
Structure prediction by ZEFSAII (Michael W. Deem and Ramdas Pophale) SiO2 
 PCOD8029508
Probable space group: P -1
;
_chemical_formula_sum "Si O2"
_cell_formula_units_Z 14
_cell_length_a 9.152700
_cell_length_b 6.660510
_cell_length_c 20.296156
_cell_angle_alpha 42.437999
_cell_angle_beta 125.919806
_cell_angle_gamma 124.412731
_cell_volume 656.061732
_symmetry_space_group_name_H-M "P -1"
_symmetry_group_IT_number 2
_symmetry_cell_setting 'triclinic'
loop_
_space_group_symop_operation_xyz
x,y,z
-x,-y,-z
loop_
_atom_site_type_symbol
_atom_site_label
_atom_site_fract_x
_atom_site_fract_y
_atom_site_fract_z
Si Si1 0.300397 0.790997 0.504384
Si Si2 0.976638 0.835699 0.896428
Si Si3 0.612103 0.861915 0.871059
Si Si4 0.124421 0.768359 0.601596
Si Si5 0.013006 0.902695 0.299472
Si Si6 0.305940 0.125758 0.680857
Si Si7 0.626436 0.818298 0.038637
O O1 0.258708 0.783161 0.571975
O O2 0.161668 0.937085 0.389439
O O3 0.293987 0.442763 0.565410
O O4 0.500000 0.000000 0.500000
O O5 0.810312 0.903455 0.878940
O O6 0.166075 0.094724 0.897285
O O7 0.926718 0.844438 0.803214
O O8 0.000000 0.500000 0.000000
O O9 0.468923 0.540859 0.893096
O O10 0.516755 0.129788 0.756092
O O11 0.645256 0.912196 0.944857
O O12 0.001894 0.423775 0.660347
O O13 0.242185 0.852832 0.678205
O O14 0.000000 0.000000 0.500000
O O15 0.820791 0.939676 0.271333
O O16 0.500000 0.000000 0.000000
#
# Coordination Sequence:
#
# PCOD8029508 Si02
#       7
#     2   2   2   2   2   2   2
#     4  11  25  41  64 100 139 170 217 279 330 404
#     4  12  26  46  70  99 138 178 229 283 333 403
#     4  11  26  43  72 101 130 183 224 279 347 396
#     4  11  20  43  71  92 129 180 220 267 336 399
#     4  11  24  44  66  97 134 178 223 278 332 394
#     4  11  23  44  69  97 134 174 225 269 340 407
#     4  11  23  48  71  95 137 175 228 286 338 398
#
# _framework density 21.339455000000001
#
# number of rings (size 3 to 8) (size 9 to 14) (size 15 to 20)
#    0.000    0.857    4.286    3.000    4.000    4.000 
#    5.143    0.000    0.000    0.000    0.000    0.000 
#    0.000    0.000    0.000    0.000    0.000    0.000 
#
# Total GULP energy -173633.992892 kJ/mol
# GULP energy per Si atom -12402.428064 kJ/mol
# Density = 2.129089 g / cm^3
# Si number density = 21.339455 Si / 1000 Ang^3
#
#
#
# Elastic Constant Matrix: (Units=GPa)
#
#
# Indices 1 2 3 4 5 6 
#
# 1 152.7641 37.2120 56.4975 5.4618 9.4405 2.0413
# 2 37.2120 77.2997 11.1466 5.1363 -8.4246 -5.9928
# 3 56.4975 11.1466 119.1727 3.0727 -3.9703 -11.0849
# 4 5.4618 5.1363 3.0727 26.7901 1.4708 -1.1584
# 5 9.4405 -8.4246 -3.9703 1.4708 41.0466 1.5578
# 6 2.0413 -5.9928 -11.0849 -1.1584 1.5578 36.7294
#
#
#
# Elastic Compliance Matrix: (Units=1/GPa)
#
#
# Indices 1 2 3 4 5 6 
#
# 1 0.009542 -0.004487 -0.004436 -0.000495 -0.003433 -0.002471
# 2 -0.004487 0.015791 0.001126 -0.002355 0.004356 0.002907
# 3 -0.004436 0.001126 0.010808 -0.000516 0.002179 0.003583
# 4 -0.000495 -0.002355 -0.000516 0.038072 -0.001813 0.000765
# 5 -0.003433 0.004356 0.002179 -0.001813 0.026307 0.000386
# 6 -0.002471 0.002907 0.003583 0.000765 0.000386 0.028927
#
#
# Mechanical properties :
#
#
# Convention : Reuss Voigt Hill
#
# Bulk Modulus (GPa) = 48.66462 62.10541 55.38501
# Shear Modulus (GPa) = 32.91884 37.20524 35.06204
#
# Velocity S-wave (km/s) = 3.93189 4.18005 4.05787
# Velocity P-wave (km/s) = 6.59299 7.24319 6.92573
#
# Compressibility (1/GPa) = 0.02054881
#
# Stress axis : x y z
#
# Youngs Moduli (GPa) = 104.79611 63.32789 92.52495
#
# Poissons Ratio (x) = 0.28415 0.41041
# Poissons Ratio (y) = 0.47021 -0.10422
# Poissons Ratio (z) = 0.46484 -0.07133
#
# Static dielectric constant tensor:
#      x y z
#    x 3.848520 0.000230 0.061460 
#    y 0.000230 3.748800 -0.131730 
#    z 0.061460 -0.131730 3.883390 
# 
# 
# High freq. dielectric constant tensor:
#      x y z
#    x 1.841910 -0.009280 0.004640 
#    y -0.009280 1.838110 0.006340 
#    z 0.004640 0.006340 1.848860 
# 
# From -- ./inp_files/37022.got.cif
#   From: 2010.06.25/outbox.cif.g09.slc.cpg/sg2_19_cif.got.tgz:37022.got - 2010.06.27 13:26:56.
