data_PCOD8029791
_publ_section_title
;
Structure prediction by ZEFSAII (Michael W. Deem and Ramdas Pophale) SiO2 
 PCOD8029791
Probable space group: P -1
;
_chemical_formula_sum "Si O2"
_cell_formula_units_Z 16
_cell_length_a 11.949343
_cell_length_b 17.803811
_cell_length_c 9.706219
_cell_angle_alpha 49.718148
_cell_angle_beta 133.952628
_cell_angle_gamma 149.203494
_cell_volume 753.977911
_symmetry_space_group_name_H-M "P -1"
_symmetry_group_IT_number 2
_symmetry_cell_setting 'triclinic'
loop_
_space_group_symop_operation_xyz
x,y,z
-x,-y,-z
loop_
_atom_site_type_symbol
_atom_site_label
_atom_site_fract_x
_atom_site_fract_y
_atom_site_fract_z
Si Si1 0.272789 0.877676 0.120357
Si Si2 0.425542 0.163438 0.890923
Si Si3 0.747265 0.351428 0.210024
Si Si4 0.587676 0.394759 0.254702
Si Si5 0.474765 0.080188 0.478719
Si Si6 0.174792 0.292304 0.888256
Si Si7 0.031109 0.084188 0.798430
Si Si8 0.742747 0.343804 0.705605
O O1 0.493583 0.938107 0.316750
O O2 0.192566 0.743686 0.122199
O O3 0.082112 0.819714 0.137302
O O4 0.364835 0.022132 0.956333
O O5 0.185306 0.107332 0.783030
O O6 0.551614 0.277768 0.737054
O O7 0.595524 0.250709 0.066187
O O8 0.685703 0.425325 0.145709
O O9 0.680075 0.247784 0.400985
O O10 0.024680 0.483673 0.261056
O O11 0.710784 0.549416 0.233683
O O12 0.636606 0.329055 0.484220
O O13 0.313565 0.289207 0.121333
O O14 0.500000 0.000000 0.500000
O O15 0.226724 0.015402 0.355276
O O16 0.161061 0.241539 0.782698
O O17 0.000000 0.000000 0.000000
#
# Coordination Sequence:
#
# PCOD8029791 Si02
#       8
#     2   2   2   2   2   2   2   2
#     4  12  23  41  67  98 128 172 218 275 321 383
#     4  12  26  44  64  95 138 176 210 267 332 391
#     4  12  21  41  70  93 125 172 219 266 313 382
#     4  11  23  39  68  97 129 167 221 270 321 384
#     4  12  21  36  71 102 121 158 231 278 308 369
#     4  11  21  39  69  97 125 164 225 273 317 378
#     4  12  21  40  68  94 130 171 220 265 321 381
#     4  12  27  43  63  99 137 172 212 266 337 388
#
# _framework density 21.220780000000001
#
# number of rings (size 3 to 8) (size 9 to 14) (size 15 to 20)
#    0.000    0.250    8.750    1.875    0.000    0.000 
#    0.000    4.375    0.000    0.000    0.000    0.000 
#    0.000    0.000    0.000    0.000    0.000    0.000 
#
# Total GULP energy -198218.139653 kJ/mol
# GULP energy per Si atom -12388.633728 kJ/mol
# Density = 2.117248 g / cm^3
# Si number density = 21.220780 Si / 1000 Ang^3
#
#
#
# Elastic Constant Matrix: (Units=GPa)
#
#
# Indices 1 2 3 4 5 6 
#
# 1 95.6385 47.4519 31.6750 -13.7226 7.7721 14.3890
# 2 47.4519 105.6193 29.4856 -8.2055 9.3999 14.7910
# 3 31.6750 29.4856 68.1142 -1.4466 6.3429 19.2154
# 4 -13.7226 -8.2055 -1.4466 22.1006 2.5344 3.1960
# 5 7.7721 9.3999 6.3429 2.5344 33.6194 -0.0207
# 6 14.3890 14.7910 19.2154 3.1960 -0.0207 43.0885
#
#
#
# Elastic Compliance Matrix: (Units=1/GPa)
#
#
# Indices 1 2 3 4 5 6 
#
# 1 0.016025 -0.004805 -0.004308 0.008484 -0.002189 -0.002411
# 2 -0.004805 0.012980 -0.002612 0.002183 -0.002191 -0.001849
# 3 -0.004308 -0.002612 0.019772 -0.001206 -0.001917 -0.006394
# 4 0.008484 0.002183 -0.001206 0.052983 -0.006343 -0.006978
# 5 -0.002189 -0.002191 -0.001917 -0.006343 0.031705 0.002824
# 6 -0.002411 -0.001849 -0.006394 -0.006978 0.002824 0.028018
#
#
# Mechanical properties :
#
#
# Convention : Reuss Voigt Hill
#
# Bulk Modulus (GPa) = 39.48493 54.06633 46.77563
# Shear Modulus (GPa) = 25.85656 30.47901 28.16778
#
# Velocity S-wave (km/s) = 3.49442 3.79394 3.64726
# Velocity P-wave (km/s) = 5.91003 6.68770 6.31085
#
# Compressibility (1/GPa) = 0.02532612
#
# Stress axis : x y z
#
# Youngs Moduli (GPa) = 62.40289 77.04379 50.57745
#
# Poissons Ratio (x) = 0.37023 0.21787
# Poissons Ratio (y) = 0.29987 0.13211
# Poissons Ratio (z) = 0.26880 0.20124
#
# Static dielectric constant tensor:
#      x y z
#    x 4.146110 -0.258410 0.353380 
#    y -0.258410 4.088810 -0.105090 
#    z 0.353380 -0.105090 3.595270 
# 
# 
# High freq. dielectric constant tensor:
#      x y z
#    x 1.834550 -0.013440 0.020820 
#    y -0.013440 1.852770 0.003290 
#    z 0.020820 0.003290 1.803390 
# 
# From -- ./inp_files/260305.got.cif
#   From: 2010.06.25/outbox.cif.g09.slc.cpg/sg2_131_cif.got.tgz:260305.got - 2010.06.27 13:26:56.
