data_PCOD8029285
_publ_section_title
;
Structure prediction by ZEFSAII (Michael W. Deem and Ramdas Pophale) SiO2 
 PCOD8029285
Probable space group: P -1
;
_chemical_formula_sum "Si O2"
_cell_formula_units_Z 16
_cell_length_a 9.716851
_cell_length_b 12.612640
_cell_length_c 13.667681
_cell_angle_alpha 132.440047
_cell_angle_beta 129.911567
_cell_angle_gamma 85.906493
_cell_volume 729.524184
_symmetry_space_group_name_H-M "P -1"
_symmetry_group_IT_number 2
_symmetry_cell_setting 'triclinic'
loop_
_space_group_symop_operation_xyz
x,y,z
-x,-y,-z
loop_
_atom_site_type_symbol
_atom_site_label
_atom_site_fract_x
_atom_site_fract_y
_atom_site_fract_z
Si Si1 0.832788 0.773769 0.967043
Si Si2 0.078518 0.940450 0.373168
Si Si3 0.882906 0.198020 0.055878
Si Si4 0.518104 0.047920 0.427095
Si Si5 0.808636 0.450630 0.802926
Si Si6 0.930697 0.414974 0.630873
Si Si7 0.556404 0.906933 0.887356
Si Si8 0.237986 0.310213 0.759240
O O1 0.731363 0.577102 0.848076
O O2 0.636661 0.796886 0.902576
O O3 0.048512 0.921159 0.229568
O O4 0.914354 0.790680 0.901241
O O5 0.243309 0.902450 0.470746
O O6 0.840496 0.785501 0.227964
O O7 0.203924 0.156264 0.579035
O O8 0.689195 0.121423 0.836336
O O9 0.772384 0.059407 0.011115
O O10 0.968450 0.394683 0.264009
O O11 0.561637 0.240952 0.561985
O O12 0.500000 0.000000 0.500000
O O13 0.941240 0.490216 0.788411
O O14 0.000000 0.500000 0.000000
O O15 0.092628 0.359469 0.669088
O O16 0.673863 0.237635 0.370488
O O17 0.500000 0.000000 0.000000
O O18 0.500000 0.500000 0.000000
#
# Coordination Sequence:
#
# PCOD8029285 Si02
#       8
#     2   2   2   2   2   2   2   2
#     4  11  24  43  68 100 134 179 233 285 343 404
#     4  11  22  40  63  99 138 174 225 278 344 418
#     4  11  24  44  70 101 132 175 232 288 346 416
#     4  12  20  39  68 102 140 175 210 285 360 409
#     4  11  20  39  68 102 141 168 219 281 351 413
#     4  11  23  44  67  96 136 179 226 285 339 402
#     4  12  27  49  70  92 137 192 237 285 336 398
#     4  11  23  39  65  99 138 179 222 277 349 422
#
# _framework density 21.932103000000001
#
# number of rings (size 3 to 8) (size 9 to 14) (size 15 to 20)
#    0.000    0.750    5.000    2.625    0.000    6.500 
#    2.250    0.000    0.000    0.000    0.000    0.000 
#    0.000    0.000    0.000    0.000    0.000    0.000 
#
# Total GULP energy -198258.767837 kJ/mol
# GULP energy per Si atom -12391.172990 kJ/mol
# Density = 2.188218 g / cm^3
# Si number density = 21.932103 Si / 1000 Ang^3
#
#
#
# Elastic Constant Matrix: (Units=GPa)
#
#
# Indices 1 2 3 4 5 6 
#
# 1 89.4136 45.2987 35.5603 10.0157 -12.4695 -17.4505
# 2 45.2987 108.0936 40.4071 18.6937 -5.6834 -25.6106
# 3 35.5603 40.4071 121.3121 29.2322 -4.1852 -12.5105
# 4 10.0157 18.6937 29.2322 44.9931 -1.5155 1.6657
# 5 -12.4695 -5.6834 -4.1852 -1.5155 37.4356 -0.8155
# 6 -17.4505 -25.6106 -12.5105 1.6657 -0.8155 41.8114
#
#
#
# Elastic Compliance Matrix: (Units=1/GPa)
#
#
# Indices 1 2 3 4 5 6 
#
# 1 0.015795 -0.004733 -0.002647 0.000205 0.004320 0.002977
# 2 -0.004733 0.014050 -0.001691 -0.003907 0.000346 0.006287
# 3 -0.002647 -0.001691 0.011180 -0.006029 -0.000101 0.001443
# 4 0.000205 -0.003907 -0.006029 0.027907 -0.000183 -0.005226
# 5 0.004320 0.000346 -0.000101 -0.000183 0.028241 0.002543
# 6 0.002977 0.006287 0.001443 -0.005226 0.002543 0.029700
#
#
# Mechanical properties :
#
#
# Convention : Reuss Voigt Hill
#
# Bulk Modulus (GPa) = 43.69791 62.37239 53.03515
# Shear Modulus (GPa) = 32.75617 38.01824 35.38721
#
# Velocity S-wave (km/s) = 3.86881 4.16799 4.02118
# Velocity P-wave (km/s) = 6.31857 7.18773 6.76712
#
# Compressibility (1/GPa) = 0.02288439
#
# Stress axis : x y z
#
# Youngs Moduli (GPa) = 63.31170 71.17399 89.44174
#
# Poissons Ratio (x) = 0.33684 0.23675
# Poissons Ratio (y) = 0.29963 0.15124
# Poissons Ratio (z) = 0.16759 0.12035
#
# Static dielectric constant tensor:
#      x y z
#    x 4.043980 -0.079770 0.198270 
#    y -0.079770 4.238370 0.172340 
#    z 0.198270 0.172340 4.320030 
# 
# 
# High freq. dielectric constant tensor:
#      x y z
#    x 1.856100 -0.004890 -0.010700 
#    y -0.004890 1.864350 0.019230 
#    z -0.010700 0.019230 1.870370 
# 
# From -- ./inp_files/504515.got.cif
#   From: 2010.06.25/outbox.cif.g09.slc.cpg/sg2_253_cif.got.tgz:504515.got - 2010.06.27 13:26:56.
