data_PCOD8029259
_publ_section_title
;
Structure prediction by ZEFSAII (Michael W. Deem and Ramdas Pophale) SiO2 
 PCOD8029259
Probable space group: P -1
;
_chemical_formula_sum "Si O2"
_cell_formula_units_Z 16
_cell_length_a 20.262775
_cell_length_b 17.815338
_cell_length_c 9.119519
_cell_angle_alpha 39.521101
_cell_angle_beta 40.564347
_cell_angle_gamma 19.862661
_cell_volume 702.839154
_symmetry_space_group_name_H-M "P -1"
_symmetry_group_IT_number 2
_symmetry_cell_setting 'triclinic'
loop_
_space_group_symop_operation_xyz
x,y,z
-x,-y,-z
loop_
_atom_site_type_symbol
_atom_site_label
_atom_site_fract_x
_atom_site_fract_y
_atom_site_fract_z
Si Si1 0.043564 0.206297 0.557172
Si Si2 0.621051 0.644071 0.691920
Si Si3 0.200202 0.312150 0.098193
Si Si4 0.635170 0.110804 0.970931
Si Si5 0.582283 0.307995 0.241698
Si Si6 0.398624 0.093993 0.793620
Si Si7 0.962093 0.268082 0.258966
Si Si8 0.428338 0.464874 0.572717
O O1 0.102884 0.285480 0.354048
O O2 0.848813 0.380971 0.722536
O O3 0.010812 0.205490 0.443418
O O4 0.194135 0.962832 0.744927
O O5 0.554919 0.664326 0.613437
O O6 0.594665 0.808617 0.481003
O O7 0.476689 0.736000 0.923108
O O8 0.402358 0.123959 0.126710
O O9 0.226350 0.282004 0.922385
O O10 0.084570 0.547952 0.974990
O O11 0.498159 0.275877 0.814762
O O12 0.849863 0.956354 0.821108
O O13 0.658906 0.948407 0.161056
O O14 0.555116 0.366619 0.365716
O O15 0.500000 0.500000 0.000000
O O16 0.799320 0.332659 0.389151
O O17 0.500000 0.500000 0.500000
#
# Coordination Sequence:
#
# PCOD8029259 Si02
#       8
#     2   2   2   2   2   2   2   2
#     4  12  23  44  76 108 141 191 244 288 356 439
#     4  12  26  45  69 107 149 187 238 299 361 422
#     4  11  20  38  74 109 140 193 238 288 357 438
#     4  12  26  45  69 107 149 187 238 299 361 422
#     4  12  26  49  74 104 141 185 243 303 358 424
#     4  11  20  39  70 102 151 190 226 299 363 420
#     4  12  23  44  76 108 141 191 244 288 356 439
#     4  12  26  49  74 104 141 185 243 303 358 424
#
# _framework density 22.764809
#
# number of rings (size 3 to 8) (size 9 to 14) (size 15 to 20)
#    0.000    0.250    7.500    2.250    0.000    2.000 
#    0.000    1.250    0.000    0.000    0.000    0.000 
#    0.000    0.000    0.000    0.000    0.000    0.000 
#
# Total GULP energy -198230.346983 kJ/mol
# GULP energy per Si atom -12389.396686 kJ/mol
# Density = 2.271300 g / cm^3
# Si number density = 22.764809 Si / 1000 Ang^3
#
#
#
# Elastic Constant Matrix: (Units=GPa)
#
#
# Indices 1 2 3 4 5 6 
#
# 1 109.6496 20.8755 19.0247 4.0928 -19.9162 0.4932
# 2 20.8755 104.9904 50.1564 9.6090 -3.2878 0.6332
# 3 19.0247 50.1564 78.6707 -9.5290 7.1614 6.3799
# 4 4.0928 9.6090 -9.5290 47.6765 -2.0011 7.9039
# 5 -19.9162 -3.2878 7.1614 -2.0011 33.5414 6.1630
# 6 0.4932 0.6332 6.3799 7.9039 6.1630 27.1179
#
#
#
# Elastic Compliance Matrix: (Units=1/GPa)
#
#
# Indices 1 2 3 4 5 6 
#
# 1 0.011117 -0.000347 -0.003202 -0.001086 0.007331 -0.000791
# 2 -0.000347 0.015404 -0.010936 -0.005688 0.002700 0.003264
# 3 -0.003202 -0.010936 0.022422 0.007655 -0.006243 -0.005774
# 4 -0.001086 -0.005688 0.007655 0.025266 0.000341 -0.009090
# 5 0.007331 0.002700 -0.006243 0.000341 0.037119 -0.007263
# 6 -0.000791 0.003264 -0.005774 -0.009090 -0.007263 0.042473
#
#
# Mechanical properties :
#
#
# Convention : Reuss Voigt Hill
#
# Bulk Modulus (GPa) = 50.06928 52.60264 51.33596
# Shear Modulus (GPa) = 26.39529 35.21742 30.80636
#
# Velocity S-wave (km/s) = 3.40880 3.93747 3.68264
# Velocity P-wave (km/s) = 6.12660 6.62033 6.37824
#
# Compressibility (1/GPa) = 0.01997233
#
# Stress axis : x y z
#
# Youngs Moduli (GPa) = 89.94997 64.92010 44.59998
#
# Poissons Ratio (x) = 0.02254 0.14280
# Poissons Ratio (y) = 0.03123 0.48774
# Poissons Ratio (z) = 0.28801 0.70997
#
# Static dielectric constant tensor:
#      x y z
#    x 4.144180 -0.154400 -0.015690 
#    y -0.154400 4.311440 -0.052760 
#    z -0.015690 -0.052760 3.962550 
# 
# 
# High freq. dielectric constant tensor:
#      x y z
#    x 1.899520 -0.010320 -0.009740 
#    y -0.010320 1.910480 -0.007440 
#    z -0.009740 -0.007440 1.887360 
# 
# From -- ./inp_files/348823.got.cif
#   From: 2010.06.25/outbox.cif.g09.slc.cpg/sg2_175_cif.got.tgz:348823.got - 2010.06.27 13:26:56.
