data_PCOD8029644
_publ_section_title
;
Structure prediction by ZEFSAII (Michael W. Deem and Ramdas Pophale) SiO2 
 PCOD8029644
Probable space group: P -1
;
_chemical_formula_sum "Si O2"
_cell_formula_units_Z 16
_cell_length_a 10.942455
_cell_length_b 18.506185
_cell_length_c 9.800662
_cell_angle_alpha 30.147662
_cell_angle_beta 115.660233
_cell_angle_gamma 128.339495
_cell_volume 754.404637
_symmetry_space_group_name_H-M "P -1"
_symmetry_group_IT_number 2
_symmetry_cell_setting 'triclinic'
loop_
_space_group_symop_operation_xyz
x,y,z
-x,-y,-z
loop_
_atom_site_type_symbol
_atom_site_label
_atom_site_fract_x
_atom_site_fract_y
_atom_site_fract_z
Si Si1 0.270613 0.119795 0.425144
Si Si2 0.542616 0.179988 0.670122
Si Si3 0.577191 0.703528 0.357383
Si Si4 0.397625 0.331912 0.870783
Si Si5 0.908095 0.657660 0.283222
Si Si6 0.891421 0.470832 0.304537
Si Si7 0.972275 0.798093 0.702172
Si Si8 0.929327 0.968544 0.166797
O O1 0.409626 0.151642 0.542897
O O2 0.179763 0.209443 0.288102
O O3 0.354278 0.204554 0.182326
O O4 0.138780 0.917392 0.672460
O O5 0.558531 0.291583 0.628863
O O6 0.718489 0.291902 0.501370
O O7 0.500000 0.000000 0.000000
O O8 0.556920 0.519591 0.669385
O O9 0.575907 0.746338 0.126383
O O10 0.738942 0.848245 0.270864
O O11 0.262387 0.375272 0.698578
O O12 0.904862 0.588360 0.245776
O O13 0.969943 0.570773 0.559462
O O14 0.033346 0.862725 0.011169
O O15 0.928595 0.603273 0.982772
O O16 0.003514 0.879361 0.433916
O O17 0.000000 0.000000 0.000000
#
# Coordination Sequence:
#
# PCOD8029644 Si02
#       8
#     2   2   2   2   2   2   2   2
#     4  11  22  38  64  93 128 161 222 267 310 372
#     4  12  26  41  63  97 131 169 213 264 323 378
#     4  11  23  38  66  93 128 166 210 259 325 380
#     4  11  22  42  64  96 126 168 212 264 318 382
#     4  11  21  41  62  91 129 165 204 264 317 377
#     4  11  25  38  64  94 133 162 211 265 320 374
#     4  11  21  37  63  96 123 167 216 266 314 370
#     4  12  22  39  65  91 126 166 216 260 311 385
#
# _framework density 21.208777000000001
#
# number of rings (size 3 to 8) (size 9 to 14) (size 15 to 20)
#    0.000    0.750    6.250    1.500    5.250    1.000 
#    0.000    1.250    0.000    1.500    0.000    0.000 
#    0.000    0.000    0.000    0.000    0.000    0.000 
#
# Total GULP energy -198344.407067 kJ/mol
# GULP energy per Si atom -12396.525442 kJ/mol
# Density = 2.116051 g / cm^3
# Si number density = 21.208777 Si / 1000 Ang^3
#
#
#
# Elastic Constant Matrix: (Units=GPa)
#
#
# Indices 1 2 3 4 5 6 
#
# 1 49.1793 15.7915 30.0734 16.4006 -4.3728 0.3881
# 2 15.7915 84.3050 49.3110 0.4169 -5.6258 3.8700
# 3 30.0734 49.3110 165.0033 3.2923 2.2357 7.5174
# 4 16.4006 0.4169 3.2923 40.0172 1.8027 -8.5806
# 5 -4.3728 -5.6258 2.2357 1.8027 30.2303 2.7927
# 6 0.3881 3.8700 7.5174 -8.5806 2.7927 25.0986
#
#
#
# Elastic Compliance Matrix: (Units=1/GPa)
#
#
# Indices 1 2 3 4 5 6 
#
# 1 0.028101 -0.002313 -0.004094 -0.012144 0.004990 -0.003559
# 2 -0.002313 0.014885 -0.004030 0.000762 0.002790 -0.001102
# 3 -0.004094 -0.004030 0.008075 0.000877 -0.001878 -0.001225
# 4 -0.012144 0.000762 0.000877 0.032554 -0.004679 0.011457
# 5 0.004990 0.002790 -0.001878 -0.004679 0.035243 -0.005466
# 6 -0.003559 -0.001102 -0.001225 0.011457 -0.005466 0.044960
#
#
# Mechanical properties :
#
#
# Convention : Reuss Voigt Hill
#
# Bulk Modulus (GPa) = 33.12524 54.31548 43.72036
# Shear Modulus (GPa) = 25.67358 32.62334 29.14846
#
# Velocity S-wave (km/s) = 3.48302 3.92624 3.71126
# Velocity P-wave (km/s) = 5.64161 6.79848 6.24689
#
# Compressibility (1/GPa) = 0.03018846
#
# Stress axis : x y z
#
# Youngs Moduli (GPa) = 35.58546 67.18230 123.84547
#
# Poissons Ratio (x) = 0.15539 0.50699
# Poissons Ratio (y) = 0.08231 0.49904
# Poissons Ratio (z) = 0.14568 0.27072
#
# Static dielectric constant tensor:
#      x y z
#    x 3.725010 0.183870 -0.128130 
#    y 0.183870 4.027970 -0.084260 
#    z -0.128130 -0.084260 4.047060 
# 
# 
# High freq. dielectric constant tensor:
#      x y z
#    x 1.807480 0.012800 -0.019530 
#    y 0.012800 1.838660 -0.010760 
#    z -0.019530 -0.010760 1.835770 
# 
# From -- ./inp_files/216513.got.cif
#   From: 2010.06.25/outbox.cif.g09.slc.cpg/sg2_109_cif.got.tgz:216513.got - 2010.06.27 13:26:56.
