data_PCOD8029913
_publ_section_title
;
Structure prediction by ZEFSAII (Michael W. Deem and Ramdas Pophale) SiO2 
 PCOD8029913
Probable space group: P -1
;
_chemical_formula_sum "Si O2"
_cell_formula_units_Z 16
_cell_length_a 18.508235
_cell_length_b 10.047844
_cell_length_c 9.777652
_cell_angle_alpha 139.091086
_cell_angle_beta 136.010853
_cell_angle_gamma 52.231844
_cell_volume 817.504527
_symmetry_space_group_name_H-M "P -1"
_symmetry_group_IT_number 2
_symmetry_cell_setting 'triclinic'
loop_
_space_group_symop_operation_xyz
x,y,z
-x,-y,-z
loop_
_atom_site_type_symbol
_atom_site_label
_atom_site_fract_x
_atom_site_fract_y
_atom_site_fract_z
Si Si1 0.679962 0.588470 0.573781
Si Si2 0.496660 0.600808 0.926135
Si Si3 0.678735 0.033884 0.015103
Si Si4 0.808398 0.321495 0.777538
Si Si5 0.806474 0.366827 0.348008
Si Si6 0.730340 0.526609 0.086575
Si Si7 0.024841 0.420966 0.818749
Si Si8 0.807253 0.891366 0.323119
O O1 0.564291 0.521882 0.363198
O O2 0.755529 0.457670 0.684963
O O3 0.727344 0.542398 0.452143
O O4 0.671130 0.830001 0.763066
O O5 0.435625 0.830959 0.039185
O O6 0.500000 0.500000 0.000000
O O7 0.611606 0.607004 0.029833
O O8 0.771172 0.147182 0.165267
O O9 0.703312 0.977284 0.162652
O O10 0.839778 0.082613 0.599323
O O11 0.731400 0.364296 0.836597
O O12 0.917442 0.400550 0.029887
O O13 0.798211 0.407410 0.207320
O O14 0.923375 0.382599 0.567796
O O15 0.783306 0.723085 0.268448
O O16 0.104239 0.204786 0.741970
O O17 0.000000 0.500000 0.000000
#
# Coordination Sequence:
#
# PCOD8029913 Si02
#       8
#     2   2   2   2   2   2   2   2
#     4  11  21  42  66  92 128 166 216 265 313 388
#     4  11  23  43  66  93 131 169 213 270 321 375
#     4  11  21  41  67  93 125 169 219 261 317 384
#     4  11  23  43  62  97 134 166 212 271 318 381
#     4  11  23  42  66  95 133 166 215 270 315 382
#     4  11  25  44  62  94 135 168 210 270 327 375
#     4  11  21  40  71  98 126 173 217 262 320 380
#     4  11  23  42  65  96 134 167 212 269 321 381
#
# _framework density 19.571759
#
# number of rings (size 3 to 8) (size 9 to 14) (size 15 to 20)
#    0.000    1.000    8.750    0.000    0.000    8.500 
#    0.000    1.250    0.000    0.000    0.000    0.000 
#    0.000    0.000    0.000    0.000    0.000    0.000 
#
# Total GULP energy -198339.841519 kJ/mol
# GULP energy per Si atom -12396.240095 kJ/mol
# Density = 1.952721 g / cm^3
# Si number density = 19.571759 Si / 1000 Ang^3
#
#
#
# Elastic Constant Matrix: (Units=GPa)
#
#
# Indices 1 2 3 4 5 6 
#
# 1 107.5403 45.5024 45.2522 6.4388 -5.5551 -8.0682
# 2 45.5024 96.5269 58.9494 16.5655 -8.1417 -3.6996
# 3 45.2522 58.9494 122.2837 27.8161 -3.4306 -9.6890
# 4 6.4388 16.5655 27.8161 47.8662 -7.3104 -6.4491
# 5 -5.5551 -8.1417 -3.4306 -7.3104 36.7568 -3.6939
# 6 -8.0682 -3.6996 -9.6890 -6.4491 -3.6939 32.0144
#
#
#
# Elastic Compliance Matrix: (Units=1/GPa)
#
#
# Indices 1 2 3 4 5 6 
#
# 1 0.012396 -0.004311 -0.002724 0.001918 0.001280 0.002335
# 2 -0.004311 0.016458 -0.006038 -0.001439 0.002037 -0.001067
# 3 -0.002724 -0.006038 0.013386 -0.005348 -0.001420 0.001426
# 4 0.001918 -0.001439 -0.005348 0.025602 0.005009 0.004434
# 5 0.001280 0.002037 -0.001420 0.005009 0.029167 0.004503
# 6 0.002335 -0.001067 0.001426 0.004434 0.004503 0.033545
#
#
# Mechanical properties :
#
#
# Convention : Reuss Voigt Hill
#
# Bulk Modulus (GPa) = 62.14166 69.52878 65.83522
# Shear Modulus (GPa) = 30.85173 35.10394 32.97783
#
# Velocity S-wave (km/s) = 3.97462 4.23969 4.10929
# Velocity P-wave (km/s) = 7.27208 7.71808 7.49840
#
# Compressibility (1/GPa) = 0.01609226
#
# Stress axis : x y z
#
# Youngs Moduli (GPa) = 80.67202 60.76179 74.70350
#
# Poissons Ratio (x) = 0.26197 0.20350
# Poissons Ratio (y) = 0.34781 0.45108
# Poissons Ratio (z) = 0.21976 0.36690
#
# Static dielectric constant tensor:
#      x y z
#    x 4.003780 -0.293350 0.012040 
#    y -0.293350 3.633150 0.041520 
#    z 0.012040 0.041520 3.873610 
# 
# 
# High freq. dielectric constant tensor:
#      x y z
#    x 1.759970 -0.007240 -0.001910 
#    y -0.007240 1.756970 0.003640 
#    z -0.001910 0.003640 1.774530 
# 
# From -- ./inp_files/312976.got.cif
#   From: 2010.06.25/outbox.cif.g09.slc.cpg/sg2_157_cif.got.tgz:312976.got - 2010.06.27 13:26:56.
