data_PCOD8029052
_publ_section_title
;
Structure prediction by ZEFSAII (Michael W. Deem and Ramdas Pophale) SiO2 
 PCOD8029052
Probable space group: P -1
;
_chemical_formula_sum "Si O2"
_cell_formula_units_Z 16
_cell_length_a 9.314587
_cell_length_b 14.061874
_cell_length_c 8.774665
_cell_angle_alpha 55.366598
_cell_angle_beta 116.339302
_cell_angle_gamma 127.657749
_cell_volume 740.397524
_symmetry_space_group_name_H-M "P -1"
_symmetry_group_IT_number 2
_symmetry_cell_setting 'triclinic'
loop_
_space_group_symop_operation_xyz
x,y,z
-x,-y,-z
loop_
_atom_site_type_symbol
_atom_site_label
_atom_site_fract_x
_atom_site_fract_y
_atom_site_fract_z
Si Si1 0.291026 0.737016 0.224106
Si Si2 0.294012 0.240904 0.278476
Si Si3 0.832391 0.128166 0.753091
Si Si4 0.117885 0.849540 0.828551
Si Si5 0.333086 0.092701 0.904993
Si Si6 0.315622 0.978621 0.514297
Si Si7 0.241635 0.275877 0.878771
Si Si8 0.413829 0.542344 0.556352
O O1 0.247364 0.772006 0.340309
O O2 0.480318 0.858131 0.143764
O O3 0.292668 0.599696 0.365054
O O4 0.138310 0.737365 0.037536
O O5 0.323808 0.116086 0.432806
O O6 0.432569 0.352547 0.355911
O O7 0.092738 0.210644 0.265019
O O8 0.332369 0.286191 0.077844
O O9 0.025690 0.177237 0.884125
O O10 0.850758 0.108425 0.601747
O O11 0.678328 0.985144 0.874325
O O12 0.169590 0.984766 0.821784
O O13 0.257129 0.885978 0.719175
O O14 0.318004 0.220777 0.830489
O O15 0.500000 0.000000 0.500000
O O16 0.279637 0.419033 0.710181
O O17 0.500000 0.500000 0.500000
#
# Coordination Sequence:
#
# PCOD8029052 Si02
#       8
#     2   2   2   2   2   2   2   2
#     4  11  23  46  67 101 137 184 218 269 340 406
#     4  12  25  47  66 102 136 177 230 277 334 403
#     4  11  22  40  70 105 136 168 217 281 349 392
#     4  11  24  41  71 103 141 170 220 283 347 396
#     4  11  19  40  70  98 136 177 208 273 342 407
#     4  12  24  38  69 112 142 168 217 283 348 405
#     4  12  24  44  71  97 136 182 229 273 331 403
#     4  12  28  46  71  92 132 189 237 271 327 399
#
# _framework density 21.610012000000001
#
# number of rings (size 3 to 8) (size 9 to 14) (size 15 to 20)
#    0.000    0.500    5.000    6.375    1.750    0.500 
#    0.000    0.625    0.000    0.000    0.000    0.000 
#    0.000    0.000    0.000    0.000    0.000    0.000 
#
# Total GULP energy -198330.906183 kJ/mol
# GULP energy per Si atom -12395.681636 kJ/mol
# Density = 2.156083 g / cm^3
# Si number density = 21.610012 Si / 1000 Ang^3
#
#
#
# Elastic Constant Matrix: (Units=GPa)
#
#
# Indices 1 2 3 4 5 6 
#
# 1 86.7097 27.2258 16.1710 5.2968 6.3298 -7.6322
# 2 27.2258 95.2216 43.0572 11.1927 5.6055 -19.9245
# 3 16.1710 43.0572 113.1526 -4.9406 -1.5538 -10.7770
# 4 5.2968 11.1927 -4.9406 38.3775 -7.2604 -0.4802
# 5 6.3298 5.6055 -1.5538 -7.2604 38.9467 0.1424
# 6 -7.6322 -19.9245 -10.7770 -0.4802 0.1424 31.5373
#
#
#
# Elastic Compliance Matrix: (Units=1/GPa)
#
#
# Indices 1 2 3 4 5 6 
#
# 1 0.012889 -0.002844 -0.000748 -0.001407 -0.001981 0.001054
# 2 -0.002844 0.016131 -0.005288 -0.005488 -0.003121 0.007626
# 3 -0.000748 -0.005288 0.011167 0.003460 0.001972 0.000338
# 4 -0.001407 -0.005488 0.003460 0.029531 0.006670 -0.002206
# 5 -0.001981 -0.003121 0.001972 0.006670 0.027776 -0.001801
# 6 0.001054 0.007626 0.000338 -0.002206 -0.001801 0.036872
#
#
# Mechanical properties :
#
#
# Convention : Reuss Voigt Hill
#
# Bulk Modulus (GPa) = 44.59034 51.99910 48.29472
# Shear Modulus (GPa) = 31.32823 35.68096 33.50459
#
# Velocity S-wave (km/s) = 3.81164 4.06782 3.94181
# Velocity P-wave (km/s) = 6.32853 6.79541 6.56612
#
# Compressibility (1/GPa) = 0.02242638
#
# Stress axis : x y z
#
# Youngs Moduli (GPa) = 77.58736 61.99416 89.54985
#
# Poissons Ratio (x) = 0.17633 0.06697
# Poissons Ratio (y) = 0.22069 0.47351
# Poissons Ratio (z) = 0.05803 0.32781
#
# Static dielectric constant tensor:
#      x y z
#    x 4.024050 -0.202340 -0.103670 
#    y -0.202340 3.850390 0.113430 
#    z -0.103670 0.113430 4.138140 
# 
# 
# High freq. dielectric constant tensor:
#      x y z
#    x 1.858940 -0.013080 -0.007590 
#    y -0.013080 1.830170 0.009860 
#    z -0.007590 0.009860 1.856260 
# 
# From -- ./inp_files/185266.got.cif
#   From: 2010.06.25/outbox.cif.g09.slc.cpg/sg2_93_cif.got.tgz:185266.got - 2010.06.27 13:26:56.
