data_PCOD8029391
_publ_section_title
;
Structure prediction by ZEFSAII (Michael W. Deem and Ramdas Pophale) SiO2 
 PCOD8029391
Probable space group: P -1
;
_chemical_formula_sum "Si O2"
_cell_formula_units_Z 16
_cell_length_a 8.278663
_cell_length_b 9.579549
_cell_length_c 28.200938
_cell_angle_alpha 44.039596
_cell_angle_beta 31.566054
_cell_angle_gamma 46.585380
_cell_volume 796.495445
_symmetry_space_group_name_H-M "P -1"
_symmetry_group_IT_number 2
_symmetry_cell_setting 'triclinic'
loop_
_space_group_symop_operation_xyz
x,y,z
-x,-y,-z
loop_
_atom_site_type_symbol
_atom_site_label
_atom_site_fract_x
_atom_site_fract_y
_atom_site_fract_z
Si Si1 0.329870 0.495812 0.593124
Si Si2 0.384200 0.498885 0.230512
Si Si3 0.668535 0.487944 0.264014
Si Si4 0.371154 0.498069 0.084761
Si Si5 0.753844 0.139352 0.403566
Si Si6 0.587915 0.177920 0.683190
Si Si7 0.366509 0.235530 0.970265
Si Si8 0.664946 0.195091 0.156881
O O1 0.500000 0.500000 0.500000
O O2 0.294807 0.715732 0.573506
O O3 0.547317 0.316389 0.612716
O O4 0.990821 0.438222 0.684844
O O5 0.545775 0.446996 0.253258
O O6 0.512584 0.684864 0.128575
O O7 0.465393 0.296668 0.227230
O O8 0.714179 0.276204 0.332877
O O9 0.421981 0.671394 0.306170
O O10 0.995644 0.564085 0.161251
O O11 0.514816 0.656478 0.041100
O O12 0.475202 0.273212 0.137062
O O13 0.500000 0.500000 0.000000
O O14 0.500000 0.000000 0.500000
O O15 0.091211 0.988453 0.357597
O O16 0.304604 0.050285 0.788142
O O17 0.989815 0.273356 0.055651
O O18 0.500000 0.000000 0.000000
#
# Coordination Sequence:
#
# PCOD8029391 Si02
#       8
#     2   2   2   2   2   2   2   2
#     4  11  26  44  67  97 129 168 215 265 317 381
#     4  11  23  43  62  96 131 166 217 265 314 381
#     4  11  24  42  65  96 131 165 213 266 317 381
#     4  11  21  39  62  93 130 167 212 259 315 377
#     4  11  25  45  68  94 126 170 212 263 327 376
#     4  11  23  45  68  90 133 168 209 268 318 379
#     4  11  22  38  63  93 128 169 218 257 316 383
#     4  11  20  41  65  91 127 174 209 260 322 373
#
# _framework density 20.088000000000001
#
# number of rings (size 3 to 8) (size 9 to 14) (size 15 to 20)
#    0.000    1.000    2.500    6.750    3.500    3.500 
#    2.250    2.500    0.000    0.000    0.000    0.000 
#    0.000    0.000    0.000    0.000    0.000    0.000 
#
# Total GULP energy -198440.002141 kJ/mol
# GULP energy per Si atom -12402.500134 kJ/mol
# Density = 2.004228 g / cm^3
# Si number density = 20.088000 Si / 1000 Ang^3
#
#
#
# Elastic Constant Matrix: (Units=GPa)
#
#
# Indices 1 2 3 4 5 6 
#
# 1 136.8561 55.2647 67.2503 8.0725 20.4116 -0.3572
# 2 55.2647 121.5235 60.2435 -5.9977 12.9739 -16.6658
# 3 67.2503 60.2435 144.8857 3.5752 8.7891 4.1388
# 4 8.0725 -5.9977 3.5752 31.7871 5.1078 -4.9769
# 5 20.4116 12.9739 8.7891 5.1078 46.2619 0.9340
# 6 -0.3572 -16.6658 4.1388 -4.9769 0.9340 19.6303
#
#
#
# Elastic Compliance Matrix: (Units=1/GPa)
#
#
# Indices 1 2 3 4 5 6 
#
# 1 0.010959 -0.003609 -0.003259 -0.003089 -0.002806 -0.002827
# 2 -0.003609 0.015278 -0.005142 0.007338 -0.002848 0.015985
# 3 -0.003259 -0.005142 0.010755 -0.002725 0.001288 -0.007445
# 4 -0.003089 0.007338 -0.002725 0.037247 -0.004621 0.016411
# 5 -0.002806 -0.002848 0.001288 -0.004621 0.024020 -0.005055
# 6 -0.002827 0.015985 -0.007445 0.016411 -0.005055 0.070432
#
#
# Mechanical properties :
#
#
# Convention : Reuss Voigt Hill
#
# Bulk Modulus (GPa) = 77.09453 85.42027 81.25740
# Shear Modulus (GPa) = 25.37633 34.23634 29.80633
#
# Velocity S-wave (km/s) = 3.55809 4.13282 3.85618
# Velocity P-wave (km/s) = 7.43920 8.08634 7.76951
#
# Compressibility (1/GPa) = 0.01297109
#
# Stress axis : x y z
#
# Youngs Moduli (GPa) = 91.24893 65.45531 92.98314
#
# Poissons Ratio (x) = 0.23621 0.30303
# Poissons Ratio (y) = 0.32930 0.47815
# Poissons Ratio (z) = 0.29738 0.33659
#
# Static dielectric constant tensor:
#      x y z
#    x 3.715740 -0.102950 -0.087080 
#    y -0.102950 3.767650 -0.057070 
#    z -0.087080 -0.057070 3.955800 
# 
# 
# High freq. dielectric constant tensor:
#      x y z
#    x 1.790280 -0.004980 -0.006250 
#    y -0.004980 1.789390 -0.003840 
#    z -0.006250 -0.003840 1.797300 
# 
# From -- ./inp_files/530017.got.cif
#   From: 2010.06.25/outbox.cif.g09.slc.cpg/sg2_266_cif.got.tgz:530017.got - 2010.06.27 13:26:56.
