data_PCOD8029365
_publ_section_title
;
Structure prediction by ZEFSAII (Michael W. Deem and Ramdas Pophale) SiO2 
 PCOD8029365
Probable space group: P -1
;
_chemical_formula_sum "Si O2"
_cell_formula_units_Z 14
_cell_length_a 9.240758
_cell_length_b 8.695161
_cell_length_c 14.613117
_cell_angle_alpha 139.512206
_cell_angle_beta 48.070844
_cell_angle_gamma 107.606126
_cell_volume 513.166414
_symmetry_space_group_name_H-M "P -1"
_symmetry_group_IT_number 2
_symmetry_cell_setting 'triclinic'
loop_
_space_group_symop_operation_xyz
x,y,z
-x,-y,-z
loop_
_atom_site_type_symbol
_atom_site_label
_atom_site_fract_x
_atom_site_fract_y
_atom_site_fract_z
Si Si1 0.497991 0.166767 0.769454
Si Si2 0.082255 0.192729 0.324955
Si Si3 0.127999 0.303186 0.677102
Si Si4 0.442331 0.057458 0.940515
Si Si5 0.815348 0.392167 0.694953
Si Si6 0.225227 0.000741 0.688033
Si Si7 0.418496 0.535869 0.654655
O O1 0.591166 0.360935 0.775057
O O2 0.679156 0.872844 0.551608
O O3 0.455236 0.214211 0.915856
O O4 0.277531 0.183274 0.821323
O O5 0.339932 0.019233 0.127252
O O6 0.000000 0.500000 0.500000
O O7 0.989336 0.166978 0.454850
O O8 0.974087 0.075320 0.241044
O O9 0.174113 0.562907 0.780303
O O10 0.904041 0.361167 0.747997
O O11 0.156833 0.166812 0.700112
O O12 0.406984 0.803035 0.820992
O O13 0.240316 0.309060 0.185677
O O14 0.429351 0.717002 0.462662
O O15 0.500000 0.500000 0.500000
#
# Coordination Sequence:
#
# PCOD8029365 Si02
#       7
#     2   2   2   2   2   2   2
#     4  11  21  42  71  98 136 179 225 276 336 402
#     4  12  25  44  70  98 136 178 225 278 341 397
#     4  11  22  41  70  98 132 182 227 272 337 400
#     4  12  25  44  70 103 136 178 226 277 342 409
#     4  12  26  44  69 101 139 180 224 278 341 410
#     4  11  23  40  74  99 131 185 229 277 336 401
#     4  11  20  40  71 100 133 176 228 277 336 399
#
# _framework density 27.281596
#
# number of rings (size 3 to 8) (size 9 to 14) (size 15 to 20)
#    0.000    0.571    7.143    3.429    0.000    1.143 
#    0.000    2.857    0.000    0.000    0.000    0.000 
#    0.000    0.000    0.000    0.000    0.000    0.000 
#
# Total GULP energy -173469.250820 kJ/mol
# GULP energy per Si atom -12390.660773 kJ/mol
# Density = 2.721950 g / cm^3
# Si number density = 27.281596 Si / 1000 Ang^3
#
#
#
# Elastic Constant Matrix: (Units=GPa)
#
#
# Indices 1 2 3 4 5 6 
#
# 1 213.6439 54.3850 38.4662 22.2257 1.7883 26.4715
# 2 54.3850 88.9173 6.7597 25.4380 0.1844 6.5876
# 3 38.4662 6.7597 75.9330 13.4275 -5.2772 6.1476
# 4 22.2257 25.4380 13.4275 36.2699 7.7933 6.5146
# 5 1.7883 0.1844 -5.2772 7.7933 36.0503 8.2284
# 6 26.4715 6.5876 6.1476 6.5146 8.2284 65.8100
#
#
#
# Elastic Compliance Matrix: (Units=1/GPa)
#
#
# Indices 1 2 3 4 5 6 
#
# 1 0.006305 -0.003510 -0.002749 0.000014 -0.000268 -0.001896
# 2 -0.003510 0.016268 0.002401 -0.010781 0.002707 0.000288
# 3 -0.002749 0.002401 0.015835 -0.006636 0.003980 -0.000455
# 4 0.000014 -0.010781 -0.006636 0.039766 -0.009266 -0.001085
# 5 -0.000268 0.002707 0.003980 -0.009266 0.031125 -0.003510
# 6 -0.001896 0.000288 -0.000455 -0.001085 -0.003510 0.016518
#
#
# Mechanical properties :
#
#
# Convention : Reuss Voigt Hill
#
# Bulk Modulus (GPa) = 32.58144 64.19065 48.38605
# Shear Modulus (GPa) = 34.77911 46.21826 40.49869
#
# Velocity S-wave (km/s) = 3.57433 4.12043 3.85706
# Velocity P-wave (km/s) = 5.38545 6.79833 6.13271
#
# Compressibility (1/GPa) = 0.03069232
#
# Stress axis : x y z
#
# Youngs Moduli (GPa) = 158.60642 61.46909 63.15054
#
# Poissons Ratio (x) = 0.21578 0.17360
# Poissons Ratio (y) = 0.55677 -0.15165
# Poissons Ratio (z) = 0.43602 -0.14761
#
# Static dielectric constant tensor:
#      x y z
#    x 5.445970 0.307040 0.195610 
#    y 0.307040 5.506500 -0.150700 
#    z 0.195610 -0.150700 5.152210 
# 
# 
# High freq. dielectric constant tensor:
#      x y z
#    x 2.110720 0.007070 0.013910 
#    y 0.007070 2.127210 0.005460 
#    z 0.013910 0.005460 2.086220 
# 
# From -- ./inp_files/224232.got.cif
#   From: 2010.06.25/outbox.cif.g09.slc.cpg/sg2_113_cif.got.tgz:224232.got - 2010.06.27 13:26:56.
