data_PCOD8029209
_publ_section_title
;
Structure prediction by ZEFSAII (Michael W. Deem and Ramdas Pophale) SiO2 
 PCOD8029209
Probable space group: P -1
;
_chemical_formula_sum "Si O2"
_cell_formula_units_Z 16
_cell_length_a 12.195082
_cell_length_b 11.319650
_cell_length_c 14.391201
_cell_angle_alpha 149.794918
_cell_angle_beta 49.428616
_cell_angle_gamma 122.590291
_cell_volume 757.755066
_symmetry_space_group_name_H-M "P -1"
_symmetry_group_IT_number 2
_symmetry_cell_setting 'triclinic'
loop_
_space_group_symop_operation_xyz
x,y,z
-x,-y,-z
loop_
_atom_site_type_symbol
_atom_site_label
_atom_site_fract_x
_atom_site_fract_y
_atom_site_fract_z
Si Si1 0.308279 0.296459 0.299470
Si Si2 0.847303 0.697348 0.314822
Si Si3 0.593535 0.383037 0.289178
Si Si4 0.853501 0.542057 0.007073
Si Si5 0.057388 0.652597 0.657171
Si Si6 0.375413 0.067928 0.931094
Si Si7 0.167457 0.147701 0.939222
Si Si8 0.289211 0.935849 0.229022
O O1 0.479727 0.332730 0.236920
O O2 0.198672 0.517678 0.535071
O O3 0.272041 0.077746 0.237594
O O4 0.294674 0.267462 0.175755
O O5 0.707954 0.553945 0.307348
O O6 0.817059 0.946358 0.553005
O O7 0.989880 0.560533 0.184448
O O8 0.869765 0.718166 0.205424
O O9 0.500000 0.500000 0.500000
O O10 0.672888 0.153548 0.133592
O O11 0.755693 0.328099 0.943436
O O12 0.781950 0.698531 0.070409
O O13 0.000000 0.500000 0.500000
O O14 0.096515 0.913697 0.780638
O O15 0.939794 0.687704 0.826761
O O16 0.311610 0.072809 0.866592
O O17 0.547489 0.071990 0.829181
#
# Coordination Sequence:
#
# PCOD8029209 Si02
#       8
#     2   2   2   2   2   2   2   2
#     4  11  21  39  67  99 127 165 217 280 329 375
#     4  11  23  42  67  95 125 174 218 273 326 377
#     4  11  20  37  68  96 127 161 219 282 328 365
#     4  11  26  43  63  95 136 174 219 258 318 404
#     4  11  24  42  66  96 132 168 218 271 326 387
#     4  11  22  39  65  98 131 168 217 270 330 387
#     4  11  26  42  63  96 134 179 212 263 328 391
#     4  11  23  42  66  95 129 171 216 268 322 380
#
# _framework density 21.115003000000002
#
# number of rings (size 3 to 8) (size 9 to 14) (size 15 to 20)
#    0.000    1.000    3.750    4.875    3.500    3.500 
#    0.000    0.625    0.000    0.000    0.000    0.000 
#    0.000    0.000    0.000    0.000    0.000    0.000 
#
# Total GULP energy -198332.549454 kJ/mol
# GULP energy per Si atom -12395.784341 kJ/mol
# Density = 2.106694 g / cm^3
# Si number density = 21.115003 Si / 1000 Ang^3
#
#
#
# Elastic Constant Matrix: (Units=GPa)
#
#
# Indices 1 2 3 4 5 6 
#
# 1 99.7346 29.6217 29.5412 4.4837 -0.1691 -16.1686
# 2 29.6217 73.3151 12.1811 6.7329 -1.5434 -1.8696
# 3 29.5412 12.1811 89.0287 -7.2649 5.0329 -6.1456
# 4 4.4837 6.7329 -7.2649 29.4548 2.0650 -0.9922
# 5 -0.1691 -1.5434 5.0329 2.0650 40.9232 0.1031
# 6 -16.1686 -1.8696 -6.1456 -0.9922 0.1031 28.0220
#
#
#
# Elastic Compliance Matrix: (Units=1/GPa)
#
#
# Indices 1 2 3 4 5 6 
#
# 1 0.013610 -0.004565 -0.003591 -0.001716 0.000395 0.006699
# 2 -0.004565 0.015949 -0.001126 -0.003356 0.000895 -0.001939
# 3 -0.003591 -0.001126 0.013087 0.004193 -0.001881 0.000878
# 4 -0.001716 -0.003356 0.004193 0.036221 -0.002480 0.000997
# 5 0.000395 0.000895 -0.001881 -0.002480 0.024829 -0.000304
# 6 0.006699 -0.001939 0.000878 0.000997 -0.000304 0.039651
#
#
# Mechanical properties :
#
#
# Convention : Reuss Voigt Hill
#
# Bulk Modulus (GPa) = 41.52612 44.97404 43.25008
# Shear Modulus (GPa) = 29.42241 32.39562 30.90902
#
# Velocity S-wave (km/s) = 3.73693 3.92120 3.83017
# Velocity P-wave (km/s) = 6.19103 6.46891 6.33149
#
# Compressibility (1/GPa) = 0.02408123
#
# Stress axis : x y z
#
# Youngs Moduli (GPa) = 73.47482 62.69979 76.41079
#
# Poissons Ratio (x) = 0.28626 0.27442
# Poissons Ratio (y) = 0.33545 0.08601
# Poissons Ratio (z) = 0.26388 0.07058
#
# Static dielectric constant tensor:
#      x y z
#    x 3.915290 -0.001220 0.214340 
#    y -0.001220 3.427510 0.034620 
#    z 0.214340 0.034620 4.220770 
# 
# 
# High freq. dielectric constant tensor:
#      x y z
#    x 1.832240 0.006950 0.005510 
#    y 0.006950 1.804560 -0.008800 
#    z 0.005510 -0.008800 1.847000 
# 
# From -- ./inp_files/457456.got.cif
#   From: 2010.06.25/outbox.cif.g09.slc.cpg/sg2_229_cif.got.tgz:457456.got - 2010.06.27 13:26:56.
