data_PCOD8029144
_publ_section_title
;
Structure prediction by ZEFSAII (Michael W. Deem and Ramdas Pophale) SiO2 
 PCOD8029144
Probable space group: P -1
;
_chemical_formula_sum "Si O2"
_cell_formula_units_Z 14
_cell_length_a 16.114856
_cell_length_b 28.538615
_cell_length_c 28.983414
_cell_angle_alpha 170.081716
_cell_angle_beta 163.127506
_cell_angle_gamma 17.444080
_cell_volume 648.936858
_symmetry_space_group_name_H-M "P -1"
_symmetry_group_IT_number 2
_symmetry_cell_setting 'triclinic'
loop_
_space_group_symop_operation_xyz
x,y,z
-x,-y,-z
loop_
_atom_site_type_symbol
_atom_site_label
_atom_site_fract_x
_atom_site_fract_y
_atom_site_fract_z
Si Si1 0.348035 0.654334 0.370464
Si Si2 0.766308 0.222978 0.873587
Si Si3 0.649283 0.792250 0.130592
Si Si4 0.349210 0.484816 0.306117
Si Si5 0.449116 0.900786 0.453018
Si Si6 0.418945 0.109307 0.114205
Si Si7 0.325005 0.377809 0.920720
O O1 0.452611 0.616697 0.442587
O O2 0.998275 0.732426 0.259297
O O3 0.481412 0.888523 0.643297
O O4 0.470266 0.378912 0.138677
O O5 0.782765 0.073227 0.687148
O O6 0.082961 0.289580 0.114151
O O7 0.728610 0.999051 0.675667
O O8 0.500000 0.500000 0.000000
O O9 0.537077 0.719577 0.050499
O O10 0.012973 0.454942 0.094231
O O11 0.539458 0.169948 0.104201
O O12 0.389466 0.678893 0.559433
O O13 0.320654 0.103976 0.623258
O O14 0.518315 0.580302 0.197540
O O15 0.500000 0.000000 0.000000
#
# Coordination Sequence:
#
# PCOD8029144 Si02
#       7
#     2   2   2   2   2   2   2
#     4   9  17  32  50  81 118 160 188 236 294 363
#     4  11  25  43  64  84 119 162 209 248 293 348
#     4   9  17  29  54  81 119 152 194 237 298 347
#     4  11  23  37  58  88 128 158 197 243 309 360
#     4  11  23  37  62  83 118 156 201 254 290 348
#     4  12  26  40  62  89 123 161 199 246 306 354
#     4  11  20  36  58  94 122 155 195 255 299 352
#
# _framework density 21.573747000000001
#
# number of rings (size 3 to 8) (size 9 to 14) (size 15 to 20)
#    0.000    1.429    1.429    4.714    4.000    4.571 
#    0.000    0.000    0.000    0.000    0.000   20.000 
#    0.000    0.000    0.000    0.000    0.000    0.000 
#
# Total GULP energy -173541.135291 kJ/mol
# GULP energy per Si atom -12395.795378 kJ/mol
# Density = 2.152464 g / cm^3
# Si number density = 21.573747 Si / 1000 Ang^3
#
#
#
# Elastic Constant Matrix: (Units=GPa)
#
#
# Indices 1 2 3 4 5 6 
#
# 1 117.8818 10.6109 30.8209 2.5846 2.0947 19.0917
# 2 10.6109 50.8161 14.0508 8.1184 1.1100 2.2003
# 3 30.8209 14.0508 115.7180 18.3270 1.3744 5.8564
# 4 2.5846 8.1184 18.3270 25.0496 3.7124 2.5753
# 5 2.0947 1.1100 1.3744 3.7124 49.0501 4.0560
# 6 19.0917 2.2003 5.8564 2.5753 4.0560 17.7376
#
#
#
# Elastic Compliance Matrix: (Units=1/GPa)
#
#
# Indices 1 2 3 4 5 6 
#
# 1 0.011060 -0.001490 -0.002565 0.002322 0.000392 -0.011299
# 2 -0.001490 0.021264 -0.001273 -0.005836 0.000041 0.000225
# 3 -0.002565 -0.001273 0.010590 -0.007163 0.000352 0.000382
# 4 0.002322 -0.005836 -0.007163 0.047830 -0.002916 -0.005688
# 5 0.000392 0.000041 0.000352 -0.002916 0.020987 -0.004919
# 6 -0.011299 0.000225 0.000382 -0.005688 -0.004919 0.070336
#
#
# Mechanical properties :
#
#
# Convention : Reuss Voigt Hill
#
# Bulk Modulus (GPa) = 31.00081 43.93126 37.46603
# Shear Modulus (GPa) = 24.57290 33.62969 29.10129
#
# Velocity S-wave (km/s) = 3.37860 3.95248 3.67675
# Velocity P-wave (km/s) = 5.44250 6.42160 5.95221
#
# Compressibility (1/GPa) = 0.03225722
#
# Stress axis : x y z
#
# Youngs Moduli (GPa) = 90.41511 47.02880 94.42541
#
# Poissons Ratio (x) = 0.07009 0.24224
# Poissons Ratio (y) = 0.13476 0.12016
# Poissons Ratio (z) = 0.23195 0.05985
#
# Static dielectric constant tensor:
#      x y z
#    x 4.109470 0.246220 0.037420 
#    y 0.246220 3.497070 0.140660 
#    z 0.037420 0.140660 3.987810 
# 
# 
# High freq. dielectric constant tensor:
#      x y z
#    x 1.858950 0.020560 -0.001940 
#    y 0.020560 1.790000 0.017080 
#    z -0.001940 0.017080 1.859120 
# 
# From -- ./inp_files/620004.got.cif
#   From: 2010.06.25/outbox.cif.g09.slc.cpg/sg2_311_cif.got.tgz:620004.got - 2010.06.27 13:26:56.
