data_PCOD8029128
_publ_section_title
;
Structure prediction by ZEFSAII (Michael W. Deem and Ramdas Pophale) SiO2 
 PCOD8029128
Probable space group: P -1
;
_chemical_formula_sum "Si O2"
_cell_formula_units_Z 16
_cell_length_a 20.106291
_cell_length_b 23.083699
_cell_length_c 11.879904
_cell_angle_alpha 28.683110
_cell_angle_beta 144.029199
_cell_angle_gamma 161.883723
_cell_volume 811.749625
_symmetry_space_group_name_H-M "P -1"
_symmetry_group_IT_number 2
_symmetry_cell_setting 'triclinic'
loop_
_space_group_symop_operation_xyz
x,y,z
-x,-y,-z
loop_
_atom_site_type_symbol
_atom_site_label
_atom_site_fract_x
_atom_site_fract_y
_atom_site_fract_z
Si Si1 0.604609 0.330714 0.741029
Si Si2 0.736200 0.431537 0.413978
Si Si3 0.675669 0.935406 0.386255
Si Si4 0.173008 0.663251 0.118912
Si Si5 0.048327 0.162464 0.643609
Si Si6 0.103581 0.939387 0.140363
Si Si7 0.535859 0.196248 0.312444
Si Si8 0.680592 0.249462 0.183872
O O1 0.383472 0.154972 0.668860
O O2 0.762151 0.386668 0.789273
O O3 0.720422 0.563957 0.520760
O O4 0.546199 0.217593 0.973499
O O5 0.516006 0.283498 0.420351
O O6 0.786120 0.344595 0.683323
O O7 0.701894 0.395708 0.293922
O O8 0.939562 0.702581 0.254526
O O9 0.895678 0.069691 0.491915
O O10 0.689367 0.093560 0.138974
O O11 0.921884 0.465876 0.096256
O O12 0.943505 0.103116 0.719506
O O13 0.078656 0.047935 0.866981
O O14 0.351121 0.123422 0.149052
O O15 0.678754 0.295827 0.229494
O O16 0.420056 0.973734 0.583601
#
# Coordination Sequence:
#
# PCOD8029128 Si02
#       8
#     2   2   2   2   2   2   2   2
#     4  11  21  38  60  91 117 151 192 244 297 340
#     4  11  21  37  60  88 120 154 188 235 304 342
#     4  11  21  34  60  91 118 146 186 245 299 345
#     4  11  20  35  61  91 120 144 186 248 296 345
#     4  11  22  37  63  86 118 151 198 245 291 336
#     4  11  23  40  58  88 120 154 195 243 285 346
#     4  11  23  41  58  86 123 157 192 235 286 355
#     4  11  22  38  64  86 117 161 191 232 297 351
#
# _framework density 19.710509999999999
#
# number of rings (size 3 to 8) (size 9 to 14) (size 15 to 20)
#    0.000    1.000    6.250    3.375    0.000    2.000 
#    2.250    0.625    0.000    1.500    0.000    0.000 
#    0.000    0.000    0.000    0.000    0.000    0.000 
#
# Total GULP energy -198444.842746 kJ/mol
# GULP energy per Si atom -12402.802672 kJ/mol
# Density = 1.966565 g / cm^3
# Si number density = 19.710510 Si / 1000 Ang^3
#
#
#
# Elastic Constant Matrix: (Units=GPa)
#
#
# Indices 1 2 3 4 5 6 
#
# 1 50.0425 32.0447 23.0959 4.4723 -0.5968 -17.7491
# 2 32.0447 115.6866 49.1317 8.6971 7.3943 -32.9660
# 3 23.0959 49.1317 99.9724 20.7920 8.9641 -10.9976
# 4 4.4723 8.6971 20.7920 22.1372 2.0360 -5.1925
# 5 -0.5968 7.3943 8.9641 2.0360 17.9650 4.4906
# 6 -17.7491 -32.9660 -10.9976 -5.1925 4.4906 28.3657
#
#
#
# Elastic Compliance Matrix: (Units=1/GPa)
#
#
# Indices 1 2 3 4 5 6 
#
# 1 0.028086 -0.002189 -0.004469 0.002568 0.000345 0.013712
# 2 -0.002189 0.017514 -0.006130 0.004638 -0.009487 0.018959
# 3 -0.004469 -0.006130 0.016446 -0.013147 -0.002971 -0.005481
# 4 0.002568 0.004638 -0.013147 0.058838 -0.005309 0.013511
# 5 0.000345 -0.009487 -0.002971 -0.005309 0.067571 -0.023631
# 6 0.013712 0.018959 -0.005481 0.013511 -0.023631 0.069957
#
#
# Mechanical properties :
#
#
# Convention : Reuss Voigt Hill
#
# Bulk Modulus (GPa) = 27.42084 52.69401 40.05742
# Shear Modulus (GPa) = 16.88365 24.45554 20.66960
#
# Velocity S-wave (km/s) = 2.92992 3.52623 3.24181
# Velocity P-wave (km/s) = 5.03864 6.58567 5.86340
#
# Compressibility (1/GPa) = 0.03646861
#
# Stress axis : x y z
#
# Youngs Moduli (GPa) = 35.60544 57.09695 60.80621
#
# Poissons Ratio (x) = 0.12500 0.27175
# Poissons Ratio (y) = 0.07795 0.37274
# Poissons Ratio (z) = 0.15913 0.35000
#
# Static dielectric constant tensor:
#      x y z
#    x 3.266770 -0.253260 -0.048830 
#    y -0.253260 3.727260 0.090360 
#    z -0.048830 0.090360 3.635260 
# 
# 
# High freq. dielectric constant tensor:
#      x y z
#    x 1.730100 -0.021560 -0.005840 
#    y -0.021560 1.780070 0.003740 
#    z -0.005840 0.003740 1.768350 
# 
# From -- ./inp_files/270563.got.cif
#   From: 2010.06.25/outbox.cif.g09.slc.cpg/sg2_136_cif.got.tgz:270563.got - 2010.06.27 13:26:56.
