data_PCOD8029124
_publ_section_title
;
Structure prediction by ZEFSAII (Michael W. Deem and Ramdas Pophale) SiO2 
 PCOD8029124
Probable space group: P -1
;
_chemical_formula_sum "Si O2"
_cell_formula_units_Z 16
_cell_length_a 23.595100
_cell_length_b 9.945511
_cell_length_c 11.828652
_cell_angle_alpha 56.006453
_cell_angle_beta 20.460553
_cell_angle_gamma 56.289249
_cell_volume 799.814607
_symmetry_space_group_name_H-M "P -1"
_symmetry_group_IT_number 2
_symmetry_cell_setting 'triclinic'
loop_
_space_group_symop_operation_xyz
x,y,z
-x,-y,-z
loop_
_atom_site_type_symbol
_atom_site_label
_atom_site_fract_x
_atom_site_fract_y
_atom_site_fract_z
Si Si1 0.410211 0.832052 0.869355
Si Si2 0.252080 0.632447 0.876521
Si Si3 0.755260 0.907760 0.110271
Si Si4 0.713982 0.447600 0.894085
Si Si5 0.007758 0.903096 0.280680
Si Si6 0.672098 0.065608 0.778304
Si Si7 0.502339 0.239793 0.810122
Si Si8 0.920829 0.664222 0.746676
O O1 0.594658 0.870919 0.493795
O O2 0.285399 0.958052 0.973946
O O3 0.393478 0.650383 0.942649
O O4 0.359671 0.838928 0.090619
O O5 0.407242 0.665727 0.498276
O O6 0.305099 0.625684 0.911105
O O7 0.106903 0.779277 0.065895
O O8 0.194740 0.461595 0.027655
O O9 0.842145 0.742180 0.971225
O O10 0.875514 0.971632 0.946632
O O11 0.902162 0.428377 0.513009
O O12 0.649233 0.638124 0.918550
O O13 0.929464 0.805288 0.572602
O O14 0.862405 0.003726 0.436534
O O15 0.625236 0.189982 0.705872
O O16 0.562502 0.916454 0.051656
#
# Coordination Sequence:
#
# PCOD8029124 Si02
#       8
#     2   2   2   2   2   2   2   2
#     4  11  22  37  62  92 120 154 192 250 296 348
#     4  11  22  37  61  89 121 151 198 252 295 342
#     4  11  21  35  60  96 121 147 197 246 301 348
#     4  11  22  38  62  90 121 153 197 248 299 344
#     4  11  20  38  60  91 120 153 195 244 301 349
#     4  11  24  41  63  82 123 163 197 239 289 362
#     4  11  25  42  58  88 119 164 202 235 292 353
#     4  11  20  35  59  92 122 150 187 250 303 346
#
# _framework density 20.004636000000001
#
# number of rings (size 3 to 8) (size 9 to 14) (size 15 to 20)
#    0.000    1.000    3.750    6.000    1.750    1.000 
#    0.000    1.250    0.000    3.000    0.000    0.000 
#    0.000    0.000    0.000    0.000    0.000    0.000 
#
# Total GULP energy -198513.217770 kJ/mol
# GULP energy per Si atom -12407.076111 kJ/mol
# Density = 1.995910 g / cm^3
# Si number density = 20.004636 Si / 1000 Ang^3
#
#
#
# Elastic Constant Matrix: (Units=GPa)
#
#
# Indices 1 2 3 4 5 6 
#
# 1 62.2096 25.3600 16.9461 -0.4772 -17.8118 -1.0607
# 2 25.3600 88.9800 19.9018 15.2098 -2.2932 10.1143
# 3 16.9461 19.9018 65.2140 9.4899 -14.6243 -2.7227
# 4 -0.4772 15.2098 9.4899 39.1698 2.8001 -14.2239
# 5 -17.8118 -2.2932 -14.6243 2.8001 23.6527 7.0976
# 6 -1.0607 10.1143 -2.7227 -14.2239 7.0976 30.3085
#
#
#
# Elastic Compliance Matrix: (Units=1/GPa)
#
#
# Indices 1 2 3 4 5 6 
#
# 1 0.023650 -0.006423 -0.000720 0.001705 0.016594 -0.000179
# 2 -0.006423 0.016410 -0.002515 -0.009523 -0.000596 -0.010256
# 3 -0.000720 -0.002515 0.020013 -0.006045 0.013306 -0.003341
# 4 0.001705 -0.009523 -0.006045 0.041220 -0.015994 0.025784
# 5 0.016594 -0.000596 0.013306 -0.015994 0.071523 -0.022280
# 6 -0.000179 -0.010256 -0.003341 0.025784 -0.022280 0.053429
#
#
# Mechanical properties :
#
#
# Convention : Reuss Voigt Hill
#
# Bulk Modulus (GPa) = 24.53532 37.86883 31.20207
# Shear Modulus (GPa) = 19.29413 28.90590 24.10002
#
# Velocity S-wave (km/s) = 3.10898 3.80539 3.47468
# Velocity P-wave (km/s) = 5.01788 6.18701 5.63286
#
# Compressibility (1/GPa) = 0.04075758
#
# Stress axis : x y z
#
# Youngs Moduli (GPa) = 42.28253 60.93897 49.96791
#
# Poissons Ratio (x) = 0.39141 0.03597
# Poissons Ratio (y) = 0.27158 0.12567
# Poissons Ratio (z) = 0.03044 0.15326
#
# Static dielectric constant tensor:
#      x y z
#    x 3.471880 0.153300 -0.180890 
#    y 0.153300 3.762900 0.204740 
#    z -0.180890 0.204740 3.665780 
# 
# 
# High freq. dielectric constant tensor:
#      x y z
#    x 1.761070 0.022320 -0.017770 
#    y 0.022320 1.788070 0.014450 
#    z -0.017770 0.014450 1.786360 
# 
# From -- ./inp_files/182570.got.cif
#   From: 2010.06.25/outbox.cif.g09.slc.cpg/sg2_92_cif.got.tgz:182570.got - 2010.06.27 13:26:56.
