data_PCOD8029392
_publ_section_title
;
Structure prediction by ZEFSAII (Michael W. Deem and Ramdas Pophale) SiO2 
 PCOD8029392
Probable space group: P -1
;
_chemical_formula_sum "Si O2"
_cell_formula_units_Z 16
_cell_length_a 8.894401
_cell_length_b 14.072454
_cell_length_c 17.826653
_cell_angle_alpha 40.896222
_cell_angle_beta 42.631827
_cell_angle_gamma 32.612594
_cell_volume 755.683951
_symmetry_space_group_name_H-M "P -1"
_symmetry_group_IT_number 2
_symmetry_cell_setting 'triclinic'
loop_
_space_group_symop_operation_xyz
x,y,z
-x,-y,-z
loop_
_atom_site_type_symbol
_atom_site_label
_atom_site_fract_x
_atom_site_fract_y
_atom_site_fract_z
Si Si1 0.593657 0.005000 0.543014
Si Si2 0.247445 0.028035 0.794274
Si Si3 0.262599 0.335709 0.670740
Si Si4 0.839867 0.210982 0.461681
Si Si5 0.763288 0.578666 0.601526
Si Si6 0.594783 0.340411 0.838206
Si Si7 0.574448 0.602958 0.965943
Si Si8 0.189756 0.469144 0.782068
O O1 0.402971 0.995662 0.677961
O O2 0.509979 0.209624 0.450124
O O3 0.500000 0.000000 0.500000
O O4 0.938594 0.831785 0.528019
O O5 0.293156 0.148844 0.759427
O O6 0.908069 0.132766 0.849630
O O7 0.367052 0.829103 0.901782
O O8 0.516679 0.313803 0.546723
O O9 0.310646 0.352463 0.729818
O O10 0.940520 0.525173 0.647598
O O11 0.838783 0.343739 0.323749
O O12 0.000000 0.000000 0.500000
O O13 0.631219 0.478033 0.703267
O O14 0.000000 0.500000 0.500000
O O15 0.392778 0.336879 0.856556
O O16 0.445526 0.432817 0.918300
O O17 0.890921 0.518538 0.878912
O O18 0.500000 0.500000 0.000000
#
# Coordination Sequence:
#
# PCOD8029392 Si02
#       8
#     2   2   2   2   2   2   2   2
#     4  12  24  36  65  97 138 164 220 265 328 387
#     4  11  24  47  66  99 131 176 219 271 329 392
#     4  11  23  41  68  97 139 176 211 268 335 396
#     4  12  22  41  63 100 139 178 208 268 332 392
#     4  11  20  41  65  98 133 172 215 265 330 393
#     4  11  25  42  71  95 133 173 219 272 324 392
#     4  12  26  49  71  92 128 177 229 272 327 390
#     4  12  25  43  65 102 132 172 225 270 331 385
#
# _framework density 21.172872999999999
#
# number of rings (size 3 to 8) (size 9 to 14) (size 15 to 20)
#    0.000    0.500    5.000    4.875    3.500    0.000 
#    0.000    3.750    0.000    0.000    0.000    0.000 
#    0.000    0.000    0.000    0.000    0.000    0.000 
#
# Total GULP energy -198271.065086 kJ/mol
# GULP energy per Si atom -12391.941568 kJ/mol
# Density = 2.112468 g / cm^3
# Si number density = 21.172873 Si / 1000 Ang^3
#
#
#
# Elastic Constant Matrix: (Units=GPa)
#
#
# Indices 1 2 3 4 5 6 
#
# 1 132.7745 28.0417 40.2909 8.2148 7.0096 -9.4812
# 2 28.0417 58.3454 29.1725 9.4802 -12.5975 -14.3216
# 3 40.2909 29.1725 101.3004 7.5843 -9.7157 7.4111
# 4 8.2148 9.4802 7.5843 30.2176 -0.1363 -9.5446
# 5 7.0096 -12.5975 -9.7157 -0.1363 37.5132 8.2810
# 6 -9.4812 -14.3216 7.4111 -9.5446 8.2810 34.2386
#
#
#
# Elastic Compliance Matrix: (Units=1/GPa)
#
#
# Indices 1 2 3 4 5 6 
#
# 1 0.009768 -0.003022 -0.003725 0.000291 -0.004561 0.003432
# 2 -0.003022 0.025483 -0.006055 -0.002781 0.005554 0.009015
# 3 -0.003725 -0.006055 0.014400 -0.003422 0.004294 -0.008674
# 4 0.000291 -0.002781 -0.003422 0.038317 -0.004244 0.011366
# 5 -0.004561 0.005554 0.004294 -0.004244 0.032436 -0.008898
# 6 0.003432 0.009015 -0.008674 0.011366 -0.008898 0.041126
#
#
# Mechanical properties :
#
#
# Convention : Reuss Voigt Hill
#
# Bulk Modulus (GPa) = 41.58675 54.15895 47.87285
# Shear Modulus (GPa) = 25.62147 33.38824 29.50485
#
# Velocity S-wave (km/s) = 3.48243 3.97537 3.73704
# Velocity P-wave (km/s) = 5.98782 6.83421 6.42496
#
# Compressibility (1/GPa) = 0.02404612
#
# Stress axis : x y z
#
# Youngs Moduli (GPa) = 102.37467 39.24168 69.44570
#
# Poissons Ratio (x) = 0.11858 0.25870
# Poissons Ratio (y) = 0.30937 0.42052
# Poissons Ratio (z) = 0.38136 0.23762
#
# Static dielectric constant tensor:
#      x y z
#    x 4.317770 -0.346890 0.123920 
#    y -0.346890 3.805600 -0.101290 
#    z 0.123920 -0.101290 3.960860 
# 
# 
# High freq. dielectric constant tensor:
#      x y z
#    x 1.843040 -0.010780 -0.003350 
#    y -0.010780 1.832690 0.002800 
#    z -0.003350 0.002800 1.833060 
# 
# From -- ./inp_files/294566.got.cif
#   From: 2010.06.25/outbox.cif.g09.slc.cpg/sg2_148_cif.got.tgz:294566.got - 2010.06.27 13:26:56.
