data_PCOD8029512
_publ_section_title
;
Structure prediction by ZEFSAII (Michael W. Deem and Ramdas Pophale) SiO2 
 PCOD8029512
Probable space group: P -1
;
_chemical_formula_sum "Si O2"
_cell_formula_units_Z 16
_cell_length_a 9.028296
_cell_length_b 15.789933
_cell_length_c 8.042095
_cell_angle_alpha 107.017493
_cell_angle_beta 79.595352
_cell_angle_gamma 140.209284
_cell_volume 699.747060
_symmetry_space_group_name_H-M "P -1"
_symmetry_group_IT_number 2
_symmetry_cell_setting 'triclinic'
loop_
_space_group_symop_operation_xyz
x,y,z
-x,-y,-z
loop_
_atom_site_type_symbol
_atom_site_label
_atom_site_fract_x
_atom_site_fract_y
_atom_site_fract_z
Si Si1 0.336306 0.773387 0.203102
Si Si2 0.010892 0.783038 0.324761
Si Si3 0.979193 0.052696 0.795907
Si Si4 0.735058 0.369605 0.528455
Si Si5 0.236813 0.267648 0.121192
Si Si6 0.485609 0.537686 0.344580
Si Si7 0.509723 0.774060 0.835243
Si Si8 0.158249 0.943256 0.690231
O O1 0.126641 0.747901 0.203571
O O2 0.287622 0.691578 0.327457
O O3 0.567186 0.934182 0.274209
O O4 0.350392 0.725575 0.999357
O O5 0.110245 0.919170 0.307571
O O6 0.081602 0.825664 0.525973
O O7 0.737842 0.652212 0.277694
O O8 0.757007 0.935828 0.894205
O O9 0.068110 0.998891 0.672788
O O10 0.207992 0.203003 0.915477
O O11 0.615058 0.409827 0.597265
O O12 0.613582 0.262254 0.337804
O O13 0.000000 0.500000 0.500000
O O14 0.319784 0.406321 0.178685
O O15 0.428208 0.302771 0.215585
O O16 0.971471 0.139928 0.162264
O O17 0.500000 0.500000 0.500000
#
# Coordination Sequence:
#
# PCOD8029512 Si02
#       8
#     2   2   2   2   2   2   2   2
#     4  12  26  46  70 108 145 186 234 292 357 417
#     4  12  26  41  69 106 142 185 236 287 351 429
#     4  11  22  44  71 107 132 185 237 291 359 406
#     4  12  28  48  74 104 142 190 235 290 358 419
#     4  11  22  42  77  98 138 184 233 295 345 415
#     4  12  23  46  70  99 140 187 236 286 349 423
#     4  11  23  47  75 102 144 185 233 298 351 418
#     4  11  20  43  72  99 139 178 236 296 346 412
#
# _framework density 22.865404999999999
#
# number of rings (size 3 to 8) (size 9 to 14) (size 15 to 20)
#    0.000    0.500    5.000    4.500    0.000    2.500 
#    0.000    0.000    0.000    0.000    0.000    0.000 
#    0.000    0.000    0.000    0.000    0.000    0.000 
#
# Total GULP energy -198324.879647 kJ/mol
# GULP energy per Si atom -12395.304978 kJ/mol
# Density = 2.281336 g / cm^3
# Si number density = 22.865405 Si / 1000 Ang^3
#
#
#
# Elastic Constant Matrix: (Units=GPa)
#
#
# Indices 1 2 3 4 5 6 
#
# 1 121.8472 55.7510 28.3680 -8.5136 -17.3621 18.0507
# 2 55.7510 119.9244 44.8348 5.2056 -16.0005 14.7625
# 3 28.3680 44.8348 104.3573 8.2190 -10.4857 2.3222
# 4 -8.5136 5.2056 8.2190 43.1237 1.3200 0.6864
# 5 -17.3621 -16.0005 -10.4857 1.3200 28.9164 -3.4160
# 6 18.0507 14.7625 2.3222 0.6864 -3.4160 37.0061
#
#
#
# Elastic Compliance Matrix: (Units=1/GPa)
#
#
# Indices 1 2 3 4 5 6 
#
# 1 0.011665 -0.004173 -0.001158 0.002972 0.003706 -0.003665
# 2 -0.004173 0.012415 -0.003734 -0.001659 0.002803 -0.002393
# 3 -0.001158 -0.003734 0.011815 -0.002109 0.001798 0.001518
# 4 0.002972 -0.001659 -0.002109 0.024433 -0.001157 -0.001216
# 5 0.003706 0.002803 0.001798 -0.001157 0.039134 0.000595
# 6 -0.003665 -0.002393 0.001518 -0.001216 0.000595 0.029747
#
#
# Mechanical properties :
#
#
# Convention : Reuss Voigt Hill
#
# Bulk Modulus (GPa) = 56.29375 67.11516 61.70446
# Shear Modulus (GPa) = 32.62419 36.28758 34.45589
#
# Velocity S-wave (km/s) = 3.78139 3.98805 3.88609
# Velocity P-wave (km/s) = 6.61349 7.11492 6.86878
#
# Compressibility (1/GPa) = 0.01776396
#
# Stress axis : x y z
#
# Youngs Moduli (GPa) = 85.72793 80.54650 84.64172
#
# Poissons Ratio (x) = 0.33613 0.09803
# Poissons Ratio (y) = 0.35776 0.31605
# Poissons Ratio (z) = 0.09929 0.30076
#
# Static dielectric constant tensor:
#      x y z
#    x 4.035120 -0.015340 -0.021710 
#    y -0.015340 4.209230 -0.052710 
#    z -0.021710 -0.052710 4.084410 
# 
# 
# High freq. dielectric constant tensor:
#      x y z
#    x 1.890610 0.003090 -0.007410 
#    y 0.003090 1.907650 0.002040 
#    z -0.007410 0.002040 1.908110 
# 
# From -- ./inp_files/208334.got.cif
#   From: 2010.06.25/outbox.cif.g09.slc.cpg/sg2_105_cif.got.tgz:208334.got - 2010.06.27 13:26:56.
