data_PCOD8029497
_publ_section_title
;
Structure prediction by ZEFSAII (Michael W. Deem and Ramdas Pophale) SiO2 
 PCOD8029497
Probable space group: P -1
;
_chemical_formula_sum "Si O2"
_cell_formula_units_Z 16
_cell_length_a 18.860012
_cell_length_b 18.473764
_cell_length_c 9.950495
_cell_angle_alpha 146.448588
_cell_angle_beta 44.215257
_cell_angle_gamma 157.092128
_cell_volume 724.637677
_symmetry_space_group_name_H-M "P -1"
_symmetry_group_IT_number 2
_symmetry_cell_setting 'triclinic'
loop_
_space_group_symop_operation_xyz
x,y,z
-x,-y,-z
loop_
_atom_site_type_symbol
_atom_site_label
_atom_site_fract_x
_atom_site_fract_y
_atom_site_fract_z
Si Si1 0.605794 0.149447 0.388239
Si Si2 0.261800 0.879198 0.294266
Si Si3 0.915324 0.391445 0.158636
Si Si4 0.348937 0.270928 0.754507
Si Si5 0.936666 0.722374 0.145625
Si Si6 0.982502 0.972673 0.697180
Si Si7 0.429700 0.412960 0.307418
Si Si8 0.466620 0.757046 0.124524
O O1 0.797817 0.356127 0.363647
O O2 0.606009 0.274198 0.679609
O O3 0.430757 0.967400 0.243614
O O4 0.595444 0.005107 0.264380
O O5 0.088303 0.665355 0.298125
O O6 0.322679 0.094112 0.561689
O O7 0.213480 0.792971 0.074472
O O8 0.981191 0.334267 0.060666
O O9 0.419579 0.352821 0.630484
O O10 0.500000 0.500000 0.000000
O O11 0.149879 0.133465 0.826521
O O12 0.014027 0.883447 0.417836
O O13 0.712571 0.472094 0.077418
O O14 0.996037 0.864146 0.151093
O O15 0.772870 0.740223 0.682136
O O16 0.500000 0.500000 0.500000
O O17 0.410716 0.240765 0.023363
#
# Coordination Sequence:
#
# PCOD8029497 Si02
#       8
#     2   2   2   2   2   2   2   2
#     4  11  25  44  67 100 142 185 219 291 358 414
#     4  11  25  44  68 100 139 182 240 283 341 439
#     4  11  24  44  71  99 136 187 234 286 349 421
#     4  12  27  47  68 104 150 181 230 300 358 427
#     4  11  20  43  69 101 138 171 234 295 340 415
#     4  11  23  41  72 102 136 181 232 291 354 411
#     4  12  24  44  77 103 132 190 239 293 353 417
#     4  11  23  43  69 104 142 172 236 293 345 426
#
# _framework density 22.079999000000001
#
# number of rings (size 3 to 8) (size 9 to 14) (size 15 to 20)
#    0.000    0.750    5.000    2.625    1.750    2.000 
#    4.500    0.000    0.000    0.000    0.000    0.000 
#    0.000    0.000    0.000    0.000    0.000    0.000 
#
# Total GULP energy -198468.550281 kJ/mol
# GULP energy per Si atom -12404.284393 kJ/mol
# Density = 2.202974 g / cm^3
# Si number density = 22.079999 Si / 1000 Ang^3
#
#
#
# Elastic Constant Matrix: (Units=GPa)
#
#
# Indices 1 2 3 4 5 6 
#
# 1 78.7661 39.6560 37.5321 -2.6501 -1.3332 10.2069
# 2 39.6560 137.8412 40.0030 -8.8637 -0.5239 12.5111
# 3 37.5321 40.0030 105.8167 4.1912 -16.1380 -5.6748
# 4 -2.6501 -8.8637 4.1912 31.3802 5.4783 1.5945
# 5 -1.3332 -0.5239 -16.1380 5.4783 29.4444 7.4572
# 6 10.2069 12.5111 -5.6748 1.5945 7.4572 40.9787
#
#
#
# Elastic Compliance Matrix: (Units=1/GPa)
#
#
# Indices 1 2 3 4 5 6 
#
# 1 0.017381 -0.002892 -0.005618 0.001898 -0.001686 -0.003991
# 2 -0.002892 0.009382 -0.003022 0.003212 -0.001612 -0.002394
# 3 -0.005618 -0.003022 0.014079 -0.004674 0.007496 0.003090
# 4 0.001898 0.003212 -0.004674 0.035135 -0.008468 -0.001927
# 5 -0.001686 -0.001612 0.007496 -0.008468 0.040846 -0.005154
# 6 -0.003991 -0.002394 0.003090 -0.001927 -0.005154 0.027569
#
#
# Mechanical properties :
#
#
# Convention : Reuss Voigt Hill
#
# Bulk Modulus (GPa) = 56.25034 61.86734 59.05884
# Shear Modulus (GPa) = 28.83777 34.04287 31.44032
#
# Velocity S-wave (km/s) = 3.61786 3.93083 3.77759
# Velocity P-wave (km/s) = 6.55614 6.97728 6.76998
#
# Compressibility (1/GPa) = 0.01777767
#
# Stress axis : x y z
#
# Youngs Moduli (GPa) = 57.53245 106.59145 71.02530
#
# Poissons Ratio (x) = 0.30828 0.39902
# Poissons Ratio (y) = 0.16639 0.21466
# Poissons Ratio (z) = 0.32322 0.32215
#
# Static dielectric constant tensor:
#      x y z
#    x 4.045150 0.080400 -0.042010 
#    y 0.080400 4.016730 0.062240 
#    z -0.042010 0.062240 3.918650 
# 
# 
# High freq. dielectric constant tensor:
#      x y z
#    x 1.872480 0.010530 -0.006010 
#    y 0.010530 1.870370 0.010200 
#    z -0.006010 0.010200 1.866450 
# 
# From -- ./inp_files/472770.got.cif
#   From: 2010.06.25/outbox.cif.g09.slc.cpg/sg2_237_cif.got.tgz:472770.got - 2010.06.27 13:26:56.
