data_PCOD8029734
_publ_section_title
;
Structure prediction by ZEFSAII (Michael W. Deem and Ramdas Pophale) SiO2 
 PCOD8029734
Probable space group: P -1
;
_chemical_formula_sum "Si O2"
_cell_formula_units_Z 16
_cell_length_a 7.573806
_cell_length_b 7.790451
_cell_length_c 17.191431
_cell_angle_alpha 92.486038
_cell_angle_beta 110.598960
_cell_angle_gamma 61.503811
_cell_volume 824.859284
_symmetry_space_group_name_H-M "P -1"
_symmetry_group_IT_number 2
_symmetry_cell_setting 'triclinic'
loop_
_space_group_symop_operation_xyz
x,y,z
-x,-y,-z
loop_
_atom_site_type_symbol
_atom_site_label
_atom_site_fract_x
_atom_site_fract_y
_atom_site_fract_z
Si Si1 0.101822 0.254262 0.686512
Si Si2 0.683322 0.721440 0.975439
Si Si3 0.037415 0.980297 0.133630
Si Si4 0.686418 0.701777 0.419601
Si Si5 0.048869 0.349422 0.393730
Si Si6 0.183319 0.945739 0.321751
Si Si7 0.327761 0.097753 0.869173
Si Si8 0.128977 0.710870 0.009208
O O1 0.236657 0.179915 0.624784
O O2 0.946271 0.493551 0.664066
O O3 0.960116 0.149542 0.675091
O O4 0.283056 0.201983 0.780706
O O5 0.515970 0.869844 0.888570
O O6 0.682937 0.515640 0.963419
O O7 0.909291 0.710926 0.995233
O O8 0.602647 0.794234 0.052809
O O9 0.894505 0.889747 0.140182
O O10 0.891786 0.198698 0.078689
O O11 0.179497 0.980610 0.228575
O O12 0.184098 0.836377 0.082952
O O13 0.750943 0.721186 0.517459
O O14 0.428731 0.795118 0.381043
O O15 0.817352 0.468797 0.407607
O O16 0.076226 0.158609 0.350041
#
# Coordination Sequence:
#
# PCOD8029734 Si02
#       8
#     2   2   2   2   2   2   2   2
#     4   9  21  39  56  88 120 145 195 249 267 360
#     4   9  18  31  53  74 100 150 174 221 283 321
#     4   9  20  34  48  78 106 136 186 229 270 340
#     4   9  21  42  58  91 118 146 199 237 282 361
#     4   9  21  42  59  89 119 147 198 236 286 358
#     4  11  21  39  62  85 119 157 186 241 297 334
#     4   9  18  34  50  76 108 135 187 225 276 332
#     4   9  18  33  50  73 108 137 183 227 263 338
#
# _framework density 19.397248000000001
#
# number of rings (size 3 to 8) (size 9 to 14) (size 15 to 20)
#    0.750    2.000    0.000    0.375    3.500    1.500 
#    6.750    0.000    0.000    0.000    0.000    0.000 
#    0.000    0.000    0.000    0.000    0.000    0.000 
#
# Total GULP energy -198242.684681 kJ/mol
# GULP energy per Si atom -12390.167793 kJ/mol
# Density = 1.935310 g / cm^3
# Si number density = 19.397248 Si / 1000 Ang^3
#
#
#
# Elastic Constant Matrix: (Units=GPa)
#
#
# Indices 1 2 3 4 5 6 
#
# 1 34.2071 19.9388 21.2881 -0.8302 -0.4362 -0.2111
# 2 19.9388 121.4052 68.1338 -2.0497 0.9007 -0.5967
# 3 21.2881 68.1338 138.6353 -21.7601 -1.1910 1.8405
# 4 -0.8302 -2.0497 -21.7601 32.7768 5.2293 -0.2771
# 5 -0.4362 0.9007 -1.1910 5.2293 18.7720 -7.2451
# 6 -0.2111 -0.5967 1.8405 -0.2771 -7.2451 22.7962
#
#
#
# Elastic Compliance Matrix: (Units=1/GPa)
#
#
# Indices 1 2 3 4 5 6 
#
# 1 0.033575 -0.003418 -0.003814 -0.002159 0.001707 0.001046
# 2 -0.003418 0.012077 -0.005936 -0.003295 0.000184 0.000782
# 3 -0.003814 -0.005936 0.011937 0.007736 -0.001836 -0.001644
# 4 -0.002159 -0.003295 0.007736 0.037144 -0.011234 -0.003850
# 5 0.001707 0.000184 -0.001836 -0.011234 0.064202 0.020437
# 6 0.001046 0.000782 -0.001644 -0.003850 0.020437 0.050478
#
#
# Mechanical properties :
#
#
# Convention : Reuss Voigt Hill
#
# Bulk Modulus (GPa) = 31.99779 56.99656 44.49718
# Shear Modulus (GPa) = 20.31141 27.19479 23.75310
#
# Velocity S-wave (km/s) = 3.23945 3.74838 3.50317
# Velocity P-wave (km/s) = 5.52484 6.94129 6.27317
#
# Compressibility (1/GPa) = 0.03125216
#
# Stress axis : x y z
#
# Youngs Moduli (GPa) = 29.78383 82.80480 83.77596
#
# Poissons Ratio (x) = 0.28300 0.31953
# Poissons Ratio (y) = 0.10179 0.49733
# Poissons Ratio (z) = 0.11360 0.49156
#
# Static dielectric constant tensor:
#      x y z
#    x 3.188830 -0.010830 -0.136420 
#    y -0.010830 3.628410 -0.058420 
#    z -0.136420 -0.058420 3.795030 
# 
# 
# High freq. dielectric constant tensor:
#      x y z
#    x 1.732580 -0.000510 -0.005590 
#    y -0.000510 1.751620 -0.013510 
#    z -0.005590 -0.013510 1.756980 
# 
# From -- ./inp_files/554515.got.cif
#   From: 2010.06.25/outbox.cif.g09.slc.cpg/sg2_278_cif.got.tgz:554515.got - 2010.06.27 13:26:56.
