data_PCOD8029592
_publ_section_title
;
Structure prediction by ZEFSAII (Michael W. Deem and Ramdas Pophale) SiO2 
 PCOD8029592
Probable space group: P -1
;
_chemical_formula_sum "Si O2"
_cell_formula_units_Z 16
_cell_length_a 12.390292
_cell_length_b 22.683818
_cell_length_c 5.145943
_cell_angle_alpha 81.161097
_cell_angle_beta 94.571279
_cell_angle_gamma 33.910948
_cell_volume 738.849397
_symmetry_space_group_name_H-M "P -1"
_symmetry_group_IT_number 2
_symmetry_cell_setting 'triclinic'
loop_
_space_group_symop_operation_xyz
x,y,z
-x,-y,-z
loop_
_atom_site_type_symbol
_atom_site_label
_atom_site_fract_x
_atom_site_fract_y
_atom_site_fract_z
Si Si1 0.654029 0.395486 0.897476
Si Si2 0.940980 0.597114 0.462944
Si Si3 0.697503 0.490951 0.571953
Si Si4 0.771650 0.140459 0.798630
Si Si5 0.209692 0.943781 0.631731
Si Si6 0.688437 0.711663 0.846165
Si Si7 0.119901 0.823250 0.814357
Si Si8 0.463015 0.335346 0.261053
O O1 0.766751 0.391839 0.739303
O O2 0.516967 0.413548 0.693552
O O3 0.500000 0.500000 0.000000
O O4 0.841655 0.266457 0.136525
O O5 0.825083 0.666779 0.658525
O O6 0.000000 0.500000 0.500000
O O7 0.138757 0.548663 0.536851
O O8 0.792769 0.689179 0.138167
O O9 0.647929 0.549692 0.789968
O O10 0.875438 0.065718 0.595749
O O11 0.532666 0.271827 0.595601
O O12 0.787745 0.079847 0.052492
O O13 0.899042 0.139757 0.922023
O O14 0.449955 0.845511 0.671408
O O15 0.078639 0.066772 0.478425
O O16 0.696694 0.634996 0.925676
O O17 0.328413 0.758559 0.801329
#
# Coordination Sequence:
#
# PCOD8029592 Si02
#       8
#     2   2   2   2   2   2   2   2
#     4  11  25  42  66  93 128 171 219 271 320 377
#     4  12  26  40  67  94 128 173 213 261 327 381
#     4  11  25  42  63  95 130 171 216 270 322 380
#     4  11  21  36  55  93 129 170 199 254 322 387
#     4  11  25  37  62  91 138 169 209 259 326 389
#     4  11  24  40  59  99 129 168 212 256 320 393
#     4  12  23  37  64  92 130 174 211 263 326 384
#     4  11  22  36  65  92 137 166 210 260 324 400
#
# _framework density 21.655291999999999
#
# number of rings (size 3 to 8) (size 9 to 14) (size 15 to 20)
#    0.000    0.750    6.250    2.625    5.250    0.000 
#    0.000    0.000    0.000    1.500    0.000    0.000 
#    0.000    0.000    0.000    0.000    0.000    0.000 
#
# Total GULP energy -198276.761980 kJ/mol
# GULP energy per Si atom -12392.297624 kJ/mol
# Density = 2.160600 g / cm^3
# Si number density = 21.655292 Si / 1000 Ang^3
#
#
#
# Elastic Constant Matrix: (Units=GPa)
#
#
# Indices 1 2 3 4 5 6 
#
# 1 118.9531 37.8915 30.0082 -5.9126 -12.4214 -2.7051
# 2 37.8915 106.1718 37.3563 0.0278 -18.7608 7.3795
# 3 30.0082 37.3563 91.4828 -2.6180 -18.8775 2.5158
# 4 -5.9126 0.0278 -2.6180 39.4278 2.1945 -13.5222
# 5 -12.4214 -18.7608 -18.8775 2.1945 27.8088 -1.5572
# 6 -2.7051 7.3795 2.5158 -13.5222 -1.5572 27.5379
#
#
#
# Elastic Compliance Matrix: (Units=1/GPa)
#
#
# Indices 1 2 3 4 5 6 
#
# 1 0.010151 -0.002966 -0.001881 0.002438 0.001245 0.003232
# 2 -0.002966 0.012790 -0.003144 -0.002435 0.005119 -0.004338
# 3 -0.001881 -0.003144 0.014218 0.000244 0.006663 -0.000145
# 4 0.002438 -0.002435 0.000244 0.031405 -0.001961 0.016180
# 5 0.001245 0.005119 0.006663 -0.001961 0.044630 -0.000297
# 6 0.003232 -0.004338 -0.000145 0.016180 -0.000297 0.045735
#
#
# Mechanical properties :
#
#
# Convention : Reuss Voigt Hill
#
# Bulk Modulus (GPa) = 47.22137 58.56885 52.89511
# Shear Modulus (GPa) = 27.47731 33.04502 30.26117
#
# Velocity S-wave (km/s) = 3.56596 3.91059 3.74224
# Velocity P-wave (km/s) = 6.22961 6.89166 6.56898
#
# Compressibility (1/GPa) = 0.02117685
#
# Stress axis : x y z
#
# Youngs Moduli (GPa) = 98.51598 78.18525 70.33570
#
# Poissons Ratio (x) = 0.23192 0.13227
# Poissons Ratio (y) = 0.29222 0.22113
# Poissons Ratio (z) = 0.18527 0.24581
#
# Static dielectric constant tensor:
#      x y z
#    x 3.698010 -0.076600 -0.039830 
#    y -0.076600 4.149200 -0.155900 
#    z -0.039830 -0.155900 4.471990 
# 
# 
# High freq. dielectric constant tensor:
#      x y z
#    x 1.800960 -0.010920 -0.008740 
#    y -0.010920 1.853300 0.004480 
#    z -0.008740 0.004480 1.874320 
# 
# From -- ./inp_files/82620.got.cif
#   From: 2010.06.25/outbox.cif.g09.slc.cpg/sg2_42_cif.got.tgz:82620.got - 2010.06.27 13:26:56.
