data_PCOD8029352
_publ_section_title
;
Structure prediction by ZEFSAII (Michael W. Deem and Ramdas Pophale) SiO2 
 PCOD8029352
Probable space group: P -1
;
_chemical_formula_sum "Si O2"
_cell_formula_units_Z 12
_cell_length_a 7.965256
_cell_length_b 11.708769
_cell_length_c 6.985535
_cell_angle_alpha 121.570727
_cell_angle_beta 124.205848
_cell_angle_gamma 72.737010
_cell_volume 459.052712
_symmetry_space_group_name_H-M "P -1"
_symmetry_group_IT_number 2
_symmetry_cell_setting 'triclinic'
loop_
_space_group_symop_operation_xyz
x,y,z
-x,-y,-z
loop_
_atom_site_type_symbol
_atom_site_label
_atom_site_fract_x
_atom_site_fract_y
_atom_site_fract_z
Si Si1 0.783443 0.335371 0.209600
Si Si2 0.763861 0.022830 0.334166
Si Si3 0.544625 0.801787 0.526722
Si Si4 0.777877 0.048983 0.926275
Si Si5 0.616361 0.737138 0.933659
Si Si6 0.204266 0.384627 0.721420
O O1 0.598827 0.339433 0.245488
O O2 0.781434 0.457717 0.168635
O O3 0.997325 0.325440 0.450790
O O4 0.752691 0.197319 0.945895
O O5 0.719078 0.065573 0.125769
O O6 0.684311 0.149055 0.522420
O O7 0.636522 0.886134 0.173239
O O8 0.000000 0.000000 0.500000
O O9 0.661919 0.747209 0.745722
O O10 0.589318 0.687068 0.296679
O O11 0.646250 0.938911 0.636284
O O12 0.000000 0.000000 0.000000
O O13 0.785050 0.643825 0.068597
#
# Coordination Sequence:
#
# PCOD8029352 Si02
#       6
#     2   2   2   2   2   2
#     4  11  22  45  67  97 139 173 222 277 324 400
#     4  11  23  40  66 100 131 171 223 276 331 390
#     4  11  23  43  68  99 132 174 220 279 332 388
#     4  11  20  40  69  90 131 171 211 279 332 378
#     4  11  23  44  67  94 139 171 221 278 326 393
#     4  11  26  42  70  98 133 181 220 268 337 396
#
# _framework density 26.140788000000001
#
# number of rings (size 3 to 8) (size 9 to 14) (size 15 to 20)
#    0.000    1.000    5.000    2.500    0.000    2.667 
#    0.000    3.333    0.000    0.000    0.000    0.000 
#    0.000    0.000    0.000    0.000    0.000    0.000 
#
# Total GULP energy -148705.374135 kJ/mol
# GULP energy per Si atom -12392.114511 kJ/mol
# Density = 2.608129 g / cm^3
# Si number density = 26.140788 Si / 1000 Ang^3
#
#
#
# Elastic Constant Matrix: (Units=GPa)
#
#
# Indices 1 2 3 4 5 6 
#
# 1 79.8558 33.3123 26.5434 1.3018 22.6130 -9.2016
# 2 33.3123 180.6557 36.4708 -0.7100 13.1126 5.9702
# 3 26.5434 36.4708 46.1921 1.8264 4.1199 11.7064
# 4 1.3018 -0.7100 1.8264 42.2061 -1.6965 9.1664
# 5 22.6130 13.1126 4.1199 -1.6965 32.0741 -0.0756
# 6 -9.2016 5.9702 11.7064 9.1664 -0.0756 43.7190
#
#
#
# Elastic Compliance Matrix: (Units=1/GPa)
#
#
# Indices 1 2 3 4 5 6 
#
# 1 0.022087 -0.000755 -0.012988 -0.002583 -0.013711 0.008747
# 2 -0.000755 0.006757 -0.004807 0.000248 -0.001599 0.000151
# 3 -0.012988 -0.004807 0.035251 0.001635 0.006652 -0.011848
# 4 -0.002583 0.000248 0.001635 0.025186 0.002827 -0.006291
# 5 -0.013711 -0.001599 0.006652 0.002827 0.040782 -0.004971
# 6 0.008747 0.000151 -0.011848 -0.006291 -0.004971 0.029177
#
#
# Mechanical properties :
#
#
# Convention : Reuss Voigt Hill
#
# Bulk Modulus (GPa) = 37.04077 55.48407 46.26242
# Shear Modulus (GPa) = 24.35018 37.62497 30.98757
#
# Velocity S-wave (km/s) = 3.05536 3.79795 3.44671
# Velocity P-wave (km/s) = 5.16212 6.36426 5.79445
#
# Compressibility (1/GPa) = 0.02699728
#
# Stress axis : x y z
#
# Youngs Moduli (GPa) = 45.27530 147.99432 28.36767
#
# Poissons Ratio (x) = 0.11171 0.36843
# Poissons Ratio (y) = 0.03418 0.13635
# Poissons Ratio (z) = 0.58802 0.71134
#
# Static dielectric constant tensor:
#      x y z
#    x 4.137620 -0.045550 0.464780 
#    y -0.045550 5.012950 -0.047190 
#    z 0.464780 -0.047190 4.485260 
# 
# 
# High freq. dielectric constant tensor:
#      x y z
#    x 2.037650 0.005220 0.020000 
#    y 0.005220 2.072300 -0.021050 
#    z 0.020000 -0.021050 2.032520 
# 
# From -- ./inp_files/181109.got.cif
#   From: 2010.06.25/outbox.cif.g09.slc.cpg/sg2_91_cif.got.tgz:181109.got - 2010.06.27 13:26:56.
