data_PCOD8029836
_publ_section_title
;
Structure prediction by ZEFSAII (Michael W. Deem and Ramdas Pophale) SiO2 
 PCOD8029836
Probable space group: P -1
;
_chemical_formula_sum "Si O2"
_cell_formula_units_Z 14
_cell_length_a 16.763072
_cell_length_b 12.598217
_cell_length_c 23.121373
_cell_angle_alpha 152.685860
_cell_angle_beta 18.084075
_cell_angle_gamma 154.171026
_cell_volume 640.573204
_symmetry_space_group_name_H-M "P -1"
_symmetry_group_IT_number 2
_symmetry_cell_setting 'triclinic'
loop_
_space_group_symop_operation_xyz
x,y,z
-x,-y,-z
loop_
_atom_site_type_symbol
_atom_site_label
_atom_site_fract_x
_atom_site_fract_y
_atom_site_fract_z
Si Si1 0.563913 0.836050 0.541032
Si Si2 0.882130 0.492746 0.140638
Si Si3 0.553664 0.017704 0.764564
Si Si4 0.240259 0.365298 0.922056
Si Si5 0.049101 0.517296 0.238852
Si Si6 0.082204 0.178598 0.152368
Si Si7 0.237305 0.729749 0.477705
O O1 0.807529 0.733843 0.317643
O O2 0.267273 0.602763 0.624588
O O3 0.595869 0.958651 0.640952
O O4 0.599502 0.048684 0.572179
O O5 0.607153 0.239638 0.215153
O O6 0.000000 0.500000 0.000000
O O7 0.127756 0.513856 0.026037
O O8 0.848717 0.182919 0.672799
O O9 0.388786 0.205941 0.974080
O O10 0.544411 0.380815 0.700878
O O11 0.030103 0.076561 0.930650
O O12 0.253027 0.479505 0.032064
O O13 0.085616 0.403859 0.219812
O O14 0.884135 0.153796 0.331738
O O15 0.000000 0.500000 0.500000
#
# Coordination Sequence:
#
# PCOD8029836 Si02
#       7
#     2   2   2   2   2   2   2
#     4  12  24  46  70  97 139 178 219 279 335 394
#     4  11  26  47  70  93 140 178 221 280 338 396
#     4  11  24  43  68 102 134 174 229 272 331 405
#     4  11  23  43  68  96 134 181 220 273 342 394
#     4  12  23  40  72  99 134 176 225 275 334 395
#     4  11  21  40  66 100 138 172 221 278 333 392
#     4  12  25  42  69 103 136 175 229 276 332 400
#
# _framework density 21.855423999999999
#
# number of rings (size 3 to 8) (size 9 to 14) (size 15 to 20)
#    0.000    0.571    4.286    6.000    2.000    0.571 
#    0.000    1.429    0.000    0.000    0.000    0.000 
#    0.000    0.000    0.000    0.000    0.000    0.000 
#
# Total GULP energy -173635.291313 kJ/mol
# GULP energy per Si atom -12402.520808 kJ/mol
# Density = 2.180568 g / cm^3
# Si number density = 21.855424 Si / 1000 Ang^3
#
#
#
# Elastic Constant Matrix: (Units=GPa)
#
#
# Indices 1 2 3 4 5 6 
#
# 1 100.8310 53.2819 48.3917 0.7331 29.5635 4.4773
# 2 53.2819 76.7980 28.0660 1.6709 4.8645 20.9022
# 3 48.3917 28.0660 143.0445 5.2983 8.9749 1.6908
# 4 0.7331 1.6709 5.2983 20.0976 -4.4897 -2.5680
# 5 29.5635 4.8645 8.9749 -4.4897 51.3723 -3.3883
# 6 4.4773 20.9022 1.6908 -2.5680 -3.3883 41.6543
#
#
#
# Elastic Compliance Matrix: (Units=1/GPa)
#
#
# Indices 1 2 3 4 5 6 
#
# 1 0.022540 -0.014583 -0.004133 -0.000360 -0.010624 0.004177
# 2 -0.014583 0.026002 -0.000287 -0.001846 0.005082 -0.011169
# 3 -0.004133 -0.000287 0.008463 -0.001858 0.000778 0.000193
# 4 -0.000360 -0.001846 -0.001858 0.052264 0.005585 0.004717
# 5 -0.010624 0.005082 0.000778 0.005585 0.025515 0.000980
# 6 0.004177 -0.011169 0.000193 0.004717 0.000980 0.029525
#
#
# Mechanical properties :
#
#
# Convention : Reuss Voigt Hill
#
# Bulk Modulus (GPa) = 52.63678 64.46140 58.54909
# Shear Modulus (GPa) = 23.96379 35.35376 29.65878
#
# Velocity S-wave (km/s) = 3.31489 4.02633 3.68780
# Velocity P-wave (km/s) = 6.22798 7.15357 6.70676
#
# Compressibility (1/GPa) = 0.01899812
#
# Stress axis : x y z
#
# Youngs Moduli (GPa) = 44.36654 38.45890 118.15993
#
# Poissons Ratio (x) = 0.56085 0.48838
# Poissons Ratio (y) = 0.64701 0.03387
# Poissons Ratio (z) = 0.18338 0.01103
#
# Static dielectric constant tensor:
#      x y z
#    x 4.022420 0.027450 -0.029110 
#    y 0.027450 4.158670 -0.095880 
#    z -0.029110 -0.095880 4.212760 
# 
# 
# High freq. dielectric constant tensor:
#      x y z
#    x 1.862820 0.008120 0.005910 
#    y 0.008120 1.856890 -0.000110 
#    z 0.005910 -0.000110 1.870160 
# 
# From -- ./inp_files/209244.got.cif
#   From: 2010.06.25/outbox.cif.g09.slc.cpg/sg2_105_cif.got.tgz:209244.got - 2010.06.27 13:26:56.
