data_PCOD8029656
_publ_section_title
;
Structure prediction by ZEFSAII (Michael W. Deem and Ramdas Pophale) SiO2 
 PCOD8029656
Probable space group: P -1
;
_chemical_formula_sum "Si O2"
_cell_formula_units_Z 16
_cell_length_a 11.889663
_cell_length_b 23.128957
_cell_length_c 8.626285
_cell_angle_alpha 130.392497
_cell_angle_beta 143.404618
_cell_angle_gamma 31.061446
_cell_volume 723.557934
_symmetry_space_group_name_H-M "P -1"
_symmetry_group_IT_number 2
_symmetry_cell_setting 'triclinic'
loop_
_space_group_symop_operation_xyz
x,y,z
-x,-y,-z
loop_
_atom_site_type_symbol
_atom_site_label
_atom_site_fract_x
_atom_site_fract_y
_atom_site_fract_z
Si Si1 0.452663 0.574494 0.946841
Si Si2 0.664324 0.107289 0.971674
Si Si3 0.246450 0.726732 0.244303
Si Si4 0.409791 0.084628 0.178812
Si Si5 0.734509 0.412994 0.733920
Si Si6 0.863065 0.925360 0.654860
Si Si7 0.684364 0.121608 0.355448
Si Si8 0.938452 0.726718 0.427504
O O1 0.716951 0.490200 0.970510
O O2 0.175400 0.630682 0.643098
O O3 0.500000 0.500000 0.000000
O O4 0.414875 0.663240 0.156931
O O5 0.364255 0.212017 0.736913
O O6 0.818990 0.986023 0.869223
O O7 0.570605 0.120602 0.067386
O O8 0.872220 0.117040 0.215291
O O9 0.316473 0.647652 0.324316
O O10 0.337439 0.781481 0.498937
O O11 0.921389 0.818751 0.994748
O O12 0.501417 0.142169 0.329003
O O13 0.572548 0.015463 0.395814
O O14 0.500000 0.000000 0.000000
O O15 0.500000 0.500000 0.500000
O O16 0.014764 0.320040 0.778651
O O17 0.946202 0.815388 0.589546
O O18 0.000000 0.000000 0.500000
#
# Coordination Sequence:
#
# PCOD8029656 Si02
#       8
#     2   2   2   2   2   2   2   2
#     4   9  21  40  66  90 113 153 209 264 312 353
#     4  11  23  38  54  88 130 157 201 234 291 367
#     4  11  22  38  64  89 122 165 201 250 310 358
#     4  12  22  37  59  90 129 165 206 236 295 375
#     4   9  19  39  64  89 111 153 210 259 307 354
#     4  11  24  36  56  89 127 164 194 241 290 364
#     4  12  23  36  58  88 129 168 199 240 294 363
#     4  11  21  37  66  85 115 160 199 245 309 356
#
# _framework density 22.112947999999999
#
# number of rings (size 3 to 8) (size 9 to 14) (size 15 to 20)
#    0.000    1.250    2.500    4.125    1.750    0.000 
#    0.000    0.000    0.000   60.000    0.000    0.000 
#    0.000    0.000    0.000    0.000    0.000    0.000 
#
# Total GULP energy -198233.372985 kJ/mol
# GULP energy per Si atom -12389.585812 kJ/mol
# Density = 2.206262 g / cm^3
# Si number density = 22.112948 Si / 1000 Ang^3
#
#
#
# Elastic Constant Matrix: (Units=GPa)
#
#
# Indices 1 2 3 4 5 6 
#
# 1 60.5532 42.4934 28.0156 7.1413 -10.1737 -5.4765
# 2 42.4934 120.5485 41.9649 12.9273 -7.9628 -8.1946
# 3 28.0156 41.9649 78.4384 6.0223 -9.4150 2.2126
# 4 7.1413 12.9273 6.0223 38.6065 -6.4842 -16.2403
# 5 -10.1737 -7.9628 -9.4150 -6.4842 37.0948 1.6834
# 6 -5.4765 -8.1946 2.2126 -16.2403 1.6834 36.9931
#
#
#
# Elastic Compliance Matrix: (Units=1/GPa)
#
#
# Indices 1 2 3 4 5 6 
#
# 1 0.024084 -0.006424 -0.004763 0.000054 0.003924 0.002272
# 2 -0.006424 0.012278 -0.004238 -0.001837 -0.000579 0.001242
# 3 -0.004763 -0.004238 0.017171 -0.001470 0.002040 -0.003409
# 4 0.000054 -0.001837 -0.001470 0.033444 0.004451 0.014169
# 5 0.003924 -0.000579 0.002040 0.004451 0.029162 0.000957
# 6 0.002272 0.001242 -0.003409 0.014169 0.000957 0.034024
#
#
# Mechanical properties :
#
#
# Convention : Reuss Voigt Hill
#
# Bulk Modulus (GPa) = 44.08261 53.83198 48.95729
# Shear Modulus (GPa) = 26.51460 32.34330 29.42895
#
# Velocity S-wave (km/s) = 3.46649 3.82860 3.65204
# Velocity P-wave (km/s) = 6.00005 6.62881 6.32225
#
# Compressibility (1/GPa) = 0.02268468
#
# Stress axis : x y z
#
# Youngs Moduli (GPa) = 41.52088 81.44412 58.23719
#
# Poissons Ratio (x) = 0.52319 0.27736
# Poissons Ratio (y) = 0.26673 0.24682
# Poissons Ratio (z) = 0.19774 0.34517
#
# Static dielectric constant tensor:
#      x y z
#    x 4.371400 -0.635340 -0.328320 
#    y -0.635340 4.868850 0.364140 
#    z -0.328320 0.364140 4.237380 
# 
# 
# High freq. dielectric constant tensor:
#      x y z
#    x 1.861240 -0.012760 -0.030230 
#    y -0.012760 1.886470 0.001010 
#    z -0.030230 0.001010 1.861980 
# 
# From -- ./inp_files/284985.got.cif
#   From: 2010.06.25/outbox.cif.g09.slc.cpg/sg2_143_cif.got.tgz:284985.got - 2010.06.27 13:26:56.
