data_PCOD8029887
_publ_section_title
;
Structure prediction by ZEFSAII (Michael W. Deem and Ramdas Pophale) SiO2 
 PCOD8029887
Probable space group: P -1
;
_chemical_formula_sum "Si O2"
_cell_formula_units_Z 16
_cell_length_a 12.984427
_cell_length_b 21.346344
_cell_length_c 17.172910
_cell_angle_alpha 21.188027
_cell_angle_beta 38.159783
_cell_angle_gamma 26.976325
_cell_volume 750.876903
_symmetry_space_group_name_H-M "P -1"
_symmetry_group_IT_number 2
_symmetry_cell_setting 'triclinic'
loop_
_space_group_symop_operation_xyz
x,y,z
-x,-y,-z
loop_
_atom_site_type_symbol
_atom_site_label
_atom_site_fract_x
_atom_site_fract_y
_atom_site_fract_z
Si Si1 0.853440 0.254172 0.248473
Si Si2 0.413918 0.598855 0.523735
Si Si3 0.228307 0.111814 0.077708
Si Si4 0.836899 0.284172 0.758153
Si Si5 0.223873 0.460269 0.895579
Si Si6 0.456506 0.029237 0.812623
Si Si7 0.578461 0.615777 0.666969
Si Si8 0.015855 0.447342 0.670512
O O1 0.724826 0.474221 0.131928
O O2 0.647282 0.322268 0.237539
O O3 0.015095 0.250844 0.102812
O O4 0.000000 0.000000 0.500000
O O5 0.500000 0.500000 0.500000
O O6 0.635228 0.406614 0.671580
O O7 0.204199 0.619180 0.653050
O O8 0.311208 0.867737 0.276972
O O9 0.435845 0.060759 0.059500
O O10 0.138365 0.309025 0.838127
O O11 0.726144 0.381358 0.796285
O O12 0.989578 0.341599 0.578108
O O13 0.000000 0.000000 0.000000
O O14 0.000000 0.500000 0.000000
O O15 0.455641 0.181782 0.054338
O O16 0.541158 0.148599 0.588546
O O17 0.170679 0.246892 0.739622
O O18 0.748440 0.571188 0.683721
#
# Coordination Sequence:
#
# PCOD8029887 Si02
#       8
#     2   2   2   2   2   2   2   2
#     4  12  21  44  67  97 131 178 231 274 332 406
#     4  12  26  41  68 106 136 174 228 288 344 388
#     4  12  23  44  69  95 140 176 222 286 338 400
#     4  11  24  43  65  95 137 175 219 276 338 407
#     4  12  23  38  68 104 130 176 230 280 330 410
#     4  11  21  40  69  95 129 174 230 273 330 401
#     4  11  23  42  67  94 131 182 224 272 333 407
#     4  11  26  41  66 102 134 178 221 280 354 395
#
# _framework density 21.308419000000001
#
# number of rings (size 3 to 8) (size 9 to 14) (size 15 to 20)
#    0.000    0.500    7.500    2.625    7.000    0.500 
#    0.000    0.000    0.000    1.500    0.000    0.000 
#    0.000    0.000    0.000    0.000    0.000    0.000 
#
# Total GULP energy -198287.597252 kJ/mol
# GULP energy per Si atom -12392.974828 kJ/mol
# Density = 2.125992 g / cm^3
# Si number density = 21.308419 Si / 1000 Ang^3
#
#
#
# Elastic Constant Matrix: (Units=GPa)
#
#
# Indices 1 2 3 4 5 6 
#
# 1 90.2604 38.5165 34.3814 -8.3923 -2.6356 -11.2851
# 2 38.5165 84.5294 39.1234 13.2582 -12.4629 -4.3469
# 3 34.3814 39.1234 126.5032 -17.2019 -4.5656 4.3655
# 4 -8.3923 13.2582 -17.2019 38.4030 5.6757 -9.3322
# 5 -2.6356 -12.4629 -4.5656 5.6757 30.8620 -4.1630
# 6 -11.2851 -4.3469 4.3655 -9.3322 -4.1630 48.6249
#
#
#
# Elastic Compliance Matrix: (Units=1/GPa)
#
#
# Indices 1 2 3 4 5 6 
#
# 1 0.016123 -0.008183 -0.001107 0.007313 -0.002861 0.004268
# 2 -0.008183 0.021849 -0.006013 -0.013740 0.009597 -0.001222
# 3 -0.001107 -0.006013 0.010946 0.006915 -0.002262 -0.000644
# 4 0.007313 -0.013740 0.006915 0.038524 -0.010126 0.006375
# 5 -0.002861 0.009597 -0.002262 -0.010126 0.037789 0.001689
# 6 0.004268 -0.001222 -0.000644 0.006375 0.001689 0.022873
#
#
# Mechanical properties :
#
#
# Convention : Reuss Voigt Hill
#
# Bulk Modulus (GPa) = 54.61089 58.37064 56.49077
# Shear Modulus (GPa) = 27.05393 36.19610 31.62501
#
# Velocity S-wave (km/s) = 3.56706 4.12597 3.85665
# Velocity P-wave (km/s) = 6.53067 7.08173 6.81177
#
# Compressibility (1/GPa) = 0.01831136
#
# Stress axis : x y z
#
# Youngs Moduli (GPa) = 62.02368 45.76794 91.35394
#
# Poissons Ratio (x) = 0.37453 0.10115
# Poissons Ratio (y) = 0.50756 0.54932
# Poissons Ratio (z) = 0.06868 0.27521
#
# Static dielectric constant tensor:
#      x y z
#    x 3.887320 0.033570 -0.178750 
#    y 0.033570 4.246830 0.128460 
#    z -0.178750 0.128460 3.953770 
# 
# 
# High freq. dielectric constant tensor:
#      x y z
#    x 1.825370 -0.008320 -0.017090 
#    y -0.008320 1.840800 0.004930 
#    z -0.017090 0.004930 1.836930 
# 
# From -- ./inp_files/469965.got.cif
#   From: 2010.06.25/outbox.cif.g09.slc.cpg/sg2_235_cif.got.tgz:469965.got - 2010.06.27 13:26:56.
