data_PCOD8029419
_publ_section_title
;
Structure prediction by ZEFSAII (Michael W. Deem and Ramdas Pophale) SiO2 
 PCOD8029419
Probable space group: P -1
;
_chemical_formula_sum "Si O2"
_cell_formula_units_Z 16
_cell_length_a 12.597168
_cell_length_b 8.873910
_cell_length_c 9.068585
_cell_angle_alpha 112.411710
_cell_angle_beta 119.048553
_cell_angle_gamma 56.089694
_cell_volume 726.925432
_symmetry_space_group_name_H-M "P -1"
_symmetry_group_IT_number 2
_symmetry_cell_setting 'triclinic'
loop_
_space_group_symop_operation_xyz
x,y,z
-x,-y,-z
loop_
_atom_site_type_symbol
_atom_site_label
_atom_site_fract_x
_atom_site_fract_y
_atom_site_fract_z
Si Si1 0.793348 0.402006 0.183871
Si Si2 0.540478 0.787567 0.113649
Si Si3 0.349175 0.646116 0.427490
Si Si4 0.362647 0.920228 0.767807
Si Si5 0.299342 0.828446 0.152558
Si Si6 0.109328 0.203636 0.305484
Si Si7 0.828426 0.471140 0.558367
Si Si8 0.079032 0.121071 0.583843
O O1 0.685221 0.604980 0.131223
O O2 0.784976 0.403812 0.355284
O O3 0.949290 0.336469 0.209088
O O4 0.751326 0.249630 0.045905
O O5 0.450424 0.802566 0.203276
O O6 0.562101 0.967216 0.202111
O O7 0.451674 0.790680 0.911435
O O8 0.500000 0.500000 0.500000
O O9 0.327962 0.817230 0.575582
O O10 0.315272 0.704571 0.258328
O O11 0.258786 0.545826 0.372760
O O12 0.206280 0.058541 0.760718
O O13 0.185442 0.039199 0.178614
O O14 0.190228 0.324668 0.397413
O O15 0.127395 0.113891 0.444585
O O16 0.985731 0.331167 0.645017
O O17 0.000000 0.000000 0.500000
#
# Coordination Sequence:
#
# PCOD8029419 Si02
#       8
#     2   2   2   2   2   2   2   2
#     4  11  23  45  68  97 135 177 228 268 337 404
#     4  11  25  42  70  98 134 182 219 281 327 411
#     4  12  25  41  66  97 138 174 220 280 338 400
#     4  11  23  44  67  97 133 176 233 262 334 407
#     4  12  25  43  67 103 137 172 224 278 349 381
#     4  11  24  42  70 103 133 176 226 285 331 393
#     4  11  23  43  72  96 132 180 231 270 331 406
#     4  11  20  41  70  99 125 179 229 274 322 402
#
# _framework density 22.01051
#
# number of rings (size 3 to 8) (size 9 to 14) (size 15 to 20)
#    0.000    0.750    2.500    6.000    3.500    0.500 
#    2.250    0.625    0.000    0.000    0.000    0.000 
#    0.000    0.000    0.000    0.000    0.000    0.000 
#
# Total GULP energy -198373.493717 kJ/mol
# GULP energy per Si atom -12398.343357 kJ/mol
# Density = 2.196041 g / cm^3
# Si number density = 22.010510 Si / 1000 Ang^3
#
#
#
# Elastic Constant Matrix: (Units=GPa)
#
#
# Indices 1 2 3 4 5 6 
#
# 1 138.5515 59.6498 52.8218 -2.4483 0.6588 9.7062
# 2 59.6498 134.2706 43.7134 -10.5833 -3.3062 -9.5049
# 3 52.8218 43.7134 67.8020 -15.3723 9.6158 2.7440
# 4 -2.4483 -10.5833 -15.3723 40.1930 -5.3139 13.6996
# 5 0.6588 -3.3062 9.6158 -5.3139 27.1156 -4.1606
# 6 9.7062 -9.5049 2.7440 13.6996 -4.1606 51.2342
#
#
#
# Elastic Compliance Matrix: (Units=1/GPa)
#
#
# Indices 1 2 3 4 5 6 
#
# 1 0.011452 -0.002812 -0.007773 -0.002298 0.001448 -0.001543
# 2 -0.002812 0.010776 -0.005413 0.000033 0.003787 0.003120
# 3 -0.007773 -0.005413 0.027794 0.008930 -0.009215 -0.004156
# 4 -0.002298 0.000033 0.008930 0.031203 0.001744 -0.008238
# 5 0.001448 0.003787 -0.009215 0.001744 0.041502 0.003826
# 6 -0.001543 0.003120 -0.004156 -0.008238 0.003826 0.023125
#
#
# Mechanical properties :
#
#
# Convention : Reuss Voigt Hill
#
# Bulk Modulus (GPa) = 55.47354 72.55489 64.01421
# Shear Modulus (GPa) = 27.19523 36.00449 31.59986
#
# Velocity S-wave (km/s) = 3.51886 4.04887 3.79314
# Velocity P-wave (km/s) = 6.46280 7.40899 6.95201
#
# Compressibility (1/GPa) = 0.01802661
#
# Stress axis : x y z
#
# Youngs Moduli (GPa) = 87.32071 92.80207 35.97908
#
# Poissons Ratio (x) = 0.26092 0.27967
# Poissons Ratio (y) = 0.24551 0.19474
# Poissons Ratio (z) = 0.67876 0.50231
#
# Static dielectric constant tensor:
#      x y z
#    x 4.027510 -0.115580 0.158660 
#    y -0.115580 3.937690 -0.152840 
#    z 0.158660 -0.152840 3.813060 
# 
# 
# High freq. dielectric constant tensor:
#      x y z
#    x 1.874100 -0.002840 0.015010 
#    y -0.002840 1.886100 -0.010210 
#    z 0.015010 -0.010210 1.849010 
# 
# From -- ./inp_files/245223.got.cif
#   From: 2010.06.25/outbox.cif.g09.slc.cpg/sg2_123_cif.got.tgz:245223.got - 2010.06.27 13:26:56.
