data_PCOD8029596
_publ_section_title
;
Structure prediction by ZEFSAII (Michael W. Deem and Ramdas Pophale) SiO2 
 PCOD8029596
Probable space group: P -1
;
_chemical_formula_sum "Si O2"
_cell_formula_units_Z 14
_cell_length_a 9.385352
_cell_length_b 9.431164
_cell_length_c 10.392885
_cell_angle_alpha 119.943398
_cell_angle_beta 99.524850
_cell_angle_gamma 59.344299
_cell_volume 680.821663
_symmetry_space_group_name_H-M "P -1"
_symmetry_group_IT_number 2
_symmetry_cell_setting 'triclinic'
loop_
_space_group_symop_operation_xyz
x,y,z
-x,-y,-z
loop_
_atom_site_type_symbol
_atom_site_label
_atom_site_fract_x
_atom_site_fract_y
_atom_site_fract_z
Si Si1 0.727545 0.085178 0.883032
Si Si2 0.002491 0.380342 0.568534
Si Si3 0.400855 0.351036 0.099868
Si Si4 0.865209 0.718742 0.885255
Si Si5 0.664807 0.009372 0.557635
Si Si6 0.759618 0.296036 0.616052
Si Si7 0.123034 0.694470 0.098889
O O1 0.585448 0.205211 0.019189
O O2 0.851959 0.873328 0.852423
O O3 0.647123 0.089996 0.735343
O O4 0.840294 0.181037 0.937881
O O5 0.031194 0.490709 0.252676
O O6 0.140232 0.684778 0.483982
O O7 0.000000 0.500000 0.500000
O O8 0.182858 0.200207 0.526006
O O9 0.323764 0.228886 0.091227
O O10 0.397260 0.496954 0.275262
O O11 0.280283 0.478914 0.022281
O O12 0.953041 0.711178 0.030139
O O13 0.692312 0.147390 0.524559
O O14 0.500000 0.000000 0.500000
O O15 0.896454 0.224291 0.721668
#
# Coordination Sequence:
#
# PCOD8029596 Si02
#       7
#     2   2   2   2   2   2   2
#     4  11  21  37  55  86 120 141 183 238 290 328
#     4  11  22  40  60  80 119 157 188 232 277 338
#     4   9  20  35  60  82 113 144 181 237 285 328
#     4  11  21  36  59  86 114 146 188 229 287 336
#     4  11  24  37  59  84 113 157 194 230 275 342
#     4   8  21  39  62  82 113 149 195 232 283 332
#     4   9  20  35  60  87 107 146 187 235 281 334
#
# _framework density 20.563386000000001
#
# number of rings (size 3 to 8) (size 9 to 14) (size 15 to 20)
#    0.857    1.143    1.429    2.143    2.000    0.000 
#    0.000    0.714    3.143    0.000    0.000    0.000 
#    0.000    0.000    0.000    0.000    0.000    0.000 
#
# Total GULP energy -173458.927046 kJ/mol
# GULP energy per Si atom -12389.923360 kJ/mol
# Density = 2.051658 g / cm^3
# Si number density = 20.563386 Si / 1000 Ang^3
#
#
#
# Elastic Constant Matrix: (Units=GPa)
#
#
# Indices 1 2 3 4 5 6 
#
# 1 124.1713 48.6516 32.6689 13.2838 -5.5763 21.5161
# 2 48.6516 80.2189 10.7125 16.0613 -3.9693 8.3217
# 3 32.6689 10.7125 29.1553 4.9734 4.6095 8.5886
# 4 13.2838 16.0613 4.9734 22.7643 -4.1889 -9.2090
# 5 -5.5763 -3.9693 4.6095 -4.1889 28.4800 0.5274
# 6 21.5161 8.3217 8.5886 -9.2090 0.5274 32.2518
#
#
#
# Elastic Compliance Matrix: (Units=1/GPa)
#
#
# Indices 1 2 3 4 5 6 
#
# 1 0.015664 -0.006082 -0.013383 -0.003818 0.003944 -0.006472
# 2 -0.006082 0.018743 0.003917 -0.012943 -0.001014 -0.005501
# 3 -0.013383 0.003917 0.055306 -0.013645 -0.012838 -0.010496
# 4 -0.003818 -0.012943 -0.013645 0.072183 0.009719 0.029972
# 5 0.003944 -0.001014 -0.012838 0.009719 0.039192 0.003184
# 6 -0.006472 -0.005501 -0.010496 0.029972 0.003184 0.048044
#
#
# Mechanical properties :
#
#
# Convention : Reuss Voigt Hill
#
# Bulk Modulus (GPa) = 17.06009 46.40126 31.73068
# Shear Modulus (GPa) = 16.67957 26.13336 21.40646
#
# Velocity S-wave (km/s) = 2.85112 3.56879 3.22995
# Velocity P-wave (km/s) = 4.37640 6.29251 5.41980
#
# Compressibility (1/GPa) = 0.05861635
#
# Stress axis : x y z
#
# Youngs Moduli (GPa) = 63.83868 53.35212 18.08131
#
# Poissons Ratio (x) = 0.32450 0.24199
# Poissons Ratio (y) = 0.38828 -0.07082
# Poissons Ratio (z) = 0.85438 -0.20898
#
# Static dielectric constant tensor:
#      x y z
#    x 3.824340 0.442480 -0.098290 
#    y 0.442480 3.744680 0.155780 
#    z -0.098290 0.155780 3.408170 
# 
# 
# High freq. dielectric constant tensor:
#      x y z
#    x 1.809000 0.028830 -0.007920 
#    y 0.028830 1.806320 0.017800 
#    z -0.007920 0.017800 1.768410 
# 
# From -- ./inp_files/380050.got.cif
#   From: 2010.06.25/outbox.cif.g09.slc.cpg/sg2_191_cif.got.tgz:380050.got - 2010.06.27 13:26:56.
