data_PCOD8029580
_publ_section_title
;
Structure prediction by ZEFSAII (Michael W. Deem and Ramdas Pophale) SiO2 
 PCOD8029580
Probable space group: P -1
;
_chemical_formula_sum "Si O2"
_cell_formula_units_Z 16
_cell_length_a 8.522994
_cell_length_b 23.566310
_cell_length_c 9.827705
_cell_angle_alpha 122.134233
_cell_angle_beta 150.213563
_cell_angle_gamma 67.969105
_cell_volume 812.617799
_symmetry_space_group_name_H-M "P -1"
_symmetry_group_IT_number 2
_symmetry_cell_setting 'triclinic'
loop_
_space_group_symop_operation_xyz
x,y,z
-x,-y,-z
loop_
_atom_site_type_symbol
_atom_site_label
_atom_site_fract_x
_atom_site_fract_y
_atom_site_fract_z
Si Si1 0.712257 0.427608 0.034297
Si Si2 0.693174 0.284454 0.874462
Si Si3 0.014275 0.712232 0.615699
Si Si4 0.165708 0.857528 0.841058
Si Si5 0.016598 0.919395 0.263444
Si Si6 0.394988 0.143865 0.367103
Si Si7 0.871045 0.923360 0.467710
Si Si8 0.000805 0.431017 0.539081
O O1 0.939782 0.498322 0.236219
O O2 0.744246 0.434174 0.231703
O O3 0.819610 0.356700 0.979415
O O4 0.340843 0.425208 0.714529
O O5 0.630499 0.219224 0.644200
O O6 0.360088 0.292489 0.705801
O O7 0.933826 0.274774 0.165361
O O8 0.209665 0.778371 0.766310
O O9 0.113848 0.640467 0.553796
O O10 0.878337 0.865481 0.735729
O O11 0.091561 0.882944 0.669010
O O12 0.497807 0.902751 0.205099
O O13 0.383656 0.911106 0.508859
O O14 0.904430 0.902233 0.310573
O O15 0.997486 0.996337 0.306489
O O16 0.770013 0.867275 0.918100
#
# Coordination Sequence:
#
# PCOD8029580 Si02
#       8
#     2   2   2   2   2   2   2   2
#     4   8  13  21  35  57  89 128 159 184 228 288
#     4   9  16  27  43  67  99 128 157 199 246 286
#     4   9  16  27  43  67  99 128 157 199 246 286
#     4  11  21  35  56  80 103 130 167 209 254 301
#     4  11  24  40  55  73 101 134 167 208 256 304
#     4  11  21  35  56  80 103 130 167 209 254 301
#     4  11  24  40  55  73 101 134 167 208 256 304
#     4   8  13  21  35  57  89 128 159 184 228 288
#
# _framework density 19.689453
#
# number of rings (size 3 to 8) (size 9 to 14) (size 15 to 20)
#    0.000    2.250    0.000    5.250    0.000    5.000 
#    0.000    0.000    0.000    0.000    0.000    0.000 
#    0.000    6.000    0.000    0.000    0.000    0.000 
#
# Total GULP energy -198237.655100 kJ/mol
# GULP energy per Si atom -12389.853444 kJ/mol
# Density = 1.964464 g / cm^3
# Si number density = 19.689453 Si / 1000 Ang^3
#
#
#
# Elastic Constant Matrix: (Units=GPa)
#
#
# Indices 1 2 3 4 5 6 
#
# 1 27.2533 27.0753 8.9016 11.4088 -0.9323 0.9014
# 2 27.0753 121.7425 19.5837 11.7906 -8.6537 12.1987
# 3 8.9016 19.5837 84.4777 5.2327 -1.1063 -0.0573
# 4 11.4088 11.7906 5.2327 38.7359 -4.4260 1.7542
# 5 -0.9323 -8.6537 -1.1063 -4.4260 16.9518 -5.4329
# 6 0.9014 12.1987 -0.0573 1.7542 -5.4329 5.8641
#
#
#
# Elastic Compliance Matrix: (Units=1/GPa)
#
#
# Indices 1 2 3 4 5 6 
#
# 1 0.054775 -0.012826 -0.001980 -0.012959 0.000059 0.022173
# 2 -0.012826 0.014175 -0.002045 0.000760 -0.003275 -0.030797
# 3 -0.001980 -0.002045 0.012582 -0.000604 0.001520 0.006272
# 4 -0.012959 0.000760 -0.000604 0.030368 0.006803 -0.002376
# 5 0.000059 -0.003275 0.001520 0.006803 0.086379 0.084811
# 6 0.022173 -0.030797 0.006272 -0.002376 0.084811 0.310535
#
#
# Mechanical properties :
#
#
# Convention : Reuss Voigt Hill
#
# Bulk Modulus (GPa) = 20.90762 38.28831 29.59797
# Shear Modulus (GPa) = 8.95321 24.17122 16.56221
#
# Velocity S-wave (km/s) = 2.13473 3.50755 2.90344
# Velocity P-wave (km/s) = 4.08875 5.99101 5.12884
#
# Compressibility (1/GPa) = 0.04782945
#
# Stress axis : x y z
#
# Youngs Moduli (GPa) = 18.25648 70.54635 79.47964
#
# Poissons Ratio (x) = 0.90482 0.15737
# Poissons Ratio (y) = 0.23416 0.16257
# Poissons Ratio (z) = 0.03615 0.14430
#
# Static dielectric constant tensor:
#      x y z
#    x 2.852750 0.032050 0.122520 
#    y 0.032050 4.289650 0.225520 
#    z 0.122520 0.225520 3.831700 
# 
# 
# High freq. dielectric constant tensor:
#      x y z
#    x 1.664430 0.002110 0.014510 
#    y 0.002110 1.801200 0.001280 
#    z 0.014510 0.001280 1.796010 
# 
# From -- ./inp_files/225555.got.cif
#   From: 2010.06.25/outbox.cif.g09.slc.cpg/sg2_113_cif.got.tgz:225555.got - 2010.06.27 13:26:56.
