data_PCOD8029003
_publ_section_title
;
Structure prediction by ZEFSAII (Michael W. Deem and Ramdas Pophale) SiO2 
 PCOD8029003
Probable space group: P -1
;
_chemical_formula_sum "Si O2"
_cell_formula_units_Z 14
_cell_length_a 17.962821
_cell_length_b 9.451821
_cell_length_c 8.533048
_cell_angle_alpha 149.013714
_cell_angle_beta 58.327168
_cell_angle_gamma 123.683124
_cell_volume 616.471253
_symmetry_space_group_name_H-M "P -1"
_symmetry_group_IT_number 2
_symmetry_cell_setting 'triclinic'
loop_
_space_group_symop_operation_xyz
x,y,z
-x,-y,-z
loop_
_atom_site_type_symbol
_atom_site_label
_atom_site_fract_x
_atom_site_fract_y
_atom_site_fract_z
Si Si1 0.701913 0.471955 0.922462
Si Si2 0.943064 0.954049 0.271460
Si Si3 0.846500 0.372447 0.901556
Si Si4 0.399258 0.522126 0.653743
Si Si5 0.071579 0.770974 0.755758
Si Si6 0.269477 0.943224 0.724251
Si Si7 0.691027 0.031816 0.944074
O O1 0.782653 0.357650 0.806240
O O2 0.667921 0.240388 0.603240
O O3 0.621419 0.464930 0.126816
O O4 0.733992 0.782874 0.112449
O O5 0.932817 0.238682 0.641591
O O6 0.910143 0.969790 0.143039
O O7 0.884456 0.704622 0.206804
O O8 0.040185 0.885375 0.066291
O O9 0.789010 0.222904 0.969153
O O10 0.500000 0.500000 0.500000
O O11 0.328053 0.257128 0.406790
O O12 0.386792 0.805025 0.851307
O O13 0.170181 0.725125 0.641835
O O14 0.000000 0.500000 0.500000
O O15 0.310542 0.040757 0.940526
#
# Coordination Sequence:
#
# PCOD8029003 Si02
#       7
#     2   2   2   2   2   2   2
#     4  11  21  39  68  91 121 172 214 249 310 394
#     4  11  20  33  57  87 115 166 224 260 292 350
#     4  11  19  38  60  85 120 168 221 252 298 387
#     4  11  24  47  71  97 124 166 211 252 314 405
#     4  11  22  34  59  91 127 167 218 271 306 356
#     4  12  24  41  61 100 131 164 215 270 317 367
#     4  11  25  42  67  96 133 164 202 271 330 365
#
# _framework density 22.709900000000001
#
# number of rings (size 3 to 8) (size 9 to 14) (size 15 to 20)
#    0.000    0.857    4.286    4.714    2.000    0.000 
#    0.000    5.714    0.000    0.000    0.000    0.000 
#    0.000    0.000    0.000    0.000    0.000    0.000 
#
# Total GULP energy -173458.675270 kJ/mol
# GULP energy per Si atom -12389.905376 kJ/mol
# Density = 2.265821 g / cm^3
# Si number density = 22.709900 Si / 1000 Ang^3
#
#
#
# Elastic Constant Matrix: (Units=GPa)
#
#
# Indices 1 2 3 4 5 6 
#
# 1 45.1391 34.8199 21.6146 -19.1896 -6.5188 2.1603
# 2 34.8199 106.5910 49.7905 -13.2219 0.7885 -4.7383
# 3 21.6146 49.7905 132.6089 -15.4465 -11.6515 3.2003
# 4 -19.1896 -13.2219 -15.4465 40.7802 5.6773 -0.2959
# 5 -6.5188 0.7885 -11.6515 5.6773 26.0157 -5.5727
# 6 2.1603 -4.7383 3.2003 -0.2959 -5.5727 13.9842
#
#
#
# Elastic Compliance Matrix: (Units=1/GPa)
#
#
# Indices 1 2 3 4 5 6 
#
# 1 0.037281 -0.011003 0.000243 0.013270 0.005362 -0.007125
# 2 -0.011003 0.015246 -0.004566 -0.001420 -0.003571 0.006457
# 3 0.000243 -0.004566 0.009808 0.001817 0.003699 -0.002317
# 4 0.013270 -0.001420 0.001817 0.031450 -0.003466 -0.003663
# 5 0.005362 -0.003571 0.003699 -0.003466 0.045558 0.015197
# 6 -0.007125 0.006457 -0.002317 -0.003663 0.015197 0.081307
#
#
# Mechanical properties :
#
#
# Convention : Reuss Voigt Hill
#
# Bulk Modulus (GPa) = 31.56076 55.19879 43.37978
# Shear Modulus (GPa) = 19.09392 28.03026 23.56209
#
# Velocity S-wave (km/s) = 2.90276 3.51704 3.22456
# Velocity P-wave (km/s) = 5.01619 6.39152 5.74516
#
# Compressibility (1/GPa) = 0.03168491
#
# Stress axis : x y z
#
# Youngs Moduli (GPa) = 26.82311 65.59056 101.95383
#
# Poissons Ratio (x) = 0.72167 -0.02480
# Poissons Ratio (y) = 0.29512 0.46552
# Poissons Ratio (z) = -0.00652 0.29949
#
# Static dielectric constant tensor:
#      x y z
#    x 3.561170 -0.012390 -0.218100 
#    y -0.012390 4.143740 -0.033900 
#    z -0.218100 -0.033900 4.217060 
# 
# 
# High freq. dielectric constant tensor:
#      x y z
#    x 1.837890 -0.003570 -0.020160 
#    y -0.003570 1.902090 -0.001770 
#    z -0.020160 -0.001770 1.915940 
# 
# From -- ./inp_files/329707.got.cif
#   From: 2010.06.25/outbox.cif.g09.slc.cpg/sg2_165_cif.got.tgz:329707.got - 2010.06.27 13:26:56.
