data_PCOD8029299
_publ_section_title
;
Structure prediction by ZEFSAII (Michael W. Deem and Ramdas Pophale) SiO2 
 PCOD8029299
Probable space group: P -1
;
_chemical_formula_sum "Si O2"
_cell_formula_units_Z 16
_cell_length_a 9.363077
_cell_length_b 12.572447
_cell_length_c 14.763409
_cell_angle_alpha 67.883434
_cell_angle_beta 73.495462
_cell_angle_gamma 131.502708
_cell_volume 770.736692
_symmetry_space_group_name_H-M "P -1"
_symmetry_group_IT_number 2
_symmetry_cell_setting 'triclinic'
loop_
_space_group_symop_operation_xyz
x,y,z
-x,-y,-z
loop_
_atom_site_type_symbol
_atom_site_label
_atom_site_fract_x
_atom_site_fract_y
_atom_site_fract_z
Si Si1 0.737977 0.085172 0.485557
Si Si2 0.372594 0.496742 0.808071
Si Si3 0.717219 0.021832 0.030009
Si Si4 0.265571 0.900107 0.202266
Si Si5 0.627771 0.434135 0.740662
Si Si6 0.269231 0.153006 0.526615
Si Si7 0.389566 0.549452 0.471444
Si Si8 0.662301 0.884028 0.730135
O O1 0.022035 0.355790 0.370864
O O2 0.500000 0.000000 0.500000
O O3 0.846011 0.047789 0.419477
O O4 0.601641 0.945256 0.648777
O O5 0.552658 0.499637 0.787224
O O6 0.469775 0.626054 0.656950
O O7 0.440343 0.628456 0.837292
O O8 0.028786 0.231050 0.958768
O O9 0.496686 0.950152 0.154632
O O10 0.576770 0.803710 0.108912
O O11 0.783818 0.115320 0.889436
O O12 0.957973 0.659491 0.382238
O O13 0.391681 0.098608 0.166102
O O14 0.543504 0.390442 0.664742
O O15 0.409080 0.228541 0.577197
O O16 0.003341 0.068455 0.598564
O O17 0.500000 0.500000 0.500000
#
# Coordination Sequence:
#
# PCOD8029299 Si02
#       8
#     2   2   2   2   2   2   2   2
#     4  11  23  37  63 101 132 159 203 276 335 361
#     4  11  20  41  65  90 124 172 211 254 323 383
#     4  11  27  39  62  91 137 172 202 264 329 389
#     4  11  23  44  61  93 125 174 218 253 323 390
#     4  12  23  42  64  99 130 160 213 274 321 375
#     4  11  20  39  69  98 120 169 221 266 311 378
#     4  12  20  37  71  94 119 159 220 264 308 377
#     4  11  21  42  72  89 125 169 227 266 302 389
#
# _framework density 20.759360999999998
#
# number of rings (size 3 to 8) (size 9 to 14) (size 15 to 20)
#    0.000    0.750    7.500    1.125    1.750    3.000 
#    0.000    1.875    0.000    0.000    0.000    0.000 
#    0.000    0.000    0.000    0.000    0.000    0.000 
#
# Total GULP energy -198397.078045 kJ/mol
# GULP energy per Si atom -12399.817378 kJ/mol
# Density = 2.071211 g / cm^3
# Si number density = 20.759361 Si / 1000 Ang^3
#
#
#
# Elastic Constant Matrix: (Units=GPa)
#
#
# Indices 1 2 3 4 5 6 
#
# 1 83.5780 20.1872 22.3661 -5.2763 -15.0199 1.7750
# 2 20.1872 121.7204 13.6030 -17.2024 -12.0171 -7.5856
# 3 22.3661 13.6030 54.3476 -20.1831 -11.4482 -6.1497
# 4 -5.2763 -17.2024 -20.1831 41.7552 -4.6306 -4.0183
# 5 -15.0199 -12.0171 -11.4482 -4.6306 22.0819 -4.5535
# 6 1.7750 -7.5856 -6.1497 -4.0183 -4.5535 33.8450
#
#
#
# Elastic Compliance Matrix: (Units=1/GPa)
#
#
# Indices 1 2 3 4 5 6 
#
# 1 0.014707 -0.001380 -0.004523 -0.000260 0.006639 -0.001040
# 2 -0.001380 0.010243 0.002922 0.006880 0.008598 0.004873
# 3 -0.004523 0.002922 0.033279 0.020419 0.022606 0.012405
# 4 -0.000260 0.006880 0.020419 0.040750 0.025489 0.013533
# 5 0.006639 0.008598 0.022606 0.025489 0.075436 0.018862
# 6 -0.001040 0.004873 0.012405 0.013533 0.018862 0.037092
#
#
# Mechanical properties :
#
#
# Convention : Reuss Voigt Hill
#
# Bulk Modulus (GPa) = 19.13282 41.32874 30.23078
# Shear Modulus (GPa) = 21.28653 33.10237 27.19445
#
# Velocity S-wave (km/s) = 3.20565 3.99755 3.62330
# Velocity P-wave (km/s) = 4.78937 6.42331 5.66555
#
# Compressibility (1/GPa) = 0.05226620
#
# Stress axis : x y z
#
# Youngs Moduli (GPa) = 67.99332 97.63013 30.04920
#
# Poissons Ratio (x) = 0.13472 0.13592
# Poissons Ratio (y) = 0.09382 -0.08779
# Poissons Ratio (z) = 0.30754 -0.28525
#
# Static dielectric constant tensor:
#      x y z
#    x 3.734170 0.032360 -0.143680 
#    y 0.032360 4.363470 -0.009060 
#    z -0.143680 -0.009060 3.517830 
# 
# 
# High freq. dielectric constant tensor:
#      x y z
#    x 1.800970 -0.001760 -0.015010 
#    y -0.001760 1.836520 -0.009290 
#    z -0.015010 -0.009290 1.783660 
# 
# From -- ./inp_files/332967.got.cif
#   From: 2010.06.25/outbox.cif.g09.slc.cpg/sg2_167_cif.got.tgz:332967.got - 2010.06.27 13:26:56.
