data_PCOD8029620
_publ_section_title
;
Structure prediction by ZEFSAII (Michael W. Deem and Ramdas Pophale) SiO2 
 PCOD8029620
Probable space group: P -1
;
_chemical_formula_sum "Si O2"
_cell_formula_units_Z 16
_cell_length_a 7.649690
_cell_length_b 9.163854
_cell_length_c 20.218990
_cell_angle_alpha 38.261660
_cell_angle_beta 65.658877
_cell_angle_gamma 82.420486
_cell_volume 752.097562
_symmetry_space_group_name_H-M "P -1"
_symmetry_group_IT_number 2
_symmetry_cell_setting 'triclinic'
loop_
_space_group_symop_operation_xyz
x,y,z
-x,-y,-z
loop_
_atom_site_type_symbol
_atom_site_label
_atom_site_fract_x
_atom_site_fract_y
_atom_site_fract_z
Si Si1 0.360622 0.324120 0.031182
Si Si2 0.917584 0.049686 0.229666
Si Si3 0.317224 0.322440 0.507843
Si Si4 0.402630 0.858137 0.130707
Si Si5 0.582356 0.465487 0.294648
Si Si6 0.574570 0.264746 0.226490
Si Si7 0.682850 0.257493 0.557039
Si Si8 0.935033 0.612550 0.291584
O O1 0.132849 0.267533 0.112886
O O2 0.400068 0.062315 0.113245
O O3 0.500000 0.500000 0.000000
O O4 0.410849 0.469142 0.901507
O O5 0.757954 0.191692 0.193307
O O6 0.887856 0.906615 0.357326
O O7 0.888674 0.846431 0.248175
O O8 0.387903 0.313307 0.424884
O O9 0.485097 0.285310 0.543497
O O10 0.286681 0.590203 0.432299
O O11 0.546854 0.714419 0.186579
O O12 0.172453 0.675892 0.214801
O O13 0.500000 0.000000 0.000000
O O14 0.589381 0.288882 0.295113
O O15 0.797300 0.538207 0.273580
O O16 0.362273 0.040394 0.319986
O O17 0.877003 0.380762 0.435090
#
# Coordination Sequence:
#
# PCOD8029620 Si02
#       8
#     2   2   2   2   2   2   2   2
#     4  11  25  41  58  86 122 159 198 252 299 340
#     4   9  20  41  62  88 117 151 210 246 282 367
#     4   8  16  34  62  88 113 155 196 243 298 346
#     4  11  24  45  58  87 127 154 207 246 284 375
#     4  11  22  38  64  92 120 163 191 241 315 349
#     4  11  21  37  60  93 120 152 200 245 299 358
#     4   8  16  34  60  89 117 148 201 248 286 353
#     4   9  21  41  65  88 117 162 199 245 299 348
#
# _framework density 21.273838000000001
#
# number of rings (size 3 to 8) (size 9 to 14) (size 15 to 20)
#    0.000    2.250    1.250    2.625    3.500    6.000 
#    2.250    2.500    0.000    0.000    0.000    0.000 
#    0.000    0.000    0.000    0.000    0.000    0.000 
#
# Total GULP energy -198324.777059 kJ/mol
# GULP energy per Si atom -12395.298566 kJ/mol
# Density = 2.122542 g / cm^3
# Si number density = 21.273838 Si / 1000 Ang^3
#
#
#
# Elastic Constant Matrix: (Units=GPa)
#
#
# Indices 1 2 3 4 5 6 
#
# 1 36.2039 11.3936 22.8227 0.4858 -21.1438 6.0042
# 2 11.3936 61.3637 18.4021 3.8188 -13.1089 9.7419
# 3 22.8227 18.4021 133.5300 5.0448 -26.7794 5.7287
# 4 0.4858 3.8188 5.0448 37.8074 -2.6693 3.8599
# 5 -21.1438 -13.1089 -26.7794 -2.6693 31.8963 -1.8903
# 6 6.0042 9.7419 5.7287 3.8599 -1.8903 25.7743
#
#
#
# Elastic Compliance Matrix: (Units=1/GPa)
#
#
# Indices 1 2 3 4 5 6 
#
# 1 0.047593 -0.000802 -0.001866 0.002671 0.029366 -0.008615
# 2 -0.000802 0.019069 -0.000982 -0.000719 0.006050 -0.006251
# 3 -0.001866 -0.000982 0.009198 -0.000609 0.005989 -0.000708
# 4 0.002671 -0.000719 -0.000609 0.027197 0.002999 -0.004068
# 5 0.029366 0.006050 0.005989 0.002999 0.058190 -0.006640
# 6 -0.008615 -0.006251 -0.000708 -0.004068 -0.006640 0.043448
#
#
# Mechanical properties :
#
#
# Convention : Reuss Voigt Hill
#
# Bulk Modulus (GPa) = 14.58593 37.37047 25.97820
# Shear Modulus (GPa) = 21.29035 30.99421 26.14228
#
# Velocity S-wave (km/s) = 3.16694 3.82110 3.50929
# Velocity P-wave (km/s) = 4.49931 6.08870 5.35332
#
# Compressibility (1/GPa) = 0.06855923
#
# Stress axis : x y z
#
# Youngs Moduli (GPa) = 21.01141 52.44004 108.72361
#
# Poissons Ratio (x) = 0.04208 0.20287
# Poissons Ratio (y) = 0.01686 0.10678
# Poissons Ratio (z) = 0.03921 0.05150
#
# Static dielectric constant tensor:
#      x y z
#    x 3.587100 -0.067870 -0.224410 
#    y -0.067870 3.816080 -0.070260 
#    z -0.224410 -0.070260 4.629950 
# 
# 
# High freq. dielectric constant tensor:
#      x y z
#    x 1.800720 -0.006490 -0.010140 
#    y -0.006490 1.829050 0.001270 
#    z -0.010140 0.001270 1.852770 
# 
# From -- ./inp_files/343582.got.cif
#   From: 2010.06.25/outbox.cif.g09.slc.cpg/sg2_172_cif.got.tgz:343582.got - 2010.06.27 13:26:56.
