data_PCOD8029529
_publ_section_title
;
Structure prediction by ZEFSAII (Michael W. Deem and Ramdas Pophale) SiO2 
 PCOD8029529
Probable space group: P -1
;
_chemical_formula_sum "Si O2"
_cell_formula_units_Z 16
_cell_length_a 8.336848
_cell_length_b 17.109513
_cell_length_c 9.654269
_cell_angle_alpha 130.335183
_cell_angle_beta 135.034947
_cell_angle_gamma 62.367513
_cell_volume 741.758904
_symmetry_space_group_name_H-M "P -1"
_symmetry_group_IT_number 2
_symmetry_cell_setting 'triclinic'
loop_
_space_group_symop_operation_xyz
x,y,z
-x,-y,-z
loop_
_atom_site_type_symbol
_atom_site_label
_atom_site_fract_x
_atom_site_fract_y
_atom_site_fract_z
Si Si1 0.371311 0.833743 0.019768
Si Si2 0.505760 0.036209 0.201114
Si Si3 0.144449 0.797634 0.389253
Si Si4 0.774173 0.745871 0.322000
Si Si5 0.404374 0.678906 0.620467
Si Si6 0.990653 0.464393 0.795808
Si Si7 0.916962 0.671632 0.874621
Si Si8 0.880068 0.812476 0.767429
O O1 0.518424 0.765797 0.138053
O O2 0.498715 0.939324 0.187315
O O3 0.324604 0.768520 0.778681
O O4 0.129053 0.861804 0.971100
O O5 0.743322 0.092166 0.441933
O O6 0.287598 0.109189 0.169410
O O7 0.500000 0.000000 0.000000
O O8 0.342768 0.720255 0.476209
O O9 0.946341 0.803208 0.389520
O O10 0.047870 0.758115 0.139789
O O11 0.786452 0.789977 0.533210
O O12 0.820513 0.623816 0.212312
O O13 0.258574 0.577768 0.444598
O O14 0.669192 0.656197 0.773691
O O15 0.041991 0.561041 0.837908
O O16 0.000000 0.500000 0.000000
O O17 0.899235 0.706495 0.745029
#
# Coordination Sequence:
#
# PCOD8029529 Si02
#       8
#     2   2   2   2   2   2   2   2
#     4  12  24  46  69  97 144 190 216 283 359 399
#     4  12  25  46  74 101 134 183 235 283 345 410
#     4  11  22  44  70 103 136 175 240 287 324 412
#     4  11  25  46  68 100 145 176 230 284 340 404
#     4  11  20  44  69 102 140 179 230 288 329 409
#     4  11  21  42  76 103 133 183 237 277 338 409
#     4  12  24  42  73 103 137 186 229 284 345 398
#     4  12  27  46  66 103 147 173 229 289 342 411
#
# _framework density 21.570352
#
# number of rings (size 3 to 8) (size 9 to 14) (size 15 to 20)
#    0.000    0.500    8.750    0.750    1.750    1.500 
#    2.250    0.625    0.000    0.000    0.000    0.000 
#    0.000    0.000    0.000    0.000    0.000    0.000 
#
# Total GULP energy -198450.978931 kJ/mol
# GULP energy per Si atom -12403.186183 kJ/mol
# Density = 2.152126 g / cm^3
# Si number density = 21.570352 Si / 1000 Ang^3
#
#
#
# Elastic Constant Matrix: (Units=GPa)
#
#
# Indices 1 2 3 4 5 6 
#
# 1 78.6325 31.5328 32.5751 2.8924 -4.8157 -7.6599
# 2 31.5328 104.3746 39.0992 3.5401 -3.1547 2.6430
# 3 32.5751 39.0992 118.2510 3.8678 14.0575 -0.3679
# 4 2.8924 3.5401 3.8678 38.8735 0.5877 7.4596
# 5 -4.8157 -3.1547 14.0575 0.5877 25.3622 0.2116
# 6 -7.6599 2.6430 -0.3679 7.4596 0.2116 38.6749
#
#
#
# Elastic Compliance Matrix: (Units=1/GPa)
#
#
# Indices 1 2 3 4 5 6 
#
# 1 0.016405 -0.003388 -0.003924 -0.001299 0.004868 0.003667
# 2 -0.003388 0.011988 -0.003350 -0.000262 0.002723 -0.001486
# 3 -0.003924 -0.003350 0.011555 -0.000376 -0.007555 -0.000324
# 4 -0.001299 -0.000262 -0.000376 0.026935 -0.000650 -0.005435
# 5 0.004868 0.002723 -0.007555 -0.000650 0.044889 0.000586
# 6 0.003667 -0.001486 -0.000324 -0.005435 0.000586 0.027726
#
#
# Mechanical properties :
#
#
# Convention : Reuss Voigt Hill
#
# Bulk Modulus (GPa) = 53.69507 56.40804 55.05155
# Shear Modulus (GPa) = 29.93474 33.78551 31.86012
#
# Velocity S-wave (km/s) = 3.72932 3.96194 3.84739
# Velocity P-wave (km/s) = 6.59476 6.86562 6.73155
#
# Compressibility (1/GPa) = 0.01862368
#
# Stress axis : x y z
#
# Youngs Moduli (GPa) = 60.95869 83.41446 86.54539
#
# Poissons Ratio (x) = 0.28260 0.33957
# Poissons Ratio (y) = 0.20652 0.28996
# Poissons Ratio (z) = 0.23918 0.27947
#
# Static dielectric constant tensor:
#      x y z
#    x 3.840630 0.012510 0.150550 
#    y 0.012510 4.031180 0.071040 
#    z 0.150550 0.071040 3.995990 
# 
# 
# High freq. dielectric constant tensor:
#      x y z
#    x 1.834070 -0.000610 0.009610 
#    y -0.000610 1.850980 -0.006180 
#    z 0.009610 -0.006180 1.855080 
# 
# From -- ./inp_files/216045.got.cif
#   From: 2010.06.25/outbox.cif.g09.slc.cpg/sg2_109_cif.got.tgz:216045.got - 2010.06.27 13:26:56.
