data_PCOD8029786
_publ_section_title
;
Structure prediction by ZEFSAII (Michael W. Deem and Ramdas Pophale) SiO2 
 PCOD8029786
Probable space group: P -1
;
_chemical_formula_sum "Si O2"
_cell_formula_units_Z 14
_cell_length_a 15.065398
_cell_length_b 10.357342
_cell_length_c 8.268888
_cell_angle_alpha 121.450520
_cell_angle_beta 76.850866
_cell_angle_gamma 56.896556
_cell_volume 642.648939
_symmetry_space_group_name_H-M "P -1"
_symmetry_group_IT_number 2
_symmetry_cell_setting 'triclinic'
loop_
_space_group_symop_operation_xyz
x,y,z
-x,-y,-z
loop_
_atom_site_type_symbol
_atom_site_label
_atom_site_fract_x
_atom_site_fract_y
_atom_site_fract_z
Si Si1 0.425213 0.720983 0.456081
Si Si2 0.305032 0.300203 0.361571
Si Si3 0.965332 0.163171 0.260235
Si Si4 0.581952 0.127065 0.109680
Si Si5 0.709948 0.375097 0.723093
Si Si6 0.273496 0.806592 0.074496
Si Si7 0.538395 0.077932 0.664006
O O1 0.364899 0.850214 0.740537
O O2 0.373425 0.618961 0.372599
O O3 0.373131 0.907535 0.461087
O O4 0.609904 0.473762 0.229224
O O5 0.127178 0.576812 0.616131
O O6 0.400145 0.330960 0.313177
O O7 0.349414 0.153543 0.409719
O O8 0.338488 0.143360 0.094603
O O9 0.866995 0.226612 0.489084
O O10 0.120245 0.019578 0.175732
O O11 0.000000 0.000000 0.000000
O O12 0.642183 0.140877 0.937329
O O13 0.755783 0.199186 0.732449
O O14 0.606402 0.654186 0.008526
O O15 0.500000 0.000000 0.500000
#
# Coordination Sequence:
#
# PCOD8029786 Si02
#       7
#     2   2   2   2   2   2   2
#     4  11  21  40  70 100 126 166 224 270 319 374
#     4  11  23  41  63  98 131 166 217 271 327 376
#     4  12  26  42  64  91 133 176 214 259 327 398
#     4  11  21  39  68  97 128 166 220 275 316 375
#     4  11  24  44  67  97 131 170 220 272 314 382
#     4  11  23  40  63  95 132 172 210 261 322 385
#     4  11  22  40  68 100 128 166 215 274 321 368
#
# _framework density 21.784832999999999
#
# number of rings (size 3 to 8) (size 9 to 14) (size 15 to 20)
#    0.000    0.857    1.429    8.571    2.000    0.571 
#    0.000    0.000    0.000    3.429    0.000    0.000 
#    0.000    0.000    0.000    0.000    0.000    0.000 
#
# Total GULP energy -173535.074742 kJ/mol
# GULP energy per Si atom -12395.362482 kJ/mol
# Density = 2.173525 g / cm^3
# Si number density = 21.784833 Si / 1000 Ang^3
#
#
#
# Elastic Constant Matrix: (Units=GPa)
#
#
# Indices 1 2 3 4 5 6 
#
# 1 107.4254 53.7046 40.0797 8.1808 12.1942 3.0304
# 2 53.7046 144.4883 48.7346 12.5180 -9.3814 5.1143
# 3 40.0797 48.7346 98.1175 1.1982 18.0349 -8.3312
# 4 8.1808 12.5180 1.1982 38.7992 -3.6196 -8.7624
# 5 12.1942 -9.3814 18.0349 -3.6196 44.5999 -5.1197
# 6 3.0304 5.1143 -8.3312 -8.7624 -5.1197 44.2448
#
#
#
# Elastic Compliance Matrix: (Units=1/GPa)
#
#
# Indices 1 2 3 4 5 6 
#
# 1 0.012896 -0.003814 -0.002847 -0.002142 -0.003559 -0.001815
# 2 -0.003814 0.010477 -0.004634 -0.002387 0.004726 -0.001748
# 3 -0.002847 -0.004634 0.014962 0.001833 -0.005725 0.003249
# 4 -0.002142 -0.002387 0.001833 0.028687 0.002444 0.006732
# 5 -0.003559 0.004726 -0.005725 0.002444 0.027160 0.002246
# 6 -0.001815 -0.001748 0.003249 0.006732 0.002246 0.025133
#
#
# Mechanical properties :
#
#
# Convention : Reuss Voigt Hill
#
# Bulk Modulus (GPa) = 63.51179 70.56321 67.03750
# Shear Modulus (GPa) = 33.97786 39.36294 36.67040
#
# Velocity S-wave (km/s) = 3.95359 4.25537 4.10725
# Velocity P-wave (km/s) = 7.07521 7.52367 7.30288
#
# Compressibility (1/GPa) = 0.01574511
#
# Stress axis : x y z
#
# Youngs Moduli (GPa) = 77.54181 95.44514 66.83494
#
# Poissons Ratio (x) = 0.36406 0.19028
# Poissons Ratio (y) = 0.29577 0.30971
# Poissons Ratio (z) = 0.22077 0.44228
#
# Static dielectric constant tensor:
#      x y z
#    x 4.090580 0.148990 0.200730 
#    y 0.148990 4.217350 -0.096850 
#    z 0.200730 -0.096850 4.016170 
# 
# 
# High freq. dielectric constant tensor:
#      x y z
#    x 1.850830 0.017290 0.021430 
#    y 0.017290 1.876360 -0.012370 
#    z 0.021430 -0.012370 1.844850 
# 
# From -- ./inp_files/305888.got.cif
#   From: 2010.06.25/outbox.cif.g09.slc.cpg/sg2_153_cif.got.tgz:305888.got - 2010.06.27 13:26:56.
