data_PCOD8029891
_publ_section_title
;
Structure prediction by ZEFSAII (Michael W. Deem and Ramdas Pophale) SiO2 
 PCOD8029891
Probable space group: P -1
;
_chemical_formula_sum "Si O2"
_cell_formula_units_Z 14
_cell_length_a 5.311536
_cell_length_b 15.295178
_cell_length_c 11.627952
_cell_angle_alpha 58.291971
_cell_angle_beta 53.367828
_cell_angle_gamma 73.081509
_cell_volume 644.571419
_symmetry_space_group_name_H-M "P -1"
_symmetry_group_IT_number 2
_symmetry_cell_setting 'triclinic'
loop_
_space_group_symop_operation_xyz
x,y,z
-x,-y,-z
loop_
_atom_site_type_symbol
_atom_site_label
_atom_site_fract_x
_atom_site_fract_y
_atom_site_fract_z
Si Si1 0.355203 0.266075 0.896938
Si Si2 0.700182 0.086587 0.322692
Si Si3 0.826336 0.948856 0.974730
Si Si4 0.143976 0.583340 0.986617
Si Si5 0.237843 0.568447 0.464393
Si Si6 0.239846 0.208978 0.207008
Si Si7 0.810012 0.606740 0.755937
O O1 0.609419 0.344064 0.719130
O O2 0.045282 0.322220 0.981909
O O3 0.256905 0.173617 0.900430
O O4 0.460770 0.219605 0.024131
O O5 0.455428 0.161199 0.278319
O O6 0.929303 0.033240 0.207237
O O7 0.921576 0.142970 0.317292
O O8 0.500000 0.000000 0.500000
O O9 0.500000 0.000000 0.000000
O O10 0.000000 0.000000 0.000000
O O11 0.203537 0.515783 0.131670
O O12 0.451410 0.632144 0.806235
O O13 0.000000 0.500000 0.000000
O O14 0.500000 0.500000 0.500000
O O15 0.000000 0.500000 0.500000
O O16 0.045823 0.629171 0.570949
O O17 0.108319 0.319779 0.207511
#
# Coordination Sequence:
#
# PCOD8029891 Si02
#       7
#     2   2   2   2   2   2   2
#     4  11  24  46  71  98 146 185 230 288 345 410
#     4  11  25  46  73 101 136 169 231 299 345 400
#     4  11  25  45  70 101 134 185 232 277 350 418
#     4  11  21  40  69  98 135 183 227 282 337 411
#     4  12  28  43  63 101 143 184 230 283 341 401
#     4  11  24  42  72 104 131 182 228 278 354 413
#     4  11  24  38  66  99 136 176 235 272 337 415
#
# _framework density 21.719859
#
# number of rings (size 3 to 8) (size 9 to 14) (size 15 to 20)
#    0.000    0.857    2.857    4.714    2.000    5.714 
#    0.000    0.000    0.000    0.000    0.000    0.000 
#    0.000    0.000    0.000    0.000    0.000    0.000 
#
# Total GULP energy -173497.813755 kJ/mol
# GULP energy per Si atom -12392.700983 kJ/mol
# Density = 2.167042 g / cm^3
# Si number density = 21.719859 Si / 1000 Ang^3
#
#
#
# Elastic Constant Matrix: (Units=GPa)
#
#
# Indices 1 2 3 4 5 6 
#
# 1 145.4149 65.3495 42.3798 -3.4830 -20.0694 13.6977
# 2 65.3495 148.7417 44.2876 4.3679 -15.5781 17.9271
# 3 42.3798 44.2876 160.9879 -7.5294 -29.0488 8.8792
# 4 -3.4830 4.3679 -7.5294 40.4787 -1.3809 -1.9480
# 5 -20.0694 -15.5781 -29.0488 -1.3809 33.5437 -2.6238
# 6 13.6977 17.9271 8.8792 -1.9480 -2.6238 48.9578
#
#
#
# Elastic Compliance Matrix: (Units=1/GPa)
#
#
# Indices 1 2 3 4 5 6 
#
# 1 0.009188 -0.003375 -0.000810 0.001066 0.003196 -0.000974
# 2 -0.003375 0.009005 -0.001420 -0.001604 0.000701 -0.002122
# 3 -0.000810 -0.001420 0.007961 0.001747 0.005797 -0.000317
# 4 0.001066 -0.001604 0.001747 0.025435 0.002540 0.001121
# 5 0.003196 0.000701 0.005797 0.002540 0.037166 -0.000109
# 6 -0.000974 -0.002122 -0.000317 0.001121 -0.000109 0.021572
#
#
# Mechanical properties :
#
#
# Convention : Reuss Voigt Hill
#
# Bulk Modulus (GPa) = 66.91899 84.35313 75.63606
# Shear Modulus (GPa) = 39.52036 44.80455 42.16245
#
# Velocity S-wave (km/s) = 4.27025 4.54677 4.41068
# Velocity P-wave (km/s) = 7.42901 8.15386 7.79986
#
# Compressibility (1/GPa) = 0.01494344
#
# Stress axis : x y z
#
# Youngs Moduli (GPa) = 108.83802 111.05057 125.61537
#
# Poissons Ratio (x) = 0.37476 0.10175
# Poissons Ratio (y) = 0.36729 0.17843
# Poissons Ratio (z) = 0.08816 0.15774
#
# Static dielectric constant tensor:
#      x y z
#    x 4.138490 -0.032230 -0.007770 
#    y -0.032230 4.306410 0.006030 
#    z -0.007770 0.006030 4.021360 
# 
# 
# High freq. dielectric constant tensor:
#      x y z
#    x 1.866830 0.003100 -0.009120 
#    y 0.003100 1.867260 -0.000790 
#    z -0.009120 -0.000790 1.845370 
# 
# From -- ./inp_files/109012.got.cif
#   From: 2010.06.25/outbox.cif.g09.slc.cpg/sg2_55_cif.got.tgz:109012.got - 2010.06.27 13:26:56.
