data_PCOD8029733
_publ_section_title
;
Structure prediction by ZEFSAII (Michael W. Deem and Ramdas Pophale) SiO2 
 PCOD8029733
Probable space group: P -1
;
_chemical_formula_sum "Si O2"
_cell_formula_units_Z 10
_cell_length_a 16.366552
_cell_length_b 12.170246
_cell_length_c 16.574716
_cell_angle_alpha 143.521581
_cell_angle_beta 17.217197
_cell_angle_gamma 150.400937
_cell_volume 474.699186
_symmetry_space_group_name_H-M "P -1"
_symmetry_group_IT_number 2
_symmetry_cell_setting 'triclinic'
loop_
_space_group_symop_operation_xyz
x,y,z
-x,-y,-z
loop_
_atom_site_type_symbol
_atom_site_label
_atom_site_fract_x
_atom_site_fract_y
_atom_site_fract_z
Si Si1 0.953456 0.532994 0.744108
Si Si2 0.376828 0.333644 0.742027
Si Si3 0.633882 0.881512 0.032265
Si Si4 0.822549 0.615500 0.209468
Si Si5 0.831325 0.137183 0.404678
O O1 0.637435 0.278573 0.873580
O O2 0.224702 0.511978 0.522853
O O3 0.118919 0.667243 0.583962
O O4 0.838663 0.667054 0.981810
O O5 0.301596 0.432468 0.794246
O O6 0.268904 0.080640 0.681025
O O7 0.466648 0.932900 0.293003
O O8 0.815005 0.765896 0.826160
O O9 0.922076 0.116683 0.857302
O O10 0.500000 0.500000 0.500000
O O11 0.000000 0.500000 0.000000
#
# Coordination Sequence:
#
# PCOD8029733 Si02
#       5
#     2   2   2   2   2
#     4  12  22  38  60  95 129 150 187 251 295 343
#     4  11  23  38  61  91 119 157 201 240 292 354
#     4  11  23  39  62  91 119 159 203 236 289 359
#     4  11  23  44  64  80 111 161 206 247 294 353
#     4  11  21  39  61  89 127 167 189 222 292 373
#
# _framework density 21.065971000000001
#
# number of rings (size 3 to 8) (size 9 to 14) (size 15 to 20)
#    0.000    0.800    0.000   10.800    0.000    0.000 
#    0.000    6.000    0.000    0.000    0.000    0.000 
#    0.000    0.000    0.000    0.000    0.000    0.000 
#
# Total GULP energy -124048.838036 kJ/mol
# GULP energy per Si atom -12404.883804 kJ/mol
# Density = 2.101802 g / cm^3
# Si number density = 21.065971 Si / 1000 Ang^3
#
#
#
# Elastic Constant Matrix: (Units=GPa)
#
#
# Indices 1 2 3 4 5 6 
#
# 1 111.9453 58.0766 43.9450 -17.9862 -33.6566 -7.7598
# 2 58.0766 80.0076 34.2818 -18.6047 -4.9193 -9.9849
# 3 43.9450 34.2818 139.8118 -8.0735 -10.6333 -10.9019
# 4 -17.9862 -18.6047 -8.0735 38.5089 2.2695 -7.5046
# 5 -33.6566 -4.9193 -10.6333 2.2695 51.9033 -0.5778
# 6 -7.7598 -9.9849 -10.9019 -7.5046 -0.5778 25.9391
#
#
#
# Elastic Compliance Matrix: (Units=1/GPa)
#
#
# Indices 1 2 3 4 5 6 
#
# 1 0.019959 -0.012062 -0.002197 0.002648 0.011249 0.001421
# 2 -0.012062 0.024183 -0.001625 0.007440 -0.006109 0.007034
# 3 -0.002197 -0.001625 0.008465 0.000422 0.000164 0.002401
# 4 0.002648 0.007440 0.000422 0.033456 0.001197 0.013539
# 5 0.011249 -0.006109 0.000164 0.001197 0.025986 0.002008
# 6 0.001421 0.007034 0.002401 0.013539 0.002008 0.046656
#
#
# Mechanical properties :
#
#
# Convention : Reuss Voigt Hill
#
# Bulk Modulus (GPa) = 47.98368 67.15237 57.56802
# Shear Modulus (GPa) = 25.32693 36.30099 30.81396
#
# Velocity S-wave (km/s) = 3.47113 4.15565 3.82872
# Velocity P-wave (km/s) = 6.23637 7.41433 6.85072
#
# Compressibility (1/GPa) = 0.02084042
#
# Stress axis : x y z
#
# Youngs Moduli (GPa) = 50.10272 41.35143 118.12797
#
# Poissons Ratio (x) = 0.49878 0.25947
# Poissons Ratio (y) = 0.60434 0.19195
# Poissons Ratio (z) = 0.11005 0.06719
#
# Static dielectric constant tensor:
#      x y z
#    x 4.264960 -0.020030 -0.219780 
#    y -0.020030 3.656930 -0.040750 
#    z -0.219780 -0.040750 4.044520 
# 
# 
# High freq. dielectric constant tensor:
#      x y z
#    x 1.824550 0.007530 -0.014700 
#    y 0.007530 1.812930 0.001180 
#    z -0.014700 0.001180 1.851890 
# 
# From -- ./inp_files/355.got.cif
#   From: 2010.06.25/outbox.cif.g09.slc.cpg/sg2_1_cif.got.tgz:355.got - 2010.06.27 13:26:56.
