data_PCOD8029462
_publ_section_title
;
Structure prediction by ZEFSAII (Michael W. Deem and Ramdas Pophale) SiO2 
 PCOD8029462
Probable space group: P -1
;
_chemical_formula_sum "Si O2"
_cell_formula_units_Z 14
_cell_length_a 11.086235
_cell_length_b 10.023316
_cell_length_c 8.033686
_cell_angle_alpha 48.012100
_cell_angle_beta 92.005814
_cell_angle_gamma 80.954494
_cell_volume 643.227665
_symmetry_space_group_name_H-M "P -1"
_symmetry_group_IT_number 2
_symmetry_cell_setting 'triclinic'
loop_
_space_group_symop_operation_xyz
x,y,z
-x,-y,-z
loop_
_atom_site_type_symbol
_atom_site_label
_atom_site_fract_x
_atom_site_fract_y
_atom_site_fract_z
Si Si1 0.546967 0.363490 0.964340
Si Si2 0.790858 0.699276 0.520495
Si Si3 0.211912 0.759608 0.550986
Si Si4 0.373871 0.456671 0.598723
Si Si5 0.040315 0.043074 0.783906
Si Si6 0.193808 0.645927 0.012068
Si Si7 0.636085 0.015291 0.455290
O O1 0.666471 0.421949 0.837080
O O2 0.620951 0.157342 0.185043
O O3 0.500000 0.500000 0.000000
O O4 0.428341 0.352417 0.858883
O O5 0.685956 0.677797 0.401206
O O6 0.884465 0.796602 0.345909
O O7 0.724628 0.821566 0.569070
O O8 0.867963 0.506846 0.774441
O O9 0.265159 0.634834 0.497376
O O10 0.206084 0.634596 0.820508
O O11 0.076773 0.885519 0.400229
O O12 0.302464 0.898283 0.461627
O O13 0.500000 0.500000 0.500000
O O14 0.122305 0.854024 0.872282
O O15 0.000000 0.000000 0.000000
O O16 0.500000 0.000000 0.500000
#
# Coordination Sequence:
#
# PCOD8029462 Si02
#       7
#     2   2   2   2   2   2   2
#     4  11  20  42  69  99 142 184 225 290 350 417
#     4  12  26  45  73 108 142 190 238 297 363 420
#     4  11  25  47  75  98 145 197 234 297 355 417
#     4  12  24  40  73 109 146 183 232 294 371 421
#     4  12  28  50  70 103 149 188 245 298 354 423
#     4  11  23  47  73  99 142 184 242 297 344 424
#     4  11  23  41  70 108 138 180 243 285 352 435
#
# _framework density 21.765232000000001
#
# number of rings (size 3 to 8) (size 9 to 14) (size 15 to 20)
#    0.000    0.571    7.143    3.000    0.000    4.571 
#    0.000    0.000    0.000    0.000    0.000    0.000 
#    0.000    0.000    0.000    0.000    0.000    0.000 
#
# Total GULP energy -173481.447111 kJ/mol
# GULP energy per Si atom -12391.531937 kJ/mol
# Density = 2.171569 g / cm^3
# Si number density = 21.765232 Si / 1000 Ang^3
#
#
#
# Elastic Constant Matrix: (Units=GPa)
#
#
# Indices 1 2 3 4 5 6 
#
# 1 134.5356 29.0445 54.7845 -5.6639 -7.4708 3.4943
# 2 29.0445 80.6944 29.8166 -12.3803 -10.9083 -5.2068
# 3 54.7845 29.8166 105.5324 -15.0818 -6.0185 7.4046
# 4 -5.6639 -12.3803 -15.0818 30.9428 -5.1205 1.4685
# 5 -7.4708 -10.9083 -6.0185 -5.1205 44.9213 -2.2598
# 6 3.4943 -5.2068 7.4046 1.4685 -2.2598 39.4523
#
#
#
# Elastic Compliance Matrix: (Units=1/GPa)
#
#
# Indices 1 2 3 4 5 6 
#
# 1 0.009711 -0.001924 -0.004631 -0.001178 0.000384 -0.000179
# 2 -0.001924 0.015532 -0.002639 0.005077 0.003815 0.002745
# 3 -0.004631 -0.002639 0.013568 0.004974 0.000842 -0.002622
# 4 -0.001178 0.005077 0.004974 0.037596 0.005928 -0.001219
# 5 0.000384 0.003815 0.000842 0.005928 0.024114 0.001472
# 6 -0.000179 0.002745 -0.002622 -0.001219 0.001472 0.026347
#
#
# Mechanical properties :
#
#
# Convention : Reuss Voigt Hill
#
# Bulk Modulus (GPa) = 48.96665 60.89483 54.93074
# Shear Modulus (GPa) = 32.88089 36.87106 34.87598
#
# Velocity S-wave (km/s) = 3.89100 4.12033 4.00731
# Velocity P-wave (km/s) = 6.53705 7.11863 6.83403
#
# Compressibility (1/GPa) = 0.02042206
#
# Stress axis : x y z
#
# Youngs Moduli (GPa) = 102.97928 64.38390 73.70153
#
# Poissons Ratio (x) = 0.12389 0.34133
# Poissons Ratio (y) = 0.19816 0.19449
# Poissons Ratio (z) = 0.47692 0.16990
#
# Static dielectric constant tensor:
#      x y z
#    x 4.394570 -0.003150 0.101810 
#    y -0.003150 3.942960 0.178170 
#    z 0.101810 0.178170 4.173930 
# 
# 
# High freq. dielectric constant tensor:
#      x y z
#    x 1.866830 -0.007830 0.004580 
#    y -0.007830 1.852530 -0.000440 
#    z 0.004580 -0.000440 1.861610 
# 
# From -- ./inp_files/236687.got.cif
#   From: 2010.06.25/outbox.cif.g09.slc.cpg/sg2_119_cif.got.tgz:236687.got - 2010.06.27 13:26:56.
