data_PCOD8029843
_publ_section_title
;
Structure prediction by ZEFSAII (Michael W. Deem and Ramdas Pophale) SiO2 
 PCOD8029843
Probable space group: P -1
;
_chemical_formula_sum "Si O2"
_cell_formula_units_Z 12
_cell_length_a 13.961255
_cell_length_b 9.778200
_cell_length_c 17.793420
_cell_angle_alpha 46.359770
_cell_angle_beta 20.700259
_cell_angle_gamma 56.064459
_cell_volume 584.062560
_symmetry_space_group_name_H-M "P -1"
_symmetry_group_IT_number 2
_symmetry_cell_setting 'triclinic'
loop_
_space_group_symop_operation_xyz
x,y,z
-x,-y,-z
loop_
_atom_site_type_symbol
_atom_site_label
_atom_site_fract_x
_atom_site_fract_y
_atom_site_fract_z
Si Si1 0.839564 0.462525 0.209585
Si Si2 0.858316 0.776740 0.662884
Si Si3 0.336772 0.800940 0.947894
Si Si4 0.100977 0.489456 0.514263
Si Si5 0.291553 0.486520 0.985553
Si Si6 0.738169 0.841764 0.206695
O O1 0.829321 0.679458 0.156125
O O2 0.528804 0.286283 0.495569
O O3 0.000000 0.500000 0.000000
O O4 0.020245 0.389402 0.167023
O O5 0.629015 0.767301 0.770525
O O6 0.090409 0.685085 0.493452
O O7 0.700981 0.656364 0.896694
O O8 0.000000 0.000000 0.500000
O O9 0.259888 0.690285 0.965460
O O10 0.373091 0.032938 0.820792
O O11 0.098049 0.710358 0.221532
O O12 0.420028 0.478871 0.287299
O O13 0.000000 0.500000 0.500000
O O14 0.000000 0.000000 0.000000
#
# Coordination Sequence:
#
# PCOD8029843 Si02
#       6
#     2   2   2   2   2   2
#     4  11  27  45  69 101 132 173 231 279 325 391
#     4  11  23  39  63  95 133 167 212 274 333 388
#     4  11  22  41  68  95 130 174 218 266 333 395
#     4  11  21  40  66  94 127 174 218 260 330 397
#     4  11  22  42  65  94 133 170 217 274 327 394
#     4  11  25  47  70  95 135 179 221 274 338 394
#
# _framework density 20.545745
#
# number of rings (size 3 to 8) (size 9 to 14) (size 15 to 20)
#    0.000    1.000    5.000    2.000    2.333    5.333 
#    3.000    0.000    0.000    0.000    0.000    0.000 
#    0.000    0.000    0.000    0.000    0.000    0.000 
#
# Total GULP energy -148800.981551 kJ/mol
# GULP energy per Si atom -12400.081796 kJ/mol
# Density = 2.049898 g / cm^3
# Si number density = 20.545745 Si / 1000 Ang^3
#
#
#
# Elastic Constant Matrix: (Units=GPa)
#
#
# Indices 1 2 3 4 5 6 
#
# 1 96.7482 37.7418 45.4461 0.0808 2.0828 0.4845
# 2 37.7418 108.6928 78.5846 -9.8851 16.8333 -5.5990
# 3 45.4461 78.5846 146.9183 6.2465 5.4018 15.5943
# 4 0.0808 -9.8851 6.2465 41.0012 3.3769 1.1777
# 5 2.0828 16.8333 5.4018 3.3769 35.6631 -0.5079
# 6 0.4845 -5.5990 15.5943 1.1777 -0.5079 33.9956
#
#
#
# Elastic Compliance Matrix: (Units=1/GPa)
#
#
# Indices 1 2 3 4 5 6 
#
# 1 0.012546 -0.002688 -0.002522 -0.000384 0.000962 0.000563
# 2 -0.002688 0.020366 -0.010906 0.007034 -0.008356 0.008027
# 3 -0.002522 -0.010906 0.014362 -0.004864 0.003464 -0.008128
# 4 -0.000384 0.007034 -0.004864 0.027179 -0.005101 0.002378
# 5 0.000962 -0.008356 0.003464 -0.005101 0.031853 -0.002326
# 6 0.000563 0.008027 -0.008128 0.002378 -0.002326 0.034341
#
#
# Mechanical properties :
#
#
# Convention : Reuss Voigt Hill
#
# Bulk Modulus (GPa) = 66.47784 75.10049 70.78917
# Shear Modulus (GPa) = 28.10688 34.83775 31.47232
#
# Velocity S-wave (km/s) = 3.70268 4.12226 3.91809
# Velocity P-wave (km/s) = 7.12082 7.69997 7.41605
#
# Compressibility (1/GPa) = 0.01504261
#
# Stress axis : x y z
#
# Youngs Moduli (GPa) = 79.70570 49.10223 69.62809
#
# Poissons Ratio (x) = 0.13199 0.17559
# Poissons Ratio (y) = 0.21426 0.75934
# Poissons Ratio (z) = 0.20101 0.53549
#
# Static dielectric constant tensor:
#      x y z
#    x 3.965430 -0.038550 -0.233820 
#    y -0.038550 3.448240 0.269200 
#    z -0.233820 0.269200 3.774320 
# 
# 
# High freq. dielectric constant tensor:
#      x y z
#    x 1.808550 -0.008630 -0.000350 
#    y -0.008630 1.809530 0.004410 
#    z -0.000350 0.004410 1.805370 
# 
# From -- ./inp_files/28619.got.cif
#   From: 2010.06.25/outbox.cif.g09.slc.cpg/sg2_15_cif.got.tgz:28619.got - 2010.06.27 13:26:56.
