data_PCOD8029174
_publ_section_title
;
Structure prediction by ZEFSAII (Michael W. Deem and Ramdas Pophale) SiO2 
 PCOD8029174
Probable space group: P -1
;
_chemical_formula_sum "Si O2"
_cell_formula_units_Z 14
_cell_length_a 5.123063
_cell_length_b 26.180321
_cell_length_c 14.271218
_cell_angle_alpha 30.052840
_cell_angle_beta 114.973817
_cell_angle_gamma 97.250339
_cell_volume 738.499545
_symmetry_space_group_name_H-M "P -1"
_symmetry_group_IT_number 2
_symmetry_cell_setting 'triclinic'
loop_
_space_group_symop_operation_xyz
x,y,z
-x,-y,-z
loop_
_atom_site_type_symbol
_atom_site_label
_atom_site_fract_x
_atom_site_fract_y
_atom_site_fract_z
Si Si1 0.509159 0.349558 0.568382
Si Si2 0.930283 0.461766 0.452013
Si Si3 0.589969 0.376629 0.029370
Si Si4 0.358422 0.270320 0.309894
Si Si5 0.626650 0.056508 0.815995
Si Si6 0.544941 0.385842 0.314383
Si Si7 0.322900 0.174883 0.770805
O O1 0.845039 0.356903 0.621538
O O2 0.347529 0.406768 0.350813
O O3 0.575479 0.215027 0.786136
O O4 0.251934 0.419910 0.501396
O O5 0.000000 0.500000 0.500000
O O6 0.611414 0.577127 0.172295
O O7 0.519468 0.283029 0.218920
O O8 0.981363 0.305892 0.174936
O O9 0.479627 0.488168 0.907548
O O10 0.574708 0.131062 0.595422
O O11 0.360045 0.356372 0.253840
O O12 0.366593 0.148520 0.708058
O O13 0.572806 0.946419 0.964034
O O14 0.000000 0.000000 0.000000
O O15 0.932609 0.279171 0.559813
#
# Coordination Sequence:
#
# PCOD8029174 Si02
#       7
#     2   2   2   2   2   2   2
#     4  11  20  37  62  89 118 150 200 243 294 355
#     4  11  24  42  63  87 117 153 196 259 311 357
#     4  11  24  36  57  85 122 150 201 235 304 369
#     4  12  23  36  54  87 123 172 184 236 287 344
#     4  11  23  35  56  81 128 172 213 232 265 337
#     4  11  21  36  56  85 127 161 195 231 285 359
#     4  11  20  37  58  85 121 165 209 243 267 336
#
# _framework density 18.957356999999998
#
# number of rings (size 3 to 8) (size 9 to 14) (size 15 to 20)
#    0.000    0.857    5.714    3.857    2.000    0.000 
#    0.000    0.000    0.000    0.000    0.000    6.000 
#    0.000    0.000    0.000    0.000    0.000    0.000 
#
# Total GULP energy -173549.685678 kJ/mol
# GULP energy per Si atom -12396.406120 kJ/mol
# Density = 1.891421 g / cm^3
# Si number density = 18.957357 Si / 1000 Ang^3
#
#
#
# Elastic Constant Matrix: (Units=GPa)
#
#
# Indices 1 2 3 4 5 6 
#
# 1 121.9550 32.0532 37.3282 -0.9495 -18.2528 4.8278
# 2 32.0532 63.4485 18.8374 8.0537 -14.4210 14.2171
# 3 37.3282 18.8374 101.0871 -5.4314 -22.0562 13.2408
# 4 -0.9495 8.0537 -5.4314 22.9248 3.7843 0.0858
# 5 -18.2528 -14.4210 -22.0562 3.7843 34.1043 -6.9747
# 6 4.8278 14.2171 13.2408 0.0858 -6.9747 25.9504
#
#
#
# Elastic Compliance Matrix: (Units=1/GPa)
#
#
# Indices 1 2 3 4 5 6 
#
# 1 0.010538 -0.004701 -0.002814 0.001038 0.002260 0.002655
# 2 -0.004701 0.023020 -0.000468 -0.009335 0.005932 -0.009873
# 3 -0.002814 -0.000468 0.012908 0.002212 0.005513 -0.004332
# 4 0.001038 -0.009335 0.002212 0.048616 -0.006997 0.001751
# 5 0.002260 0.005932 0.005513 -0.006997 0.038157 0.003796
# 6 0.002655 -0.009873 -0.004332 0.001751 0.003796 0.046675
#
#
# Mechanical properties :
#
#
# Convention : Reuss Voigt Hill
#
# Bulk Modulus (GPa) = 32.78712 51.43648 42.11180
# Shear Modulus (GPa) = 24.26630 29.81404 27.04017
#
# Velocity S-wave (km/s) = 3.58166 3.97002 3.78083
# Velocity P-wave (km/s) = 5.86831 6.94308 6.42820
#
# Compressibility (1/GPa) = 0.03049978
#
# Stress axis : x y z
#
# Youngs Moduli (GPa) = 94.89553 43.44005 77.47224
#
# Poissons Ratio (x) = 0.20422 0.21802
# Poissons Ratio (y) = 0.44612 0.03624
# Poissons Ratio (z) = 0.26705 0.02032
#
# Static dielectric constant tensor:
#      x y z
#    x 3.920730 0.103240 -0.334610 
#    y 0.103240 3.313930 -0.178050 
#    z -0.334610 -0.178050 3.549660 
# 
# 
# High freq. dielectric constant tensor:
#      x y z
#    x 1.766190 0.006230 -0.014870 
#    y 0.006230 1.688660 -0.012300 
#    z -0.014870 -0.012300 1.719570 
# 
# From -- ./inp_files/481548.got.cif
#   From: 2010.06.25/outbox.cif.g09.slc.cpg/sg2_241_cif.got.tgz:481548.got - 2010.06.27 13:26:56.
