data_PCOD8029040
_publ_section_title
;
Structure prediction by ZEFSAII (Michael W. Deem and Ramdas Pophale) SiO2 
 PCOD8029040
Probable space group: P -1
;
_chemical_formula_sum "Si O2"
_cell_formula_units_Z 16
_cell_length_a 9.455039
_cell_length_b 14.323726
_cell_length_c 11.619722
_cell_angle_alpha 150.180842
_cell_angle_beta 106.246461
_cell_angle_gamma 74.499874
_cell_volume 750.292390
_symmetry_space_group_name_H-M "P -1"
_symmetry_group_IT_number 2
_symmetry_cell_setting 'triclinic'
loop_
_space_group_symop_operation_xyz
x,y,z
-x,-y,-z
loop_
_atom_site_type_symbol
_atom_site_label
_atom_site_fract_x
_atom_site_fract_y
_atom_site_fract_z
Si Si1 0.155147 0.981886 0.744756
Si Si2 0.679681 0.368888 0.193585
Si Si3 0.572271 0.898755 0.194848
Si Si4 0.830485 0.060189 0.038162
Si Si5 0.716791 0.844816 0.400324
Si Si6 0.853697 0.190291 0.856006
Si Si7 0.029640 0.714503 0.256589
Si Si8 0.353199 0.226519 0.452453
O O1 0.220579 0.941060 0.842288
O O2 0.122602 0.781779 0.460561
O O3 0.268282 0.108152 0.837044
O O4 0.004965 0.110177 0.862226
O O5 0.786614 0.273579 0.213980
O O6 0.634563 0.590951 0.432171
O O7 0.528435 0.260783 0.048095
O O8 0.780880 0.363910 0.095744
O O9 0.587523 0.850762 0.283231
O O10 0.509228 0.111660 0.383856
O O11 0.754059 0.910056 0.781255
O O12 0.000000 0.000000 0.000000
O O13 0.696853 0.705506 0.355688
O O14 0.870039 0.818178 0.337689
O O15 0.723217 0.044250 0.680713
O O16 0.875835 0.227702 0.767829
O O17 0.000000 0.500000 0.000000
#
# Coordination Sequence:
#
# PCOD8029040 Si02
#       8
#     2   2   2   2   2   2   2   2
#     4  11  22  42  68  90 125 173 210 258 319 380
#     4  11  25  42  65  95 131 165 216 267 311 377
#     4  11  23  42  65  91 134 171 209 255 329 380
#     4  11  22  45  69  91 124 170 216 262 319 370
#     4  11  19  40  64  92 129 171 208 259 322 381
#     4  11  19  41  65  92 125 167 207 268 322 365
#     4  11  22  36  63 100 133 155 212 273 319 372
#     4  11  25  41  63  96 131 167 214 264 313 378
#
# _framework density 21.325019999999999
#
# number of rings (size 3 to 8) (size 9 to 14) (size 15 to 20)
#    0.000    1.000    6.250    2.625    0.000    4.000 
#    2.250    1.250    0.000    0.000    0.000    0.000 
#    0.000    0.000    0.000    0.000    0.000    0.000 
#
# Total GULP energy -198230.150491 kJ/mol
# GULP energy per Si atom -12389.384406 kJ/mol
# Density = 2.127648 g / cm^3
# Si number density = 21.325020 Si / 1000 Ang^3
#
#
#
# Elastic Constant Matrix: (Units=GPa)
#
#
# Indices 1 2 3 4 5 6 
#
# 1 56.7470 18.9401 13.4284 -5.7492 13.1820 -2.9742
# 2 18.9401 150.4053 50.8985 -6.2707 10.2679 -0.4624
# 3 13.4284 50.8985 70.7971 2.1468 5.7816 1.6769
# 4 -5.7492 -6.2707 2.1468 41.6394 6.2343 1.2178
# 5 13.1820 10.2679 5.7816 6.2343 20.0154 -6.8037
# 6 -2.9742 -0.4624 1.6769 1.2178 -6.8037 28.7196
#
#
#
# Elastic Compliance Matrix: (Units=1/GPa)
#
#
# Indices 1 2 3 4 5 6 
#
# 1 0.022704 -0.000621 -0.002675 0.005643 -0.016152 -0.001568
# 2 -0.000621 0.009153 -0.006249 0.002119 -0.003284 -0.000420
# 3 -0.002675 -0.006249 0.019262 -0.002195 -0.000426 -0.001510
# 4 0.005643 0.002119 -0.002195 0.027429 -0.013980 -0.003728
# 5 -0.016152 -0.003284 -0.000426 -0.013980 0.072199 0.015996
# 6 -0.001568 -0.000420 -0.001510 -0.003728 0.015996 0.038686
#
#
# Mechanical properties :
#
#
# Convention : Reuss Voigt Hill
#
# Bulk Modulus (GPa) = 31.22092 49.38704 40.30398
# Shear Modulus (GPa) = 22.81042 31.05371 26.93207
#
# Velocity S-wave (km/s) = 3.27411 3.82017 3.55763
# Velocity P-wave (km/s) = 5.38194 6.53206 5.98469
#
# Compressibility (1/GPa) = 0.03202981
#
# Stress axis : x y z
#
# Youngs Moduli (GPa) = 44.04539 109.25750 51.91644
#
# Poissons Ratio (x) = 0.06780 0.13888
# Poissons Ratio (y) = 0.02733 0.32440
# Poissons Ratio (z) = 0.11782 0.68270
#
# Static dielectric constant tensor:
#      x y z
#    x 4.101070 0.372670 0.065610 
#    y 0.372670 4.697860 0.047980 
#    z 0.065610 0.047980 4.047820 
# 
# 
# High freq. dielectric constant tensor:
#      x y z
#    x 1.844330 0.000780 -0.000400 
#    y 0.000780 1.841990 -0.008360 
#    z -0.000400 -0.008360 1.814540 
# 
# From -- ./inp_files/273028.got.cif
#   From: 2010.06.25/outbox.cif.g09.slc.cpg/sg2_137_cif.got.tgz:273028.got - 2010.06.27 13:26:56.
