data_PCOD8029046
_publ_section_title
;
Structure prediction by ZEFSAII (Michael W. Deem and Ramdas Pophale) SiO2 
 PCOD8029046
Probable space group: P -1
;
_chemical_formula_sum "Si O2"
_cell_formula_units_Z 16
_cell_length_a 16.995581
_cell_length_b 22.947973
_cell_length_c 28.233040
_cell_angle_alpha 11.167413
_cell_angle_beta 159.796115
_cell_angle_gamma 159.175854
_cell_volume 720.270975
_symmetry_space_group_name_H-M "P -1"
_symmetry_group_IT_number 2
_symmetry_cell_setting 'triclinic'
loop_
_space_group_symop_operation_xyz
x,y,z
-x,-y,-z
loop_
_atom_site_type_symbol
_atom_site_label
_atom_site_fract_x
_atom_site_fract_y
_atom_site_fract_z
Si Si1 0.380269 0.356165 0.998559
Si Si2 0.106070 0.764034 0.078162
Si Si3 0.997948 0.315097 0.461963
Si Si4 0.342097 0.308277 0.259518
Si Si5 0.423814 0.154719 0.879963
Si Si6 0.211695 0.689822 0.803637
Si Si7 0.170959 0.796387 0.380477
Si Si8 0.222489 0.369975 0.244426
O O1 0.564247 0.351834 0.065663
O O2 0.247558 0.008078 0.209290
O O3 0.500000 0.500000 0.000000
O O4 0.189705 0.549920 0.721016
O O5 0.116808 0.550299 0.300262
O O6 0.003396 0.555463 0.142248
O O7 0.360832 0.930668 0.069102
O O8 0.954181 0.020876 0.798043
O O9 0.194604 0.281132 0.637187
O O10 0.862959 0.996254 0.617020
O O11 0.591488 0.274156 0.405892
O O12 0.384179 0.378750 0.282593
O O13 0.257105 0.594239 0.959182
O O14 0.637408 0.425562 0.798256
O O15 0.500000 0.000000 0.000000
O O16 0.154402 0.026185 0.501324
O O17 0.000000 0.500000 0.500000
O O18 0.000000 0.500000 0.000000
#
# Coordination Sequence:
#
# PCOD8029046 Si02
#       8
#     2   2   2   2   2   2   2   2
#     4  11  19  40  68 105 147 190 231 282 350 427
#     4  11  23  43  73 106 144 188 235 291 351 424
#     4  11  22  44  74 104 146 187 237 289 351 422
#     4  12  23  44  73 105 146 190 234 289 359 419
#     4  12  29  48  72 106 134 185 246 295 360 424
#     4  12  24  42  76 109 137 191 242 282 361 433
#     4  11  22  39  68 105 151 189 228 286 356 414
#     4  12  28  52  72  98 146 185 235 307 353 421
#
# _framework density 22.213861999999999
#
# number of rings (size 3 to 8) (size 9 to 14) (size 15 to 20)
#    0.000    0.500    7.500    1.500    1.750    5.000 
#    0.000    1.250    0.000    0.000    0.000    0.000 
#    0.000    0.000    0.000    0.000    0.000    0.000 
#
# Total GULP energy -198384.159383 kJ/mol
# GULP energy per Si atom -12399.009961 kJ/mol
# Density = 2.216330 g / cm^3
# Si number density = 22.213862 Si / 1000 Ang^3
#
#
#
# Elastic Constant Matrix: (Units=GPa)
#
#
# Indices 1 2 3 4 5 6 
#
# 1 58.9746 14.5890 33.9070 -10.9303 -4.9197 1.9987
# 2 14.5890 130.0377 59.1096 -11.4852 7.1976 -11.6693
# 3 33.9070 59.1096 153.9535 -5.5239 -5.7476 -2.6984
# 4 -10.9303 -11.4852 -5.5239 42.0391 0.6002 2.9269
# 5 -4.9197 7.1976 -5.7476 0.6002 31.9221 -1.9135
# 6 1.9987 -11.6693 -2.6984 2.9269 -1.9135 35.0902
#
#
#
# Elastic Compliance Matrix: (Units=1/GPa)
#
#
# Indices 1 2 3 4 5 6 
#
# 1 0.020588 -0.000264 -0.004208 0.004825 0.002272 -0.001863
# 2 -0.000264 0.010017 -0.003774 0.002023 -0.002853 0.002732
# 3 -0.004208 -0.003774 0.008901 -0.000971 0.001814 -0.000151
# 4 0.004825 0.002023 -0.000971 0.025602 -0.000479 -0.001838
# 5 0.002272 -0.002853 0.001814 -0.000479 0.032708 0.000885
# 6 -0.001863 0.002732 -0.000151 -0.001838 0.000885 0.029702
#
#
# Mechanical properties :
#
#
# Convention : Reuss Voigt Hill
#
# Bulk Modulus (GPa) = 43.44944 62.01968 52.73456
# Shear Modulus (GPa) = 32.96386 37.50098 35.23242
#
# Velocity S-wave (km/s) = 3.85636 4.11320 3.98685
# Velocity P-wave (km/s) = 6.27939 7.10900 6.70704
#
# Compressibility (1/GPa) = 0.02301526
#
# Stress axis : x y z
#
# Youngs Moduli (GPa) = 48.57225 99.83231 112.34223
#
# Poissons Ratio (x) = 0.02635 0.47270
# Poissons Ratio (y) = 0.01282 0.42396
# Poissons Ratio (z) = 0.20438 0.37675
#
# Static dielectric constant tensor:
#      x y z
#    x 4.140720 0.265160 -0.097710 
#    y 0.265160 3.963050 -0.072720 
#    z -0.097710 -0.072720 4.301590 
# 
# 
# High freq. dielectric constant tensor:
#      x y z
#    x 1.870510 0.012260 -0.003740 
#    y 0.012260 1.867220 -0.004610 
#    z -0.003740 -0.004610 1.885970 
# 
# From -- ./inp_files/579394.got.cif
#   From: 2010.06.25/outbox.cif.g09.slc.cpg/sg2_290_cif.got.tgz:579394.got - 2010.06.27 13:26:56.
