data_PCOD8029638
_publ_section_title
;
Structure prediction by ZEFSAII (Michael W. Deem and Ramdas Pophale) SiO2 
 PCOD8029638
Probable space group: P -1
;
_chemical_formula_sum "Si O2"
_cell_formula_units_Z 16
_cell_length_a 15.374864
_cell_length_b 12.911315
_cell_length_c 9.756588
_cell_angle_alpha 105.969739
_cell_angle_beta 64.855417
_cell_angle_gamma 50.234076
_cell_volume 833.150568
_symmetry_space_group_name_H-M "P -1"
_symmetry_group_IT_number 2
_symmetry_cell_setting 'triclinic'
loop_
_space_group_symop_operation_xyz
x,y,z
-x,-y,-z
loop_
_atom_site_type_symbol
_atom_site_label
_atom_site_fract_x
_atom_site_fract_y
_atom_site_fract_z
Si Si1 0.065481 0.502546 0.695716
Si Si2 0.049432 0.242193 0.390007
Si Si3 0.224308 0.406894 0.073847
Si Si4 0.138791 0.595648 0.919144
Si Si5 0.419293 0.508463 0.681318
Si Si6 0.395074 0.034901 0.199028
Si Si7 0.888740 0.031455 0.905942
Si Si8 0.827669 0.059784 0.266761
O O1 0.087164 0.552396 0.833543
O O2 0.261777 0.242394 0.455953
O O3 0.036082 0.602872 0.618213
O O4 0.878690 0.608459 0.875856
O O5 0.261526 0.075291 0.231934
O O6 0.894698 0.400255 0.673618
O O7 0.072541 0.095990 0.279490
O O8 0.235891 0.452386 0.936229
O O9 0.445737 0.177258 0.889741
O O10 0.285923 0.538616 0.730434
O O11 0.940538 0.851421 0.187372
O O12 0.500000 0.500000 0.500000
O O13 0.606327 0.278160 0.551537
O O14 0.285256 0.719345 0.938507
O O15 0.500000 0.000000 0.000000
O O16 0.084338 0.909363 0.747986
O O17 0.833308 0.031754 0.088781
#
# Coordination Sequence:
#
# PCOD8029638 Si02
#       8
#     2   2   2   2   2   2   2   2
#     4  11  22  38  62  88 113 157 203 237 286 353
#     4  11  21  37  63  85 114 158 201 233 292 350
#     4  11  24  41  56  86 126 156 193 243 292 348
#     4  11  23  38  61  89 120 155 191 244 304 339
#     4   9  20  35  56  91 120 145 191 242 290 351
#     4  11  21  38  58  84 122 155 199 246 279 342
#     4   9  18  34  59  90 110 148 197 242 285 344
#     4   9  18  36  58  85 122 142 189 250 291 337
#
# _framework density 19.204211000000001
#
# number of rings (size 3 to 8) (size 9 to 14) (size 15 to 20)
#    0.000    1.750    3.750    1.875    0.000    6.500 
#    0.000    2.500    0.000    4.500    0.000    0.000 
#    0.000    0.000    0.000    0.000    0.000    0.000 
#
# Total GULP energy -198380.245515 kJ/mol
# GULP energy per Si atom -12398.765345 kJ/mol
# Density = 1.916050 g / cm^3
# Si number density = 19.204211 Si / 1000 Ang^3
#
#
#
# Elastic Constant Matrix: (Units=GPa)
#
#
# Indices 1 2 3 4 5 6 
#
# 1 115.1932 31.0973 57.3448 9.3399 29.6957 -13.5160
# 2 31.0973 96.1081 32.2715 12.7526 6.4896 -22.0888
# 3 57.3448 32.2715 78.6682 23.8143 2.9998 -15.8019
# 4 9.3399 12.7526 23.8143 39.2283 -3.7151 -6.9243
# 5 29.6957 6.4896 2.9998 -3.7151 23.9150 4.4787
# 6 -13.5160 -22.0888 -15.8019 -6.9243 4.4787 18.3886
#
#
#
# Elastic Compliance Matrix: (Units=1/GPa)
#
#
# Indices 1 2 3 4 5 6 
#
# 1 0.027827 0.003402 -0.017131 0.002687 -0.036609 0.019747
# 2 0.003402 0.016630 -0.004193 -0.001051 -0.012401 0.021498
# 3 -0.017131 -0.004193 0.029450 -0.010921 0.017132 -0.000606
# 4 0.002687 -0.001051 -0.010921 0.032607 0.002838 0.002915
# 5 -0.036609 -0.012401 0.017132 0.002838 0.098284 -0.049951
# 6 0.019747 0.021498 -0.000606 0.002915 -0.049951 0.107463
#
#
# Mechanical properties :
#
#
# Convention : Reuss Voigt Hill
#
# Bulk Modulus (GPa) = 26.27143 59.04408 42.65776
# Shear Modulus (GPa) = 13.85841 27.59013 20.72427
#
# Velocity S-wave (km/s) = 2.68924 3.79446 3.28861
# Velocity P-wave (km/s) = 4.83243 7.07173 6.05647
#
# Compressibility (1/GPa) = 0.03806417
#
# Stress axis : x y z
#
# Youngs Moduli (GPa) = 35.93615 60.13338 33.95574
#
# Poissons Ratio (x) = -0.20460 0.58169
# Poissons Ratio (y) = -0.12227 0.14237
# Poissons Ratio (z) = 0.61562 0.25213
#
# Static dielectric constant tensor:
#      x y z
#    x 3.141160 -0.035790 -0.361600 
#    y -0.035790 3.640960 0.457290 
#    z -0.361600 0.457290 3.402410 
# 
# 
# High freq. dielectric constant tensor:
#      x y z
#    x 1.748890 0.003130 -0.003360 
#    y 0.003130 1.739580 0.028480 
#    z -0.003360 0.028480 1.741510 
# 
# From -- ./inp_files/273543.got.cif
#   From: 2010.06.25/outbox.cif.g09.slc.cpg/sg2_137_cif.got.tgz:273543.got - 2010.06.27 13:26:56.
