data_PCOD8029782
_publ_section_title
;
Structure prediction by ZEFSAII (Michael W. Deem and Ramdas Pophale) SiO2 
 PCOD8029782
Probable space group: P -1
;
_chemical_formula_sum "Si O2"
_cell_formula_units_Z 14
_cell_length_a 12.496388
_cell_length_b 11.382012
_cell_length_c 8.731747
_cell_angle_alpha 91.499457
_cell_angle_beta 37.307758
_cell_angle_gamma 109.297735
_cell_volume 646.780632
_symmetry_space_group_name_H-M "P -1"
_symmetry_group_IT_number 2
_symmetry_cell_setting 'triclinic'
loop_
_space_group_symop_operation_xyz
x,y,z
-x,-y,-z
loop_
_atom_site_type_symbol
_atom_site_label
_atom_site_fract_x
_atom_site_fract_y
_atom_site_fract_z
Si Si1 0.506063 0.237480 0.192590
Si Si2 0.146205 0.476965 0.217599
Si Si3 0.220551 0.269112 0.274851
Si Si4 0.610600 0.858993 0.123316
Si Si5 0.176335 0.773556 0.607449
Si Si6 0.213333 0.008532 0.757735
Si Si7 0.239068 0.888647 0.225958
O O1 0.364836 0.265193 0.240516
O O2 0.375802 0.132377 0.470145
O O3 0.678498 0.387830 0.063033
O O4 0.645850 0.191549 0.945772
O O5 0.258269 0.418150 0.195948
O O6 0.000000 0.500000 0.500000
O O7 0.019539 0.372514 0.218951
O O8 0.986090 0.176040 0.596872
O O9 0.261868 0.213961 0.064994
O O10 0.368023 0.749844 0.412500
O O11 0.694108 0.957059 0.177318
O O12 0.627076 0.953429 0.963657
O O13 0.209431 0.882151 0.441439
O O14 0.165982 0.855181 0.770009
O O15 0.000000 0.000000 0.000000
#
# Coordination Sequence:
#
# PCOD8029782 Si02
#       7
#     2   2   2   2   2   2   2
#     4  12  23  43  69  99 134 173 216 275 329 384
#     4  11  22  43  67 101 134 166 216 278 332 388
#     4  11  22  39  69 101 130 169 221 272 332 389
#     4  12  22  41  65  98 133 179 217 269 331 384
#     4  11  22  40  67  96 132 169 217 276 324 383
#     4  12  26  43  64  95 136 179 223 266 323 395
#     4  11  21  39  68 100 134 160 223 277 326 380
#
# _framework density 21.645671
#
# number of rings (size 3 to 8) (size 9 to 14) (size 15 to 20)
#    0.000    0.571    5.714    5.143    0.000    0.000 
#    0.000    3.571    0.000    0.000    0.000    0.000 
#    0.000    0.000    0.000    0.000    0.000    0.000 
#
# Total GULP energy -173499.799232 kJ/mol
# GULP energy per Si atom -12392.842802 kJ/mol
# Density = 2.159640 g / cm^3
# Si number density = 21.645671 Si / 1000 Ang^3
#
#
#
# Elastic Constant Matrix: (Units=GPa)
#
#
# Indices 1 2 3 4 5 6 
#
# 1 70.4502 28.2505 21.2210 9.0402 -25.1660 10.8317
# 2 28.2505 119.2148 41.0227 -0.0842 -9.1642 4.2796
# 3 21.2210 41.0227 95.4407 -4.5794 -30.0263 9.4837
# 4 9.0402 -0.0842 -4.5794 34.6275 0.9937 -9.7317
# 5 -25.1660 -9.1642 -30.0263 0.9937 40.2194 6.2647
# 6 10.8317 4.2796 9.4837 -9.7317 6.2647 38.4447
#
#
#
# Elastic Compliance Matrix: (Units=1/GPa)
#
#
# Indices 1 2 3 4 5 6 
#
# 1 0.025887 -0.005391 0.003737 -0.010677 0.020142 -0.013600
# 2 -0.005391 0.011023 -0.005464 0.001699 -0.005444 0.002957
# 3 0.003737 -0.005464 0.017534 -0.001246 0.015398 -0.007595
# 4 -0.010677 0.001699 -0.001246 0.035688 -0.010261 0.013832
# 5 0.020142 -0.005444 0.015398 -0.010261 0.051057 -0.019785
# 6 -0.013600 0.002957 -0.007595 0.013832 -0.019785 0.038113
#
#
# Mechanical properties :
#
#
# Convention : Reuss Voigt Hill
#
# Bulk Modulus (GPa) = 24.87086 51.78824 38.32955
# Shear Modulus (GPa) = 24.16157 35.63241 29.89699
#
# Velocity S-wave (km/s) = 3.34463 4.06170 3.72048
# Velocity P-wave (km/s) = 5.14104 6.78041 6.01682
#
# Compressibility (1/GPa) = 0.04020770
#
# Stress axis : x y z
#
# Youngs Moduli (GPa) = 38.62975 90.72254 57.03071
#
# Poissons Ratio (x) = 0.48913 -0.21315
# Poissons Ratio (y) = 0.20827 0.31161
# Poissons Ratio (z) = -0.14437 0.49570
#
# Static dielectric constant tensor:
#      x y z
#    x 4.280110 0.029240 -0.282660 
#    y 0.029240 4.105630 -0.041420 
#    z -0.282660 -0.041420 4.139410 
# 
# 
# High freq. dielectric constant tensor:
#      x y z
#    x 1.848570 0.001250 -0.034230 
#    y 0.001250 1.852870 0.005610 
#    z -0.034230 0.005610 1.849410 
# 
# From -- ./inp_files/258431.got.cif
#   From: 2010.06.25/outbox.cif.g09.slc.cpg/sg2_130_cif.got.tgz:258431.got - 2010.06.27 13:26:56.
