data_PCOD8029111
_publ_section_title
;
Structure prediction by ZEFSAII (Michael W. Deem and Ramdas Pophale) SiO2 
 PCOD8029111
Probable space group: P -1
;
_chemical_formula_sum "Si O2"
_cell_formula_units_Z 16
_cell_length_a 12.769907
_cell_length_b 8.738853
_cell_length_c 13.763292
_cell_angle_alpha 125.962304
_cell_angle_beta 147.746919
_cell_angle_gamma 51.257335
_cell_volume 633.063248
_symmetry_space_group_name_H-M "P -1"
_symmetry_group_IT_number 2
_symmetry_cell_setting 'triclinic'
loop_
_space_group_symop_operation_xyz
x,y,z
-x,-y,-z
loop_
_atom_site_type_symbol
_atom_site_label
_atom_site_fract_x
_atom_site_fract_y
_atom_site_fract_z
Si Si1 0.142025 0.588519 0.809385
Si Si2 0.823454 0.714236 0.822701
Si Si3 0.030892 0.875564 0.649230
Si Si4 0.356649 0.254061 0.723043
Si Si5 0.560508 0.306357 0.597328
Si Si6 0.742770 0.126337 0.866410
Si Si7 0.016260 0.701783 0.168621
Si Si8 0.242252 0.544701 0.565163
O O1 0.119414 0.757689 0.772711
O O2 0.317101 0.382175 0.840741
O O3 0.928963 0.545395 0.646160
O O4 0.185268 0.681173 0.979979
O O5 0.586817 0.765340 0.619584
O O6 0.963235 0.490543 0.818162
O O7 0.905050 0.899422 0.916164
O O8 0.845412 0.714940 0.957195
O O9 0.155326 0.774418 0.613020
O O10 0.794500 0.880286 0.454343
O O11 0.046338 0.097511 0.743894
O O12 0.586639 0.117205 0.830765
O O13 0.317507 0.425571 0.677107
O O14 0.640575 0.145953 0.686848
O O15 0.752727 0.340842 0.707769
O O16 0.423551 0.512787 0.616443
#
# Coordination Sequence:
#
# PCOD8029111 Si02
#       8
#     2   2   2   2   2   2   2   2
#     4   9  16  30  55  89 127 156 192 245 309 364
#     4  11  25  42  60  88 125 164 209 243 290 371
#     4   9  16  36  60  84 116 164 204 239 299 360
#     4   8  16  29  53  89 123 155 195 246 304 363
#     4  11  24  40  62  93 127 152 200 258 313 348
#     4  11  20  34  59  94 125 155 198 255 309 349
#     4  11  24  43  66  85 119 172 208 240 294 366
#     4   8  18  34  58  89 125 150 191 260 306 352
#
# _framework density 25.273935999999999
#
# number of rings (size 3 to 8) (size 9 to 14) (size 15 to 20)
#    0.000    2.250    1.250    3.375    1.750    2.500 
#    0.000    0.625    0.000    3.000    0.000    0.000 
#    0.000    0.000    0.000    0.000    0.000    0.000 
#
# Total GULP energy -198211.871007 kJ/mol
# GULP energy per Si atom -12388.241938 kJ/mol
# Density = 2.521641 g / cm^3
# Si number density = 25.273936 Si / 1000 Ang^3
#
#
#
# Elastic Constant Matrix: (Units=GPa)
#
#
# Indices 1 2 3 4 5 6 
#
# 1 59.2922 21.3820 8.2312 0.0427 -4.9433 -12.4529
# 2 21.3820 145.3529 49.9174 32.5627 -17.3742 5.3325
# 3 8.2312 49.9174 134.5363 14.7023 -27.4002 2.3592
# 4 0.0427 32.5627 14.7023 32.8894 3.1937 -8.0122
# 5 -4.9433 -17.3742 -27.4002 3.1937 14.2658 -0.3564
# 6 -12.4529 5.3325 2.3592 -8.0122 -0.3564 27.1300
#
#
#
# Elastic Compliance Matrix: (Units=1/GPa)
#
#
# Indices 1 2 3 4 5 6 
#
# 1 0.021991 -0.006302 -0.001460 0.010904 -0.004936 0.014615
# 2 -0.006302 0.015416 0.002630 -0.021976 0.026256 -0.012297
# 3 -0.001460 0.002630 0.015478 -0.014518 0.035517 -0.006354
# 4 0.010904 -0.021976 -0.014518 0.072677 -0.066361 0.031178
# 5 -0.004936 0.026256 0.035517 -0.066361 0.182745 -0.027712
# 6 0.014615 -0.012297 -0.006354 0.031178 -0.027712 0.055381
#
#
# Mechanical properties :
#
#
# Convention : Reuss Voigt Hill
#
# Bulk Modulus (GPa) = 23.46274 55.36027 39.41151
# Shear Modulus (GPa) = 12.88127 32.16710 22.52418
#
# Velocity S-wave (km/s) = 2.26003 3.57142 2.98854
# Velocity P-wave (km/s) = 4.01420 6.24166 5.24748
#
# Compressibility (1/GPa) = 0.04262076
#
# Stress axis : x y z
#
# Youngs Moduli (GPa) = 45.47245 64.86641 64.60863
#
# Poissons Ratio (x) = 0.40881 0.09434
# Poissons Ratio (y) = 0.28659 -0.16993
# Poissons Ratio (z) = 0.06639 -0.17061
#
# Static dielectric constant tensor:
#      x y z
#    x 5.002830 -1.068480 0.079100 
#    y -1.068480 5.504780 -0.044180 
#    z 0.079100 -0.044180 4.681010 
# 
# 
# High freq. dielectric constant tensor:
#      x y z
#    x 1.991310 -0.025400 -0.005170 
#    y -0.025400 2.000560 0.010820 
#    z -0.005170 0.010820 2.015410 
# 
# From -- ./inp_files/530183.got.cif
#   From: 2010.06.25/outbox.cif.g09.slc.cpg/sg2_266_cif.got.tgz:530183.got - 2010.06.27 13:26:56.
