data_PCOD8029447
_publ_section_title
;
Structure prediction by ZEFSAII (Michael W. Deem and Ramdas Pophale) SiO2 
 PCOD8029447
Probable space group: P -1
;
_chemical_formula_sum "Si O2"
_cell_formula_units_Z 16
_cell_length_a 21.239989
_cell_length_b 9.387834
_cell_length_c 12.529527
_cell_angle_alpha 36.782674
_cell_angle_beta 28.956855
_cell_angle_gamma 47.362456
_cell_volume 721.905935
_symmetry_space_group_name_H-M "P -1"
_symmetry_group_IT_number 2
_symmetry_cell_setting 'triclinic'
loop_
_space_group_symop_operation_xyz
x,y,z
-x,-y,-z
loop_
_atom_site_type_symbol
_atom_site_label
_atom_site_fract_x
_atom_site_fract_y
_atom_site_fract_z
Si Si1 0.546452 0.950664 0.795797
Si Si2 0.086043 0.529205 0.713376
Si Si3 0.626421 0.498682 0.634656
Si Si4 0.512516 0.579734 0.313843
Si Si5 0.825963 0.292035 0.750029
Si Si6 0.240796 0.290759 0.260528
Si Si7 0.983899 0.092056 0.246061
Si Si8 0.527711 0.125922 0.272016
O O1 0.678323 0.820005 0.696963
O O2 0.529868 0.035606 0.645611
O O3 0.545103 0.162423 0.755272
O O4 0.419124 0.775762 0.113658
O O5 0.219564 0.468437 0.608017
O O6 0.096725 0.587213 0.537895
O O7 0.029990 0.757389 0.715354
O O8 0.996257 0.281945 0.015232
O O9 0.577775 0.580689 0.539403
O O10 0.557561 0.645873 0.739372
O O11 0.500000 0.500000 0.500000
O O12 0.662439 0.602152 0.039963
O O13 0.832332 0.490286 0.714708
O O14 0.679335 0.208721 0.982308
O O15 0.891064 0.060628 0.835799
O O16 0.141171 0.090719 0.477453
O O17 0.500000 0.000000 0.500000
#
# Coordination Sequence:
#
# PCOD8029447 Si02
#       8
#     2   2   2   2   2   2   2   2
#     4  11  21  38  68  92 131 172 210 272 335 393
#     4  11  24  46  72  97 130 180 231 279 335 392
#     4  11  20  42  65  95 132 164 219 275 336 397
#     4  11  23  40  63 102 133 172 215 272 344 394
#     4  12  24  45  68 100 140 176 227 276 334 404
#     4  11  24  45  66  96 138 177 222 273 332 410
#     4  11  26  47  67  97 136 181 232 273 328 402
#     4  12  23  38  65 105 134 165 214 281 342 394
#
# _framework density 22.163550000000001
#
# number of rings (size 3 to 8) (size 9 to 14) (size 15 to 20)
#    0.000    0.750    3.750    6.375    0.000    0.500 
#    6.750    0.000    0.000    0.000    0.000    0.000 
#    0.000    0.000    0.000    0.000    0.000    0.000 
#
# Total GULP energy -198389.611923 kJ/mol
# GULP energy per Si atom -12399.350745 kJ/mol
# Density = 2.211310 g / cm^3
# Si number density = 22.163550 Si / 1000 Ang^3
#
#
#
# Elastic Constant Matrix: (Units=GPa)
#
#
# Indices 1 2 3 4 5 6 
#
# 1 70.3049 25.8013 26.3269 5.1116 16.0071 8.4903
# 2 25.8013 132.9907 37.8770 10.4877 4.2053 9.4590
# 3 26.3269 37.8770 80.4786 5.2425 12.5049 5.8003
# 4 5.1116 10.4877 5.2425 24.3367 4.9980 -0.3969
# 5 16.0071 4.2053 12.5049 4.9980 46.4619 1.6887
# 6 8.4903 9.4590 5.8003 -0.3969 1.6887 34.1287
#
#
#
# Elastic Compliance Matrix: (Units=1/GPa)
#
#
# Indices 1 2 3 4 5 6 
#
# 1 0.017920 -0.001895 -0.003943 -0.001181 -0.004703 -0.003044
# 2 -0.001895 0.009227 -0.003591 -0.003071 0.001172 -0.001569
# 3 -0.003943 -0.003591 0.015874 -0.000538 -0.002509 -0.000604
# 4 -0.001181 -0.003071 -0.000538 0.043617 -0.003933 0.001938
# 5 -0.004703 0.001172 -0.002509 -0.003933 0.024135 0.000032
# 6 -0.003044 -0.001569 -0.000604 0.001938 0.000032 0.030616
#
#
# Mechanical properties :
#
#
# Convention : Reuss Voigt Hill
#
# Bulk Modulus (GPa) = 41.38811 51.53162 46.45986
# Shear Modulus (GPa) = 29.70845 33.90339 31.80592
#
# Velocity S-wave (km/s) = 3.66515 3.91537 3.79232
# Velocity P-wave (km/s) = 6.05190 6.61372 6.33904
#
# Compressibility (1/GPa) = 0.02416153
#
# Stress axis : x y z
#
# Youngs Moduli (GPa) = 55.80299 108.38240 62.99490
#
# Poissons Ratio (x) = 0.20541 0.24839
# Poissons Ratio (y) = 0.10576 0.22624
# Poissons Ratio (z) = 0.22004 0.38925
#
# Static dielectric constant tensor:
#      x y z
#    x 4.116150 0.361050 0.059160 
#    y 0.361050 4.893940 -0.084050 
#    z 0.059160 -0.084050 3.936550 
# 
# 
# High freq. dielectric constant tensor:
#      x y z
#    x 1.866740 0.006050 0.010720 
#    y 0.006050 1.895050 -0.002900 
#    z 0.010720 -0.002900 1.866830 
# 
# From -- ./inp_files/405652.got.cif
#   From: 2010.06.25/outbox.cif.g09.slc.cpg/sg2_203_cif.got.tgz:405652.got - 2010.06.27 13:26:56.
