data_PCOD8029548
_publ_section_title
;
Structure prediction by ZEFSAII (Michael W. Deem and Ramdas Pophale) SiO2 
 PCOD8029548
Probable space group: P -1
;
_chemical_formula_sum "Si O2"
_cell_formula_units_Z 16
_cell_length_a 15.610869
_cell_length_b 9.639562
_cell_length_c 9.114083
_cell_angle_alpha 66.228174
_cell_angle_beta 65.142506
_cell_angle_gamma 34.671772
_cell_volume 703.544417
_symmetry_space_group_name_H-M "P -1"
_symmetry_group_IT_number 2
_symmetry_cell_setting 'triclinic'
loop_
_space_group_symop_operation_xyz
x,y,z
-x,-y,-z
loop_
_atom_site_type_symbol
_atom_site_label
_atom_site_fract_x
_atom_site_fract_y
_atom_site_fract_z
Si Si1 0.606402 0.912022 0.596015
Si Si2 0.827845 0.145863 0.872279
Si Si3 0.203842 0.032185 0.568556
Si Si4 0.115796 0.593726 0.256926
Si Si5 0.687091 0.321578 0.599213
Si Si6 0.060399 0.582013 0.982681
Si Si7 0.626247 0.387200 0.169549
Si Si8 0.346712 0.380023 0.747283
O O1 0.721335 0.633526 0.681482
O O2 0.500000 0.000000 0.500000
O O3 0.711446 0.920482 0.471955
O O4 0.496078 0.090304 0.735317
O O5 0.904840 0.202263 0.854005
O O6 0.811723 0.189859 0.690949
O O7 0.662821 0.332256 0.992880
O O8 0.929016 0.872380 0.945311
O O9 0.269273 0.886437 0.429983
O O10 0.231694 0.874694 0.742892
O O11 0.021056 0.287895 0.587180
O O12 0.111238 0.500461 0.150638
O O13 0.525965 0.505493 0.717586
O O14 0.679749 0.473983 0.432915
O O15 0.202275 0.452553 0.835163
O O16 0.000000 0.500000 0.000000
O O17 0.625064 0.563632 0.146965
#
# Coordination Sequence:
#
# PCOD8029548 Si02
#       8
#     2   2   2   2   2   2   2   2
#     4  12  27  45  73 107 151 190 247 308 370 433
#     4  12  25  47  74 105 150 191 248 296 369 440
#     4  11  23  45  75 102 148 189 248 306 362 433
#     4  12  27  48  73 108 147 200 243 299 375 434
#     4  11  23  42  76 113 138 194 246 302 364 431
#     4  12  29  48  74 108 149 194 245 306 372 436
#     4  11  20  44  76 102 145 194 238 309 362 432
#     4  11  23  47  73 101 149 191 248 302 362 434
#
# _framework density 22.741990999999999
#
# number of rings (size 3 to 8) (size 9 to 14) (size 15 to 20)
#    0.000    0.500    5.000    4.125    3.500    3.500 
#    2.250    0.000    0.000    0.000    0.000    0.000 
#    0.000    0.000    0.000    0.000    0.000    0.000 
#
# Total GULP energy -198443.404938 kJ/mol
# GULP energy per Si atom -12402.712809 kJ/mol
# Density = 2.269023 g / cm^3
# Si number density = 22.741991 Si / 1000 Ang^3
#
#
#
# Elastic Constant Matrix: (Units=GPa)
#
#
# Indices 1 2 3 4 5 6 
#
# 1 118.6022 55.3273 36.4293 0.0970 -18.2499 0.7836
# 2 55.3273 142.7190 46.0785 7.3852 -9.7870 -5.8490
# 3 36.4293 46.0785 83.3922 17.2478 -3.1103 -7.5405
# 4 0.0970 7.3852 17.2478 25.9677 -12.7944 -8.1962
# 5 -18.2499 -9.7870 -3.1103 -12.7944 48.6210 2.7592
# 6 0.7836 -5.8490 -7.5405 -8.1962 2.7592 39.9147
#
#
#
# Elastic Compliance Matrix: (Units=1/GPa)
#
#
# Indices 1 2 3 4 5 6 
#
# 1 0.012209 -0.003186 -0.004770 0.006473 0.005376 -0.000650
# 2 -0.003186 0.009539 -0.003866 0.000372 0.000531 0.000770
# 3 -0.004770 -0.003866 0.018919 -0.013714 -0.005003 0.000631
# 4 0.006473 0.000372 -0.013714 0.058176 0.016474 0.008144
# 5 0.005376 0.000531 -0.005003 0.016474 0.026675 0.000566
# 6 -0.000650 0.000770 0.000631 0.008144 0.000566 0.026931
#
#
# Mechanical properties :
#
#
# Convention : Reuss Voigt Hill
#
# Bulk Modulus (GPa) = 58.74810 68.93151 63.83980
# Shear Modulus (GPa) = 27.50765 36.69257 32.10011
#
# Velocity S-wave (km/s) = 3.48164 4.02111 3.76106
# Velocity P-wave (km/s) = 6.48467 7.20660 6.85514
#
# Compressibility (1/GPa) = 0.01702183
#
# Stress axis : x y z
#
# Youngs Moduli (GPa) = 81.90538 104.83392 52.85780
#
# Poissons Ratio (x) = 0.33399 0.25214
# Poissons Ratio (y) = 0.26094 0.20437
# Poissons Ratio (z) = 0.39070 0.40534
#
# Static dielectric constant tensor:
#      x y z
#    x 4.047030 0.037110 0.068180 
#    y 0.037110 4.316300 0.212720 
#    z 0.068180 0.212720 4.076460 
# 
# 
# High freq. dielectric constant tensor:
#      x y z
#    x 1.899040 -0.000160 -0.004990 
#    y -0.000160 1.905980 0.015470 
#    z -0.004990 0.015470 1.894600 
# 
# From -- ./inp_files/297813.got.cif
#   From: 2010.06.25/outbox.cif.g09.slc.cpg/sg2_149_cif.got.tgz:297813.got - 2010.06.27 13:26:56.
