data_PCOD8029087
_publ_section_title
;
Structure prediction by ZEFSAII (Michael W. Deem and Ramdas Pophale) SiO2 
 PCOD8029087
Probable space group: P -1
;
_chemical_formula_sum "Si O2"
_cell_formula_units_Z 16
_cell_length_a 11.002874
_cell_length_b 9.961537
_cell_length_c 23.074463
_cell_angle_alpha 49.791370
_cell_angle_beta 47.913188
_cell_angle_gamma 28.057518
_cell_volume 872.157980
_symmetry_space_group_name_H-M "P -1"
_symmetry_group_IT_number 2
_symmetry_cell_setting 'triclinic'
loop_
_space_group_symop_operation_xyz
x,y,z
-x,-y,-z
loop_
_atom_site_type_symbol
_atom_site_label
_atom_site_fract_x
_atom_site_fract_y
_atom_site_fract_z
Si Si1 0.460569 0.534763 0.571305
Si Si2 0.125806 0.102182 0.339712
Si Si3 0.671643 0.512391 0.807551
Si Si4 0.161300 0.333981 0.369269
Si Si5 0.325377 0.220627 0.162334
Si Si6 0.912393 0.793792 0.073022
Si Si7 0.084954 0.938247 0.896715
Si Si8 0.420266 0.172502 0.533951
O O1 0.500000 0.500000 0.500000
O O2 0.517307 0.677472 0.539138
O O3 0.160616 0.737114 0.628280
O O4 0.666657 0.226514 0.620446
O O5 0.087928 0.266598 0.359332
O O6 0.231980 0.111643 0.246228
O O7 0.752565 0.547784 0.713981
O O8 0.668352 0.648048 0.824052
O O9 0.379435 0.674253 0.847832
O O10 0.882212 0.176907 0.845331
O O11 0.897558 0.582256 0.423279
O O12 0.411524 0.040401 0.405788
O O13 0.122768 0.458647 0.111063
O O14 0.620218 0.955078 0.113959
O O15 0.913631 0.928462 0.087829
O O16 0.993323 0.824780 0.979601
O O17 0.500000 0.000000 0.500000
#
# Coordination Sequence:
#
# PCOD8029087 Si02
#       8
#     2   2   2   2   2   2   2   2
#     4  12  21  36  56  76 101 131 173 221 258 301
#     4  11  20  33  54  77  98 132 176 220 252 299
#     4   9  17  26  42  63  88 124 168 206 237 287
#     4  11  20  36  53  73 102 133 172 219 258 304
#     4   9  17  26  39  64  92 125 164 199 247 290
#     4   9  15  24  37  56  94 132 160 196 235 297
#     4   9  15  24  37  60  88 129 170 193 233 292
#     4  12  25  38  54  76 103 137 171 213 268 312
#
# _framework density 18.345300999999999
#
# number of rings (size 3 to 8) (size 9 to 14) (size 15 to 20)
#    0.000    1.750    2.500    3.750    0.000    7.000 
#    0.000    0.000    0.000    0.000    0.000    0.000 
#    0.000    0.000    0.000   78.750    0.000   35.000 
#
# Total GULP energy -198436.896015 kJ/mol
# GULP energy per Si atom -12402.306001 kJ/mol
# Density = 1.830355 g / cm^3
# Si number density = 18.345301 Si / 1000 Ang^3
#
#
#
# Elastic Constant Matrix: (Units=GPa)
#
#
# Indices 1 2 3 4 5 6 
#
# 1 30.5130 29.3023 30.3064 7.8398 -10.7835 4.1781
# 2 29.3023 150.4267 85.5299 -6.8746 -14.6617 -36.2885
# 3 30.3064 85.5299 174.8772 -6.6686 -25.4640 -17.8826
# 4 7.8398 -6.8746 -6.6686 40.7988 -11.2528 -2.8090
# 5 -10.7835 -14.6617 -25.4640 -11.2528 15.4532 3.1114
# 6 4.1781 -36.2885 -17.8826 -2.8090 3.1114 31.2823
#
#
#
# Elastic Compliance Matrix: (Units=1/GPa)
#
#
# Indices 1 2 3 4 5 6 
#
# 1 0.072332 -0.019304 -0.004268 -0.014297 0.022367 -0.038002
# 2 -0.019304 0.017675 -0.002736 0.007762 -0.000030 0.022218
# 3 -0.004268 -0.002736 0.010731 0.006865 0.016605 0.002496
# 4 -0.014297 0.007762 0.006865 0.040401 0.035104 0.014974
# 5 0.022367 -0.000030 0.016605 0.035104 0.133960 -0.003702
# 6 -0.038002 0.022218 0.002496 0.014974 -0.003702 0.065956
#
#
# Mechanical properties :
#
#
# Convention : Reuss Voigt Hill
#
# Bulk Modulus (GPa) = 20.78052 71.78822 46.28437
# Shear Modulus (GPa) = 12.20373 31.55208 21.87790
#
# Velocity S-wave (km/s) = 2.58199 4.15167 3.45710
# Velocity P-wave (km/s) = 4.49899 7.88660 6.42025
#
# Compressibility (1/GPa) = 0.04812199
#
# Stress axis : x y z
#
# Youngs Moduli (GPa) = 13.82520 56.57666 93.18986
#
# Poissons Ratio (x) = 1.09215 0.39777
# Poissons Ratio (y) = 0.26688 0.25494
# Poissons Ratio (z) = 0.05901 0.15477
#
# Static dielectric constant tensor:
#      x y z
#    x 2.874660 -0.317910 -0.150570 
#    y -0.317910 3.523880 -0.060690 
#    z -0.150570 -0.060690 3.700160 
# 
# 
# High freq. dielectric constant tensor:
#      x y z
#    x 1.643110 -0.034280 -0.014130 
#    y -0.034280 1.724320 -0.004760 
#    z -0.014130 -0.004760 1.730540 
# 
# From -- ./inp_files/56132.got.cif
#   From: 2010.06.25/outbox.cif.g09.slc.cpg/sg2_29_cif.got.tgz:56132.got - 2010.06.27 13:26:56.
