data_PCOD8029325
_publ_section_title
;
Structure prediction by ZEFSAII (Michael W. Deem and Ramdas Pophale) SiO2 
 PCOD8029325
Probable space group: P -1
;
_chemical_formula_sum "Si O2"
_cell_formula_units_Z 16
_cell_length_a 17.270831
_cell_length_b 11.740111
_cell_length_c 11.758878
_cell_angle_alpha 121.075065
_cell_angle_beta 157.404516
_cell_angle_gamma 56.080881
_cell_volume 760.184942
_symmetry_space_group_name_H-M "P -1"
_symmetry_group_IT_number 2
_symmetry_cell_setting 'triclinic'
loop_
_space_group_symop_operation_xyz
x,y,z
-x,-y,-z
loop_
_atom_site_type_symbol
_atom_site_label
_atom_site_fract_x
_atom_site_fract_y
_atom_site_fract_z
Si Si1 0.631902 0.391041 0.206068
Si Si2 0.413753 0.461467 0.551641
Si Si3 0.705047 0.976044 0.197073
Si Si4 0.212408 0.555051 0.099019
Si Si5 0.899999 0.711593 0.220632
Si Si6 0.195240 0.256401 0.283967
Si Si7 0.579142 0.121482 0.882672
Si Si8 0.069727 0.093006 0.837761
O O1 0.558781 0.434549 0.257672
O O2 0.870977 0.386788 0.508014
O O3 0.500000 0.500000 0.000000
O O4 0.599556 0.245147 0.053924
O O5 0.270321 0.556645 0.312040
O O6 0.634982 0.390760 0.753258
O O7 0.311414 0.344541 0.405714
O O8 0.841446 0.817943 0.301639
O O9 0.844734 0.074600 0.484423
O O10 0.500000 0.000000 0.000000
O O11 0.614822 0.999436 0.959093
O O12 0.244430 0.394711 0.027946
O O13 0.976592 0.647061 0.817721
O O14 0.875739 0.794438 0.113136
O O15 0.362512 0.157556 0.541320
O O16 0.077968 0.157659 0.006587
O O17 0.768266 0.058476 0.019561
#
# Coordination Sequence:
#
# PCOD8029325 Si02
#       8
#     2   2   2   2   2   2   2   2
#     4  12  21  39  68  94 130 173 219 271 338 394
#     4  11  24  39  67 100 132 181 220 272 334 400
#     4  11  25  42  66  99 127 175 229 279 324 399
#     4  11  24  41  65 103 133 173 229 277 330 403
#     4  11  20  40  66  90 126 171 225 269 324 396
#     4  12  23  44  68  97 139 176 218 277 347 391
#     4  11  23  43  64  98 129 173 227 272 338 403
#     4  11  22  43  71  88 127 186 222 266 333 401
#
# _framework density 21.047509000000002
#
# number of rings (size 3 to 8) (size 9 to 14) (size 15 to 20)
#    0.000    0.750    6.250    2.250    1.750    1.000 
#    4.500    1.875    0.000    0.000    0.000    0.000 
#    0.000    0.000    0.000    0.000    0.000    0.000 
#
# Total GULP energy -198246.903112 kJ/mol
# GULP energy per Si atom -12390.431444 kJ/mol
# Density = 2.099960 g / cm^3
# Si number density = 21.047509 Si / 1000 Ang^3
#
#
#
# Elastic Constant Matrix: (Units=GPa)
#
#
# Indices 1 2 3 4 5 6 
#
# 1 93.0030 42.0240 52.2813 1.3441 10.4928 -20.9801
# 2 42.0240 91.8354 48.0038 -7.9784 -2.3114 -21.3321
# 3 52.2813 48.0038 116.2871 -14.0237 -0.1711 -6.7855
# 4 1.3441 -7.9784 -14.0237 41.4554 -9.2903 -4.8514
# 5 10.4928 -2.3114 -0.1711 -9.2903 39.7936 3.3072
# 6 -20.9801 -21.3321 -6.7855 -4.8514 3.3072 25.3237
#
#
#
# Elastic Compliance Matrix: (Units=1/GPa)
#
#
# Indices 1 2 3 4 5 6 
#
# 1 0.019972 -0.002850 -0.007574 -0.003979 -0.007417 0.012323
# 2 -0.002850 0.017908 -0.004981 0.003607 0.001626 0.011868
# 3 -0.007574 -0.004981 0.014189 0.004075 0.003245 -0.006312
# 4 -0.003979 0.003607 0.004075 0.028633 0.007517 0.005338
# 5 -0.007417 0.001626 0.003245 0.007517 0.029474 -0.006315
# 6 0.012323 0.011868 -0.006312 0.005338 -0.006315 0.059851
#
#
# Mechanical properties :
#
#
# Convention : Reuss Voigt Hill
#
# Bulk Modulus (GPa) = 47.04137 65.08263 56.06200
# Shear Modulus (GPa) = 24.04711 31.90230 27.97470
#
# Velocity S-wave (km/s) = 3.38378 3.89746 3.64967
# Velocity P-wave (km/s) = 6.13720 7.15839 6.66737
#
# Compressibility (1/GPa) = 0.02125788
#
# Stress axis : x y z
#
# Youngs Moduli (GPa) = 50.06959 55.84052 70.47721
#
# Poissons Ratio (x) = 0.15914 0.53383
# Poissons Ratio (y) = 0.14270 0.35107
# Poissons Ratio (z) = 0.37925 0.27816
#
# Static dielectric constant tensor:
#      x y z
#    x 3.612560 -0.287220 -0.108400 
#    y -0.287220 5.098440 0.759490 
#    z -0.108400 0.759490 4.309450 
# 
# 
# High freq. dielectric constant tensor:
#      x y z
#    x 1.806360 -0.027490 -0.005500 
#    y -0.027490 1.829630 -0.003710 
#    z -0.005500 -0.003710 1.829450 
# 
# From -- ./inp_files/457623.got.cif
#   From: 2010.06.25/outbox.cif.g09.slc.cpg/sg2_229_cif.got.tgz:457623.got - 2010.06.27 13:26:56.
