data_PCOD8029904
_publ_section_title
;
Structure prediction by ZEFSAII (Michael W. Deem and Ramdas Pophale) SiO2 
 PCOD8029904
Probable space group: P -1
;
_chemical_formula_sum "Si O2"
_cell_formula_units_Z 16
_cell_length_a 9.152639
_cell_length_b 19.839728
_cell_length_c 12.706385
_cell_angle_alpha 32.172228
_cell_angle_beta 145.830002
_cell_angle_gamma 143.385496
_cell_volume 648.365403
_symmetry_space_group_name_H-M "P -1"
_symmetry_group_IT_number 2
_symmetry_cell_setting 'triclinic'
loop_
_space_group_symop_operation_xyz
x,y,z
-x,-y,-z
loop_
_atom_site_type_symbol
_atom_site_label
_atom_site_fract_x
_atom_site_fract_y
_atom_site_fract_z
Si Si1 0.682191 0.919498 0.488832
Si Si2 0.641173 0.542213 0.859050
Si Si3 0.103109 0.173968 0.452097
Si Si4 0.376714 0.184913 0.822072
Si Si5 0.683440 0.653211 0.243753
Si Si6 0.873028 0.490354 0.275932
Si Si7 0.093128 0.799782 0.992480
Si Si8 0.134694 0.897864 0.111007
O O1 0.760730 0.918288 0.412974
O O2 0.347459 0.864536 0.363711
O O3 0.784728 0.070977 0.401579
O O4 0.811618 0.821178 0.757291
O O5 0.868524 0.685065 0.773498
O O6 0.571416 0.440549 0.853157
O O7 0.371900 0.572573 0.702079
O O8 0.761305 0.472718 0.113433
O O9 0.241789 0.209249 0.601323
O O10 0.429260 0.317911 0.748976
O O11 0.670976 0.164859 0.004129
O O12 0.168031 0.056003 0.931664
O O13 0.905362 0.581237 0.486613
O O14 0.826478 0.796034 0.081315
O O15 0.015031 0.645959 0.184920
O O16 0.217470 0.889005 0.050264
#
# Coordination Sequence:
#
# PCOD8029904 Si02
#       8
#     2   2   2   2   2   2   2   2
#     4  11  23  41  73 107 128 178 242 286 341 388
#     4  11  24  45  70 103 137 180 234 285 343 405
#     4  11  21  40  70  99 140 172 225 291 333 403
#     4  12  26  46  68 106 143 181 228 285 352 408
#     4  12  28  47  68 102 146 188 220 279 356 417
#     4  11  25  43  72 103 136 182 232 282 339 419
#     4  12  23  44  76 103 136 177 237 292 332 408
#     4  12  25  46  74 101 137 186 233 285 337 410
#
# _framework density 24.677443
#
# number of rings (size 3 to 8) (size 9 to 14) (size 15 to 20)
#    0.000    0.500    5.000    4.125    1.750    2.000 
#    4.500    1.875    0.000    0.000    0.000    0.000 
#    0.000    0.000    0.000    0.000    0.000    0.000 
#
# Total GULP energy -198416.714326 kJ/mol
# GULP energy per Si atom -12401.044645 kJ/mol
# Density = 2.462128 g / cm^3
# Si number density = 24.677443 Si / 1000 Ang^3
#
#
#
# Elastic Constant Matrix: (Units=GPa)
#
#
# Indices 1 2 3 4 5 6 
#
# 1 33.0508 21.6428 8.8927 0.7006 -16.5923 -22.8949
# 2 21.6428 131.5183 10.3822 4.4671 -11.1187 -26.2579
# 3 8.8927 10.3822 72.1996 3.5221 -14.8951 -16.3387
# 4 0.7006 4.4671 3.5221 42.5286 -0.5262 -12.6655
# 5 -16.5923 -11.1187 -14.8951 -0.5262 19.9207 3.6971
# 6 -22.8949 -26.2579 -16.3387 -12.6655 3.6971 49.3366
#
#
#
# Elastic Compliance Matrix: (Units=1/GPa)
#
#
# Indices 1 2 3 4 5 6 
#
# 1 0.109937 -0.001486 0.017326 0.013685 0.094328 0.052408
# 2 -0.001486 0.008887 0.000494 0.000291 0.003352 0.004027
# 3 0.017326 0.000494 0.020251 0.002364 0.027394 0.013563
# 4 0.013685 0.000291 0.002364 0.027197 0.011559 0.013404
# 5 0.094328 0.003352 0.027394 0.011559 0.142721 0.046902
# 6 0.052408 0.004027 0.013563 0.013404 0.046902 0.051151
#
#
# Mechanical properties :
#
#
# Convention : Reuss Voigt Hill
#
# Bulk Modulus (GPa) = 5.82269 35.40044 20.61157
# Shear Modulus (GPa) = 12.99639 35.41392 24.20515
#
# Velocity S-wave (km/s) = 2.29738 3.79234 3.13527
# Velocity P-wave (km/s) = 3.06625 5.79243 4.63434
#
# Compressibility (1/GPa) = 0.17174183
#
# Stress axis : x y z
#
# Youngs Moduli (GPa) = 9.09614 112.52960 49.38018
#
# Poissons Ratio (x) = 0.16719 -0.85555
# Poissons Ratio (y) = 0.01351 -0.02438
# Poissons Ratio (z) = -0.15760 -0.05557
#
# Static dielectric constant tensor:
#      x y z
#    x 4.124770 -0.099380 -0.163310 
#    y -0.099380 4.855140 0.085490 
#    z -0.163310 0.085490 4.142480 
# 
# 
# High freq. dielectric constant tensor:
#      x y z
#    x 1.944270 -0.006890 -0.019070 
#    y -0.006890 2.011110 0.002800 
#    z -0.019070 0.002800 1.975310 
# 
# From -- ./inp_files/402917.got.cif
#   From: 2010.06.25/outbox.cif.g09.slc.cpg/sg2_202_cif.got.tgz:402917.got - 2010.06.27 13:26:56.
