data_PCOD8029852
_publ_section_title
;
Structure prediction by ZEFSAII (Michael W. Deem and Ramdas Pophale) SiO2 
 PCOD8029852
Probable space group: P -1
;
_chemical_formula_sum "Si O2"
_cell_formula_units_Z 16
_cell_length_a 9.657577
_cell_length_b 23.257544
_cell_length_c 14.561597
_cell_angle_alpha 30.851422
_cell_angle_beta 132.315877
_cell_angle_gamma 152.416074
_cell_volume 721.740733
_symmetry_space_group_name_H-M "P -1"
_symmetry_group_IT_number 2
_symmetry_cell_setting 'triclinic'
loop_
_space_group_symop_operation_xyz
x,y,z
-x,-y,-z
loop_
_atom_site_type_symbol
_atom_site_label
_atom_site_fract_x
_atom_site_fract_y
_atom_site_fract_z
Si Si1 0.457435 0.145892 0.350226
Si Si2 0.833106 0.248206 0.996744
Si Si3 0.250943 0.660028 0.603282
Si Si4 0.241762 0.004292 0.940654
Si Si5 0.138570 0.981637 0.721519
Si Si6 0.547119 0.099263 0.267710
Si Si7 0.832592 0.780547 0.339392
Si Si8 0.190950 0.365608 0.649194
O O1 0.735192 0.311126 0.320730
O O2 0.606799 0.216471 0.216745
O O3 0.176105 0.099022 0.292811
O O4 0.304665 0.949357 0.573285
O O5 0.549359 0.109272 0.987177
O O6 0.102576 0.465935 0.785683
O O7 0.971665 0.189696 0.138334
O O8 0.703102 0.220267 0.077646
O O9 0.041769 0.652352 0.470520
O O10 0.614427 0.836740 0.485441
O O11 0.138179 0.071639 0.846148
O O12 0.319478 0.053989 0.800085
O O13 0.964063 0.774206 0.141930
O O14 0.164860 0.890766 0.371873
O O15 0.528329 0.585822 0.529930
O O16 0.756059 0.706517 0.302985
#
# Coordination Sequence:
#
# PCOD8029852 Si02
#       8
#     2   2   2   2   2   2   2   2
#     4  11  24  47  72  95 135 182 226 282 329 395
#     4  12  26  44  72 100 135 179 225 279 339 403
#     4  12  25  45  70  96 138 181 227 277 333 399
#     4  12  23  41  68  99 139 174 221 274 337 405
#     4  12  26  46  68  98 138 186 219 280 334 395
#     4  11  23  46  73 100 134 177 227 280 338 392
#     4  11  21  40  67 102 133 176 216 277 346 396
#     4  11  23  39  69 103 135 175 222 277 345 400
#
# _framework density 22.168627000000001
#
# number of rings (size 3 to 8) (size 9 to 14) (size 15 to 20)
#    0.000    0.500    7.500    1.125    0.000    2.500 
#    0.000    1.250    0.000    0.000    0.000    0.000 
#    0.000    0.000    0.000    0.000    0.000    0.000 
#
# Total GULP energy -198424.977670 kJ/mol
# GULP energy per Si atom -12401.561104 kJ/mol
# Density = 2.211817 g / cm^3
# Si number density = 22.168627 Si / 1000 Ang^3
#
#
#
# Elastic Constant Matrix: (Units=GPa)
#
#
# Indices 1 2 3 4 5 6 
#
# 1 111.3006 35.1382 42.5891 5.3202 17.1233 8.4214
# 2 35.1382 38.8625 45.7610 8.2182 -0.0871 -2.8754
# 3 42.5891 45.7610 122.4263 -15.8295 24.4636 2.7886
# 4 5.3202 8.2182 -15.8295 27.9780 -7.1384 -2.7235
# 5 17.1233 -0.0871 24.4636 -7.1384 22.8768 11.5635
# 6 8.4214 -2.8754 2.7886 -2.7235 11.5635 27.3690
#
#
#
# Elastic Compliance Matrix: (Units=1/GPa)
#
#
# Indices 1 2 3 4 5 6 
#
# 1 0.017091 -0.026803 0.008862 0.004254 -0.021260 0.000428
# 2 -0.026803 0.132604 -0.061502 -0.050376 0.074732 -0.008142
# 3 0.008862 -0.061502 0.040773 0.028563 -0.046091 0.008974
# 4 0.004254 -0.050376 0.028563 0.062065 -0.016362 0.003577
# 5 -0.021260 0.074732 -0.046091 -0.016362 0.121137 -0.033720
# 6 0.000428 -0.008142 0.008974 0.003577 -0.033720 0.049239
#
#
# Mechanical properties :
#
#
# Convention : Reuss Voigt Hill
#
# Bulk Modulus (GPa) = 31.66583 57.72953 44.69768
# Shear Modulus (GPa) = 8.44135 25.58484 17.01309
#
# Velocity S-wave (km/s) = 1.95347 3.40089 2.77328
# Velocity P-wave (km/s) = 4.40490 6.44353 5.51916
#
# Compressibility (1/GPa) = 0.03157978
#
# Stress axis : x y z
#
# Youngs Moduli (GPa) = 58.51156 7.54125 24.52613
#
# Poissons Ratio (x) = 0.20213 -0.21734
# Poissons Ratio (y) = 1.56829 1.50841
# Poissons Ratio (z) = -0.51851 0.46380
#
# Static dielectric constant tensor:
#      x y z
#    x 4.175820 -0.092880 0.034390 
#    y -0.092880 3.922690 0.079160 
#    z 0.034390 0.079160 4.090750 
# 
# 
# High freq. dielectric constant tensor:
#      x y z
#    x 1.884490 -0.000810 0.008000 
#    y -0.000810 1.859270 0.011200 
#    z 0.008000 0.011200 1.867240 
# 
# From -- ./inp_files/505315.got.cif
#   From: 2010.06.25/outbox.cif.g09.slc.cpg/sg2_253_cif.got.tgz:505315.got - 2010.06.27 13:26:56.
