data_PCOD8029060
_publ_section_title
;
Structure prediction by ZEFSAII (Michael W. Deem and Ramdas Pophale) SiO2 
 PCOD8029060
Probable space group: P -1
;
_chemical_formula_sum "Si O2"
_cell_formula_units_Z 16
_cell_length_a 15.777655
_cell_length_b 8.763709
_cell_length_c 6.509497
_cell_angle_alpha 102.827235
_cell_angle_beta 68.880115
_cell_angle_gamma 83.342744
_cell_volume 799.441519
_symmetry_space_group_name_H-M "P -1"
_symmetry_group_IT_number 2
_symmetry_cell_setting 'triclinic'
loop_
_space_group_symop_operation_xyz
x,y,z
-x,-y,-z
loop_
_atom_site_type_symbol
_atom_site_label
_atom_site_fract_x
_atom_site_fract_y
_atom_site_fract_z
Si Si1 0.830716 0.574824 0.675934
Si Si2 0.238459 0.212554 0.560693
Si Si3 0.610699 0.597745 0.392011
Si Si4 0.262831 0.844824 0.415712
Si Si5 0.941932 0.654440 0.978018
Si Si6 0.876521 0.293018 0.240090
Si Si7 0.245428 0.635918 0.019210
Si Si8 0.550905 0.412420 0.734383
O O1 0.777224 0.731840 0.646127
O O2 0.874576 0.449227 0.426103
O O3 0.909313 0.612305 0.768460
O O4 0.758015 0.500691 0.849073
O O5 0.316487 0.287456 0.628544
O O6 0.143681 0.254521 0.784749
O O7 0.277116 0.023258 0.468802
O O8 0.656920 0.424365 0.198958
O O9 0.581097 0.558213 0.632720
O O10 0.519623 0.671780 0.359620
O O11 0.180492 0.826584 0.640915
O O12 0.359704 0.725462 0.342070
O O13 0.235910 0.805677 0.194370
O O14 0.000000 0.500000 0.000000
O O15 0.012820 0.775912 0.912879
O O16 0.836614 0.350390 0.068540
O O17 0.500000 0.500000 0.000000
#
# Coordination Sequence:
#
# PCOD8029060 Si02
#       8
#     2   2   2   2   2   2   2   2
#     4  11  20  37  66  95 122 169 216 263 310 373
#     4  12  26  41  62 101 134 169 208 270 322 377
#     4  11  21  42  70  96 121 165 227 258 310 385
#     4  11  26  42  62  96 139 167 207 266 336 370
#     4  12  22  39  68 100 123 166 228 263 310 378
#     4  11  22  40  68  92 129 173 217 263 311 387
#     4  11  19  41  67  91 123 172 214 261 311 383
#     4  11  23  41  72  95 121 170 217 262 316 387
#
# _framework density 20.013971000000002
#
# number of rings (size 3 to 8) (size 9 to 14) (size 15 to 20)
#    0.000    0.750    7.500    1.125    0.000    2.000 
#    0.000    1.875    0.000    0.000    0.000    0.000 
#    0.000    0.000    0.000    0.000    0.000    0.000 
#
# Total GULP energy -198333.553108 kJ/mol
# GULP energy per Si atom -12395.847069 kJ/mol
# Density = 1.996842 g / cm^3
# Si number density = 20.013971 Si / 1000 Ang^3
#
#
#
# Elastic Constant Matrix: (Units=GPa)
#
#
# Indices 1 2 3 4 5 6 
#
# 1 120.2102 38.6672 54.4832 1.2004 -0.2709 0.7561
# 2 38.6672 86.9999 43.2748 3.0940 3.8858 10.6307
# 3 54.4832 43.2748 125.2827 -7.3081 3.1068 6.2045
# 4 1.2004 3.0940 -7.3081 20.8751 -0.8606 0.7794
# 5 -0.2709 3.8858 3.1068 -0.8606 40.6431 -11.6745
# 6 0.7561 10.6307 6.2045 0.7794 -11.6745 19.3708
#
#
#
# Elastic Compliance Matrix: (Units=1/GPa)
#
#
# Indices 1 2 3 4 5 6 
#
# 1 0.011266 -0.003512 -0.004020 -0.001607 0.001814 0.003933
# 2 -0.003512 0.016472 -0.003748 -0.003350 -0.004301 -0.010160
# 3 -0.004020 -0.003748 0.011449 0.004836 -0.001106 -0.002314
# 4 -0.001607 -0.003350 0.004836 0.050260 0.000634 -0.001288
# 5 0.001814 -0.004301 -0.001106 0.000634 0.031296 0.021480
# 6 0.003933 -0.010160 -0.002314 -0.001288 0.021480 0.070785
#
#
# Mechanical properties :
#
#
# Convention : Reuss Voigt Hill
#
# Bulk Modulus (GPa) = 60.14232 67.26034 63.70133
# Shear Modulus (GPa) = 22.76565 29.24896 26.00731
#
# Velocity S-wave (km/s) = 3.37633 3.82701 3.60871
# Velocity P-wave (km/s) = 6.73163 7.29436 7.01864
#
# Compressibility (1/GPa) = 0.01662723
#
# Stress axis : x y z
#
# Youngs Moduli (GPa) = 88.76519 60.70837 87.34597
#
# Poissons Ratio (x) = 0.21322 0.35109
# Poissons Ratio (y) = 0.31175 0.32737
# Poissons Ratio (z) = 0.35680 0.22753
#
# Static dielectric constant tensor:
#      x y z
#    x 3.948000 0.074320 0.064220 
#    y 0.074320 3.347170 -0.163050 
#    z 0.064220 -0.163050 4.050490 
# 
# 
# High freq. dielectric constant tensor:
#      x y z
#    x 1.801420 0.003660 0.002380 
#    y 0.003660 1.735960 -0.017870 
#    z 0.002380 -0.017870 1.800140 
# 
# From -- ./inp_files/38735.got.cif
#   From: 2010.06.25/outbox.cif.g09.slc.cpg/sg2_20_cif.got.tgz:38735.got - 2010.06.27 13:26:56.
