data_PCOD8029440
_publ_section_title
;
Structure prediction by ZEFSAII (Michael W. Deem and Ramdas Pophale) SiO2 
 PCOD8029440
Probable space group: P -1
;
_chemical_formula_sum "Si O2"
_cell_formula_units_Z 16
_cell_length_a 9.171904
_cell_length_b 14.272073
_cell_length_c 9.472531
_cell_angle_alpha 109.680218
_cell_angle_beta 75.091309
_cell_angle_gamma 51.442659
_cell_volume 705.678492
_symmetry_space_group_name_H-M "P -1"
_symmetry_group_IT_number 2
_symmetry_cell_setting 'triclinic'
loop_
_space_group_symop_operation_xyz
x,y,z
-x,-y,-z
loop_
_atom_site_type_symbol
_atom_site_label
_atom_site_fract_x
_atom_site_fract_y
_atom_site_fract_z
Si Si1 0.252764 0.845300 0.080072
Si Si2 0.750569 0.361683 0.945442
Si Si3 0.459966 0.861113 0.246956
Si Si4 0.095244 0.254535 0.013772
Si Si5 0.348406 0.915567 0.827569
Si Si6 0.746974 0.149140 0.454119
Si Si7 0.899134 0.661995 0.634350
Si Si8 0.025951 0.775395 0.471883
O O1 0.285634 0.712709 0.977517
O O2 0.484415 0.766880 0.068044
O O3 0.208983 0.930921 0.994782
O O4 0.023464 0.971032 0.307010
O O5 0.947207 0.252434 0.716747
O O6 0.849959 0.391134 0.049319
O O7 0.500000 0.500000 0.000000
O O8 0.706359 0.794028 0.157118
O O9 0.420633 0.823810 0.382606
O O10 0.242250 0.045051 0.346781
O O11 0.181158 0.095491 0.923148
O O12 0.052401 0.327875 0.212109
O O13 0.363778 0.824630 0.655457
O O14 0.613700 0.813951 0.754292
O O15 0.760987 0.260923 0.539177
O O16 0.000000 0.500000 0.500000
O O17 0.041572 0.663036 0.494860
#
# Coordination Sequence:
#
# PCOD8029440 Si02
#       8
#     2   2   2   2   2   2   2   2
#     4  11  21  42  65 103 142 178 234 292 347 415
#     4  12  28  45  70 102 144 192 233 289 362 430
#     4  11  20  41  74 104 140 180 237 299 347 415
#     4  12  25  48  74 105 141 190 243 296 354 423
#     4  12  24  42  74 109 142 187 242 294 348 425
#     4  11  22  39  72 112 138 176 235 297 353 407
#     4  12  29  48  67 106 148 189 235 293 366 428
#     4  11  23  45  70 105 146 183 236 293 352 422
#
# _framework density 22.673214999999999
#
# number of rings (size 3 to 8) (size 9 to 14) (size 15 to 20)
#    0.000    0.500    6.250    3.000    5.250    2.000 
#    0.000    2.500    0.000    0.000    0.000    0.000 
#    0.000    0.000    0.000    0.000    0.000    0.000 
#
# Total GULP energy -198283.575473 kJ/mol
# GULP energy per Si atom -12392.723467 kJ/mol
# Density = 2.262161 g / cm^3
# Si number density = 22.673215 Si / 1000 Ang^3
#
#
#
# Elastic Constant Matrix: (Units=GPa)
#
#
# Indices 1 2 3 4 5 6 
#
# 1 158.7477 76.5134 58.3297 -22.4548 5.8444 -6.0445
# 2 76.5134 83.8978 41.5101 -17.1410 -8.9480 -0.1427
# 3 58.3297 41.5101 81.0274 -28.6348 8.7868 3.8432
# 4 -22.4548 -17.1410 -28.6348 34.3236 -0.6944 -4.2104
# 5 5.8444 -8.9480 8.7868 -0.6944 47.1012 -15.1226
# 6 -6.0445 -0.1427 3.8432 -4.2104 -15.1226 59.0568
#
#
#
# Elastic Compliance Matrix: (Units=1/GPa)
#
#
# Indices 1 2 3 4 5 6 
#
# 1 0.012553 -0.009830 -0.003671 0.000300 -0.002448 0.000894
# 2 -0.009830 0.025022 -0.006209 0.001224 0.007631 0.001500
# 3 -0.003671 -0.006209 0.023841 0.013975 -0.005741 -0.002416
# 4 0.000300 0.001224 0.013975 0.041796 -0.001220 0.001792
# 5 -0.002448 0.007631 -0.005741 -0.001220 0.026210 0.006766
# 6 0.000894 0.001500 -0.002416 0.001792 0.006766 0.019046
#
#
# Mechanical properties :
#
#
# Convention : Reuss Voigt Hill
#
# Bulk Modulus (GPa) = 45.46264 75.15328 60.30796
# Shear Modulus (GPa) = 25.61236 37.91764 31.76500
#
# Velocity S-wave (km/s) = 3.36464 4.09388 3.74704
# Velocity P-wave (km/s) = 5.93205 7.45417 6.73624
#
# Compressibility (1/GPa) = 0.02199608
#
# Stress axis : x y z
#
# Youngs Moduli (GPa) = 79.66437 39.96483 41.94454
#
# Poissons Ratio (x) = 0.39283 0.15400
# Poissons Ratio (y) = 0.78306 0.26043
# Poissons Ratio (z) = 0.29248 0.24814
#
# Static dielectric constant tensor:
#      x y z
#    x 4.631850 0.009190 0.050870 
#    y 0.009190 3.988140 -0.245510 
#    z 0.050870 -0.245510 4.145820 
# 
# 
# High freq. dielectric constant tensor:
#      x y z
#    x 1.921550 0.002970 -0.000640 
#    y 0.002970 1.873100 -0.026240 
#    z -0.000640 -0.026240 1.886010 
# 
# From -- ./inp_files/208288.got.cif
#   From: 2010.06.25/outbox.cif.g09.slc.cpg/sg2_105_cif.got.tgz:208288.got - 2010.06.27 13:26:56.
