data_PCOD8029811
_publ_section_title
;
Structure prediction by ZEFSAII (Michael W. Deem and Ramdas Pophale) SiO2 
 PCOD8029811
Probable space group: P -1
;
_chemical_formula_sum "Si O2"
_cell_formula_units_Z 14
_cell_length_a 17.801578
_cell_length_b 18.126654
_cell_length_c 12.637898
_cell_angle_alpha 159.956474
_cell_angle_beta 38.968805
_cell_angle_gamma 152.082964
_cell_volume 618.201269
_symmetry_space_group_name_H-M "P -1"
_symmetry_group_IT_number 2
_symmetry_cell_setting 'triclinic'
loop_
_space_group_symop_operation_xyz
x,y,z
-x,-y,-z
loop_
_atom_site_type_symbol
_atom_site_label
_atom_site_fract_x
_atom_site_fract_y
_atom_site_fract_z
Si Si1 0.775113 0.257642 0.627756
Si Si2 0.581421 0.867047 0.708592
Si Si3 0.511820 0.740802 0.369690
Si Si4 0.699921 0.773526 0.765665
Si Si5 0.098090 0.911645 0.236077
Si Si6 0.913774 0.053683 0.092642
Si Si7 0.761029 0.332463 0.514261
O O1 0.724192 0.332344 0.679784
O O2 0.783564 0.021381 0.262660
O O3 0.634485 0.073858 0.626205
O O4 0.956547 0.562401 0.883981
O O5 0.564168 0.785203 0.494015
O O6 0.483211 0.573142 0.496051
O O7 0.780432 0.072312 0.795258
O O8 0.500000 0.000000 0.000000
O O9 0.324785 0.600216 0.375909
O O10 0.500000 0.500000 0.000000
O O11 0.783518 0.845150 0.658034
O O12 0.688355 0.009500 0.124916
O O13 0.814517 0.802774 0.769734
O O14 0.000000 0.000000 0.500000
O O15 0.039169 0.388229 0.351764
O O16 0.000000 0.000000 0.000000
#
# Coordination Sequence:
#
# PCOD8029811 Si02
#       7
#     2   2   2   2   2   2   2
#     4  11  24  43  68 104 140 179 232 293 355 419
#     4  12  30  50  71 105 147 194 240 291 359 430
#     4  12  27  45  71 106 143 183 235 308 360 406
#     4  11  23  47  72  99 138 194 241 286 351 437
#     4  12  28  45  72 103 142 191 240 286 354 431
#     4  11  21  39  72 105 133 175 233 301 350 412
#     4  11  21  44  74 101 137 180 244 287 354 433
#
# _framework density 22.646346999999999
#
# number of rings (size 3 to 8) (size 9 to 14) (size 15 to 20)
#    0.000    0.571    2.857    6.000    8.000    1.714 
#    0.000    0.000    0.000    0.000    0.000    0.000 
#    0.000    0.000    0.000    0.000    0.000    0.000 
#
# Total GULP energy -173499.841952 kJ/mol
# GULP energy per Si atom -12392.845854 kJ/mol
# Density = 2.259480 g / cm^3
# Si number density = 22.646347 Si / 1000 Ang^3
#
#
#
# Elastic Constant Matrix: (Units=GPa)
#
#
# Indices 1 2 3 4 5 6 
#
# 1 138.1393 12.8597 28.9785 -25.1971 9.8729 12.1030
# 2 12.8597 102.4726 27.5691 -0.7162 9.1875 -13.6069
# 3 28.9785 27.5691 89.5675 -8.0778 8.3324 2.6127
# 4 -25.1971 -0.7162 -8.0778 39.9614 -1.6031 -1.0351
# 5 9.8729 9.1875 8.3324 -1.6031 35.8244 -3.9837
# 6 12.1030 -13.6069 2.6127 -1.0351 -3.9837 42.7444
#
#
#
# Elastic Compliance Matrix: (Units=1/GPa)
#
#
# Indices 1 2 3 4 5 6 
#
# 1 0.009036 -0.000760 -0.001969 0.005139 -0.001912 -0.002734
# 2 -0.000760 0.011393 -0.003311 -0.000906 -0.001551 0.003878
# 3 -0.001969 -0.003311 0.013140 0.001247 -0.001768 -0.001434
# 4 0.005139 -0.000906 0.001247 0.028457 -0.000330 -0.001161
# 5 -0.001912 -0.001551 -0.001768 -0.000330 0.029558 0.002902
# 6 -0.002734 0.003878 -0.001434 -0.001161 0.002902 0.025733
#
#
# Mechanical properties :
#
#
# Convention : Reuss Voigt Hill
#
# Bulk Modulus (GPa) = 46.53611 52.11044 49.32328
# Shear Modulus (GPa) = 36.61405 41.09084 38.85244
#
# Velocity S-wave (km/s) = 4.02528 4.26427 4.14649
# Velocity P-wave (km/s) = 6.49596 6.87792 6.68967
#
# Compressibility (1/GPa) = 0.02148869
#
# Stress axis : x y z
#
# Youngs Moduli (GPa) = 110.66530 87.77605 76.10511
#
# Poissons Ratio (x) = 0.06672 0.14982
# Poissons Ratio (y) = 0.08412 0.25200
# Poissons Ratio (z) = 0.21785 0.29065
#
# Static dielectric constant tensor:
#      x y z
#    x 4.388030 0.021790 0.184130 
#    y 0.021790 4.414930 0.144950 
#    z 0.184130 0.144950 3.965430 
# 
# 
# High freq. dielectric constant tensor:
#      x y z
#    x 1.912900 -0.002350 0.004780 
#    y -0.002350 1.902500 0.010570 
#    z 0.004780 0.010570 1.885060 
# 
# From -- ./inp_files/244867.got.cif
#   From: 2010.06.25/outbox.cif.g09.slc.cpg/sg2_123_cif.got.tgz:244867.got - 2010.06.27 13:26:56.
