data_PCOD8029387
_publ_section_title
;
Structure prediction by ZEFSAII (Michael W. Deem and Ramdas Pophale) SiO2 
 PCOD8029387
Probable space group: P -1
;
_chemical_formula_sum "Si O2"
_cell_formula_units_Z 16
_cell_length_a 22.050011
_cell_length_b 9.083090
_cell_length_c 18.774092
_cell_angle_alpha 121.415450
_cell_angle_beta 17.896880
_cell_angle_gamma 131.644557
_cell_volume 755.679718
_symmetry_space_group_name_H-M "P -1"
_symmetry_group_IT_number 2
_symmetry_cell_setting 'triclinic'
loop_
_space_group_symop_operation_xyz
x,y,z
-x,-y,-z
loop_
_atom_site_type_symbol
_atom_site_label
_atom_site_fract_x
_atom_site_fract_y
_atom_site_fract_z
Si Si1 0.810735 0.545522 0.712931
Si Si2 0.468077 0.776157 0.185485
Si Si3 0.031212 0.193627 0.053258
Si Si4 0.029584 0.545328 0.062791
Si Si5 0.518326 0.526214 0.811620
Si Si6 0.399632 0.075608 0.415239
Si Si7 0.431652 0.446705 0.395174
Si Si8 0.024305 0.993905 0.388511
O O1 0.680187 0.440603 0.755817
O O2 0.965830 0.810988 0.608189
O O3 0.000000 0.500000 0.500000
O O4 0.621342 0.431092 0.963593
O O5 0.506292 0.687762 0.192564
O O6 0.351310 0.892961 0.366989
O O7 0.723722 0.969469 0.905978
O O8 0.965343 0.325741 0.114241
O O9 0.834335 0.080977 0.309565
O O10 0.334963 0.353071 0.768588
O O11 0.000000 0.000000 0.000000
O O12 0.815652 0.564784 0.331853
O O13 0.000000 0.500000 0.000000
O O14 0.318480 0.768839 0.821256
O O15 0.425843 0.492973 0.825618
O O16 0.807241 0.754037 0.538181
O O17 0.346086 0.215848 0.464687
O O18 0.000000 0.000000 0.500000
#
# Coordination Sequence:
#
# PCOD8029387 Si02
#       8
#     2   2   2   2   2   2   2   2
#     4  11  25  38  59  93 125 165 216 265 317 380
#     4  11  23  41  62  90 126 166 217 266 317 380
#     4  11  25  45  70 101 134 170 213 267 324 390
#     4  11  24  46  71 100 133 172 215 262 326 394
#     4  11  23  42  63  89 125 169 216 262 322 381
#     4  11  26  43  66 100 134 170 216 273 321 383
#     4  11  26  43  66 100 133 171 219 267 323 389
#     4  11  20  41  63  83 118 168 216 262 318 374
#
# _framework density 21.172989999999999
#
# number of rings (size 3 to 8) (size 9 to 14) (size 15 to 20)
#    0.000    1.000    2.500    3.750    3.500   10.500 
#    0.000    0.000    0.000    0.000    0.000    0.000 
#    0.000    0.000    0.000    0.000    0.000    0.000 
#
# Total GULP energy -198271.668432 kJ/mol
# GULP energy per Si atom -12391.979277 kJ/mol
# Density = 2.112480 g / cm^3
# Si number density = 21.172990 Si / 1000 Ang^3
#
#
#
# Elastic Constant Matrix: (Units=GPa)
#
#
# Indices 1 2 3 4 5 6 
#
# 1 99.0024 26.6479 23.5513 9.3845 20.0268 -15.4262
# 2 26.6479 116.4448 46.1323 14.4677 12.1434 -6.8153
# 3 23.5513 46.1323 115.8074 14.7610 13.0625 -18.8906
# 4 9.3845 14.4677 14.7610 39.1875 -1.8596 5.2929
# 5 20.0268 12.1434 13.0625 -1.8596 39.1173 2.3489
# 6 -15.4262 -6.8153 -18.8906 5.2929 2.3489 33.7293
#
#
#
# Elastic Compliance Matrix: (Units=1/GPa)
#
#
# Indices 1 2 3 4 5 6 
#
# 1 0.013365 -0.001544 0.000386 -0.004080 -0.007116 0.007153
# 2 -0.001544 0.010781 -0.003516 -0.002354 -0.001493 -0.000024
# 3 0.000386 -0.003516 0.012146 -0.004529 -0.003813 0.007245
# 4 -0.004080 -0.002354 -0.004529 0.030745 0.006403 -0.010149
# 5 -0.007116 -0.001493 -0.003813 0.006403 0.031783 -0.008909
# 6 0.007153 -0.000024 0.007245 -0.010149 -0.008909 0.039185
#
#
# Mechanical properties :
#
#
# Convention : Reuss Voigt Hill
#
# Bulk Modulus (GPa) = 37.11287 58.21308 47.66297
# Shear Modulus (GPa) = 31.98278 38.06838 35.02558
#
# Velocity S-wave (km/s) = 3.89079 4.24485 4.07167
# Velocity P-wave (km/s) = 6.14417 7.18183 6.68317
#
# Compressibility (1/GPa) = 0.02694483
#
# Stress axis : x y z
#
# Youngs Moduli (GPa) = 74.82177 92.75779 82.32975
#
# Poissons Ratio (x) = 0.14322 -0.03182
# Poissons Ratio (y) = 0.11553 0.28948
# Poissons Ratio (z) = -0.02892 0.32614
#
# Static dielectric constant tensor:
#      x y z
#    x 3.433830 -0.402200 0.220580 
#    y -0.402200 3.631220 -0.098630 
#    z 0.220580 -0.098630 4.079030 
# 
# 
# High freq. dielectric constant tensor:
#      x y z
#    x 1.836480 0.001040 0.013260 
#    y 0.001040 1.843950 -0.002410 
#    z 0.013260 -0.002410 1.840810 
# 
# From -- ./inp_files/577350.got.cif
#   From: 2010.06.25/outbox.cif.g09.slc.cpg/sg2_289_cif.got.tgz:577350.got - 2010.06.27 13:26:56.
