data_PCOD8029629
_publ_section_title
;
Structure prediction by ZEFSAII (Michael W. Deem and Ramdas Pophale) SiO2 
 PCOD8029629
Probable space group: P -1
;
_chemical_formula_sum "Si O2"
_cell_formula_units_Z 16
_cell_length_a 10.013230
_cell_length_b 12.972555
_cell_length_c 11.411665
_cell_angle_alpha 47.754998
_cell_angle_beta 131.981969
_cell_angle_gamma 125.901222
_cell_volume 790.151173
_symmetry_space_group_name_H-M "P -1"
_symmetry_group_IT_number 2
_symmetry_cell_setting 'triclinic'
loop_
_space_group_symop_operation_xyz
x,y,z
-x,-y,-z
loop_
_atom_site_type_symbol
_atom_site_label
_atom_site_fract_x
_atom_site_fract_y
_atom_site_fract_z
Si Si1 0.208571 0.927738 0.340336
Si Si2 0.299017 0.078164 0.636901
Si Si3 0.810907 0.379868 0.492599
Si Si4 0.655075 0.421902 0.122108
Si Si5 0.870903 0.588965 0.918042
Si Si6 0.002434 0.078677 0.262012
Si Si7 0.521716 0.604333 0.543114
Si Si8 0.532096 0.109848 0.264782
O O1 0.146089 0.777350 0.346321
O O2 0.329550 0.906992 0.538076
O O3 0.039051 0.992110 0.234363
O O4 0.322107 0.052329 0.227541
O O5 0.149342 0.071357 0.453336
O O6 0.415809 0.240235 0.598836
O O7 0.440409 0.984100 0.758002
O O8 0.201463 0.008665 0.751680
O O9 0.717019 0.374557 0.317377
O O10 0.672611 0.411785 0.488225
O O11 0.000000 0.500000 0.500000
O O12 0.567318 0.273525 0.115472
O O13 0.500000 0.500000 0.000000
O O14 0.820854 0.520271 0.069311
O O15 0.986208 0.753022 0.881853
O O16 0.680638 0.577274 0.743924
O O17 0.000000 0.500000 0.000000
O O18 0.500000 0.500000 0.500000
#
# Coordination Sequence:
#
# PCOD8029629 Si02
#       8
#     2   2   2   2   2   2   2   2
#     4   9  17  31  55  83 111 143 195 250 288 327
#     4   9  17  33  54  82 113 147 196 241 289 331
#     4  11  24  39  61  90 120 155 198 245 297 351
#     4  11  21  37  62  89 119 155 195 244 299 349
#     4  11  23  39  61  92 124 156 195 240 297 355
#     4   9  18  31  55  86 114 144 193 250 285 336
#     4  11  24  40  61  87 122 158 196 243 294 355
#     4   9  16  29  55  81 108 145 194 244 288 331
#
# _framework density 20.249289999999998
#
# number of rings (size 3 to 8) (size 9 to 14) (size 15 to 20)
#    0.000    2.000    2.500    1.500    7.000    2.000 
#    0.000    0.000    0.000    9.000    0.000    0.000 
#    0.000    0.000    0.000    0.000    0.000    0.000 
#
# Total GULP energy -198292.481261 kJ/mol
# GULP energy per Si atom -12393.280079 kJ/mol
# Density = 2.020320 g / cm^3
# Si number density = 20.249290 Si / 1000 Ang^3
#
#
#
# Elastic Constant Matrix: (Units=GPa)
#
#
# Indices 1 2 3 4 5 6 
#
# 1 202.8984 75.2223 36.4021 -37.8189 -7.9946 -7.7961
# 2 75.2223 129.0949 31.4531 -42.1417 -0.4127 -5.5258
# 3 36.4021 31.4531 45.3427 -33.0403 -2.6726 -3.0180
# 4 -37.8189 -42.1417 -33.0403 38.7034 1.7016 -0.6034
# 5 -7.9946 -0.4127 -2.6726 1.7016 30.5440 -12.0474
# 6 -7.7961 -5.5258 -3.0180 -0.6034 -12.0474 41.4808
#
#
#
# Elastic Compliance Matrix: (Units=1/GPa)
#
#
# Indices 1 2 3 4 5 6 
#
# 1 0.006799 -0.002821 -0.001952 0.001839 0.002009 0.001370
# 2 -0.002821 0.013557 0.004588 0.015964 -0.000358 0.001738
# 3 -0.001952 0.004588 0.061776 0.055731 0.004563 0.006875
# 4 0.001839 0.015964 0.055731 0.092559 0.003978 0.009029
# 5 0.002009 -0.000358 0.004563 0.003978 0.038085 0.011781
# 6 0.001370 0.001738 0.006875 0.009029 0.011781 0.028650
#
#
# Mechanical properties :
#
#
# Convention : Reuss Voigt Hill
#
# Bulk Modulus (GPa) = 12.23073 73.72123 42.97598
# Shear Modulus (GPa) = 18.58398 37.76287 28.17342
#
# Velocity S-wave (km/s) = 3.03274 4.32313 3.73410
# Velocity P-wave (km/s) = 4.27978 7.83614 6.31354
#
# Compressibility (1/GPa) = 0.08176129
#
# Stress axis : x y z
#
# Youngs Moduli (GPa) = 147.07719 73.76462 16.18762
#
# Poissons Ratio (x) = 0.20808 0.03160
# Poissons Ratio (y) = 0.41488 -0.07427
# Poissons Ratio (z) = 0.28714 -0.33844
#
# Static dielectric constant tensor:
#      x y z
#    x 3.923720 -0.138910 0.003070 
#    y -0.138910 3.816830 -0.499490 
#    z 0.003070 -0.499490 3.412890 
# 
# 
# High freq. dielectric constant tensor:
#      x y z
#    x 1.811350 -0.004930 -0.003750 
#    y -0.004930 1.785970 -0.040770 
#    z -0.003750 -0.040770 1.757380 
# 
# From -- ./inp_files/313254.got.cif
#   From: 2010.06.25/outbox.cif.g09.slc.cpg/sg2_157_cif.got.tgz:313254.got - 2010.06.27 13:26:56.
