data_PCOD8029410
_publ_section_title
;
Structure prediction by ZEFSAII (Michael W. Deem and Ramdas Pophale) SiO2 
 PCOD8029410
Probable space group: P -1
;
_chemical_formula_sum "Si O2"
_cell_formula_units_Z 16
_cell_length_a 15.875329
_cell_length_b 9.015433
_cell_length_c 11.343663
_cell_angle_alpha 71.042893
_cell_angle_beta 97.813399
_cell_angle_gamma 149.388528
_cell_volume 746.300292
_symmetry_space_group_name_H-M "P -1"
_symmetry_group_IT_number 2
_symmetry_cell_setting 'triclinic'
loop_
_space_group_symop_operation_xyz
x,y,z
-x,-y,-z
loop_
_atom_site_type_symbol
_atom_site_label
_atom_site_fract_x
_atom_site_fract_y
_atom_site_fract_z
Si Si1 0.058499 0.376545 0.868175
Si Si2 0.836577 0.843494 0.533471
Si Si3 0.613832 0.264272 0.051507
Si Si4 0.868701 0.845480 0.801651
Si Si5 0.473785 0.163860 0.539415
Si Si6 0.434971 0.754570 0.710578
Si Si7 0.195435 0.912756 0.676694
Si Si8 0.862564 0.965273 0.158239
O O1 0.244457 0.626480 0.892861
O O2 0.063360 0.560415 0.770436
O O3 0.004835 0.182683 0.798468
O O4 0.910398 0.129758 0.003642
O O5 0.797367 0.793856 0.677530
O O6 0.676327 0.506636 0.520734
O O7 0.882217 0.090539 0.431739
O O8 0.000000 0.000000 0.500000
O O9 0.485483 0.110439 0.175709
O O10 0.706676 0.562335 0.932133
O O11 0.500000 0.000000 0.000000
O O12 0.962259 0.826665 0.805082
O O13 0.452621 0.148361 0.396133
O O14 0.394908 0.868315 0.632953
O O15 0.374853 0.139596 0.597295
O O16 0.259003 0.378207 0.799317
O O17 0.231592 0.063124 0.766331
#
# Coordination Sequence:
#
# PCOD8029410 Si02
#       8
#     2   2   2   2   2   2   2   2
#     4  11  23  42  68 100 134 181 230 278 343 400
#     4  12  25  42  66  99 137 177 233 278 336 407
#     4  11  21  39  69 101 129 175 231 281 329 404
#     4  11  21  40  68  96 134 175 231 278 329 406
#     4  11  24  41  69 102 134 180 225 278 346 407
#     4  11  20  41  69  97 133 178 225 270 340 411
#     4  12  24  42  70  99 140 180 223 288 340 395
#     4  11  20  41  69  99 127 181 226 272 333 404
#
# _framework density 21.439091000000001
#
# number of rings (size 3 to 8) (size 9 to 14) (size 15 to 20)
#    0.000    0.750    6.250    2.250    0.000    0.500 
#    0.000    0.000    2.750    2.250    0.000    0.000 
#    0.000    0.000    0.000    0.000    0.000    0.000 
#
# Total GULP energy -198301.259042 kJ/mol
# GULP energy per Si atom -12393.828690 kJ/mol
# Density = 2.139029 g / cm^3
# Si number density = 21.439091 Si / 1000 Ang^3
#
#
#
# Elastic Constant Matrix: (Units=GPa)
#
#
# Indices 1 2 3 4 5 6 
#
# 1 109.3636 40.9440 62.0780 -3.1675 -6.8566 -13.9802
# 2 40.9440 108.1493 59.0681 4.2766 -1.0634 -21.9532
# 3 62.0780 59.0681 200.9443 5.7977 -4.0284 -17.9721
# 4 -3.1675 4.2766 5.7977 41.3246 -18.0484 -2.8094
# 5 -6.8566 -1.0634 -4.0284 -18.0484 50.0544 -2.6589
# 6 -13.9802 -21.9532 -17.9721 -2.8094 -2.6589 25.3976
#
#
#
# Elastic Compliance Matrix: (Units=1/GPa)
#
#
# Indices 1 2 3 4 5 6 
#
# 1 0.012369 -0.002595 -0.002806 0.002989 0.002661 0.003189
# 2 -0.002595 0.013199 -0.002321 -0.000714 -0.000081 0.008250
# 3 -0.002806 -0.002321 0.006641 -0.000912 -0.000174 0.001029
# 4 0.002989 -0.000714 -0.000912 0.029928 0.011372 0.004884
# 5 0.002661 -0.000081 -0.000174 0.011372 0.024699 0.005115
# 6 0.003189 0.008250 0.001029 0.004884 0.005115 0.050065
#
#
# Mechanical properties :
#
#
# Convention : Reuss Voigt Hill
#
# Bulk Modulus (GPa) = 59.65151 82.51529 71.08340
# Shear Modulus (GPa) = 31.65892 40.44645 36.05269
#
# Velocity S-wave (km/s) = 3.84694 4.34818 4.10522
# Velocity P-wave (km/s) = 6.90044 7.98628 7.46314
#
# Compressibility (1/GPa) = 0.01676404
#
# Stress axis : x y z
#
# Youngs Moduli (GPa) = 80.84600 75.76387 150.58805
#
# Poissons Ratio (x) = 0.19660 0.42257
# Poissons Ratio (y) = 0.20978 0.34957
# Poissons Ratio (z) = 0.22686 0.17587
#
# Static dielectric constant tensor:
#      x y z
#    x 3.696680 -0.266480 -0.102120 
#    y -0.266480 3.681500 -0.022480 
#    z -0.102120 -0.022480 4.538900 
# 
# 
# High freq. dielectric constant tensor:
#      x y z
#    x 1.813290 -0.030780 -0.013110 
#    y -0.030780 1.819930 -0.009820 
#    z -0.013110 -0.009820 1.879940 
# 
# From -- ./inp_files/245687.got.cif
#   From: 2010.06.25/outbox.cif.g09.slc.cpg/sg2_123_cif.got.tgz:245687.got - 2010.06.27 13:26:56.
