data_PCOD8029063
_publ_section_title
;
Structure prediction by ZEFSAII (Michael W. Deem and Ramdas Pophale) SiO2 
 PCOD8029063
Probable space group: P -1
;
_chemical_formula_sum "Si O2"
_cell_formula_units_Z 16
_cell_length_a 11.174748
_cell_length_b 13.452720
_cell_length_c 18.876198
_cell_angle_alpha 147.956163
_cell_angle_beta 32.533196
_cell_angle_gamma 126.471370
_cell_volume 734.320124
_symmetry_space_group_name_H-M "P -1"
_symmetry_group_IT_number 2
_symmetry_cell_setting 'triclinic'
loop_
_space_group_symop_operation_xyz
x,y,z
-x,-y,-z
loop_
_atom_site_type_symbol
_atom_site_label
_atom_site_fract_x
_atom_site_fract_y
_atom_site_fract_z
Si Si1 0.161036 0.253325 0.124538
Si Si2 0.025045 0.105594 0.333619
Si Si3 0.780220 0.835023 0.349990
Si Si4 0.360147 0.461915 0.263904
Si Si5 0.826908 0.113307 0.016078
Si Si6 0.786618 0.542424 0.049709
Si Si7 0.700813 0.828195 0.148753
Si Si8 0.299549 0.354879 0.389833
O O1 0.310613 0.311130 0.144043
O O2 0.899627 0.440182 0.350120
O O3 0.116303 0.060723 0.058060
O O4 0.321220 0.193498 0.937051
O O5 0.813740 0.301550 0.520883
O O6 0.207359 0.171352 0.328468
O O7 0.904846 0.994768 0.378295
O O8 0.176668 0.957900 0.105665
O O9 0.937396 0.637263 0.201557
O O10 0.510838 0.951820 0.588962
O O11 0.765000 0.745205 0.226219
O O12 0.318705 0.405586 0.329112
O O13 0.637599 0.431146 0.096203
O O14 0.030448 0.198031 0.977451
O O15 0.550421 0.291286 0.270235
O O16 0.677239 0.633808 0.082285
#
# Coordination Sequence:
#
# PCOD8029063 Si02
#       8
#     2   2   2   2   2   2   2   2
#     4  11  26  43  62  94 132 173 205 257 318 378
#     4  11  19  41  69  96 125 158 210 272 316 359
#     4  11  24  42  67  97 125 164 214 265 311 373
#     4  11  21  42  68  95 129 162 213 267 315 366
#     4  12  23  40  69  94 125 167 211 266 313 370
#     4  11  24  40  68  96 124 167 212 263 314 370
#     4  12  26  44  62  93 136 171 206 252 320 386
#     4  11  24  40  69  98 123 162 218 268 311 364
#
# _framework density 21.788862999999999
#
# number of rings (size 3 to 8) (size 9 to 14) (size 15 to 20)
#    0.000    0.750    5.000    3.375    3.500    2.000 
#    0.000    0.625    0.000    0.000    0.000    0.000 
#    0.000    0.000    0.000    0.000    0.000    0.000 
#
# Total GULP energy -198460.614876 kJ/mol
# GULP energy per Si atom -12403.788430 kJ/mol
# Density = 2.173927 g / cm^3
# Si number density = 21.788863 Si / 1000 Ang^3
#
#
#
# Elastic Constant Matrix: (Units=GPa)
#
#
# Indices 1 2 3 4 5 6 
#
# 1 39.5240 18.8474 37.3925 -4.3998 1.6341 -4.6971
# 2 18.8474 93.4539 32.5029 -6.2297 7.6541 3.7741
# 3 37.3925 32.5029 102.6578 -5.6768 -7.3951 5.7525
# 4 -4.3998 -6.2297 -5.6768 23.9187 2.6741 -4.1350
# 5 1.6341 7.6541 -7.3951 2.6741 23.9429 -16.0476
# 6 -4.6971 3.7741 5.7525 -4.1350 -16.0476 21.4572
#
#
#
# Elastic Compliance Matrix: (Units=1/GPa)
#
#
# Indices 1 2 3 4 5 6 
#
# 1 0.044894 -0.004876 -0.015125 0.006290 0.007644 0.021669
# 2 -0.004876 0.014538 -0.003033 0.001484 -0.014255 -0.013187
# 3 -0.015125 -0.003033 0.016719 -0.000806 0.004584 -0.003987
# 4 0.006290 0.001484 -0.000806 0.044905 0.001053 0.010773
# 5 0.007644 -0.014255 0.004584 0.001053 0.098679 0.076956
# 6 0.021669 -0.013187 -0.003987 0.010773 0.076956 0.114367
#
#
# Mechanical properties :
#
#
# Convention : Reuss Voigt Hill
#
# Bulk Modulus (GPa) = 33.23889 45.90238 39.57064
# Shear Modulus (GPa) = 12.81406 23.65662 18.23534
#
# Velocity S-wave (km/s) = 2.42771 3.29860 2.89608
# Velocity P-wave (km/s) = 4.81108 5.96828 5.42065
#
# Compressibility (1/GPa) = 0.03008524
#
# Stress axis : x y z
#
# Youngs Moduli (GPa) = 22.27450 68.78717 59.81084
#
# Poissons Ratio (x) = 0.33539 0.90461
# Poissons Ratio (y) = 0.10861 0.18139
# Poissons Ratio (z) = 0.33689 0.20862
#
# Static dielectric constant tensor:
#      x y z
#    x 3.596780 0.040080 -0.159930 
#    y 0.040080 4.038400 -0.029280 
#    z -0.159930 -0.029280 4.059100 
# 
# 
# High freq. dielectric constant tensor:
#      x y z
#    x 1.828970 -0.000360 -0.019650 
#    y -0.000360 1.866750 0.002240 
#    z -0.019650 0.002240 1.863060 
# 
# From -- ./inp_files/451300.got.cif
#   From: 2010.06.25/outbox.cif.g09.slc.cpg/sg2_226_cif.got.tgz:451300.got - 2010.06.27 13:26:56.
