data_PCOD8029906
_publ_section_title
;
Structure prediction by ZEFSAII (Michael W. Deem and Ramdas Pophale) SiO2 
 PCOD8029906
Probable space group: P -1
;
_chemical_formula_sum "Si O2"
_cell_formula_units_Z 16
_cell_length_a 20.220002
_cell_length_b 12.896617
_cell_length_c 10.050675
_cell_angle_alpha 146.231128
_cell_angle_beta 143.923768
_cell_angle_gamma 32.653648
_cell_volume 732.965985
_symmetry_space_group_name_H-M "P -1"
_symmetry_group_IT_number 2
_symmetry_cell_setting 'triclinic'
loop_
_space_group_symop_operation_xyz
x,y,z
-x,-y,-z
loop_
_atom_site_type_symbol
_atom_site_label
_atom_site_fract_x
_atom_site_fract_y
_atom_site_fract_z
Si Si1 0.621717 0.203559 0.146343
Si Si2 0.267300 0.945659 0.117980
Si Si3 0.047832 0.883105 0.811386
Si Si4 0.132867 0.403318 0.468178
Si Si5 0.604745 0.855417 0.907278
Si Si6 0.774365 0.192415 0.631306
Si Si7 0.844542 0.555902 0.153407
Si Si8 0.566078 0.316564 0.647823
O O1 0.709010 0.239636 0.432356
O O2 0.479838 0.428039 0.148887
O O3 0.693791 0.154335 0.070812
O O4 0.601076 0.007932 0.945384
O O5 0.382589 0.789659 0.238938
O O6 0.244700 0.190350 0.344166
O O7 0.130561 0.968219 0.961497
O O8 0.138938 0.620331 0.685596
O O9 0.910546 0.957765 0.592748
O O10 0.000000 0.000000 0.000000
O O11 0.160162 0.334903 0.595227
O O12 0.994438 0.444917 0.231722
O O13 0.563868 0.691665 0.606287
O O14 0.748481 0.732129 0.076837
O O15 0.500000 0.000000 0.000000
O O16 0.677978 0.189794 0.583346
O O17 0.805491 0.376049 0.918465
#
# Coordination Sequence:
#
# PCOD8029906 Si02
#       8
#     2   2   2   2   2   2   2   2
#     4  12  28  46  68 103 144 182 231 282 352 413
#     4  12  27  46  68 105 143 184 224 285 355 412
#     4  12  22  44  75 105 133 179 231 288 344 411
#     4  11  23  41  69 103 140 177 227 287 341 408
#     4  12  24  42  69 102 133 181 231 285 339 399
#     4  12  22  45  73 104 134 178 238 286 341 408
#     4  11  21  40  71 101 135 173 235 288 333 395
#     4  12  25  45  73  98 139 185 238 284 337 413
#
# _framework density 21.829115999999999
#
# number of rings (size 3 to 8) (size 9 to 14) (size 15 to 20)
#    0.000    0.250    6.250    3.750    0.000    3.000 
#    0.000    1.250    0.000    0.000    0.000    0.000 
#    0.000    0.000    0.000    0.000    0.000    0.000 
#
# Total GULP energy -198426.300774 kJ/mol
# GULP energy per Si atom -12401.643798 kJ/mol
# Density = 2.177943 g / cm^3
# Si number density = 21.829116 Si / 1000 Ang^3
#
#
#
# Elastic Constant Matrix: (Units=GPa)
#
#
# Indices 1 2 3 4 5 6 
#
# 1 98.6255 37.9463 38.8918 -8.1554 -21.7074 10.2074
# 2 37.9463 145.1895 33.1846 5.1609 -5.8743 10.3856
# 3 38.8918 33.1846 86.5648 -2.4812 0.2109 5.0367
# 4 -8.1554 5.1609 -2.4812 34.7311 2.6704 4.5400
# 5 -21.7074 -5.8743 0.2109 2.6704 31.3334 4.3871
# 6 10.2074 10.3856 5.0367 4.5400 4.3871 22.8591
#
#
#
# Elastic Compliance Matrix: (Units=1/GPa)
#
#
# Indices 1 2 3 4 5 6 
#
# 1 0.017533 -0.002116 -0.006473 0.004132 0.012659 -0.008692
# 2 -0.002116 0.008147 -0.002100 -0.001626 0.000504 -0.002067
# 3 -0.006473 -0.002100 0.015194 0.000084 -0.005194 0.001477
# 4 0.004132 -0.001626 0.000084 0.030910 0.000966 -0.007449
# 5 0.012659 0.000504 -0.005194 0.000966 0.042565 -0.013098
# 6 -0.008692 -0.002067 0.001477 -0.007449 -0.013098 0.052235
#
#
# Mechanical properties :
#
#
# Convention : Reuss Voigt Hill
#
# Bulk Modulus (GPa) = 51.29051 61.15833 56.22442
# Shear Modulus (GPa) = 25.71213 32.47519 29.09366
#
# Velocity S-wave (km/s) = 3.43575 3.86126 3.65470
# Velocity P-wave (km/s) = 6.26790 6.92508 6.60467
#
# Compressibility (1/GPa) = 0.01949679
#
# Stress axis : x y z
#
# Youngs Moduli (GPa) = 57.03395 122.75092 65.81417
#
# Poissons Ratio (x) = 0.25974 0.42601
# Poissons Ratio (y) = 0.12068 0.13820
# Poissons Ratio (z) = 0.36918 0.25776
#
# Static dielectric constant tensor:
#      x y z
#    x 3.770640 0.194830 0.327900 
#    y 0.194830 4.771400 0.040450 
#    z 0.327900 0.040450 4.250490 
# 
# 
# High freq. dielectric constant tensor:
#      x y z
#    x 1.822210 0.007500 0.014010 
#    y 0.007500 1.882640 -0.001780 
#    z 0.014010 -0.001780 1.866790 
# 
# From -- ./inp_files/333959.got.cif
#   From: 2010.06.25/outbox.cif.g09.slc.cpg/sg2_167_cif.got.tgz:333959.got - 2010.06.27 13:26:56.
