data_PCOD8029134
_publ_section_title
;
Structure prediction by ZEFSAII (Michael W. Deem and Ramdas Pophale) SiO2 
 PCOD8029134
Probable space group: P -1
;
_chemical_formula_sum "Si O2"
_cell_formula_units_Z 16
_cell_length_a 15.381937
_cell_length_b 15.889111
_cell_length_c 11.981927
_cell_angle_alpha 152.998857
_cell_angle_beta 49.219401
_cell_angle_gamma 146.097387
_cell_volume 697.147847
_symmetry_space_group_name_H-M "P -1"
_symmetry_group_IT_number 2
_symmetry_cell_setting 'triclinic'
loop_
_space_group_symop_operation_xyz
x,y,z
-x,-y,-z
loop_
_atom_site_type_symbol
_atom_site_label
_atom_site_fract_x
_atom_site_fract_y
_atom_site_fract_z
Si Si1 0.643138 0.621127 0.882941
Si Si2 0.895097 0.172191 0.250520
Si Si3 0.684094 0.185513 0.607960
Si Si4 0.950835 0.120562 0.607121
Si Si5 0.816779 0.340397 0.073887
Si Si6 0.798190 0.316656 0.323222
Si Si7 0.458150 0.049482 0.322423
Si Si8 0.695489 0.605595 0.070229
O O1 0.551804 0.350521 0.574960
O O2 0.503829 0.619322 0.009732
O O3 0.723565 0.662308 0.982373
O O4 0.797590 0.865852 0.967067
O O5 0.802424 0.195413 0.447135
O O6 0.891428 0.247939 0.217100
O O7 0.087887 0.375863 0.367174
O O8 0.500000 0.000000 0.500000
O O9 0.669143 0.081690 0.622373
O O10 0.764243 0.484220 0.905136
O O11 0.093305 0.364080 0.692037
O O12 0.791774 0.876285 0.378500
O O13 0.910816 0.256095 0.873622
O O14 0.000000 0.000000 0.500000
O O15 0.787524 0.309475 0.192402
O O16 0.637755 0.129370 0.917091
O O17 0.613718 0.094258 0.268483
#
# Coordination Sequence:
#
# PCOD8029134 Si02
#       8
#     2   2   2   2   2   2   2   2
#     4  11  20  36  63  98 128 163 217 271 328 389
#     4  11  24  41  66  99 132 170 221 278 331 397
#     4  12  20  38  69  99 127 171 219 271 330 388
#     4  11  25  44  68 105 130 174 228 278 330 392
#     4  11  26  46  69  93 141 180 219 275 335 401
#     4  11  25  45  63  93 135 182 216 266 346 396
#     4  12  23  43  67  95 131 179 222 269 334 400
#     4  11  20  35  64 100 131 157 217 282 326 382
#
# _framework density 22.950654
#
# number of rings (size 3 to 8) (size 9 to 14) (size 15 to 20)
#    0.000    0.750    5.000    2.625    5.250    0.500 
#    2.250    0.625    0.000    0.000    0.000    0.000 
#    0.000    0.000    0.000    0.000    0.000    0.000 
#
# Total GULP energy -198295.252142 kJ/mol
# GULP energy per Si atom -12393.453259 kJ/mol
# Density = 2.289842 g / cm^3
# Si number density = 22.950654 Si / 1000 Ang^3
#
#
#
# Elastic Constant Matrix: (Units=GPa)
#
#
# Indices 1 2 3 4 5 6 
#
# 1 97.0785 34.9620 42.6267 12.6205 18.6031 -13.9386
# 2 34.9620 80.3230 23.3706 17.8703 12.5111 -26.6202
# 3 42.6267 23.3706 100.5209 27.6747 2.0660 -23.5567
# 4 12.6205 17.8703 27.6747 38.6322 1.7692 -4.5174
# 5 18.6031 12.5111 2.0660 1.7692 42.3468 2.0373
# 6 -13.9386 -26.6202 -23.5567 -4.5174 2.0373 29.0744
#
#
#
# Elastic Compliance Matrix: (Units=1/GPa)
#
#
# Indices 1 2 3 4 5 6 
#
# 1 0.015255 -0.005011 -0.006036 0.001702 -0.004923 -0.001556
# 2 -0.005011 0.023538 0.004523 -0.009697 -0.005612 0.021700
# 3 -0.006036 0.004523 0.017813 -0.011265 0.000248 0.013912
# 4 0.001702 -0.009697 -0.011265 0.036445 0.001704 -0.011646
# 5 -0.004923 -0.005612 0.000248 0.001704 0.027784 -0.008980
# 6 -0.001556 0.021700 0.013912 -0.011646 -0.008980 0.063609
#
#
# Mechanical properties :
#
#
# Convention : Reuss Voigt Hill
#
# Bulk Modulus (GPa) = 22.95834 53.31569 38.13702
# Shear Modulus (GPa) = 23.58375 33.80822 28.69598
#
# Velocity S-wave (km/s) = 3.20907 3.84224 3.53984
# Velocity P-wave (km/s) = 4.87401 6.55475 5.77584
#
# Compressibility (1/GPa) = 0.04355716
#
# Stress axis : x y z
#
# Youngs Moduli (GPa) = 65.55371 42.48410 56.13932
#
# Poissons Ratio (x) = 0.21290 0.33885
# Poissons Ratio (y) = 0.32851 -0.25391
# Poissons Ratio (z) = 0.39567 -0.19215
#
# Static dielectric constant tensor:
#      x y z
#    x 4.834600 0.100890 -0.128840 
#    y 0.100890 4.298630 0.382400 
#    z -0.128840 0.382400 4.269750 
# 
# 
# High freq. dielectric constant tensor:
#      x y z
#    x 1.909830 0.000550 0.003430 
#    y 0.000550 1.899430 0.021930 
#    z 0.003430 0.021930 1.909140 
# 
# From -- ./inp_files/452608.got.cif
#   From: 2010.06.25/outbox.cif.g09.slc.cpg/sg2_227_cif.got.tgz:452608.got - 2010.06.27 13:26:56.
