data_PCOD8029177
_publ_section_title
;
Structure prediction by ZEFSAII (Michael W. Deem and Ramdas Pophale) SiO2 
 PCOD8029177
Probable space group: P -1
;
_chemical_formula_sum "Si O2"
_cell_formula_units_Z 16
_cell_length_a 12.183035
_cell_length_b 13.932212
_cell_length_c 9.473063
_cell_angle_alpha 78.876014
_cell_angle_beta 143.823833
_cell_angle_gamma 121.616189
_cell_volume 718.482818
_symmetry_space_group_name_H-M "P -1"
_symmetry_group_IT_number 2
_symmetry_cell_setting 'triclinic'
loop_
_space_group_symop_operation_xyz
x,y,z
-x,-y,-z
loop_
_atom_site_type_symbol
_atom_site_label
_atom_site_fract_x
_atom_site_fract_y
_atom_site_fract_z
Si Si1 0.183631 0.137952 0.320222
Si Si2 0.736026 0.768854 0.319445
Si Si3 0.672797 0.967039 0.719246
Si Si4 0.442894 0.768004 0.782519
Si Si5 0.506590 0.407059 0.440144
Si Si6 0.916561 0.484919 0.665969
Si Si7 0.307593 0.474509 0.999847
Si Si8 0.972492 0.300377 0.458755
O O1 0.213378 0.144496 0.518348
O O2 0.249148 0.055130 0.342760
O O3 0.370765 0.276898 0.414349
O O4 0.913914 0.082463 0.016798
O O5 0.980249 0.791284 0.529826
O O6 0.664221 0.813089 0.100706
O O7 0.538269 0.620580 0.188015
O O8 0.537391 0.843107 0.712322
O O9 0.500000 0.000000 0.500000
O O10 0.279228 0.618369 0.623047
O O11 0.273570 0.789643 0.681600
O O12 0.500000 0.500000 0.500000
O O13 0.780393 0.464168 0.676479
O O14 0.376743 0.393280 0.162772
O O15 0.055502 0.627510 0.713105
O O16 0.112795 0.465394 0.899314
O O17 0.201075 0.412190 0.755658
#
# Coordination Sequence:
#
# PCOD8029177 Si02
#       8
#     2   2   2   2   2   2   2   2
#     4  11  27  47  69  99 133 177 230 278 334 395
#     4  12  22  41  67 101 140 170 216 282 332 399
#     4  11  28  52  72  90 127 181 238 284 327 393
#     4  11  23  41  69  96 127 176 228 275 327 385
#     4  12  23  38  63 100 139 176 210 267 344 400
#     4  11  20  37  60 100 137 176 218 260 324 407
#     4  11  21  34  60  98 140 177 209 258 327 403
#     4  11  21  35  65 104 139 174 214 262 338 404
#
# _framework density 22.269148000000001
#
# number of rings (size 3 to 8) (size 9 to 14) (size 15 to 20)
#    0.000    0.750    6.250    1.875    3.500    3.000 
#    2.250    1.250    0.000    0.000    0.000    0.000 
#    0.000    0.000    0.000    0.000    0.000    0.000 
#
# Total GULP energy -198429.753224 kJ/mol
# GULP energy per Si atom -12401.859577 kJ/mol
# Density = 2.221846 g / cm^3
# Si number density = 22.269148 Si / 1000 Ang^3
#
#
#
# Elastic Constant Matrix: (Units=GPa)
#
#
# Indices 1 2 3 4 5 6 
#
# 1 142.0284 19.3957 29.3432 -1.7432 14.3660 -13.6448
# 2 19.3957 29.9667 7.2229 -16.8645 -5.1115 -4.3937
# 3 29.3432 7.2229 51.8545 -15.1448 4.4711 -11.9114
# 4 -1.7432 -16.8645 -15.1448 30.1153 -4.7991 3.5727
# 5 14.3660 -5.1115 4.4711 -4.7991 37.4584 -1.1088
# 6 -13.6448 -4.3937 -11.9114 3.5727 -1.1088 30.5882
#
#
#
# Elastic Compliance Matrix: (Units=1/GPa)
#
#
# Indices 1 2 3 4 5 6 
#
# 1 0.010738 -0.012281 -0.006627 -0.010773 -0.006340 0.001474
# 2 -0.012281 0.067841 0.009770 0.044746 0.018638 0.003520
# 3 -0.006627 0.009770 0.028719 0.019136 0.003121 0.007509
# 4 -0.010773 0.044746 0.019136 0.069780 0.016939 0.001537
# 5 -0.006340 0.018638 0.003121 0.016939 0.033478 0.000300
# 6 0.001474 0.003520 0.007509 0.001537 0.000300 0.036611
#
#
# Mechanical properties :
#
#
# Convention : Reuss Voigt Hill
#
# Bulk Modulus (GPa) = 11.23320 37.30813 24.27066
# Shear Modulus (GPa) = 16.94250 30.82490 23.88370
#
# Velocity S-wave (km/s) = 2.76126 3.72452 3.27846
# Velocity P-wave (km/s) = 3.90145 5.94018 5.02529
#
# Compressibility (1/GPa) = 0.08902186
#
# Stress axis : x y z
#
# Youngs Moduli (GPa) = 93.13008 14.74029 34.82058
#
# Poissons Ratio (x) = 0.18102 0.23075
# Poissons Ratio (y) = 1.14372 -0.34019
# Poissons Ratio (z) = 0.61717 -0.14401
#
# Static dielectric constant tensor:
#      x y z
#    x 4.408130 0.087520 0.115380 
#    y 0.087520 3.492930 -0.162760 
#    z 0.115380 -0.162760 4.078820 
# 
# 
# High freq. dielectric constant tensor:
#      x y z
#    x 1.901090 -0.001010 0.010820 
#    y -0.001010 1.849560 -0.009940 
#    z 0.010820 -0.009940 1.866670 
# 
# From -- ./inp_files/273034.got.cif
#   From: 2010.06.25/outbox.cif.g09.slc.cpg/sg2_137_cif.got.tgz:273034.got - 2010.06.27 13:26:56.
