data_PCOD8029372
_publ_section_title
;
Structure prediction by ZEFSAII (Michael W. Deem and Ramdas Pophale) SiO2 
 PCOD8029372
Probable space group: P -1
;
_chemical_formula_sum "Si O2"
_cell_formula_units_Z 12
_cell_length_a 11.035457
_cell_length_b 9.820244
_cell_length_c 8.908348
_cell_angle_alpha 46.745763
_cell_angle_beta 125.594156
_cell_angle_gamma 118.149141
_cell_volume 567.400791
_symmetry_space_group_name_H-M "P -1"
_symmetry_group_IT_number 2
_symmetry_cell_setting 'triclinic'
loop_
_space_group_symop_operation_xyz
x,y,z
-x,-y,-z
loop_
_atom_site_type_symbol
_atom_site_label
_atom_site_fract_x
_atom_site_fract_y
_atom_site_fract_z
Si Si1 0.574036 0.475742 0.863254
Si Si2 0.727379 0.376142 0.549486
Si Si3 0.037619 0.377107 0.259176
Si Si4 0.268935 0.184801 0.418753
Si Si5 0.541439 0.196100 0.798734
Si Si6 0.753029 0.241846 0.354410
O O1 0.400265 0.504908 0.699029
O O2 0.689875 0.668922 0.799598
O O3 0.619387 0.351002 0.850785
O O4 0.609321 0.354825 0.127670
O O5 0.852763 0.510088 0.626917
O O6 0.657096 0.201947 0.736975
O O7 0.801772 0.283756 0.529939
O O8 0.108362 0.200991 0.367255
O O9 0.887438 0.301584 0.293442
O O10 0.000000 0.500000 0.000000
O O11 0.387309 0.256321 0.579803
O O12 0.292094 0.980339 0.529843
O O13 0.500000 0.000000 0.000000
#
# Coordination Sequence:
#
# PCOD8029372 Si02
#       6
#     2   2   2   2   2   2
#     4  11  21  44  69  94 128 171 214 264 318 385
#     4  11  24  43  66  98 134 162 213 274 319 373
#     4  12  23  45  69  88 131 180 215 254 315 391
#     4  11  22  41  69  94 127 170 221 260 311 386
#     4  11  20  40  71  95 124 171 221 261 313 383
#     4  12  25  41  67 100 132 167 207 269 331 370
#
# _framework density 21.149070999999999
#
# number of rings (size 3 to 8) (size 9 to 14) (size 15 to 20)
#    0.000    0.667    6.667    2.500    0.000    2.667 
#    3.000    0.833    0.000    0.000    0.000    0.000 
#    0.000    0.000    0.000    0.000    0.000    0.000 
#
# Total GULP energy -148732.337342 kJ/mol
# GULP energy per Si atom -12394.361445 kJ/mol
# Density = 2.110093 g / cm^3
# Si number density = 21.149071 Si / 1000 Ang^3
#
#
#
# Elastic Constant Matrix: (Units=GPa)
#
#
# Indices 1 2 3 4 5 6 
#
# 1 49.2795 22.8394 20.6338 1.1851 -10.6784 1.9196
# 2 22.8394 115.2810 54.4442 -7.7527 -11.6050 2.0642
# 3 20.6338 54.4442 89.9993 -9.5400 -10.8165 -4.5523
# 4 1.1851 -7.7527 -9.5400 38.8730 4.9591 -8.6782
# 5 -10.6784 -11.6050 -10.8165 4.9591 31.5594 9.1586
# 6 1.9196 2.0642 -4.5523 -8.6782 9.1586 24.8708
#
#
#
# Elastic Compliance Matrix: (Units=1/GPa)
#
#
# Indices 1 2 3 4 5 6 
#
# 1 0.025654 -0.002308 -0.004305 -0.005273 0.009479 -0.007907
# 2 -0.002308 0.012761 -0.007071 -0.000120 0.002408 -0.003104
# 3 -0.004305 -0.007071 0.017051 0.004252 -0.000542 0.005723
# 4 -0.005273 -0.000120 0.004252 0.031739 -0.009986 0.015948
# 5 0.009479 0.002408 -0.000542 -0.009986 0.043076 -0.020378
# 6 -0.007907 -0.003104 0.005723 0.015948 -0.020378 0.055192
#
#
# Mechanical properties :
#
#
# Convention : Reuss Voigt Hill
#
# Bulk Modulus (GPa) = 35.59029 50.04385 42.81707
# Shear Modulus (GPa) = 22.50160 29.50347 26.00253
#
# Velocity S-wave (km/s) = 3.26537 3.73905 3.51021
# Velocity P-wave (km/s) = 5.57509 6.50803 6.05954
#
# Compressibility (1/GPa) = 0.02809755
#
# Stress axis : x y z
#
# Youngs Moduli (GPa) = 38.98091 78.36386 58.64863
#
# Poissons Ratio (x) = 0.18088 0.25247
# Poissons Ratio (y) = 0.08998 0.41469
# Poissons Ratio (z) = 0.16781 0.55409
#
# Static dielectric constant tensor:
#      x y z
#    x 3.926340 0.049510 -0.147420 
#    y 0.049510 3.822990 -0.035240 
#    z -0.147420 -0.035240 4.213460 
# 
# 
# High freq. dielectric constant tensor:
#      x y z
#    x 1.827730 -0.000270 -0.008060 
#    y -0.000270 1.824140 0.003620 
#    z -0.008060 0.003620 1.833300 
# 
# From -- ./inp_files/148764.got.cif
#   From: 2010.06.25/outbox.cif.g09.slc.cpg/sg2_75_cif.got.tgz:148764.got - 2010.06.27 13:26:56.
