data_PCOD8029131
_publ_section_title
;
Structure prediction by ZEFSAII (Michael W. Deem and Ramdas Pophale) SiO2 
 PCOD8029131
Probable space group: P -1
;
_chemical_formula_sum "Si O2"
_cell_formula_units_Z 16
_cell_length_a 10.502897
_cell_length_b 13.569887
_cell_length_c 12.092511
_cell_angle_alpha 32.106518
_cell_angle_beta 110.261306
_cell_angle_gamma 120.721647
_cell_volume 773.239320
_symmetry_space_group_name_H-M "P -1"
_symmetry_group_IT_number 2
_symmetry_cell_setting 'triclinic'
loop_
_space_group_symop_operation_xyz
x,y,z
-x,-y,-z
loop_
_atom_site_type_symbol
_atom_site_label
_atom_site_fract_x
_atom_site_fract_y
_atom_site_fract_z
Si Si1 0.551186 0.899373 0.013455
Si Si2 0.761693 0.551736 0.331995
Si Si3 0.309393 0.377534 0.148601
Si Si4 0.277781 0.843259 0.367725
Si Si5 0.568826 0.242165 0.309295
Si Si6 0.412618 0.442559 0.353914
Si Si7 0.122928 0.123607 0.138090
Si Si8 0.204964 0.166217 0.739659
O O1 0.429287 0.663890 0.189644
O O2 0.722278 0.935934 0.055791
O O3 0.500000 0.000000 0.000000
O O4 0.572202 0.005063 0.798590
O O5 0.814099 0.365405 0.533183
O O6 0.578305 0.460172 0.363189
O O7 0.834316 0.678317 0.345480
O O8 0.822674 0.694781 0.106650
O O9 0.445349 0.322497 0.216157
O O10 0.295169 0.365052 0.288974
O O11 0.169352 0.213450 0.190953
O O12 0.337994 0.611573 0.903427
O O13 0.321801 0.719660 0.592018
O O14 0.188465 0.960944 0.280568
O O15 0.500000 0.000000 0.500000
O O16 0.334521 0.279398 0.581520
O O17 0.942759 0.004287 0.199403
#
# Coordination Sequence:
#
# PCOD8029131 Si02
#       8
#     2   2   2   2   2   2   2   2
#     4  11  23  41  66  98 122 163 224 268 309 377
#     4  11  21  42  66  92 126 162 217 272 309 364
#     4  11  22  38  63  90 133 164 209 263 314 372
#     4  12  21  36  68  97 123 163 214 262 324 368
#     4  11  20  35  61  97 121 159 213 269 304 361
#     4  11  21  42  65  90 126 171 213 265 311 365
#     4  12  24  42  61  99 134 170 204 258 327 386
#     4  11  25  42  63  90 140 169 205 262 325 382
#
# _framework density 20.692170999999998
#
# number of rings (size 3 to 8) (size 9 to 14) (size 15 to 20)
#    0.000    0.750    6.250    4.875    0.000    1.000 
#    2.250    0.000    0.000    1.500    0.000    0.000 
#    0.000    0.000    0.000    0.000    0.000    0.000 
#
# Total GULP energy -198225.880601 kJ/mol
# GULP energy per Si atom -12389.117538 kJ/mol
# Density = 2.064507 g / cm^3
# Si number density = 20.692171 Si / 1000 Ang^3
#
#
#
# Elastic Constant Matrix: (Units=GPa)
#
#
# Indices 1 2 3 4 5 6 
#
# 1 41.3775 32.7788 21.5566 -17.1930 -0.1944 -2.3064
# 2 32.7788 122.8544 20.3035 -8.9622 0.6943 -4.7168
# 3 21.5566 20.3035 102.4198 -13.7434 5.0577 -1.1878
# 4 -17.1930 -8.9622 -13.7434 37.9800 -11.4526 3.1405
# 5 -0.1944 0.6943 5.0577 -11.4526 23.6483 -10.5895
# 6 -2.3064 -4.7168 -1.1878 3.1405 -10.5895 33.2146
#
#
#
# Elastic Compliance Matrix: (Units=1/GPa)
#
#
# Indices 1 2 3 4 5 6 
#
# 1 0.041751 -0.008886 -0.005127 0.018326 0.012191 0.003608
# 2 -0.008886 0.010465 -0.000424 -0.002055 -0.000951 0.000745
# 3 -0.005127 -0.000424 0.011164 0.000990 -0.002319 -0.000850
# 4 0.018326 -0.002055 0.000990 0.040645 0.021484 0.004023
# 5 0.012191 -0.000951 -0.002319 0.021484 0.061461 0.018192
# 6 0.003608 0.000745 -0.000850 0.004023 0.018192 0.035853
#
#
# Mechanical properties :
#
#
# Convention : Reuss Voigt Hill
#
# Bulk Modulus (GPa) = 28.98071 46.21439 37.59755
# Shear Modulus (GPa) = 20.68545 31.76942 26.22744
#
# Velocity S-wave (km/s) = 3.16519 3.92259 3.56407
# Velocity P-wave (km/s) = 5.23393 6.54968 5.92842
#
# Compressibility (1/GPa) = 0.03450571
#
# Stress axis : x y z
#
# Youngs Moduli (GPa) = 23.95142 95.55893 89.56982
#
# Poissons Ratio (x) = 0.84912 0.45923
# Poissons Ratio (y) = 0.21283 0.03802
# Poissons Ratio (z) = 0.12280 0.04056
#
# Static dielectric constant tensor:
#      x y z
#    x 3.354150 -0.251350 0.131080 
#    y -0.251350 4.451360 0.130470 
#    z 0.131080 0.130470 4.067250 
# 
# 
# High freq. dielectric constant tensor:
#      x y z
#    x 1.767020 -0.020200 0.009510 
#    y -0.020200 1.823610 -0.002830 
#    z 0.009510 -0.002830 1.826850 
# 
# From -- ./inp_files/432324.got.cif
#   From: 2010.06.25/outbox.cif.g09.slc.cpg/sg2_217_cif.got.tgz:432324.got - 2010.06.27 13:26:56.
