data_PCOD8029725
_publ_section_title
;
Structure prediction by ZEFSAII (Michael W. Deem and Ramdas Pophale) SiO2 
 PCOD8029725
Probable space group: P -1
;
_chemical_formula_sum "Si O2"
_cell_formula_units_Z 10
_cell_length_a 8.502004
_cell_length_b 10.510511
_cell_length_c 10.677510
_cell_angle_alpha 135.464331
_cell_angle_beta 138.708062
_cell_angle_gamma 42.852175
_cell_volume 399.356970
_symmetry_space_group_name_H-M "P -1"
_symmetry_group_IT_number 2
_symmetry_cell_setting 'triclinic'
loop_
_space_group_symop_operation_xyz
x,y,z
-x,-y,-z
loop_
_atom_site_type_symbol
_atom_site_label
_atom_site_fract_x
_atom_site_fract_y
_atom_site_fract_z
Si Si1 0.226897 0.691151 0.100126
Si Si2 0.423156 0.727005 0.880865
Si Si3 0.031051 0.954079 0.631294
Si Si4 0.961044 0.688833 0.694543
Si Si5 0.473960 0.089926 0.708372
O O1 0.397680 0.507255 0.164035
O O2 0.429770 0.762892 0.204432
O O3 0.018199 0.849601 0.179226
O O4 0.068204 0.621929 0.854266
O O5 0.334188 0.793069 0.729861
O O6 0.135495 0.797825 0.823722
O O7 0.549550 0.857816 0.120204
O O8 0.815975 0.871102 0.486437
O O9 0.000000 0.000000 0.500000
O O10 0.000000 0.500000 0.500000
O O11 0.658261 0.854084 0.631315
#
# Coordination Sequence:
#
# PCOD8029725 Si02
#       5
#     2   2   2   2   2
#     4  11  23  44  68 105 132 168 226 279 331 395
#     4  11  24  41  70 103 133 168 227 275 331 394
#     4  12  27  45  66  95 138 185 222 265 331 401
#     4  11  21  38  72 107 130 168 218 283 338 385
#     4  11  22  44  71  97 134 173 218 288 332 379
#
# _framework density 25.040254999999998
#
# number of rings (size 3 to 8) (size 9 to 14) (size 15 to 20)
#    0.000    0.800    4.000    5.400    5.600    1.600 
#    0.000    1.000    0.000    0.000    0.000    0.000 
#    0.000    0.000    0.000    0.000    0.000    0.000 
#
# Total GULP energy -123969.678432 kJ/mol
# GULP energy per Si atom -12396.967843 kJ/mol
# Density = 2.498326 g / cm^3
# Si number density = 25.040255 Si / 1000 Ang^3
#
#
#
# Elastic Constant Matrix: (Units=GPa)
#
#
# Indices 1 2 3 4 5 6 
#
# 1 34.3091 15.6941 23.0649 7.0807 -26.9578 8.8796
# 2 15.6941 175.1634 78.1077 -8.4113 -17.2946 19.2168
# 3 23.0649 78.1077 176.3647 1.1219 -39.0137 6.8925
# 4 7.0807 -8.4113 1.1219 42.3568 2.6038 -7.7091
# 5 -26.9578 -17.2946 -39.0137 2.6038 34.8878 -13.6535
# 6 8.8796 19.2168 6.8925 -7.7091 -13.6535 26.1637
#
#
#
# Elastic Compliance Matrix: (Units=1/GPa)
#
#
# Indices 1 2 3 4 5 6 
#
# 1 0.095085 -0.005949 0.008850 -0.021093 0.085112 0.007968
# 2 -0.005949 0.008225 -0.004433 0.002062 -0.008180 -0.006515
# 3 0.008850 -0.004433 0.010472 -0.002589 0.019183 0.006741
# 4 -0.021093 0.002062 -0.002589 0.029750 -0.018203 0.005592
# 5 0.085112 -0.008180 0.019183 -0.018203 0.125858 0.032384
# 6 0.007968 -0.006515 0.006741 0.005592 0.032384 0.057074
#
#
# Mechanical properties :
#
#
# Convention : Reuss Voigt Hill
#
# Bulk Modulus (GPa) = 9.03192 68.84116 38.93654
# Shear Modulus (GPa) = 13.64505 38.61303 26.12904
#
# Velocity S-wave (km/s) = 2.33689 3.93114 3.23380
# Velocity P-wave (km/s) = 3.30094 6.93953 5.43384
#
# Compressibility (1/GPa) = 0.11071839
#
# Stress axis : x y z
#
# Youngs Moduli (GPa) = 10.51693 121.58565 95.48997
#
# Poissons Ratio (x) = 0.72335 -0.84510
# Poissons Ratio (y) = 0.06257 0.42326
# Poissons Ratio (z) = -0.09308 0.53893
#
# Static dielectric constant tensor:
#      x y z
#    x 4.048410 0.060610 -0.270630 
#    y 0.060610 4.560820 -0.486930 
#    z -0.270630 -0.486930 5.176260 
# 
# 
# High freq. dielectric constant tensor:
#      x y z
#    x 1.939810 0.005860 -0.023110 
#    y 0.005860 2.010100 -0.021840 
#    z -0.023110 -0.021840 2.027000 
# 
# From -- ./inp_files/166867.got.cif
#   From: 2010.06.25/outbox.cif.g09.slc.cpg/sg2_84_cif.got.tgz:166867.got - 2010.06.27 13:26:56.
