data_PCOD8029361
_publ_section_title
;
Structure prediction by ZEFSAII (Michael W. Deem and Ramdas Pophale) SiO2 
 PCOD8029361
Probable space group: P -1
;
_chemical_formula_sum "Si O2"
_cell_formula_units_Z 16
_cell_length_a 15.164648
_cell_length_b 14.960477
_cell_length_c 8.762734
_cell_angle_alpha 127.554464
_cell_angle_beta 127.139826
_cell_angle_gamma 25.589112
_cell_volume 672.185588
_symmetry_space_group_name_H-M "P -1"
_symmetry_group_IT_number 2
_symmetry_cell_setting 'triclinic'
loop_
_space_group_symop_operation_xyz
x,y,z
-x,-y,-z
loop_
_atom_site_type_symbol
_atom_site_label
_atom_site_fract_x
_atom_site_fract_y
_atom_site_fract_z
Si Si1 0.143638 0.601415 0.917459
Si Si2 0.441251 0.860102 0.866782
Si Si3 0.853573 0.614960 0.113777
Si Si4 0.336673 0.543689 0.342127
Si Si5 0.868854 0.239218 0.360973
Si Si6 0.775944 0.071417 0.003233
Si Si7 0.555664 0.664105 0.305564
Si Si8 0.241007 0.070278 0.575899
O O1 0.273272 0.578699 0.135403
O O2 0.063088 0.565937 0.896512
O O3 0.278407 0.434148 0.746596
O O4 0.954717 0.832205 0.885967
O O5 0.563177 0.656150 0.694408
O O6 0.347860 0.887089 0.950865
O O7 0.266626 0.053195 0.769532
O O8 0.609355 0.812321 0.026121
O O9 0.858130 0.720753 0.340960
O O10 0.000000 0.500000 0.000000
O O11 0.500000 0.500000 0.500000
O O12 0.135476 0.743091 0.441191
O O13 0.879569 0.098011 0.192098
O O14 0.662063 0.475380 0.321865
O O15 0.080059 0.114572 0.396728
O O16 0.632626 0.227525 0.873738
O O17 0.461408 0.851837 0.497868
#
# Coordination Sequence:
#
# PCOD8029361 Si02
#       8
#     2   2   2   2   2   2   2   2
#     4  11  26  46  70 103 142 186 235 291 353 416
#     4  11  22  45  73 105 137 181 235 293 353 409
#     4  11  24  49  78 105 139 178 239 301 350 413
#     4  11  20  40  70 101 139 179 230 297 344 400
#     4  12  26  44  71 109 145 184 240 292 346 421
#     4  12  25  46  74 102 144 193 232 287 361 415
#     4  12  26  48  66 104 149 188 236 283 354 424
#     4  12  27  43  76 107 137 192 235 289 354 418
#
# _framework density 23.802949000000002
#
# number of rings (size 3 to 8) (size 9 to 14) (size 15 to 20)
#    0.000    0.500    5.000    4.500    1.750    4.500 
#    0.000    1.250    0.000    0.000    0.000    0.000 
#    0.000    0.000    0.000    0.000    0.000    0.000 
#
# Total GULP energy -198310.080670 kJ/mol
# GULP energy per Si atom -12394.380042 kJ/mol
# Density = 2.374877 g / cm^3
# Si number density = 23.802949 Si / 1000 Ang^3
#
#
#
# Elastic Constant Matrix: (Units=GPa)
#
#
# Indices 1 2 3 4 5 6 
#
# 1 112.5434 40.3076 59.2621 10.9903 9.9302 -17.1612
# 2 40.3076 123.6311 34.5750 13.5121 -2.3435 -5.4296
# 3 59.2621 34.5750 85.3702 19.0430 -0.2728 -11.1305
# 4 10.9903 13.5121 19.0430 49.5952 -2.0888 -3.4623
# 5 9.9302 -2.3435 -0.2728 -2.0888 38.8870 -2.2706
# 6 -17.1612 -5.4296 -11.1305 -3.4623 -2.2706 31.9655
#
#
#
# Elastic Compliance Matrix: (Units=1/GPa)
#
#
# Indices 1 2 3 4 5 6 
#
# 1 0.015746 -0.002437 -0.009590 0.001008 -0.003916 0.004531
# 2 -0.002437 0.009572 -0.001946 -0.001304 0.001091 -0.000424
# 3 -0.009590 -0.001946 0.020449 -0.005012 0.002280 0.001260
# 4 0.001008 -0.001304 -0.005012 0.022331 0.000890 0.001056
# 5 -0.003916 0.001091 0.002280 0.000890 0.026897 0.000883
# 6 0.004531 -0.000424 0.001260 0.001056 0.000883 0.034260
#
#
# Mechanical properties :
#
#
# Convention : Reuss Voigt Hill
#
# Bulk Modulus (GPa) = 56.11457 65.53714 60.82585
# Shear Modulus (GPa) = 30.64814 36.58286 33.61550
#
# Velocity S-wave (km/s) = 3.59218 3.92459 3.76206
# Velocity P-wave (km/s) = 6.38990 6.93754 6.66934
#
# Compressibility (1/GPa) = 0.01782068
#
# Stress axis : x y z
#
# Youngs Moduli (GPa) = 63.50639 104.47236 48.90263
#
# Poissons Ratio (x) = 0.25462 0.46900
# Poissons Ratio (y) = 0.15478 0.09514
# Poissons Ratio (z) = 0.60905 0.20326
#
# Static dielectric constant tensor:
#      x y z
#    x 4.176340 -0.406160 0.277280 
#    y -0.406160 1.832040 3.669850 
#    z 0.277280 3.669850 -0.300250 
# 
# 
# High freq. dielectric constant tensor:
#      x y z
#    x 1.936230 -0.003820 -0.011150 
#    y -0.003820 1.952100 0.009300 
#    z -0.011150 0.009300 1.942700 
# 
# From -- ./inp_files/315981.got.cif
#   From: 2010.06.25/outbox.cif.g09.slc.cpg/sg2_158_cif.got.tgz:315981.got - 2010.06.27 13:26:56.
