data_PCOD8029403
_publ_section_title
;
Structure prediction by ZEFSAII (Michael W. Deem and Ramdas Pophale) SiO2 
 PCOD8029403
Probable space group: P -1
;
_chemical_formula_sum "Si O2"
_cell_formula_units_Z 16
_cell_length_a 9.385140
_cell_length_b 20.809645
_cell_length_c 11.648887
_cell_angle_alpha 43.554862
_cell_angle_beta 54.217412
_cell_angle_gamma 28.723819
_cell_volume 744.451572
_symmetry_space_group_name_H-M "P -1"
_symmetry_group_IT_number 2
_symmetry_cell_setting 'triclinic'
loop_
_space_group_symop_operation_xyz
x,y,z
-x,-y,-z
loop_
_atom_site_type_symbol
_atom_site_label
_atom_site_fract_x
_atom_site_fract_y
_atom_site_fract_z
Si Si1 0.752445 0.184717 0.890043
Si Si2 0.381810 0.251006 0.403743
Si Si3 0.095057 0.682127 0.463345
Si Si4 0.840923 0.626119 0.200624
Si Si5 0.787663 0.359994 0.969479
Si Si6 0.471206 0.462087 0.372038
Si Si7 0.564038 0.216614 0.607901
Si Si8 0.156858 0.863195 0.833658
O O1 0.866567 0.228020 0.713593
O O2 0.436704 0.283455 0.864229
O O3 0.707030 0.224996 0.993659
O O4 0.000000 0.000000 0.000000
O O5 0.554489 0.175474 0.540680
O O6 0.612841 0.168581 0.299036
O O7 0.246309 0.205373 0.506990
O O8 0.126661 0.439571 0.280902
O O9 0.237994 0.548014 0.476696
O O10 0.256804 0.596506 0.621472
O O11 0.743295 0.666903 0.327617
O O12 0.945875 0.687665 0.050288
O O13 0.697461 0.412984 0.811098
O O14 0.500000 0.500000 0.000000
O O15 0.899033 0.205529 0.127123
O O16 0.609859 0.307357 0.458300
O O17 0.843910 0.051542 0.757188
#
# Coordination Sequence:
#
# PCOD8029403 Si02
#       8
#     2   2   2   2   2   2   2   2
#     4  12  25  47  68 104 144 179 229 292 345 409
#     4  12  25  42  69 105 131 182 237 280 340 414
#     4  11  22  40  70  98 129 180 236 277 330 411
#     4  12  23  41  74  97 133 184 237 275 340 405
#     4  12  25  42  65 106 143 177 228 290 346 407
#     4  11  20  41  68  96 131 179 229 281 324 415
#     4  12  23  44  69  98 141 179 231 286 339 410
#     4  12  27  45  68 101 149 179 220 296 357 394
#
# _framework density 21.492331
#
# number of rings (size 3 to 8) (size 9 to 14) (size 15 to 20)
#    0.000    0.250    7.500    2.250    0.000    3.000 
#    0.000    2.500    0.000    0.000    0.000    0.000 
#    0.000    0.000    0.000    0.000    0.000    0.000 
#
# Total GULP energy -198390.973095 kJ/mol
# GULP energy per Si atom -12399.435818 kJ/mol
# Density = 2.144341 g / cm^3
# Si number density = 21.492331 Si / 1000 Ang^3
#
#
#
# Elastic Constant Matrix: (Units=GPa)
#
#
# Indices 1 2 3 4 5 6 
#
# 1 119.6330 17.2361 40.4771 9.4909 -17.7209 -23.6299
# 2 17.2361 73.7995 17.1964 -1.1156 -14.5847 -7.3143
# 3 40.4771 17.1964 63.1073 -2.7973 -14.3256 -19.0557
# 4 9.4909 -1.1156 -2.7973 37.4380 -2.2555 -4.6992
# 5 -17.7209 -14.5847 -14.3256 -2.2555 37.3789 -1.2143
# 6 -23.6299 -7.3143 -19.0557 -4.6992 -1.2143 26.5728
#
#
#
# Elastic Compliance Matrix: (Units=1/GPa)
#
#
# Indices 1 2 3 4 5 6 
#
# 1 0.012193 -0.000286 -0.004824 -0.002337 0.003909 0.007070
# 2 -0.000286 0.015425 -0.001806 0.001114 0.005360 0.003138
# 3 -0.004824 -0.001806 0.026046 0.005497 0.007817 0.015220
# 4 -0.002337 0.001114 0.005497 0.028886 0.003418 0.007435
# 5 0.003909 0.005360 0.007817 0.003418 0.034313 0.012729
# 6 0.007070 0.003138 0.015220 0.007435 0.012729 0.057594
#
#
# Mechanical properties :
#
#
# Convention : Reuss Voigt Hill
#
# Bulk Modulus (GPa) = 25.10529 45.15100 35.12814
# Shear Modulus (GPa) = 24.80547 32.38662 28.59605
#
# Velocity S-wave (km/s) = 3.40097 3.88608 3.65159
# Velocity P-wave (km/s) = 5.20851 6.41787 5.84455
#
# Compressibility (1/GPa) = 0.03983224
#
# Stress axis : x y z
#
# Youngs Moduli (GPa) = 82.01260 64.82976 38.39289
#
# Poissons Ratio (x) = 0.01853 0.18522
# Poissons Ratio (y) = 0.02344 0.06934
# Poissons Ratio (z) = 0.39566 0.11709
#
# Static dielectric constant tensor:
#      x y z
#    x 4.307240 -0.101680 -0.145190 
#    y -0.101680 3.851830 0.248500 
#    z -0.145190 0.248500 4.384730 
# 
# 
# High freq. dielectric constant tensor:
#      x y z
#    x 1.861080 0.005080 -0.002020 
#    y 0.005080 1.831340 -0.001540 
#    z -0.002020 -0.001540 1.840160 
# 
# From -- ./inp_files/263571.got.cif
#   From: 2010.06.25/outbox.cif.g09.slc.cpg/sg2_132_cif.got.tgz:263571.got - 2010.06.27 13:26:56.
