data_PCOD8029939
_publ_section_title
;
Structure prediction by ZEFSAII (Michael W. Deem and Ramdas Pophale) SiO2 
 PCOD8029939
Probable space group: P -1
;
_chemical_formula_sum "Si O2"
_cell_formula_units_Z 16
_cell_length_a 12.429267
_cell_length_b 14.637280
_cell_length_c 9.583387
_cell_angle_alpha 72.821026
_cell_angle_beta 84.968266
_cell_angle_gamma 29.741021
_cell_volume 772.186219
_symmetry_space_group_name_H-M "P -1"
_symmetry_group_IT_number 2
_symmetry_cell_setting 'triclinic'
loop_
_space_group_symop_operation_xyz
x,y,z
-x,-y,-z
loop_
_atom_site_type_symbol
_atom_site_label
_atom_site_fract_x
_atom_site_fract_y
_atom_site_fract_z
Si Si1 0.901364 0.350840 0.832748
Si Si2 0.809594 0.071052 0.697794
Si Si3 0.905274 0.972421 0.217966
Si Si4 0.950859 0.303432 0.176341
Si Si5 0.414765 0.803606 0.590801
Si Si6 0.372204 0.050147 0.869075
Si Si7 0.549110 0.227187 0.932286
Si Si8 0.588224 0.990033 0.623279
O O1 0.642983 0.590640 0.739614
O O2 0.954025 0.293650 0.014155
O O3 0.936756 0.228970 0.789024
O O4 0.093009 0.278739 0.799527
O O5 0.658938 0.215829 0.511313
O O6 0.652451 0.144007 0.802203
O O7 0.929646 0.070343 0.742282
O O8 0.995338 0.848058 0.717211
O O9 0.784995 0.023729 0.347970
O O10 0.710170 0.164992 0.044952
O O11 0.705439 0.529800 0.160553
O O12 0.142073 0.225478 0.258578
O O13 0.472303 0.853321 0.473914
O O14 0.435084 0.061061 0.724229
O O15 0.447879 0.879198 0.944406
O O16 0.500000 0.000000 0.000000
O O17 0.500000 0.000000 0.500000
#
# Coordination Sequence:
#
# PCOD8029939 Si02
#       8
#     2   2   2   2   2   2   2   2
#     4  11  23  41  67  93 130 167 215 261 312 381
#     4  11  24  43  65  98 131 163 212 268 315 378
#     4  11  23  42  69  93 129 171 210 260 322 377
#     4  11  23  42  66  95 130 167 212 263 314 377
#     4  11  25  44  63  95 133 165 210 267 319 375
#     4  11  21  41  65  91 128 167 208 265 317 370
#     4  11  23  39  67  97 126 166 216 263 311 378
#     4  11  24  41  64  94 126 165 213 260 317 377
#
# _framework density 20.720390999999999
#
# number of rings (size 3 to 8) (size 9 to 14) (size 15 to 20)
#    0.000    1.000    5.000    3.000    0.000    7.000 
#    0.000    0.000    0.000    0.000    0.000    0.000 
#    0.000    0.000    0.000    0.000    0.000    0.000 
#
# Total GULP energy -198245.185996 kJ/mol
# GULP energy per Si atom -12390.324125 kJ/mol
# Density = 2.067323 g / cm^3
# Si number density = 20.720391 Si / 1000 Ang^3
#
#
#
# Elastic Constant Matrix: (Units=GPa)
#
#
# Indices 1 2 3 4 5 6 
#
# 1 111.4255 35.3395 38.4947 -0.9642 23.9025 -3.1209
# 2 35.3395 105.9201 33.8029 -0.0877 -0.6087 -3.8775
# 3 38.4947 33.8029 117.9444 12.3806 22.5011 -2.2479
# 4 -0.9642 -0.0877 12.3806 31.3884 -3.7037 5.0521
# 5 23.9025 -0.6087 22.5011 -3.7037 47.6093 3.0898
# 6 -3.1209 -3.8775 -2.2479 5.0521 3.0898 19.1586
#
#
#
# Elastic Compliance Matrix: (Units=1/GPa)
#
#
# Indices 1 2 3 4 5 6 
#
# 1 0.011851 -0.003305 -0.001918 0.000206 -0.005188 0.001819
# 2 -0.003305 0.011540 -0.002996 0.001414 0.003298 0.000541
# 3 -0.001918 -0.002996 0.011604 -0.005704 -0.005184 0.002783
# 4 0.000206 0.001414 -0.005704 0.036618 0.006173 -0.011001
# 5 -0.005188 0.003298 -0.005184 0.006173 0.027021 -0.006771
# 6 0.001819 0.000541 0.002783 -0.011001 -0.006771 0.056921
#
#
# Mechanical properties :
#
#
# Convention : Reuss Voigt Hill
#
# Bulk Modulus (GPa) = 53.88846 61.17378 57.53112
# Shear Modulus (GPa) = 28.06187 34.80813 31.43500
#
# Velocity S-wave (km/s) = 3.68409 4.10310 3.89923
# Velocity P-wave (km/s) = 6.64534 7.21352 6.93525
#
# Compressibility (1/GPa) = 0.01855685
#
# Stress axis : x y z
#
# Youngs Moduli (GPa) = 84.38128 86.65683 86.17743
#
# Poissons Ratio (x) = 0.28639 0.16529
# Poissons Ratio (y) = 0.27887 0.25818
# Poissons Ratio (z) = 0.16185 0.25962
#
# Static dielectric constant tensor:
#      x y z
#    x 3.967310 -0.095870 0.350580 
#    y -0.095870 3.640810 0.055780 
#    z 0.350580 0.055780 4.047520 
# 
# 
# High freq. dielectric constant tensor:
#      x y z
#    x 1.815100 -0.012000 0.021240 
#    y -0.012000 1.796730 0.009820 
#    z 0.021240 0.009820 1.833470 
# 
# From -- ./inp_files/188036.got.cif
#   From: 2010.06.25/outbox.cif.g09.slc.cpg/sg2_95_cif.got.tgz:188036.got - 2010.06.27 13:26:56.
