data_PCOD8029510
_publ_section_title
;
Structure prediction by ZEFSAII (Michael W. Deem and Ramdas Pophale) SiO2 
 PCOD8029510
Probable space group: P -1
;
_chemical_formula_sum "Si O2"
_cell_formula_units_Z 16
_cell_length_a 21.157466
_cell_length_b 9.401804
_cell_length_c 17.442844
_cell_angle_alpha 148.925484
_cell_angle_beta 150.520443
_cell_angle_gamma 28.662710
_cell_volume 753.284487
_symmetry_space_group_name_H-M "P -1"
_symmetry_group_IT_number 2
_symmetry_cell_setting 'triclinic'
loop_
_space_group_symop_operation_xyz
x,y,z
-x,-y,-z
loop_
_atom_site_type_symbol
_atom_site_label
_atom_site_fract_x
_atom_site_fract_y
_atom_site_fract_z
Si Si1 0.253206 0.211404 0.732029
Si Si2 0.352337 0.686574 0.104939
Si Si3 0.983980 0.321072 0.598325
Si Si4 0.546105 0.923514 0.692653
Si Si5 0.957577 0.793414 0.912493
Si Si6 0.233710 0.618590 0.212351
Si Si7 0.213245 0.235403 0.533266
Si Si8 0.504789 0.484311 0.664680
O O1 0.161951 0.354751 0.621822
O O2 0.141413 0.263340 0.707067
O O3 0.366505 0.836616 0.664668
O O4 0.345136 0.381490 0.928671
O O5 0.471762 0.575185 0.247968
O O6 0.417975 0.798365 0.157261
O O7 0.190407 0.983807 0.092759
O O8 0.926886 0.564081 0.721574
O O9 0.863130 0.464719 0.467850
O O10 0.000000 0.000000 0.500000
O O11 0.681402 0.645325 0.755282
O O12 0.532110 0.771273 0.528297
O O13 0.393156 0.069869 0.646307
O O14 0.094861 0.589523 0.022199
O O15 0.000000 0.000000 0.000000
O O16 0.342872 0.561993 0.230763
O O17 0.167275 0.976892 0.341749
#
# Coordination Sequence:
#
# PCOD8029510 Si02
#       8
#     2   2   2   2   2   2   2   2
#     4  12  24  43  65  96 134 175 209 264 334 378
#     4  12  26  40  66  99 130 172 218 265 325 376
#     4  12  28  43  68 100 126 169 220 269 325 378
#     4  11  24  41  68 101 124 174 218 266 317 379
#     4  12  22  45  67  89 128 171 215 264 317 387
#     4  11  20  43  72  92 127 177 218 258 322 386
#     4  11  22  45  68  93 138 170 212 266 322 390
#     4  11  21  42  67  93 129 172 218 266 318 386
#
# _framework density 21.240317000000001
#
# number of rings (size 3 to 8) (size 9 to 14) (size 15 to 20)
#    0.000    0.500    6.250    2.625    3.500    2.000 
#    0.000    0.000    0.000    0.000    0.000    0.000 
#    0.000    0.000    0.000    0.000    0.000    0.000 
#
# Total GULP energy -198507.255774 kJ/mol
# GULP energy per Si atom -12406.703486 kJ/mol
# Density = 2.119197 g / cm^3
# Si number density = 21.240317 Si / 1000 Ang^3
#
#
#
# Elastic Constant Matrix: (Units=GPa)
#
#
# Indices 1 2 3 4 5 6 
#
# 1 58.7929 8.1267 20.0864 4.4108 -0.7972 18.0241
# 2 8.1267 86.7078 22.5272 -9.3385 -0.5672 26.9031
# 3 20.0864 22.5272 62.6980 -5.2626 5.7634 12.0257
# 4 4.4108 -9.3385 -5.2626 39.6861 7.9130 -5.6694
# 5 -0.7972 -0.5672 5.7634 7.9130 27.3526 0.6277
# 6 18.0241 26.9031 12.0257 -5.6694 0.6277 43.8344
#
#
#
# Elastic Compliance Matrix: (Units=1/GPa)
#
#
# Indices 1 2 3 4 5 6 
#
# 1 0.022343 0.002056 -0.006889 -0.004994 0.003803 -0.009259
# 2 0.002056 0.015424 -0.004484 0.001301 0.001153 -0.008929
# 3 -0.006889 -0.004484 0.020496 0.003633 -0.005675 0.000513
# 4 -0.004994 0.001301 0.003633 0.029001 -0.009369 0.004143
# 5 0.003803 0.001153 -0.005675 -0.009369 0.040658 -0.002508
# 6 -0.009259 -0.008929 0.000513 0.004143 -0.002508 0.032532
#
#
# Mechanical properties :
#
#
# Convention : Reuss Voigt Hill
#
# Bulk Modulus (GPa) = 25.23558 34.40883 29.82220
# Shear Modulus (GPa) = 26.00123 32.67185 29.33654
#
# Velocity S-wave (km/s) = 3.50257 3.92624 3.72044
# Velocity P-wave (km/s) = 5.31640 6.06538 5.70320
#
# Compressibility (1/GPa) = 0.03962659
#
# Stress axis : x y z
#
# Youngs Moduli (GPa) = 44.75619 64.83583 48.78984
#
# Poissons Ratio (x) = -0.13328 0.33614
# Poissons Ratio (y) = -0.09200 0.21879
# Poissons Ratio (z) = 0.30835 0.29075
#
# Static dielectric constant tensor:
#      x y z
#    x 3.651670 0.055900 0.200800 
#    y 0.055900 3.922950 -0.246500 
#    z 0.200800 -0.246500 3.572320 
# 
# 
# High freq. dielectric constant tensor:
#      x y z
#    x 1.831130 0.002700 -0.009880 
#    y 0.002700 1.843190 -0.009280 
#    z -0.009880 -0.009280 1.829240 
# 
# From -- ./inp_files/206500.got.cif
#   From: 2010.06.25/outbox.cif.g09.slc.cpg/sg2_104_cif.got.tgz:206500.got - 2010.06.27 13:26:56.
