data_PCOD8029374
_publ_section_title
;
Structure prediction by ZEFSAII (Michael W. Deem and Ramdas Pophale) SiO2 
 PCOD8029374
Probable space group: P -1
;
_chemical_formula_sum "Si O2"
_cell_formula_units_Z 16
_cell_length_a 14.893038
_cell_length_b 12.566701
_cell_length_c 9.055302
_cell_angle_alpha 133.881408
_cell_angle_beta 140.328766
_cell_angle_gamma 46.192271
_cell_volume 731.961613
_symmetry_space_group_name_H-M "P -1"
_symmetry_group_IT_number 2
_symmetry_cell_setting 'triclinic'
loop_
_space_group_symop_operation_xyz
x,y,z
-x,-y,-z
loop_
_atom_site_type_symbol
_atom_site_label
_atom_site_fract_x
_atom_site_fract_y
_atom_site_fract_z
Si Si1 0.250271 0.675166 0.432991
Si Si2 0.103624 0.213572 0.888995
Si Si3 0.523380 0.162767 0.644707
Si Si4 0.249917 0.889686 0.878758
Si Si5 0.929383 0.380070 0.362247
Si Si6 0.253304 0.429052 0.419455
Si Si7 0.934794 0.901984 0.580784
Si Si8 0.746850 0.232772 0.780907
O O1 0.283160 0.821175 0.689965
O O2 0.323867 0.522577 0.484395
O O3 0.323291 0.655408 0.342508
O O4 0.071211 0.720614 0.232481
O O5 0.140330 0.132303 0.696374
O O6 0.199732 0.078708 0.994910
O O7 0.165635 0.354160 0.124563
O O8 0.370602 0.303206 0.552391
O O9 0.630334 0.160899 0.638695
O O10 0.500000 0.000000 0.500000
O O11 0.603129 0.199157 0.924983
O O12 0.113648 0.847877 0.734637
O O13 0.859586 0.447167 0.496398
O O14 0.000000 0.500000 0.500000
O O15 0.072893 0.220185 0.418795
O O16 0.809696 0.338987 0.067617
O O17 0.875191 0.080494 0.730529
#
# Coordination Sequence:
#
# PCOD8029374 Si02
#       8
#     2   2   2   2   2   2   2   2
#     4  11  22  41  72 101 129 173 225 293 345 387
#     4  11  20  40  72 104 131 175 223 285 347 397
#     4  12  28  46  67  95 138 198 227 267 337 419
#     4  11  20  44  69  98 132 180 227 272 341 410
#     4  12  27  40  68 111 138 173 219 294 355 390
#     4  12  26  45  66  98 146 181 227 272 340 419
#     4  11  22  42  72 105 133 172 229 291 350 387
#     4  12  25  44  71 102 139 177 231 283 338 408
#
# _framework density 21.859069000000002
#
# number of rings (size 3 to 8) (size 9 to 14) (size 15 to 20)
#    0.000    0.500    7.500    2.250    3.500    2.500 
#    0.000    2.500    0.000    0.000    0.000    0.000 
#    0.000    0.000    0.000    0.000    0.000    0.000 
#
# Total GULP energy -198253.993503 kJ/mol
# GULP energy per Si atom -12390.874594 kJ/mol
# Density = 2.180932 g / cm^3
# Si number density = 21.859069 Si / 1000 Ang^3
#
#
#
# Elastic Constant Matrix: (Units=GPa)
#
#
# Indices 1 2 3 4 5 6 
#
# 1 86.2091 25.6497 36.9292 12.9020 -0.1254 33.7804
# 2 25.6497 112.7774 26.3363 1.9341 -1.2876 29.4798
# 3 36.9292 26.3363 113.3009 13.7330 -7.3661 1.5898
# 4 12.9020 1.9341 13.7330 42.1085 0.6092 -1.2026
# 5 -0.1254 -1.2876 -7.3661 0.6092 19.9149 -1.2005
# 6 33.7804 29.4798 1.5898 -1.2026 -1.2005 36.9660
#
#
#
# Elastic Compliance Matrix: (Units=1/GPa)
#
#
# Indices 1 2 3 4 5 6 
#
# 1 0.024734 0.002751 -0.007907 -0.005777 -0.003908 -0.024770
# 2 0.002751 0.012263 -0.003588 -0.000567 -0.001235 -0.012198
# 3 -0.007907 -0.003588 0.012586 -0.001313 0.004996 0.009665
# 4 -0.005777 -0.000567 -0.001313 0.026175 -0.000961 0.006608
# 5 -0.003908 -0.001235 0.004996 -0.000961 0.052349 0.006010
# 6 -0.024770 -0.012198 0.009665 0.006608 0.006010 0.059410
#
#
# Mechanical properties :
#
#
# Convention : Reuss Voigt Hill
#
# Bulk Modulus (GPa) = 31.15841 54.45753 42.80797
# Shear Modulus (GPa) = 23.18010 34.68938 28.93474
#
# Velocity S-wave (km/s) = 3.25996 3.98798 3.64221
# Velocity P-wave (km/s) = 5.33432 6.79503 6.10850
#
# Compressibility (1/GPa) = 0.03209406
#
# Stress axis : x y z
#
# Youngs Moduli (GPa) = 40.43097 81.54441 79.45560
#
# Poissons Ratio (x) = -0.22430 0.62828
# Poissons Ratio (y) = -0.11121 0.28505
# Poissons Ratio (z) = 0.31970 0.29254
#
# Static dielectric constant tensor:
#      x y z
#    x 3.854120 0.356340 -0.153600 
#    y 0.356340 4.281570 0.088180 
#    z -0.153600 0.088180 4.008510 
# 
# 
# High freq. dielectric constant tensor:
#      x y z
#    x 1.833160 0.030280 -0.017840 
#    y 0.030280 1.877530 0.005690 
#    z -0.017840 0.005690 1.862490 
# 
# From -- ./inp_files/308653.got.cif
#   From: 2010.06.25/outbox.cif.g09.slc.cpg/sg2_155_cif.got.tgz:308653.got - 2010.06.27 13:26:56.
