data_PCOD8029938
_publ_section_title
;
Structure prediction by ZEFSAII (Michael W. Deem and Ramdas Pophale) SiO2 
 PCOD8029938
Probable space group: P -1
;
_chemical_formula_sum "Si O2"
_cell_formula_units_Z 14
_cell_length_a 7.965994
_cell_length_b 9.391276
_cell_length_c 11.995806
_cell_angle_alpha 78.843972
_cell_angle_beta 139.612384
_cell_angle_gamma 101.516696
_cell_volume 568.565248
_symmetry_space_group_name_H-M "P -1"
_symmetry_group_IT_number 2
_symmetry_cell_setting 'triclinic'
loop_
_space_group_symop_operation_xyz
x,y,z
-x,-y,-z
loop_
_atom_site_type_symbol
_atom_site_label
_atom_site_fract_x
_atom_site_fract_y
_atom_site_fract_z
Si Si1 0.945252 0.527068 0.842992
Si Si2 0.668983 0.141648 0.261977
Si Si3 0.764038 0.027868 0.797890
Si Si4 0.082990 0.169014 0.295787
Si Si5 0.943970 0.344064 0.549386
Si Si6 0.389520 0.680756 0.406404
Si Si7 0.318434 0.353576 0.926186
O O1 0.068004 0.401560 0.854970
O O2 0.049680 0.694196 0.848429
O O3 0.647441 0.474740 0.660328
O O4 0.000000 0.500000 0.000000
O O5 0.869013 0.234783 0.427823
O O6 0.862513 0.082125 0.274477
O O7 0.512849 0.017192 0.274712
O O8 0.452036 0.227860 0.076925
O O9 0.782889 0.196609 0.752966
O O10 0.795572 0.937124 0.713861
O O11 0.000000 0.000000 0.000000
O O12 0.315863 0.252176 0.470359
O O13 0.692387 0.339799 0.502735
O O14 0.000000 0.500000 0.500000
O O15 0.208931 0.304860 0.755160
O O16 0.500000 0.500000 0.000000
#
# Coordination Sequence:
#
# PCOD8029938 Si02
#       7
#     2   2   2   2   2   2   2
#     4  11  23  41  71 105 139 189 236 301 361 417
#     4  12  25  46  75 105 143 195 241 299 362 429
#     4  12  27  52  74  99 151 197 233 301 370 426
#     4  12  25  45  74 108 140 181 253 294 352 443
#     4  11  22  41  73 102 141 195 228 294 374 414
#     4  11  25  47  69 103 151 186 240 299 357 441
#     4  11  21  41  65 103 150 177 237 296 356 428
#
# _framework density 24.623384000000001
#
# number of rings (size 3 to 8) (size 9 to 14) (size 15 to 20)
#    0.000    0.571    4.286    5.143    0.000    2.286 
#    2.571    0.000    0.000    0.000    0.000    0.000 
#    0.000    0.000    0.000    0.000    0.000    0.000 
#
# Total GULP energy -173487.991089 kJ/mol
# GULP energy per Si atom -12391.999363 kJ/mol
# Density = 2.456734 g / cm^3
# Si number density = 24.623384 Si / 1000 Ang^3
#
#
#
# Elastic Constant Matrix: (Units=GPa)
#
#
# Indices 1 2 3 4 5 6 
#
# 1 141.8361 35.4380 12.2869 -3.6184 -3.0376 23.8893
# 2 35.4380 75.9734 -14.7155 5.7555 -9.3505 22.5961
# 3 12.2869 -14.7155 108.3739 16.5993 -12.1753 1.2288
# 4 -3.6184 5.7555 16.5993 38.0837 4.9595 2.2763
# 5 -3.0376 -9.3505 -12.1753 4.9595 36.2171 0.0011
# 6 23.8893 22.5961 1.2288 2.2763 0.0011 31.4316
#
#
#
# Elastic Compliance Matrix: (Units=1/GPa)
#
#
# Indices 1 2 3 4 5 6 
#
# 1 0.008889 -0.003616 -0.001998 0.002677 -0.001226 -0.004272
# 2 -0.003616 0.020799 0.005146 -0.006007 0.007619 -0.011970
# 3 -0.001998 0.005146 0.011907 -0.006823 0.006098 -0.002152
# 4 0.002677 -0.006007 -0.006823 0.031409 -0.007921 0.000276
# 5 -0.001226 0.007619 0.006098 -0.007921 0.032610 -0.004211
# 6 -0.004272 -0.011970 -0.002152 0.000276 -0.004211 0.043731
#
#
# Mechanical properties :
#
#
# Convention : Reuss Voigt Hill
#
# Bulk Modulus (GPa) = 24.59560 43.57801 34.08681
# Shear Modulus (GPa) = 30.51841 40.69141 35.60491
#
# Velocity S-wave (km/s) = 3.52434 4.06957 3.80673
# Velocity P-wave (km/s) = 5.15478 6.31016 5.76150
#
# Compressibility (1/GPa) = 0.04065767
#
# Stress axis : x y z
#
# Youngs Moduli (GPa) = 112.50452 48.07887 83.98304
#
# Poissons Ratio (x) = 0.17387 0.16781
# Poissons Ratio (y) = 0.40686 -0.43217
# Poissons Ratio (z) = 0.22480 -0.24741
#
# Static dielectric constant tensor:
#      x y z
#    x 4.537820 0.144770 -0.106070 
#    y 0.144770 5.911890 1.096430 
#    z -0.106070 1.096430 5.409740 
# 
# 
# High freq. dielectric constant tensor:
#      x y z
#    x 1.977680 0.020820 0.007560 
#    y 0.020820 1.981960 0.001510 
#    z 0.007560 0.001510 2.002420 
# 
# From -- ./inp_files/382151.got.cif
#   From: 2010.06.25/outbox.cif.g09.slc.cpg/sg2_192_cif.got.tgz:382151.got - 2010.06.27 13:26:56.
