data_PCOD8029790
_publ_section_title
;
Structure prediction by ZEFSAII (Michael W. Deem and Ramdas Pophale) SiO2 
 PCOD8029790
Probable space group: P -1
;
_chemical_formula_sum "Si O2"
_cell_formula_units_Z 16
_cell_length_a 22.980218
_cell_length_b 9.401603
_cell_length_c 20.083806
_cell_angle_alpha 30.395614
_cell_angle_beta 160.832225
_cell_angle_gamma 147.892137
_cell_volume 707.076725
_symmetry_space_group_name_H-M "P -1"
_symmetry_group_IT_number 2
_symmetry_cell_setting 'triclinic'
loop_
_space_group_symop_operation_xyz
x,y,z
-x,-y,-z
loop_
_atom_site_type_symbol
_atom_site_label
_atom_site_fract_x
_atom_site_fract_y
_atom_site_fract_z
Si Si1 0.064197 0.781976 0.605899
Si Si2 0.186876 0.755000 0.485882
Si Si3 0.201517 0.684651 0.036078
Si Si4 0.544703 0.002922 0.712055
Si Si5 0.325135 0.363065 0.095334
Si Si6 0.514411 0.491927 0.381019
Si Si7 0.132339 0.060191 0.435146
Si Si8 0.000863 0.942310 0.946262
O O1 0.880954 0.587482 0.455805
O O2 0.185676 0.933157 0.614239
O O3 0.198709 0.599492 0.860423
O O4 0.000000 0.000000 0.500000
O O5 0.399642 0.889902 0.659039
O O6 0.107784 0.840958 0.435410
O O7 0.111179 0.861635 0.293242
O O8 0.368607 0.683673 0.167561
O O9 0.074404 0.375950 0.030530
O O10 0.278935 0.800860 0.144273
O O11 0.065168 0.879268 0.784701
O O12 0.577087 0.696040 0.843398
O O13 0.475805 0.205194 0.500415
O O14 0.477277 0.425691 0.290473
O O15 0.210036 0.040975 0.113181
O O16 0.719169 0.664202 0.537978
O O17 0.000000 0.000000 0.000000
#
# Coordination Sequence:
#
# PCOD8029790 Si02
#       8
#     2   2   2   2   2   2   2   2
#     4  11  27  50  73  98 136 189 247 296 346 413
#     4  11  24  45  70 100 144 183 234 293 345 418
#     4  12  23  43  70 105 145 184 228 279 357 424
#     4  12  24  44  69 110 144 180 228 291 357 427
#     4  11  25  44  69 103 138 187 236 289 357 414
#     4  12  24  44  72 109 148 176 230 290 355 430
#     4  12  27  46  73 103 144 192 237 291 348 412
#     4  11  21  39  69 101 143 182 226 283 356 421
#
# _framework density 22.62838
#
# number of rings (size 3 to 8) (size 9 to 14) (size 15 to 20)
#    0.000    0.500    3.750    4.875    3.500    2.000 
#    2.250    1.250    0.000    0.000    0.000    0.000 
#    0.000    0.000    0.000    0.000    0.000    0.000 
#
# Total GULP energy -198286.715170 kJ/mol
# GULP energy per Si atom -12392.919698 kJ/mol
# Density = 2.257688 g / cm^3
# Si number density = 22.628380 Si / 1000 Ang^3
#
#
#
# Elastic Constant Matrix: (Units=GPa)
#
#
# Indices 1 2 3 4 5 6 
#
# 1 111.7315 38.9535 34.2309 -7.5628 9.4749 -13.2723
# 2 38.9535 122.6411 36.7875 -0.6404 7.6348 -17.6260
# 3 34.2309 36.7875 79.0013 7.3689 7.9064 -16.3783
# 4 -7.5628 -0.6404 7.3689 29.1169 -2.4064 2.4759
# 5 9.4749 7.6348 7.9064 -2.4064 31.3164 -2.7759
# 6 -13.2723 -17.6260 -16.3783 2.4759 -2.7759 45.6734
#
#
#
# Elastic Compliance Matrix: (Units=1/GPa)
#
#
# Indices 1 2 3 4 5 6 
#
# 1 0.011404 -0.002214 -0.003946 0.003719 -0.001562 0.000748
# 2 -0.002214 0.010193 -0.003309 0.000248 -0.000780 0.002043
# 3 -0.003946 -0.003309 0.017573 -0.006100 -0.002546 0.004054
# 4 0.003719 0.000248 -0.006100 0.037348 0.002971 -0.002855
# 5 -0.001562 -0.000780 -0.002546 0.002971 0.033484 0.000206
# 6 0.000748 0.002043 0.004054 -0.002855 0.000206 0.024521
#
#
# Mechanical properties :
#
#
# Convention : Reuss Voigt Hill
#
# Bulk Modulus (GPa) = 49.42613 59.25753 54.34183
# Shear Modulus (GPa) = 31.21016 34.78148 32.99582
#
# Velocity S-wave (km/s) = 3.71785 3.92481 3.82273
# Velocity P-wave (km/s) = 6.34979 6.83980 6.59935
#
# Compressibility (1/GPa) = 0.02023221
#
# Stress axis : x y z
#
# Youngs Moduli (GPa) = 87.68901 98.10558 56.90708
#
# Poissons Ratio (x) = 0.21725 0.22453
# Poissons Ratio (y) = 0.19418 0.18828
# Poissons Ratio (z) = 0.34599 0.32459
#
# Static dielectric constant tensor:
#      x y z
#    x 4.068590 0.050380 -0.040930 
#    y 0.050380 4.390520 0.249850 
#    z -0.040930 0.249850 3.580720 
# 
# 
# High freq. dielectric constant tensor:
#      x y z
#    x 1.898670 -0.011300 0.006330 
#    y -0.011300 1.900640 0.013720 
#    z 0.006330 0.013720 1.882820 
# 
# From -- ./inp_files/455650.got.cif
#   From: 2010.06.25/outbox.cif.g09.slc.cpg/sg2_228_cif.got.tgz:455650.got - 2010.06.27 13:26:56.
