data_PCOD8029135
_publ_section_title
;
Structure prediction by ZEFSAII (Michael W. Deem and Ramdas Pophale) SiO2 
 PCOD8029135
Probable space group: P -1
;
_chemical_formula_sum "Si O2"
_cell_formula_units_Z 12
_cell_length_a 23.082725
_cell_length_b 9.392366
_cell_length_c 9.305833
_cell_angle_alpha 138.613740
_cell_angle_beta 153.813073
_cell_angle_gamma 31.394419
_cell_volume 462.712633
_symmetry_space_group_name_H-M "P -1"
_symmetry_group_IT_number 2
_symmetry_cell_setting 'triclinic'
loop_
_space_group_symop_operation_xyz
x,y,z
-x,-y,-z
loop_
_atom_site_type_symbol
_atom_site_label
_atom_site_fract_x
_atom_site_fract_y
_atom_site_fract_z
Si Si1 0.054376 0.135232 0.119734
Si Si2 0.763649 0.297413 0.426541
Si Si3 0.424401 0.269586 0.445513
Si Si4 0.382710 0.861432 0.498961
Si Si5 0.226281 0.150897 0.762837
Si Si6 0.417368 0.311302 0.927969
O O1 0.217571 0.901628 0.212422
O O2 0.097499 0.289929 0.445037
O O3 0.908665 0.318867 0.817031
O O4 0.000000 0.000000 0.000000
O O5 0.611701 0.494991 0.350813
O O6 0.822565 0.989140 0.337737
O O7 0.711140 0.405590 0.229549
O O8 0.562244 0.223303 0.607737
O O9 0.500000 0.000000 0.500000
O O10 0.250748 0.359363 0.051203
O O11 0.335320 0.159709 0.651156
O O12 0.541130 0.628072 0.776153
O O13 0.410636 0.901422 0.932615
#
# Coordination Sequence:
#
# PCOD8029135 Si02
#       6
#     2   2   2   2   2   2
#     4   9  20  37  59  84 117 159 185 234 298 343
#     4  11  20  35  64  87 111 156 198 225 293 348
#     4  11  21  36  61  91 110 151 198 242 280 336
#     4   9  18  36  56  82 122 146 190 245 283 336
#     4   9  19  37  57  82 122 147 187 242 285 333
#     4   9  17  32  57  83 108 155 189 230 288 334
#
# _framework density 25.934021999999999
#
# number of rings (size 3 to 8) (size 9 to 14) (size 15 to 20)
#    0.000    2.333    3.333    1.500    0.000    1.333 
#    0.000    7.500    0.000    8.000    0.000    0.000 
#    0.000    0.000    0.000    0.000    0.000    0.000 
#
# Total GULP energy -148696.831464 kJ/mol
# GULP energy per Si atom -12391.402622 kJ/mol
# Density = 2.587500 g / cm^3
# Si number density = 25.934022 Si / 1000 Ang^3
#
#
#
# Elastic Constant Matrix: (Units=GPa)
#
#
# Indices 1 2 3 4 5 6 
#
# 1 145.2582 22.4593 48.1076 -10.1401 -3.3813 21.1970
# 2 22.4593 30.4577 5.7398 3.6839 -8.2774 26.6725
# 3 48.1076 5.7398 115.8637 -7.3611 -13.5477 18.4538
# 4 -10.1401 3.6839 -7.3611 33.2051 11.3227 -11.8059
# 5 -3.3813 -8.2774 -13.5477 11.3227 43.7986 -1.4419
# 6 21.1970 26.6725 18.4538 -11.8059 -1.4419 33.6040
#
#
#
# Elastic Compliance Matrix: (Units=1/GPa)
#
#
# Indices 1 2 3 4 5 6 
#
# 1 0.005333 0.034105 0.002227 -0.018928 0.011194 -0.037827
# 2 0.034105 -0.377970 -0.057573 0.219958 -0.130902 0.381769
# 3 0.002227 -0.057573 0.002099 0.032332 -0.016647 0.053784
# 4 -0.018928 0.219958 0.032332 -0.089927 0.066471 -0.209145
# 5 0.011194 -0.130902 -0.016647 0.066471 -0.019145 0.128513
# 6 -0.037827 0.381769 0.053784 -0.209145 0.128513 -0.346902
#
#
# Mechanical properties :
#
#
# Convention : Reuss Voigt Hill
#
# Bulk Modulus (GPa) = -2.42120 49.35477 23.46678
# Shear Modulus (GPa) = -5.42474 36.47308 15.52417
#
# Velocity S-wave (km/s) = -1.44786 3.75424 2.44929
# Velocity P-wave (km/s) = 1.93150 6.15343 4.13122
#
# Compressibility (1/GPa) = -0.41301879
#
# Stress axis : x y z
#
# Youngs Moduli (GPa) = 187.52788 -2.64571 476.32675
#
# Poissons Ratio (x) = 0.09023 -1.06099
# Poissons Ratio (y) = -6.39570 27.42365
# Poissons Ratio (z) = -0.41771 -0.15232
#
# Static dielectric constant tensor:
#      x y z
#    x 4.686220 0.149260 -0.389830 
#    y 0.149260 4.559680 0.422520 
#    z -0.389830 0.422520 6.336410 
# 
# 
# High freq. dielectric constant tensor:
#      x y z
#    x 2.026380 0.019350 -0.008330 
#    y 0.019350 2.006520 0.012500 
#    z -0.008330 0.012500 2.055900 
# 
# From -- ./inp_files/153632.got.cif
#   From: 2010.06.25/outbox.cif.g09.slc.cpg/sg2_77_cif.got.tgz:153632.got - 2010.06.27 13:26:56.
