data_PCOD8029609
_publ_section_title
;
Structure prediction by ZEFSAII (Michael W. Deem and Ramdas Pophale) SiO2 
 PCOD8029609
Probable space group: P -1
;
_chemical_formula_sum "Si O2"
_cell_formula_units_Z 10
_cell_length_a 26.358101
_cell_length_b 7.623605
_cell_length_c 18.601196
_cell_angle_alpha 146.713796
_cell_angle_beta 165.259141
_cell_angle_gamma 32.174591
_cell_volume 502.268831
_symmetry_space_group_name_H-M "P -1"
_symmetry_group_IT_number 2
_symmetry_cell_setting 'triclinic'
loop_
_space_group_symop_operation_xyz
x,y,z
-x,-y,-z
loop_
_atom_site_type_symbol
_atom_site_label
_atom_site_fract_x
_atom_site_fract_y
_atom_site_fract_z
Si Si1 0.101840 0.948432 0.322917
Si Si2 0.671680 0.647672 0.319633
Si Si3 0.779859 0.767451 0.732299
Si Si4 0.459604 0.146101 0.321196
Si Si5 0.016978 0.707721 0.265030
O O1 0.231405 0.562196 0.351029
O O2 0.068115 0.983790 0.375626
O O3 0.217826 0.211917 0.545766
O O4 0.878623 0.009174 0.997946
O O5 0.837813 0.346907 0.484283
O O6 0.571228 0.946681 0.337440
O O7 0.500000 0.500000 0.000000
O O8 0.932569 0.642030 0.829559
O O9 0.551366 0.960564 0.457718
O O10 0.500000 0.500000 0.500000
O O11 0.219090 0.172938 0.993668
#
# Coordination Sequence:
#
# PCOD8029609 Si02
#       5
#     2   2   2   2   2
#     4   9  18  39  59  82 120 154 185 238 290 346
#     4  11  24  41  58  83 120 159 190 234 291 341
#     4   8  18  36  58  87 119 145 187 238 297 331
#     4  11  21  36  63  91 115 147 196 243 284 340
#     4   9  20  38  56  85 116 149 196 233 284 338
#
# _framework density 19.909659000000001
#
# number of rings (size 3 to 8) (size 9 to 14) (size 15 to 20)
#    1.200    1.200    0.000    2.400    0.000    5.600 
#    3.600    1.000    0.000    0.000    0.000    0.000 
#    0.000    0.000    0.000    0.000    0.000    0.000 
#
# Total GULP energy -123908.302012 kJ/mol
# GULP energy per Si atom -12390.830201 kJ/mol
# Density = 1.986434 g / cm^3
# Si number density = 19.909659 Si / 1000 Ang^3
#
#
#
# Elastic Constant Matrix: (Units=GPa)
#
#
# Indices 1 2 3 4 5 6 
#
# 1 99.3516 30.7155 61.1423 -1.8555 3.5111 32.4421
# 2 30.7155 45.4552 43.3780 -9.5108 -9.3814 9.5642
# 3 61.1423 43.3780 142.2297 -14.2105 -9.1813 27.4037
# 4 -1.8555 -9.5108 -14.2105 41.4958 6.0082 1.9263
# 5 3.5111 -9.3814 -9.1813 6.0082 32.4081 -3.4312
# 6 32.4421 9.5642 27.4037 1.9263 -3.4312 26.0371
#
#
#
# Elastic Compliance Matrix: (Units=1/GPa)
#
#
# Indices 1 2 3 4 5 6 
#
# 1 0.022411 -0.009241 -0.003017 0.000104 -0.008355 -0.022463
# 2 -0.009241 0.036775 -0.007604 0.003705 0.009546 0.006993
# 3 -0.003017 -0.007604 0.012153 0.002518 0.000428 -0.006369
# 4 0.000104 0.003705 0.002518 0.026683 -0.003874 -0.006624
# 5 -0.008355 0.009546 0.000428 -0.003874 0.036589 0.011563
# 6 -0.022463 0.006993 -0.006369 -0.006624 0.011563 0.072544
#
#
# Mechanical properties :
#
#
# Convention : Reuss Voigt Hill
#
# Bulk Modulus (GPa) = 31.63080 61.94536 46.78808
# Shear Modulus (GPa) = 19.42370 30.10825 24.76597
#
# Velocity S-wave (km/s) = 3.12684 3.89298 3.53075
# Velocity P-wave (km/s) = 5.38124 7.16853 6.33820
#
# Compressibility (1/GPa) = 0.03161476
#
# Stress axis : x y z
#
# Youngs Moduli (GPa) = 44.62071 27.19247 82.28309
#
# Poissons Ratio (x) = 0.25129 0.24822
# Poissons Ratio (y) = 0.41235 0.62570
# Poissons Ratio (z) = 0.13461 0.20678
#
# Static dielectric constant tensor:
#      x y z
#    x 4.272870 0.216250 -0.172840 
#    y 0.216250 3.390010 -0.286970 
#    z -0.172840 -0.286970 3.455420 
# 
# 
# High freq. dielectric constant tensor:
#      x y z
#    x 1.773810 0.021840 -0.010480 
#    y 0.021840 1.747770 -0.023780 
#    z -0.010480 -0.023780 1.768190 
# 
# From -- ./inp_files/17014.got.cif
#   From: 2010.06.25/outbox.cif.g09.slc.cpg/sg2_9_cif.got.tgz:17014.got - 2010.06.27 13:26:56.
