data_PCOD8029611
_publ_section_title
;
Structure prediction by ZEFSAII (Michael W. Deem and Ramdas Pophale) SiO2 
 PCOD8029611
Probable space group: P -1
;
_chemical_formula_sum "Si O2"
_cell_formula_units_Z 16
_cell_length_a 12.383495
_cell_length_b 16.791574
_cell_length_c 6.354500
_cell_angle_alpha 105.984286
_cell_angle_beta 134.691516
_cell_angle_gamma 52.077454
_cell_volume 711.418211
_symmetry_space_group_name_H-M "P -1"
_symmetry_group_IT_number 2
_symmetry_cell_setting 'triclinic'
loop_
_space_group_symop_operation_xyz
x,y,z
-x,-y,-z
loop_
_atom_site_type_symbol
_atom_site_label
_atom_site_fract_x
_atom_site_fract_y
_atom_site_fract_z
Si Si1 0.936483 0.298052 0.745230
Si Si2 0.673064 0.821587 0.050334
Si Si3 0.691163 0.984917 0.408977
Si Si4 0.204304 0.911307 0.631696
Si Si5 0.942241 0.462077 0.085844
Si Si6 0.673474 0.279126 0.083230
Si Si7 0.079245 0.838112 0.057009
Si Si8 0.295447 0.353896 0.789511
O O1 0.767987 0.319959 0.380812
O O2 0.123017 0.262275 0.841521
O O3 0.996177 0.207858 0.925594
O O4 0.858036 0.404697 0.837043
O O5 0.693553 0.886578 0.301163
O O6 0.611768 0.757101 0.041071
O O7 0.516035 0.907018 0.718923
O O8 0.883127 0.944209 0.770949
O O9 0.694109 0.033816 0.223280
O O10 0.297874 0.823491 0.871567
O O11 0.196464 0.868095 0.363710
O O12 0.000000 0.000000 0.500000
O O13 0.124738 0.380154 0.424592
O O14 0.775963 0.559730 0.065736
O O15 0.000000 0.500000 0.000000
O O16 0.768049 0.252764 0.963833
O O17 0.441115 0.359808 0.846230
#
# Coordination Sequence:
#
# PCOD8029611 Si02
#       8
#     2   2   2   2   2   2   2   2
#     4  11  24  44  69  98 136 177 222 285 334 398
#     4  11  22  41  67  96 139 174 224 278 323 397
#     4  11  21  36  63  98 134 180 223 264 322 395
#     4  11  21  39  60  95 138 179 225 273 323 392
#     4  11  25  46  75  99 132 169 221 285 353 403
#     4  11  24  42  69  96 139 176 222 278 332 402
#     4  11  23  40  65  96 138 184 218 270 338 387
#     4  11  25  46  71 102 130 175 226 280 343 405
#
# _framework density 22.490286000000001
#
# number of rings (size 3 to 8) (size 9 to 14) (size 15 to 20)
#    0.000    1.000    5.000    1.875    0.000    4.000 
#    0.000    1.250    0.000    0.000    0.000    0.000 
#    0.000    0.000    0.000    0.000    0.000    0.000 
#
# Total GULP energy -198257.320082 kJ/mol
# GULP energy per Si atom -12391.082505 kJ/mol
# Density = 2.243910 g / cm^3
# Si number density = 22.490286 Si / 1000 Ang^3
#
#
#
# Elastic Constant Matrix: (Units=GPa)
#
#
# Indices 1 2 3 4 5 6 
#
# 1 78.5641 13.4002 22.9007 15.1612 11.1479 -6.9761
# 2 13.4002 96.5999 29.2006 14.1382 1.1951 -2.5153
# 3 22.9007 29.2006 49.5878 9.3829 -4.0694 -12.4602
# 4 15.1612 14.1382 9.3829 30.2688 0.6996 1.8925
# 5 11.1479 1.1951 -4.0694 0.6996 32.3314 -2.9603
# 6 -6.9761 -2.5153 -12.4602 1.8925 -2.9603 35.4137
#
#
#
# Elastic Compliance Matrix: (Units=1/GPa)
#
#
# Indices 1 2 3 4 5 6 
#
# 1 0.017036 0.000994 -0.007637 -0.006509 -0.006683 0.000529
# 2 0.000994 0.013218 -0.008049 -0.004030 -0.001908 -0.001642
# 3 -0.007637 -0.008049 0.032238 -0.003225 0.007984 0.010106
# 4 -0.006509 -0.004030 -0.003225 0.039461 0.000698 -0.004753
# 5 -0.006683 -0.001908 0.007984 0.000698 0.034681 0.004219
# 6 0.000529 -0.001642 0.010106 -0.004753 0.004219 0.032388
#
#
# Mechanical properties :
#
#
# Convention : Reuss Voigt Hill
#
# Bulk Modulus (GPa) = 30.20417 39.52829 34.86623
# Shear Modulus (GPa) = 23.87299 30.21947 27.04623
#
# Velocity S-wave (km/s) = 3.26157 3.66958 3.47158
# Velocity P-wave (km/s) = 5.25764 5.96392 5.62188
#
# Compressibility (1/GPa) = 0.03310801
#
# Stress axis : x y z
#
# Youngs Moduli (GPa) = 58.69802 75.65499 31.01916
#
# Poissons Ratio (x) = -0.07524 0.23690
# Poissons Ratio (y) = -0.05837 0.24968
# Poissons Ratio (z) = 0.44830 0.60897
#
# Static dielectric constant tensor:
#      x y z
#    x 4.126190 -0.059830 -0.061420 
#    y -0.059830 4.227970 -0.002190 
#    z -0.061420 -0.002190 3.745170 
# 
# 
# High freq. dielectric constant tensor:
#      x y z
#    x 1.896700 0.001170 0.014190 
#    y 0.001170 1.890300 -0.000830 
#    z 0.014190 -0.000830 1.873210 
# 
# From -- ./inp_files/81536.got.cif
#   From: 2010.06.25/outbox.cif.g09.slc.cpg/sg2_41_cif.got.tgz:81536.got - 2010.06.27 13:26:56.
