data_PCOD8029498
_publ_section_title
;
Structure prediction by ZEFSAII (Michael W. Deem and Ramdas Pophale) SiO2 
 PCOD8029498
Probable space group: P -1
;
_chemical_formula_sum "Si O2"
_cell_formula_units_Z 16
_cell_length_a 10.668650
_cell_length_b 13.239336
_cell_length_c 9.131448
_cell_angle_alpha 100.307414
_cell_angle_beta 90.395396
_cell_angle_gamma 145.691315
_cell_volume 686.859687
_symmetry_space_group_name_H-M "P -1"
_symmetry_group_IT_number 2
_symmetry_cell_setting 'triclinic'
loop_
_space_group_symop_operation_xyz
x,y,z
-x,-y,-z
loop_
_atom_site_type_symbol
_atom_site_label
_atom_site_fract_x
_atom_site_fract_y
_atom_site_fract_z
Si Si1 0.028763 0.135315 0.575057
Si Si2 0.534547 0.584784 0.169953
Si Si3 0.255038 0.414217 0.385553
Si Si4 0.212389 0.831559 0.702531
Si Si5 0.783661 0.295150 0.600756
Si Si6 0.534522 0.778665 0.590137
Si Si7 0.293420 0.686629 0.814374
Si Si8 0.537897 0.224584 0.844813
O O1 0.205834 0.266867 0.744685
O O2 0.118599 0.255753 0.464674
O O3 0.000000 0.000000 0.500000
O O4 0.772296 0.993525 0.589797
O O5 0.350460 0.416623 0.246336
O O6 0.496049 0.682088 0.185137
O O7 0.500000 0.500000 0.000000
O O8 0.492869 0.630646 0.505997
O O9 0.063619 0.364613 0.317575
O O10 0.261667 0.840447 0.530932
O O11 0.328894 0.831155 0.815339
O O12 0.287819 0.998339 0.797823
O O13 0.693808 0.321823 0.499301
O O14 0.651454 0.220327 0.732691
O O15 0.054170 0.483188 0.689710
O O16 0.508107 0.771973 0.763758
O O17 0.306248 0.670958 0.981869
#
# Coordination Sequence:
#
# PCOD8029498 Si02
#       8
#     2   2   2   2   2   2   2   2
#     4  12  26  45  74 102 129 187 248 297 346 404
#     4  12  29  49  69 102 143 189 240 297 358 405
#     4  12  23  46  76 100 142 182 234 296 348 419
#     4  11  22  41  71 105 143 187 228 285 354 425
#     4  11  20  43  69 104 141 185 228 280 351 433
#     4  11  22  44  72 105 138 178 241 285 343 427
#     4  11  23  41  69 106 147 187 224 280 364 429
#     4  12  25  43  66 107 148 185 238 289 347 429
#
# _framework density 23.294422000000001
#
# number of rings (size 3 to 8) (size 9 to 14) (size 15 to 20)
#    0.000    0.500    5.000    3.750    1.750    2.000 
#    0.000    4.375    0.000    0.000    0.000    0.000 
#    0.000    0.000    0.000    0.000    0.000    0.000 
#
# Total GULP energy -198213.980414 kJ/mol
# GULP energy per Si atom -12388.373776 kJ/mol
# Density = 2.324140 g / cm^3
# Si number density = 23.294422 Si / 1000 Ang^3
#
#
#
# Elastic Constant Matrix: (Units=GPa)
#
#
# Indices 1 2 3 4 5 6 
#
# 1 60.6173 33.2916 30.4183 3.5307 -6.8114 11.6168
# 2 33.2916 112.8237 38.9973 5.0572 1.6604 7.1920
# 3 30.4183 38.9973 125.4858 2.7534 -1.3702 11.9211
# 4 3.5307 5.0572 2.7534 30.9239 0.7485 -1.5313
# 5 -6.8114 1.6604 -1.3702 0.7485 34.2913 0.1702
# 6 11.6168 7.1920 11.9211 -1.5313 0.1702 37.1108
#
#
#
# Elastic Compliance Matrix: (Units=1/GPa)
#
#
# Indices 1 2 3 4 5 6 
#
# 1 0.022612 -0.005197 -0.003290 -0.001805 0.004677 -0.005110
# 2 -0.005197 0.011231 -0.002240 -0.000997 -0.001645 0.000136
# 3 -0.003290 -0.002240 0.009620 -0.000192 -0.000148 -0.001634
# 4 -0.001805 -0.000997 -0.000192 0.032857 -0.001046 0.002181
# 5 0.004677 -0.001645 -0.000148 -0.001046 0.030194 -0.001279
# 6 -0.005110 0.000136 -0.001634 0.002181 -0.001279 0.029140
#
#
# Mechanical properties :
#
#
# Convention : Reuss Voigt Hill
#
# Bulk Modulus (GPa) = 45.43348 56.03792 50.73570
# Shear Modulus (GPa) = 30.40526 33.54650 31.97588
#
# Velocity S-wave (km/s) = 3.61676 3.79899 3.70899
# Velocity P-wave (km/s) = 6.08174 6.58420 6.33795
#
# Compressibility (1/GPa) = 0.02201020
#
# Stress axis : x y z
#
# Youngs Moduli (GPa) = 44.22384 89.03675 103.94678
#
# Poissons Ratio (x) = 0.46275 0.34198
# Poissons Ratio (y) = 0.22985 0.23279
# Poissons Ratio (z) = 0.14550 0.19940
#
# Static dielectric constant tensor:
#      x y z
#    x 4.165280 0.104570 -0.101670 
#    y 0.104570 4.470360 -0.091770 
#    z -0.101670 -0.091770 4.227120 
# 
# 
# High freq. dielectric constant tensor:
#      x y z
#    x 1.920260 0.010490 -0.002830 
#    y 0.010490 1.927510 -0.001290 
#    z -0.002830 -0.001290 1.915770 
# 
# From -- ./inp_files/273415.got.cif
#   From: 2010.06.25/outbox.cif.g09.slc.cpg/sg2_137_cif.got.tgz:273415.got - 2010.06.27 13:26:56.
