data_PCOD8029216
_publ_section_title
;
Structure prediction by ZEFSAII (Michael W. Deem and Ramdas Pophale) SiO2 
 PCOD8029216
Probable space group: P -1
;
_chemical_formula_sum "Si O2"
_cell_formula_units_Z 16
_cell_length_a 8.759920
_cell_length_b 22.878786
_cell_length_c 16.505988
_cell_angle_alpha 24.293891
_cell_angle_beta 143.007987
_cell_angle_gamma 145.605187
_cell_volume 753.185799
_symmetry_space_group_name_H-M "P -1"
_symmetry_group_IT_number 2
_symmetry_cell_setting 'triclinic'
loop_
_space_group_symop_operation_xyz
x,y,z
-x,-y,-z
loop_
_atom_site_type_symbol
_atom_site_label
_atom_site_fract_x
_atom_site_fract_y
_atom_site_fract_z
Si Si1 0.905814 0.394570 0.171659
Si Si2 0.701715 0.889332 0.542739
Si Si3 0.591503 0.148770 0.231914
Si Si4 0.095921 0.613364 0.247692
Si Si5 0.708772 0.274401 0.559124
Si Si6 0.471862 0.402079 0.434976
Si Si7 0.142030 0.258615 0.876632
Si Si8 0.967598 0.665373 0.952780
O O1 0.149297 0.360269 0.362156
O O2 0.674226 0.232185 0.249374
O O3 0.000000 0.500000 0.000000
O O4 0.801739 0.488876 0.073540
O O5 0.477706 0.850548 0.425422
O O6 0.734477 0.734507 0.782934
O O7 0.595661 0.977191 0.455289
O O8 0.000000 0.000000 0.500000
O O9 0.803534 0.240581 0.134841
O O10 0.281348 0.134320 0.099579
O O11 0.876601 0.438190 0.381569
O O12 0.000458 0.725729 0.119644
O O13 0.394454 0.625110 0.390595
O O14 0.129545 0.669575 0.098876
O O15 0.506076 0.293233 0.517017
O O16 0.917569 0.208757 0.772541
O O17 0.614839 0.578483 0.245535
#
# Coordination Sequence:
#
# PCOD8029216 Si02
#       8
#     2   2   2   2   2   2   2   2
#     4  10  17  30  56  77 102 134 182 217 249 302
#     4  10  21  35  54  78 106 140 182 218 256 311
#     4  10  20  35  56  78 104 144 182 215 253 314
#     4   9  20  32  54  82 112 133 169 225 273 304
#     4   9  18  33  54  79 107 138 176 212 266 319
#     4   9  15  31  53  80 104 138 173 216 258 310
#     4   9  17  33  54  78 105 142 173 212 263 319
#     4  10  20  34  54  82 106 136 178 225 260 303
#
# _framework density 21.243098
#
# number of rings (size 3 to 8) (size 9 to 14) (size 15 to 20)
#    0.000    2.500    2.500    3.750    1.750    1.500 
#    0.000    0.625    0.000   18.750    0.000    0.000 
#    0.000    0.000    0.000    0.000    0.000    0.000 
#
# Total GULP energy -198301.728553 kJ/mol
# GULP energy per Si atom -12393.858035 kJ/mol
# Density = 2.119475 g / cm^3
# Si number density = 21.243098 Si / 1000 Ang^3
#
#
#
# Elastic Constant Matrix: (Units=GPa)
#
#
# Indices 1 2 3 4 5 6 
#
# 1 41.2839 25.0553 53.4866 0.7992 17.8503 -11.6528
# 2 25.0553 126.6989 59.3529 17.1346 21.3474 -16.7277
# 3 53.4866 59.3529 121.9513 19.7359 44.9390 -18.4205
# 4 0.7992 17.1346 19.7359 29.4304 -6.9162 6.6943
# 5 17.8503 21.3474 44.9390 -6.9162 45.4227 1.4773
# 6 -11.6528 -16.7277 -18.4205 6.6943 1.4773 28.4313
#
#
#
# Elastic Compliance Matrix: (Units=1/GPa)
#
#
# Indices 1 2 3 4 5 6 
#
# 1 0.079367 -0.005124 -0.059147 0.055042 0.038890 -0.023787
# 2 -0.005124 0.012392 0.005168 -0.016274 -0.011824 0.012986
# 3 -0.059147 0.005168 0.081874 -0.086764 -0.075225 0.056182
# 4 0.055042 -0.016274 -0.086764 0.141237 0.096013 -0.081473
# 5 0.038890 -0.011824 -0.075225 0.096013 0.103536 -0.067742
# 6 -0.023787 0.012986 0.056182 -0.081473 -0.067742 0.092167
#
#
# Mechanical properties :
#
#
# Convention : Reuss Voigt Hill
#
# Bulk Modulus (GPa) = 18.04156 62.85819 40.44988
# Shear Modulus (GPa) = 7.72492 30.79284 19.25888
#
# Velocity S-wave (km/s) = 1.90901 3.81142 3.01424
# Velocity P-wave (km/s) = 3.65656 7.00167 5.58542
#
# Compressibility (1/GPa) = 0.05542757
#
# Stress axis : x y z
#
# Youngs Moduli (GPa) = 12.59964 80.69420 12.21387
#
# Poissons Ratio (x) = 0.41349 0.72242
# Poissons Ratio (y) = 0.06456 -0.06313
# Poissons Ratio (z) = 0.74524 -0.41706
#
# Static dielectric constant tensor:
#      x y z
#    x 3.653310 -0.366230 0.612550 
#    y -0.366230 4.044770 -0.036790 
#    z 0.612550 -0.036790 4.188940 
# 
# 
# High freq. dielectric constant tensor:
#      x y z
#    x 1.805230 -0.018220 0.030400 
#    y -0.018220 1.827320 0.021070 
#    z 0.030400 0.021070 1.825830 
# 
# From -- ./inp_files/302584.got.cif
#   From: 2010.06.25/outbox.cif.g09.slc.cpg/sg2_152_cif.got.tgz:302584.got - 2010.06.27 13:26:56.
