data_PCOD8029228
_publ_section_title
;
Structure prediction by ZEFSAII (Michael W. Deem and Ramdas Pophale) SiO2 
 PCOD8029228
Probable space group: P -1
;
_chemical_formula_sum "Si O2"
_cell_formula_units_Z 16
_cell_length_a 15.132540
_cell_length_b 20.586146
_cell_length_c 23.431792
_cell_angle_alpha 160.408931
_cell_angle_beta 161.817894
_cell_angle_gamma 25.612798
_cell_volume 762.178255
_symmetry_space_group_name_H-M "P -1"
_symmetry_group_IT_number 2
_symmetry_cell_setting 'triclinic'
loop_
_space_group_symop_operation_xyz
x,y,z
-x,-y,-z
loop_
_atom_site_type_symbol
_atom_site_label
_atom_site_fract_x
_atom_site_fract_y
_atom_site_fract_z
Si Si1 0.584465 0.614041 0.332360
Si Si2 0.756818 0.234467 0.307032
Si Si3 0.464801 0.681680 0.086523
Si Si4 0.085498 0.408369 0.886640
Si Si5 0.668538 0.007343 0.552275
Si Si6 0.038399 0.454099 0.392692
Si Si7 0.864679 0.797261 0.134545
Si Si8 0.991712 0.231064 0.567180
O O1 0.822451 0.595629 0.414235
O O2 0.735825 0.663245 0.525661
O O3 0.344300 0.777784 0.303275
O O4 0.412893 0.421797 0.078600
O O5 0.769789 0.291057 0.429371
O O6 0.004838 0.071301 0.308713
O O7 0.795532 0.427109 0.453624
O O8 0.463365 0.147506 0.036921
O O9 0.481355 0.881349 0.293435
O O10 0.714702 0.668557 0.182213
O O11 0.500000 0.500000 0.000000
O O12 0.153302 0.697191 0.880859
O O13 0.084764 0.262863 0.818752
O O14 0.903881 0.317490 0.647663
O O15 0.965137 0.623079 0.009434
O O16 0.500000 0.000000 0.500000
O O17 0.029806 0.994589 0.392546
#
# Coordination Sequence:
#
# PCOD8029228 Si02
#       8
#     2   2   2   2   2   2   2   2
#     4  11  22  39  65  97 125 171 218 257 336 391
#     4  11  22  42  68  94 134 169 214 278 328 383
#     4  11  20  38  63  95 130 167 207 268 330 384
#     4  11  23  42  70  91 133 180 220 268 331 392
#     4  11  22  37  64  96 129 167 213 265 325 394
#     4  11  21  39  66  94 131 165 210 267 329 397
#     4  11  25  45  64  97 131 177 226 270 322 391
#     4  11  23  40  67  97 130 174 221 271 324 391
#
# _framework density 20.992464999999999
#
# number of rings (size 3 to 8) (size 9 to 14) (size 15 to 20)
#    0.000    1.000    6.250    2.250    0.000    1.000 
#    0.000    1.250    0.000    0.000    0.000    0.000 
#    0.000    0.000    0.000    0.000    0.000    0.000 
#
# Total GULP energy -198280.235477 kJ/mol
# GULP energy per Si atom -12392.514717 kJ/mol
# Density = 2.094468 g / cm^3
# Si number density = 20.992465 Si / 1000 Ang^3
#
#
#
# Elastic Constant Matrix: (Units=GPa)
#
#
# Indices 1 2 3 4 5 6 
#
# 1 129.8376 33.0498 32.0233 1.9542 -15.3570 14.2009
# 2 33.0498 74.3409 15.4870 -9.0549 2.5085 7.1638
# 3 32.0233 15.4870 78.2342 -4.9959 12.1405 3.1478
# 4 1.9542 -9.0549 -4.9959 36.0115 6.1942 -0.9611
# 5 -15.3570 2.5085 12.1405 6.1942 33.8277 9.0031
# 6 14.2009 7.1638 3.1478 -0.9611 9.0031 22.9808
#
#
#
# Elastic Compliance Matrix: (Units=1/GPa)
#
#
# Indices 1 2 3 4 5 6 
#
# 1 0.013152 -0.004527 -0.006305 -0.005156 0.012424 -0.010935
# 2 -0.004527 0.016339 -0.000443 0.004946 -0.003878 -0.000509
# 3 -0.006305 -0.000443 0.017303 0.004803 -0.011627 0.006420
# 4 -0.005156 0.004946 0.004803 0.032253 -0.012234 0.007128
# 5 0.012424 -0.003878 -0.011627 -0.012234 0.048381 -0.024341
# 6 -0.010935 -0.000509 0.006420 0.007128 -0.024341 0.059385
#
#
# Mechanical properties :
#
#
# Convention : Reuss Voigt Hill
#
# Bulk Modulus (GPa) = 41.24631 49.28141 45.26386
# Shear Modulus (GPa) = 22.99432 32.02085 27.50758
#
# Velocity S-wave (km/s) = 3.31321 3.90981 3.62381
# Velocity P-wave (km/s) = 5.85895 6.62638 6.25445
#
# Compressibility (1/GPa) = 0.02424459
#
# Stress axis : x y z
#
# Youngs Moduli (GPa) = 76.03186 61.20379 57.79267
#
# Poissons Ratio (x) = 0.27708 0.36436
# Poissons Ratio (y) = 0.34421 0.02561
# Poissons Ratio (z) = 0.47935 0.02712
#
# Static dielectric constant tensor:
#      x y z
#    x 4.128230 0.235760 -0.020540 
#    y 0.235760 3.560500 -0.073030 
#    z -0.020540 -0.073030 3.934090 
# 
# 
# High freq. dielectric constant tensor:
#      x y z
#    x 1.843440 0.022780 0.006680 
#    y 0.022780 1.796930 -0.004420 
#    z 0.006680 -0.004420 1.825900 
# 
# From -- ./inp_files/433744.got.cif
#   From: 2010.06.25/outbox.cif.g09.slc.cpg/sg2_217_cif.got.tgz:433744.got - 2010.06.27 13:26:56.
