data_PCOD8029086
_publ_section_title
;
Structure prediction by ZEFSAII (Michael W. Deem and Ramdas Pophale) SiO2 
 PCOD8029086
Probable space group: P -1
;
_chemical_formula_sum "Si O2"
_cell_formula_units_Z 16
_cell_length_a 23.020510
_cell_length_b 16.746133
_cell_length_c 6.724137
_cell_angle_alpha 140.605859
_cell_angle_beta 47.035137
_cell_angle_gamma 156.084281
_cell_volume 663.794579
_symmetry_space_group_name_H-M "P -1"
_symmetry_group_IT_number 2
_symmetry_cell_setting 'triclinic'
loop_
_space_group_symop_operation_xyz
x,y,z
-x,-y,-z
loop_
_atom_site_type_symbol
_atom_site_label
_atom_site_fract_x
_atom_site_fract_y
_atom_site_fract_z
Si Si1 0.802872 0.895407 0.971281
Si Si2 0.718553 0.579331 0.864705
Si Si3 0.474670 0.075722 0.415156
Si Si4 0.810049 0.185327 0.526252
Si Si5 0.879864 0.367268 0.299840
Si Si6 0.123832 0.351349 0.059251
Si Si7 0.589124 0.971396 0.058641
Si Si8 0.357364 0.480183 0.655026
O O1 0.681136 0.697876 0.714082
O O2 0.795206 0.784109 0.948654
O O3 0.771324 0.992836 0.315373
O O4 0.961196 0.100148 0.897624
O O5 0.640411 0.548612 0.171159
O O6 0.598535 0.338006 0.564593
O O7 0.841300 0.647260 0.793171
O O8 0.443481 0.048457 0.670646
O O9 0.331922 0.916010 0.306006
O O10 0.527972 0.002613 0.120307
O O11 0.851937 0.232194 0.283825
O O12 0.954848 0.426112 0.766399
O O13 0.849939 0.464872 0.655200
O O14 0.764002 0.188581 0.047282
O O15 0.234275 0.426124 0.796241
O O16 0.511167 0.739797 0.727017
#
# Coordination Sequence:
#
# PCOD8029086 Si02
#       8
#     2   2   2   2   2   2   2   2
#     4  11  20  33  47  81 112 132 170 208 262 317
#     4   9  19  32  53  76 100 142 170 211 258 303
#     4   9  15  30  50  76  97 135 177 211 255 301
#     4   9  19  27  50  80 105 133 171 216 255 309
#     4   9  15  31  52  80  97 132 184 212 254 304
#     4   9  17  32  55  77  99 138 175 218 253 297
#     4   9  14  29  54  72  98 133 178 215 252 299
#     4   9  19  31  51  80 101 139 169 215 255 306
#
# _framework density 24.103840000000002
#
# number of rings (size 3 to 8) (size 9 to 14) (size 15 to 20)
#    0.750    2.000    1.250    2.250    0.000    0.500 
#    0.000    6.250    0.000    0.000    3.250    4.375 
#    0.000    0.000    0.000    0.000    0.000    0.000 
#
# Total GULP energy -198294.664406 kJ/mol
# GULP energy per Si atom -12393.416525 kJ/mol
# Density = 2.404898 g / cm^3
# Si number density = 24.103840 Si / 1000 Ang^3
#
#
#
# Elastic Constant Matrix: (Units=GPa)
#
#
# Indices 1 2 3 4 5 6 
#
# 1 88.3223 27.9075 19.6391 26.0335 -1.6470 17.7351
# 2 27.9075 92.0226 47.8323 34.7294 -5.5219 31.7938
# 3 19.6391 47.8323 85.1981 49.4098 9.1846 13.5942
# 4 26.0335 34.7294 49.4098 43.1858 6.6351 6.9877
# 5 -1.6470 -5.5219 9.1846 6.6351 31.3478 14.8269
# 6 17.7351 31.7938 13.5942 6.9877 14.8269 37.6458
#
#
#
# Elastic Compliance Matrix: (Units=1/GPa)
#
#
# Indices 1 2 3 4 5 6 
#
# 1 0.018547 0.006630 0.007428 -0.024200 0.013535 -0.017857
# 2 0.006630 0.038361 -0.002082 -0.030856 0.034389 -0.042586
# 3 0.007428 -0.002082 0.039572 -0.047103 0.002268 -0.008181
# 4 -0.024200 -0.030856 -0.047103 0.114715 -0.040406 0.049091
# 5 0.013535 0.034389 0.002268 -0.040406 0.073919 -0.057852
# 6 -0.017857 -0.042586 -0.008181 0.049091 -0.057852 0.087569
#
#
# Mechanical properties :
#
#
# Convention : Reuss Voigt Hill
#
# Bulk Modulus (GPa) = 8.30360 50.70008 29.50184
# Shear Modulus (GPa) = 12.85754 33.78013 23.31884
#
# Velocity S-wave (km/s) = 2.31210 3.74765 3.11373
# Velocity P-wave (km/s) = 3.25271 6.30921 5.01928
#
# Compressibility (1/GPa) = 0.12042964
#
# Stress axis : x y z
#
# Youngs Moduli (GPa) = 53.91653 26.06824 25.27044
#
# Poissons Ratio (x) = -0.17282 -0.18770
# Poissons Ratio (y) = -0.35744 0.05262
# Poissons Ratio (z) = -0.40048 0.05429
#
# Static dielectric constant tensor:
#      x y z
#    x 4.331000 0.210280 0.162200 
#    y 0.210280 4.228910 0.477230 
#    z 0.162200 0.477230 3.984830 
# 
# 
# High freq. dielectric constant tensor:
#      x y z
#    x 1.955140 0.001240 0.008600 
#    y 0.001240 1.951770 0.030490 
#    z 0.008600 0.030490 1.936120 
# 
# From -- ./inp_files/251988.got.cif
#   From: 2010.06.25/outbox.cif.g09.slc.cpg/sg2_126_cif.got.tgz:251988.got - 2010.06.27 13:26:56.
