data_PCOD8029295
_publ_section_title
;
Structure prediction by ZEFSAII (Michael W. Deem and Ramdas Pophale) SiO2 
 PCOD8029295
Probable space group: P -1
;
_chemical_formula_sum "Si O2"
_cell_formula_units_Z 14
_cell_length_a 15.154828
_cell_length_b 11.004534
_cell_length_c 20.010376
_cell_angle_alpha 30.143099
_cell_angle_beta 22.364496
_cell_angle_gamma 43.576205
_cell_volume 586.076410
_symmetry_space_group_name_H-M "P -1"
_symmetry_group_IT_number 2
_symmetry_cell_setting 'triclinic'
loop_
_space_group_symop_operation_xyz
x,y,z
-x,-y,-z
loop_
_atom_site_type_symbol
_atom_site_label
_atom_site_fract_x
_atom_site_fract_y
_atom_site_fract_z
Si Si1 0.058251 0.751357 0.591692
Si Si2 0.864475 0.245781 0.792018
Si Si3 0.185014 0.102170 0.884844
Si Si4 0.504217 0.494002 0.079460
Si Si5 0.070364 0.997352 0.656522
Si Si6 0.233370 0.799687 0.307220
Si Si7 0.241209 0.619817 0.658138
O O1 0.224840 0.715883 0.430171
O O2 0.227541 0.770048 0.528205
O O3 0.000000 0.000000 0.500000
O O4 0.777002 0.528060 0.899900
O O5 0.907913 0.029573 0.817488
O O6 0.107986 0.526233 0.482622
O O7 0.613893 0.288992 0.921716
O O8 0.830829 0.141565 0.941616
O O9 0.113675 0.306371 0.883955
O O10 0.464411 0.271582 0.579880
O O11 0.000000 0.000000 0.000000
O O12 0.351506 0.217438 0.353607
O O13 0.500000 0.500000 0.000000
O O14 0.943219 0.037641 0.657452
O O15 0.087355 0.710161 0.779559
O O16 0.500000 0.000000 0.000000
#
# Coordination Sequence:
#
# PCOD8029295 Si02
#       7
#     2   2   2   2   2   2   2
#     4  12  22  38  70 105 136 176 228 289 340 407
#     4  11  24  43  68 101 142 187 222 285 352 413
#     4  11  26  50  75  94 133 184 244 291 336 409
#     4  11  20  39  69 104 137 178 229 277 346 415
#     4  11  24  40  65 101 145 178 221 285 353 414
#     4  11  24  39  63 108 147 178 220 280 356 415
#     4  11  26  45  71 106 132 180 239 288 337 416
#
# _framework density 23.887668000000001
#
# number of rings (size 3 to 8) (size 9 to 14) (size 15 to 20)
#    0.000    0.857    4.286    4.286    8.000    0.571 
#    0.000    0.714    0.000    0.000    0.000    0.000 
#    0.000    0.000    0.000    0.000    0.000    0.000 
#
# Total GULP energy -173474.518672 kJ/mol
# GULP energy per Si atom -12391.037048 kJ/mol
# Density = 2.383330 g / cm^3
# Si number density = 23.887668 Si / 1000 Ang^3
#
#
#
# Elastic Constant Matrix: (Units=GPa)
#
#
# Indices 1 2 3 4 5 6 
#
# 1 74.5916 11.4771 22.0880 12.2581 -14.7609 -0.7753
# 2 11.4771 135.4498 22.3469 2.7135 -7.0556 20.7198
# 3 22.0880 22.3469 111.8051 8.1737 -13.1719 1.9533
# 4 12.2581 2.7135 8.1737 30.2673 1.8252 9.0484
# 5 -14.7609 -7.0556 -13.1719 1.8252 32.5869 1.5661
# 6 -0.7753 20.7198 1.9533 9.0484 1.5661 39.1422
#
#
#
# Elastic Compliance Matrix: (Units=1/GPa)
#
#
# Indices 1 2 3 4 5 6 
#
# 1 0.016680 -0.000969 -0.001794 -0.007302 0.006917 0.002344
# 2 -0.000969 0.008451 -0.001400 0.001384 0.000977 -0.004782
# 3 -0.001794 -0.001400 0.010092 -0.002236 0.003060 0.000596
# 4 -0.007302 0.001384 -0.002236 0.039724 -0.005670 -0.009722
# 5 0.006917 0.000977 0.003060 -0.005670 0.035617 -0.000647
# 6 0.002344 -0.004782 0.000596 -0.009722 -0.000647 0.030369
#
#
# Mechanical properties :
#
#
# Convention : Reuss Voigt Hill
#
# Bulk Modulus (GPa) = 37.18048 48.18561 42.68305
# Shear Modulus (GPa) = 31.60072 38.12826 34.86449
#
# Velocity S-wave (km/s) = 3.64110 3.99952 3.82451
# Velocity P-wave (km/s) = 5.76848 6.44544 6.11633
#
# Compressibility (1/GPa) = 0.02689583
#
# Stress axis : x y z
#
# Youngs Moduli (GPa) = 59.95295 118.33572 99.08921
#
# Poissons Ratio (x) = 0.11472 0.17774
# Poissons Ratio (y) = 0.05812 0.13873
# Poissons Ratio (z) = 0.10754 0.16567
#
# Static dielectric constant tensor:
#      x y z
#    x 4.376130 0.156900 -0.047840 
#    y 0.156900 4.551300 -0.055930 
#    z -0.047840 -0.055930 3.736220 
# 
# 
# High freq. dielectric constant tensor:
#      x y z
#    x 1.931140 0.014570 -0.009800 
#    y 0.014570 1.952170 0.003360 
#    z -0.009800 0.003360 1.940290 
# 
# From -- ./inp_files/597927.got.cif
#   From: 2010.06.25/outbox.cif.g09.slc.cpg/sg2_299_cif.got.tgz:597927.got - 2010.06.27 13:26:56.
