data_PCOD8029914
_publ_section_title
;
Structure prediction by ZEFSAII (Michael W. Deem and Ramdas Pophale) SiO2 
 PCOD8029914
Probable space group: P -1
;
_chemical_formula_sum "Si O2"
_cell_formula_units_Z 16
_cell_length_a 9.238630
_cell_length_b 15.051254
_cell_length_c 8.849101
_cell_angle_alpha 38.013811
_cell_angle_beta 76.815844
_cell_angle_gamma 72.566465
_cell_volume 722.925433
_symmetry_space_group_name_H-M "P -1"
_symmetry_group_IT_number 2
_symmetry_cell_setting 'triclinic'
loop_
_space_group_symop_operation_xyz
x,y,z
-x,-y,-z
loop_
_atom_site_type_symbol
_atom_site_label
_atom_site_fract_x
_atom_site_fract_y
_atom_site_fract_z
Si Si1 0.238938 0.053808 0.140210
Si Si2 0.049872 0.812750 0.480103
Si Si3 0.882373 0.694346 0.939232
Si Si4 0.884503 0.492056 0.670769
Si Si5 0.380222 0.604364 0.049004
Si Si6 0.702404 0.471734 0.154095
Si Si7 0.227581 0.188162 0.649484
Si Si8 0.488949 0.887988 0.521097
O O1 0.184323 0.209377 0.029308
O O2 0.104594 0.963917 0.290994
O O3 0.384341 0.960558 0.312458
O O4 0.282009 0.079348 0.922404
O O5 0.192135 0.675640 0.606946
O O6 0.949802 0.796138 0.671737
O O7 0.941188 0.827865 0.339901
O O8 0.757827 0.620659 0.985534
O O9 0.016837 0.560751 0.133721
O O10 0.777905 0.648865 0.509269
O O11 0.000000 0.500000 0.500000
O O12 0.761997 0.384117 0.814466
O O13 0.313909 0.530684 0.019119
O O14 0.417347 0.759518 0.784543
O O15 0.529225 0.495090 0.227603
O O16 0.343482 0.161507 0.518534
O O17 0.500000 0.000000 0.500000
#
# Coordination Sequence:
#
# PCOD8029914 Si02
#       8
#     2   2   2   2   2   2   2   2
#     4  12  26  45  66 105 151 193 230 298 365 425
#     4  12  23  42  70 106 137 195 248 289 349 430
#     4  12  23  43  71 103 142 188 245 295 352 421
#     4  12  24  44  71 104 143 183 231 300 360 417
#     4  11  23  43  72 103 134 185 243 292 356 417
#     4  11  21  40  72 103 133 178 247 296 340 414
#     4  12  26  45  73 101 150 191 236 295 365 422
#     4  12  26  49  74 107 142 192 244 296 352 434
#
# _framework density 22.132296
#
# number of rings (size 3 to 8) (size 9 to 14) (size 15 to 20)
#    0.000    0.250    5.000    6.000    0.000    1.000 
#    2.250    0.625    0.000    0.000    0.000    0.000 
#    0.000    0.000    0.000    0.000    0.000    0.000 
#
# Total GULP energy -198379.755313 kJ/mol
# GULP energy per Si atom -12398.734707 kJ/mol
# Density = 2.208192 g / cm^3
# Si number density = 22.132296 Si / 1000 Ang^3
#
#
#
# Elastic Constant Matrix: (Units=GPa)
#
#
# Indices 1 2 3 4 5 6 
#
# 1 167.3606 51.0868 70.2182 -2.0461 -11.0274 -6.1851
# 2 51.0868 113.9998 55.0073 -6.3429 -22.8391 -1.8852
# 3 70.2182 55.0073 103.3501 3.3830 -16.3793 1.3234
# 4 -2.0461 -6.3429 3.3830 31.0418 -1.1002 -5.6574
# 5 -11.0274 -22.8391 -16.3793 -1.1002 47.8427 -4.2928
# 6 -6.1851 -1.8852 1.3234 -5.6574 -4.2928 40.3216
#
#
#
# Elastic Compliance Matrix: (Units=1/GPa)
#
#
# Indices 1 2 3 4 5 6 
#
# 1 0.008640 -0.001283 -0.005287 0.001161 -0.000263 0.001574
# 2 -0.001283 0.013123 -0.005573 0.003642 0.004285 0.001567
# 3 -0.005287 -0.005573 0.016624 -0.003601 0.001554 -0.001957
# 4 0.001161 0.003642 -0.003601 0.034508 0.002063 0.005528
# 5 -0.000263 0.004285 0.001554 0.002063 0.023729 0.002925
# 6 0.001574 0.001567 -0.001957 0.005528 0.002925 0.026267
#
#
# Mechanical properties :
#
#
# Convention : Reuss Voigt Hill
#
# Bulk Modulus (GPa) = 70.92162 81.92612 76.42387
# Shear Modulus (GPa) = 32.92137 37.73443 35.32790
#
# Velocity S-wave (km/s) = 3.86097 4.13358 3.99960
# Velocity P-wave (km/s) = 7.21042 7.73815 7.47894
#
# Compressibility (1/GPa) = 0.01410007
#
# Stress axis : x y z
#
# Youngs Moduli (GPa) = 115.73969 76.20180 60.15510
#
# Poissons Ratio (x) = 0.09774 0.31806
# Poissons Ratio (y) = 0.14846 0.33526
# Poissons Ratio (z) = 0.61196 0.42469
#
# Static dielectric constant tensor:
#      x y z
#    x 4.059150 0.020900 -0.004750 
#    y 0.020900 3.714640 -0.101700 
#    z -0.004750 -0.101700 4.033230 
# 
# 
# High freq. dielectric constant tensor:
#      x y z
#    x 1.897080 -0.003730 -0.000400 
#    y -0.003730 1.852730 -0.010280 
#    z -0.000400 -0.010280 1.873450 
# 
# From -- ./inp_files/205011.got.cif
#   From: 2010.06.25/outbox.cif.g09.slc.cpg/sg2_103_cif.got.tgz:205011.got - 2010.06.27 13:26:56.
