data_PCOD8029028
_publ_section_title
;
Structure prediction by ZEFSAII (Michael W. Deem and Ramdas Pophale) SiO2 
 PCOD8029028
Probable space group: P -1
;
_chemical_formula_sum "Si O2"
_cell_formula_units_Z 16
_cell_length_a 8.394448
_cell_length_b 9.068856
_cell_length_c 12.291244
_cell_angle_alpha 56.922539
_cell_angle_beta 63.898838
_cell_angle_gamma 74.606260
_cell_volume 703.702528
_symmetry_space_group_name_H-M "P -1"
_symmetry_group_IT_number 2
_symmetry_cell_setting 'triclinic'
loop_
_space_group_symop_operation_xyz
x,y,z
-x,-y,-z
loop_
_atom_site_type_symbol
_atom_site_label
_atom_site_fract_x
_atom_site_fract_y
_atom_site_fract_z
Si Si1 0.054787 0.342878 0.625059
Si Si2 0.838471 0.620212 0.953694
Si Si3 0.193871 0.952261 0.913657
Si Si4 0.589228 0.741002 0.339550
Si Si5 0.456932 0.482193 0.759348
Si Si6 0.047867 0.954938 0.727385
Si Si7 0.373715 0.854669 0.552087
Si Si8 0.227992 0.595588 0.148678
O O1 0.266648 0.328698 0.585453
O O2 0.000000 0.500000 0.500000
O O3 0.970866 0.381717 0.753284
O O4 0.980965 0.159640 0.672354
O O5 0.766197 0.544387 0.893373
O O6 0.886769 0.821915 0.833573
O O7 0.683476 0.626910 0.086175
O O8 0.000000 0.500000 0.000000
O O9 0.176522 0.909778 0.808663
O O10 0.326314 0.111939 0.822416
O O11 0.286526 0.784649 0.011495
O O12 0.000000 0.000000 0.000000
O O13 0.525879 0.588064 0.341144
O O14 0.418474 0.815070 0.428177
O O15 0.394778 0.684213 0.690861
O O16 0.646926 0.468729 0.765199
O O17 0.168008 0.922947 0.595906
O O18 0.500000 0.000000 0.500000
#
# Coordination Sequence:
#
# PCOD8029028 Si02
#       8
#     2   2   2   2   2   2   2   2
#     4  11  24  45  71 100 142 184 235 285 352 422
#     4  12  23  45  73 105 138 181 234 290 355 417
#     4  11  19  39  70 101 132 182 230 281 347 415
#     4  11  24  44  74  97 141 191 233 281 352 425
#     4  12  27  45  69 105 145 181 238 289 352 419
#     4  11  23  43  74 103 136 185 235 288 348 426
#     4  12  23  44  71 101 139 186 237 281 350 419
#     4  12  25  42  70 104 144 177 233 297 347 412
#
# _framework density 22.736878999999998
#
# number of rings (size 3 to 8) (size 9 to 14) (size 15 to 20)
#    0.000    0.500    7.500    3.000    0.000    0.500 
#    0.000    1.875    0.000    0.000    0.000    0.000 
#    0.000    0.000    0.000    0.000    0.000    0.000 
#
# Total GULP energy -198456.215891 kJ/mol
# GULP energy per Si atom -12403.513493 kJ/mol
# Density = 2.268513 g / cm^3
# Si number density = 22.736879 Si / 1000 Ang^3
#
#
#
# Elastic Constant Matrix: (Units=GPa)
#
#
# Indices 1 2 3 4 5 6 
#
# 1 62.1835 31.1567 19.2261 -0.0735 6.4968 17.7063
# 2 31.1567 136.8768 59.5546 -1.3511 5.4047 18.8728
# 3 19.2261 59.5546 113.2190 0.8719 -9.1672 2.7858
# 4 -0.0735 -1.3511 0.8719 59.5189 -6.9890 -7.2139
# 5 6.4968 5.4047 -9.1672 -6.9890 41.4528 1.3045
# 6 17.7063 18.8728 2.7858 -7.2139 1.3045 26.8100
#
#
#
# Elastic Compliance Matrix: (Units=1/GPa)
#
#
# Indices 1 2 3 4 5 6 
#
# 1 0.022040 -0.001870 -0.002718 -0.002028 -0.003734 -0.013321
# 2 -0.001870 0.011054 -0.005529 -0.000672 -0.002294 -0.006041
# 3 -0.002718 -0.005529 0.012402 0.000676 0.003865 0.004392
# 4 -0.002028 -0.000672 0.000676 0.017947 0.003379 0.006407
# 5 -0.003734 -0.002294 0.003865 0.003379 0.026329 0.003308
# 6 -0.013321 -0.006041 0.004392 0.006407 0.003308 0.051456
#
#
# Mechanical properties :
#
#
# Convention : Reuss Voigt Hill
#
# Bulk Modulus (GPa) = 39.58554 59.12821 49.35687
# Shear Modulus (GPa) = 29.43222 39.04582 34.23902
#
# Velocity S-wave (km/s) = 3.60178 4.14852 3.88478
# Velocity P-wave (km/s) = 5.89450 7.00063 6.47124
#
# Compressibility (1/GPa) = 0.02526175
#
# Stress axis : x y z
#
# Youngs Moduli (GPa) = 45.37298 90.46477 80.63258
#
# Poissons Ratio (x) = 0.16918 0.21915
# Poissons Ratio (y) = 0.08485 0.44581
# Poissons Ratio (z) = 0.12332 0.50017
#
# Static dielectric constant tensor:
#      x y z
#    x 3.739290 0.062980 -0.229500 
#    y 0.062980 4.322690 0.028420 
#    z -0.229500 0.028420 4.420760 
# 
# 
# High freq. dielectric constant tensor:
#      x y z
#    x 1.860600 0.005920 -0.016490 
#    y 0.005920 1.911580 0.002230 
#    z -0.016490 0.002230 1.916720 
# 
# From -- ./inp_files/381251.got.cif
#   From: 2010.06.25/outbox.cif.g09.slc.cpg/sg2_191_cif.got.tgz:381251.got - 2010.06.27 13:26:56.
