data_PCOD8029817
_publ_section_title
;
Structure prediction by ZEFSAII (Michael W. Deem and Ramdas Pophale) SiO2 
 PCOD8029817
Probable space group: P -1
;
_chemical_formula_sum "Si O2"
_cell_formula_units_Z 14
_cell_length_a 13.853925
_cell_length_b 9.539480
_cell_length_c 10.929027
_cell_angle_alpha 73.238290
_cell_angle_beta 149.424570
_cell_angle_gamma 97.712537
_cell_volume 683.922991
_symmetry_space_group_name_H-M "P -1"
_symmetry_group_IT_number 2
_symmetry_cell_setting 'triclinic'
loop_
_space_group_symop_operation_xyz
x,y,z
-x,-y,-z
loop_
_atom_site_type_symbol
_atom_site_label
_atom_site_fract_x
_atom_site_fract_y
_atom_site_fract_z
Si Si1 0.600917 0.687335 0.252831
Si Si2 0.057048 0.156684 0.040004
Si Si3 0.320603 0.640383 0.510931
Si Si4 0.893000 0.670105 0.368154
Si Si5 0.343829 0.060409 0.582230
Si Si6 0.746335 0.224170 0.330143
Si Si7 0.634592 0.808328 0.832107
O O1 0.625170 0.538989 0.400112
O O2 0.800730 0.682381 0.399110
O O3 0.556408 0.831935 0.255726
O O4 0.579393 0.306596 0.035316
O O5 0.162416 0.160209 0.283865
O O6 0.193868 0.176829 0.072543
O O7 0.865109 0.291956 0.794327
O O8 0.000000 0.000000 0.000000
O O9 0.270266 0.681901 0.586699
O O10 0.500510 0.709200 0.646418
O O11 0.000000 0.500000 0.500000
O O12 0.044616 0.777463 0.501360
O O13 0.717279 0.725427 0.067995
O O14 0.267413 0.946017 0.616535
O O15 0.502276 0.972646 0.680040
#
# Coordination Sequence:
#
# PCOD8029817 Si02
#       7
#     2   2   2   2   2   2   2
#     4  12  24  42  59  94 137 151 203 258 313 364
#     4  12  22  44  68  90 120 158 223 247 295 374
#     4  11  22  39  67  91 119 169 204 255 298 361
#     4  12  21  36  67  93 122 164 208 250 302 367
#     4  11  25  41  62  93 126 167 194 264 310 353
#     4  11  21  40  62  93 122 165 207 244 307 366
#     4  11  22  40  66  91 117 161 216 246 302 367
#
# _framework density 20.470141999999999
#
# number of rings (size 3 to 8) (size 9 to 14) (size 15 to 20)
#    0.000    0.571    8.571    2.143    0.000    1.143 
#    2.571    0.714    0.000    0.000    0.000    0.000 
#    0.000    0.000    0.000    0.000    0.000    0.000 
#
# Total GULP energy -173685.894117 kJ/mol
# GULP energy per Si atom -12406.135294 kJ/mol
# Density = 2.042355 g / cm^3
# Si number density = 20.470142 Si / 1000 Ang^3
#
#
#
# Elastic Constant Matrix: (Units=GPa)
#
#
# Indices 1 2 3 4 5 6 
#
# 1 47.1338 19.8469 -0.2437 4.9454 13.6573 21.5416
# 2 19.8469 105.2125 23.1258 -11.9812 6.4628 10.7521
# 3 -0.2437 23.1258 126.4874 -12.1480 -5.4799 8.6823
# 4 4.9454 -11.9812 -12.1480 29.0156 12.1620 -0.3878
# 5 13.6573 6.4628 -5.4799 12.1620 31.4583 6.6641
# 6 21.5416 10.7521 8.6823 -0.3878 6.6641 26.0496
#
#
#
# Elastic Compliance Matrix: (Units=1/GPa)
#
#
# Indices 1 2 3 4 5 6 
#
# 1 0.039567 -0.005058 0.002207 -0.005157 -0.007506 -0.029524
# 2 -0.005058 0.011657 -0.001731 0.006260 -0.003097 0.000834
# 3 0.002207 -0.001731 0.008764 0.002095 0.001017 -0.004261
# 4 -0.005157 0.006260 0.002095 0.046415 -0.017954 0.006266
# 5 -0.007506 -0.003097 0.001017 -0.017954 0.043713 -0.004303
# 6 -0.029524 0.000834 -0.004261 0.006266 -0.004303 0.065073
#
#
# Mechanical properties :
#
#
# Convention : Reuss Voigt Hill
#
# Bulk Modulus (GPa) = 19.67565 40.47686 30.07625
# Shear Modulus (GPa) = 20.72161 33.04502 26.88332
#
# Velocity S-wave (km/s) = 3.18509 4.02220 3.62787
# Velocity P-wave (km/s) = 4.81240 6.43330 5.68095
#
# Compressibility (1/GPa) = 0.05082424
#
# Stress axis : x y z
#
# Youngs Moduli (GPa) = 25.27389 85.78423 114.09743
#
# Poissons Ratio (x) = 0.43388 -0.25183
# Poissons Ratio (y) = 0.12783 0.19753
# Poissons Ratio (z) = -0.05578 0.14851
#
# Static dielectric constant tensor:
#      x y z
#    x 3.601920 0.350600 0.017580 
#    y 0.350600 3.675760 -0.001310 
#    z 0.017580 -0.001310 4.146420 
# 
# 
# High freq. dielectric constant tensor:
#      x y z
#    x 1.780610 0.028400 0.003450 
#    y 0.028400 1.793010 -0.003190 
#    z 0.003450 -0.003190 1.819790 
# 
# From -- ./inp_files/447252.got.cif
#   From: 2010.06.25/outbox.cif.g09.slc.cpg/sg2_224_cif.got.tgz:447252.got - 2010.06.27 13:26:56.
