data_PCOD8029635
_publ_section_title
;
Structure prediction by ZEFSAII (Michael W. Deem and Ramdas Pophale) SiO2 
 PCOD8029635
Probable space group: P -1
;
_chemical_formula_sum "Si O2"
_cell_formula_units_Z 16
_cell_length_a 10.058158
_cell_length_b 8.817944
_cell_length_c 15.699077
_cell_angle_alpha 105.447747
_cell_angle_beta 144.248774
_cell_angle_gamma 67.199388
_cell_volume 746.954378
_symmetry_space_group_name_H-M "P -1"
_symmetry_group_IT_number 2
_symmetry_cell_setting 'triclinic'
loop_
_space_group_symop_operation_xyz
x,y,z
-x,-y,-z
loop_
_atom_site_type_symbol
_atom_site_label
_atom_site_fract_x
_atom_site_fract_y
_atom_site_fract_z
Si Si1 0.692563 0.145112 0.196714
Si Si2 0.360652 0.992555 0.101072
Si Si3 0.885535 0.733946 0.521999
Si Si4 0.361585 0.686360 0.473408
Si Si5 0.949270 0.082678 0.781579
Si Si6 0.993011 0.396201 0.612100
Si Si7 0.572306 0.966852 0.663547
Si Si8 0.436554 0.332146 0.939770
O O1 0.584525 0.053671 0.198330
O O2 0.844784 0.254482 0.333030
O O3 0.473909 0.255807 0.042620
O O4 0.873573 0.010282 0.213317
O O5 0.336545 0.007237 0.191629
O O6 0.401909 0.803559 0.062847
O O7 0.110580 0.108496 0.948553
O O8 0.845675 0.694982 0.396982
O O9 0.863626 0.587593 0.549940
O O10 0.683536 0.899243 0.469610
O O11 0.500000 0.500000 0.500000
O O12 0.212359 0.747733 0.318397
O O13 0.542251 0.787778 0.607060
O O14 0.198698 0.694222 0.473721
O O15 0.772765 0.980409 0.703865
O O16 0.160371 0.382055 0.779069
O O17 0.500000 0.500000 0.000000
#
# Coordination Sequence:
#
# PCOD8029635 Si02
#       8
#     2   2   2   2   2   2   2   2
#     4  11  22  40  67  95 123 167 219 262 311 377
#     4  11  24  43  66  94 127 170 218 260 311 385
#     4  11  23  39  68  95 131 165 213 265 324 378
#     4  12  26  41  66  93 129 169 218 266 320 380
#     4  11  24  43  65  92 127 170 212 262 318 385
#     4  11  23  41  61  98 131 166 209 272 318 374
#     4  12  25  43  66  95 130 174 213 258 324 385
#     4  11  21  37  62  97 125 165 208 265 314 371
#
# _framework density 21.420318000000002
#
# number of rings (size 3 to 8) (size 9 to 14) (size 15 to 20)
#    0.000    0.750    3.750    5.250    1.750    1.000 
#    0.000    0.625    0.000    0.000    0.000    0.000 
#    0.000    0.000    0.000    0.000    0.000    0.000 
#
# Total GULP energy -198428.555127 kJ/mol
# GULP energy per Si atom -12401.784695 kJ/mol
# Density = 2.137156 g / cm^3
# Si number density = 21.420318 Si / 1000 Ang^3
#
#
#
# Elastic Constant Matrix: (Units=GPa)
#
#
# Indices 1 2 3 4 5 6 
#
# 1 73.0094 23.7265 25.5565 -5.3418 8.7064 22.7451
# 2 23.7265 108.6204 29.6278 0.4905 -2.2042 13.4854
# 3 25.5565 29.6278 110.5503 -2.7066 -4.8672 11.9608
# 4 -5.3418 0.4905 -2.7066 30.9762 5.9572 1.3433
# 5 8.7064 -2.2042 -4.8672 5.9572 35.3337 5.7494
# 6 22.7451 13.4854 11.9608 1.3433 5.7494 28.9697
#
#
#
# Elastic Compliance Matrix: (Units=1/GPa)
#
#
# Indices 1 2 3 4 5 6 
#
# 1 0.020311 -0.002151 -0.002760 0.004668 -0.004159 -0.013197
# 2 -0.002151 0.010589 -0.002008 -0.000886 0.001497 -0.002668
# 3 -0.002760 -0.002008 0.010507 0.000113 0.002258 -0.001690
# 4 0.004668 -0.000886 0.000113 0.034503 -0.006417 -0.003625
# 5 -0.004159 0.001497 0.002258 -0.006417 0.031516 -0.004321
# 6 -0.013197 -0.002668 -0.001690 -0.003625 -0.004321 0.047846
#
#
# Mechanical properties :
#
#
# Convention : Reuss Voigt Hill
#
# Bulk Modulus (GPa) = 36.27163 50.00017 43.13590
# Shear Modulus (GPa) = 28.04287 33.27388 30.65838
#
# Velocity S-wave (km/s) = 3.62217 3.94557 3.78732
# Velocity P-wave (km/s) = 5.87057 6.64453 6.26950
#
# Compressibility (1/GPa) = 0.02756976
#
# Stress axis : x y z
#
# Youngs Moduli (GPa) = 49.23516 94.43332 95.17646
#
# Poissons Ratio (x) = 0.20311 0.26268
# Poissons Ratio (y) = 0.10589 0.19111
# Poissons Ratio (z) = 0.13588 0.18962
#
# Static dielectric constant tensor:
#      x y z
#    x 3.909670 0.256150 -0.015840 
#    y 0.256150 3.822540 -0.105680 
#    z -0.015840 -0.105680 4.338880 
# 
# 
# High freq. dielectric constant tensor:
#      x y z
#    x 1.834780 0.017860 -0.005700 
#    y 0.017860 1.832370 -0.003540 
#    z -0.005700 -0.003540 1.857630 
# 
# From -- ./inp_files/209276.got.cif
#   From: 2010.06.25/outbox.cif.g09.slc.cpg/sg2_105_cif.got.tgz:209276.got - 2010.06.27 13:26:56.
