data_PCOD8029371
_publ_section_title
;
Structure prediction by ZEFSAII (Michael W. Deem and Ramdas Pophale) SiO2 
 PCOD8029371
Probable space group: P -1
;
_chemical_formula_sum "Si O2"
_cell_formula_units_Z 16
_cell_length_a 8.012691
_cell_length_b 9.035564
_cell_length_c 15.974848
_cell_angle_alpha 40.495138
_cell_angle_beta 105.222378
_cell_angle_gamma 95.684245
_cell_volume 715.297661
_symmetry_space_group_name_H-M "P -1"
_symmetry_group_IT_number 2
_symmetry_cell_setting 'triclinic'
loop_
_space_group_symop_operation_xyz
x,y,z
-x,-y,-z
loop_
_atom_site_type_symbol
_atom_site_label
_atom_site_fract_x
_atom_site_fract_y
_atom_site_fract_z
Si Si1 0.354516 0.287337 0.931025
Si Si2 0.637261 0.867321 0.181194
Si Si3 0.476088 0.276822 0.228955
Si Si4 0.106022 0.995878 0.718484
Si Si5 0.758541 0.870826 0.477559
Si Si6 0.245340 0.987480 0.403082
Si Si7 0.493902 0.456882 0.419644
Si Si8 0.820864 0.518498 0.022159
O O1 0.291935 0.181170 0.883073
O O2 0.423783 0.521804 0.813011
O O3 0.189196 0.338473 0.952497
O O4 0.517391 0.115967 0.065535
O O5 0.514003 0.688492 0.273478
O O6 0.815932 0.858326 0.262100
O O7 0.611515 0.042212 0.329564
O O8 0.358659 0.196229 0.322786
O O9 0.352141 0.360102 0.099236
O O10 0.212769 0.735771 0.846321
O O11 0.089613 0.144290 0.565213
O O12 0.900893 0.970666 0.708341
O O13 0.692332 0.626509 0.589149
O O14 0.818992 0.986939 0.519835
O O15 0.352041 0.737029 0.509117
O O16 0.500000 0.500000 0.500000
O O17 0.000000 0.500000 0.000000
#
# Coordination Sequence:
#
# PCOD8029371 Si02
#       8
#     2   2   2   2   2   2   2   2
#     4  11  23  41  71  97 125 172 218 268 316 389
#     4  11  24  42  66  95 135 174 216 256 324 393
#     4  11  20  40  71  93 124 163 219 272 313 370
#     4  12  23  42  65  95 133 168 208 268 332 383
#     4  11  22  42  66  95 125 167 222 265 312 379
#     4  11  25  40  66  96 129 167 213 270 320 376
#     4  11  23  41  63  93 127 171 216 257 313 385
#     4  12  24  41  68 101 131 163 215 276 332 374
#
# _framework density 22.368310000000001
#
# number of rings (size 3 to 8) (size 9 to 14) (size 15 to 20)
#    0.000    0.750    5.000    4.500    1.750    0.500 
#    0.000    0.625    0.000    0.000    0.000    0.000 
#    0.000    0.000    0.000    0.000    0.000    0.000 
#
# Total GULP energy -198234.694193 kJ/mol
# GULP energy per Si atom -12389.668387 kJ/mol
# Density = 2.231740 g / cm^3
# Si number density = 22.368310 Si / 1000 Ang^3
#
#
#
# Elastic Constant Matrix: (Units=GPa)
#
#
# Indices 1 2 3 4 5 6 
#
# 1 60.1680 41.8933 12.5770 6.7316 -8.2780 1.4616
# 2 41.8933 124.4368 18.0184 16.2747 -12.7027 -7.6190
# 3 12.5770 18.0184 72.4471 -1.2116 -11.8660 4.8423
# 4 6.7316 16.2747 -1.2116 40.2769 2.5641 -6.7125
# 5 -8.2780 -12.7027 -11.8660 2.5641 27.6309 7.7155
# 6 1.4616 -7.6190 4.8423 -6.7125 7.7155 34.9804
#
#
#
# Elastic Compliance Matrix: (Units=1/GPa)
#
#
# Indices 1 2 3 4 5 6 
#
# 1 0.022618 -0.006974 -0.001300 -0.001861 0.004179 -0.003563
# 2 -0.006974 0.011372 -0.001412 -0.003318 0.002334 0.001812
# 3 -0.001300 -0.001412 0.015758 0.000179 0.006801 -0.003900
# 4 -0.001861 -0.003318 0.000179 0.027898 -0.006290 0.006071
# 5 0.004179 0.002334 0.006801 -0.006290 0.045319 -0.011811
# 6 -0.003563 0.001812 -0.003900 0.006071 -0.011811 0.033441
#
#
# Mechanical properties :
#
#
# Convention : Reuss Voigt Hill
#
# Bulk Modulus (GPa) = 32.92294 44.66991 38.79642
# Shear Modulus (GPa) = 26.89577 32.88184 29.88881
#
# Velocity S-wave (km/s) = 3.47133 3.83824 3.65939
# Velocity P-wave (km/s) = 5.55134 6.29733 5.93606
#
# Compressibility (1/GPa) = 0.03037396
#
# Stress axis : x y z
#
# Youngs Moduli (GPa) = 44.21304 87.93594 63.46118
#
# Poissons Ratio (x) = 0.61330 0.08252
# Poissons Ratio (y) = 0.30836 0.08960
# Poissons Ratio (z) = 0.05749 0.12415
#
# Static dielectric constant tensor:
#      x y z
#    x 3.985620 -0.003410 -0.267440 
#    y -0.003410 3.916300 -0.017470 
#    z -0.267440 -0.017470 4.255910 
# 
# 
# High freq. dielectric constant tensor:
#      x y z
#    x 1.867630 0.000800 -0.018400 
#    y 0.000800 1.876490 0.006340 
#    z -0.018400 0.006340 1.893190 
# 
# From -- ./inp_files/298873.got.cif
#   From: 2010.06.25/outbox.cif.g09.slc.cpg/sg2_150_cif.got.tgz:298873.got - 2010.06.27 13:26:56.
