data_PCOD8029213
_publ_section_title
;
Structure prediction by ZEFSAII (Michael W. Deem and Ramdas Pophale) SiO2 
 PCOD8029213
Probable space group: P -1
;
_chemical_formula_sum "Si O2"
_cell_formula_units_Z 14
_cell_length_a 9.385876
_cell_length_b 13.313457
_cell_length_c 10.963096
_cell_angle_alpha 86.620354
_cell_angle_beta 97.401760
_cell_angle_gamma 151.396161
_cell_volume 646.146033
_symmetry_space_group_name_H-M "P -1"
_symmetry_group_IT_number 2
_symmetry_cell_setting 'triclinic'
loop_
_space_group_symop_operation_xyz
x,y,z
-x,-y,-z
loop_
_atom_site_type_symbol
_atom_site_label
_atom_site_fract_x
_atom_site_fract_y
_atom_site_fract_z
Si Si1 0.679229 0.789227 0.184659
Si Si2 0.654050 0.488822 0.045757
Si Si3 0.387854 0.513948 0.392454
Si Si4 0.639754 0.053304 0.884096
Si Si5 0.259197 0.961981 0.693127
Si Si6 0.304696 0.129650 0.480946
Si Si7 0.676898 0.862867 0.805290
O O1 0.613940 0.666617 0.291799
O O2 0.736317 0.935322 0.231703
O O3 0.408021 0.623089 0.068559
O O4 0.975235 0.937340 0.132600
O O5 0.516424 0.353255 0.161741
O O6 0.004819 0.716542 0.088484
O O7 0.500000 0.500000 0.000000
O O8 0.500000 0.500000 0.500000
O O9 0.399856 0.626296 0.460012
O O10 0.062592 0.291056 0.316117
O O11 0.516106 0.045679 0.761543
O O12 0.548049 0.882244 0.856448
O O13 0.500000 0.000000 0.000000
O O14 0.316715 0.027822 0.553987
O O15 0.327900 0.128577 0.340935
O O16 0.000000 0.000000 0.500000
#
# Coordination Sequence:
#
# PCOD8029213 Si02
#       7
#     2   2   2   2   2   2   2
#     4  11  23  41  70 105 138 181 242 289 341 422
#     4  12  28  44  75 103 135 194 244 291 357 423
#     4  11  20  37  72 102 136 184 232 281 352 412
#     4  12  29  48  70 105 150 186 233 300 363 414
#     4  11  24  43  70 104 147 184 232 294 351 414
#     4  11  22  42  70 108 142 183 238 294 345 426
#     4  12  25  45  72 106 144 181 243 297 346 433
#
# _framework density 21.666930000000001
#
# number of rings (size 3 to 8) (size 9 to 14) (size 15 to 20)
#    0.000    0.571    5.714    2.143    6.000    6.286 
#    0.000    1.429    0.000    0.000    0.000    0.000 
#    0.000    0.000    0.000    0.000    0.000    0.000 
#
# Total GULP energy -173590.911812 kJ/mol
# GULP energy per Si atom -12399.350844 kJ/mol
# Density = 2.161762 g / cm^3
# Si number density = 21.666930 Si / 1000 Ang^3
#
#
#
# Elastic Constant Matrix: (Units=GPa)
#
#
# Indices 1 2 3 4 5 6 
#
# 1 118.6440 63.9400 52.8609 -7.2837 14.7957 -0.7459
# 2 63.9400 157.5361 55.2677 0.1563 9.7222 -1.4513
# 3 52.8609 55.2677 128.4297 -9.0555 5.9936 2.8043
# 4 -7.2837 0.1563 -9.0555 45.3478 -2.5108 2.9913
# 5 14.7957 9.7222 5.9936 -2.5108 43.8776 7.0379
# 6 -0.7459 -1.4513 2.8043 2.9913 7.0379 32.6890
#
#
#
# Elastic Compliance Matrix: (Units=1/GPa)
#
#
# Indices 1 2 3 4 5 6 
#
# 1 0.012310 -0.003647 -0.003301 0.001103 -0.002980 0.000943
# 2 -0.003647 0.008679 -0.002305 -0.001155 -0.000561 0.000726
# 3 -0.003301 -0.002305 0.010257 0.001642 0.000529 -0.001322
# 4 0.001103 -0.001155 0.001642 0.022805 0.001373 -0.002550
# 5 -0.002980 -0.000561 0.000529 0.001373 0.024826 -0.005609
# 6 0.000943 0.000726 -0.001322 -0.002550 -0.005609 0.032199
#
#
# Mechanical properties :
#
#
# Convention : Reuss Voigt Hill
#
# Bulk Modulus (GPa) = 78.49115 83.19412 80.84263
# Shear Modulus (GPa) = 37.36113 39.88562 38.62337
#
# Velocity S-wave (km/s) = 4.15702 4.29517 4.22666
# Velocity P-wave (km/s) = 7.70363 7.94218 7.82381
#
# Compressibility (1/GPa) = 0.01274029
#
# Stress axis : x y z
#
# Youngs Moduli (GPa) = 81.23510 115.22092 97.49442
#
# Poissons Ratio (x) = 0.42017 0.32184
# Poissons Ratio (y) = 0.29624 0.22473
# Poissons Ratio (z) = 0.26817 0.26559
#
# Static dielectric constant tensor:
#      x y z
#    x 3.802750 -0.146510 0.087740 
#    y -0.146510 4.407790 0.035810 
#    z 0.087740 0.035810 4.302980 
# 
# 
# High freq. dielectric constant tensor:
#      x y z
#    x 1.819830 -0.018830 0.008410 
#    y -0.018830 1.869740 0.004010 
#    z 0.008410 0.004010 1.873530 
# 
# From -- ./inp_files/392516.got.cif
#   From: 2010.06.25/outbox.cif.g09.slc.cpg/sg2_197_cif.got.tgz:392516.got - 2010.06.27 13:26:56.
