data_PCOD8029535
_publ_section_title
;
Structure prediction by ZEFSAII (Michael W. Deem and Ramdas Pophale) SiO2 
 PCOD8029535
Probable space group: P -1
;
_chemical_formula_sum "Si O2"
_cell_formula_units_Z 16
_cell_length_a 9.065608
_cell_length_b 18.764957
_cell_length_c 12.481387
_cell_angle_alpha 138.556489
_cell_angle_beta 34.831193
_cell_angle_gamma 142.721550
_cell_volume 705.404399
_symmetry_space_group_name_H-M "P -1"
_symmetry_group_IT_number 2
_symmetry_cell_setting 'triclinic'
loop_
_space_group_symop_operation_xyz
x,y,z
-x,-y,-z
loop_
_atom_site_type_symbol
_atom_site_label
_atom_site_fract_x
_atom_site_fract_y
_atom_site_fract_z
Si Si1 0.733638 0.475364 0.891748
Si Si2 0.885903 0.173514 0.665728
Si Si3 0.403635 0.202950 0.867618
Si Si4 0.143726 0.830119 0.719365
Si Si5 0.489880 0.022007 0.902879
Si Si6 0.781293 0.555976 0.171930
Si Si7 0.903756 0.557393 0.526864
Si Si8 0.048693 0.952749 0.714593
O O1 0.590813 0.336494 0.859746
O O2 0.030180 0.501922 0.683487
O O3 0.500000 0.500000 0.000000
O O4 0.825857 0.576621 0.042661
O O5 0.588547 0.156831 0.774243
O O6 0.809054 0.116767 0.768581
O O7 0.999842 0.103007 0.438791
O O8 0.127864 0.315727 0.680915
O O9 0.243368 0.100765 0.755135
O O10 0.176113 0.205369 0.089018
O O11 0.203233 0.902608 0.651823
O O12 0.135756 0.701772 0.553967
O O13 0.377356 0.902335 0.756711
O O14 0.269558 0.078652 0.084374
O O15 0.500000 0.000000 0.000000
O O16 0.434047 0.468660 0.305644
O O17 0.000000 0.500000 0.000000
O O18 0.000000 0.500000 0.500000
#
# Coordination Sequence:
#
# PCOD8029535 Si02
#       8
#     2   2   2   2   2   2   2   2
#     4  12  25  46  74 104 144 194 243 301 359 429
#     4  12  24  43  72 105 143 184 239 296 368 431
#     4  11  20  44  71 103 141 181 241 302 353 432
#     4  11  21  44  77 101 139 186 248 295 353 439
#     4  11  26  45  67 106 145 182 227 308 370 421
#     4  12  27  47  70 108 151 189 241 302 363 431
#     4  12  26  47  74 106 140 195 249 295 360 432
#     4  11  24  42  75 105 133 188 246 292 358 436
#
# _framework density 22.682026
#
# number of rings (size 3 to 8) (size 9 to 14) (size 15 to 20)
#    0.000    0.500    6.250    1.875    1.750    6.000 
#    0.000    0.000    0.000    0.000    0.000    0.000 
#    0.000    0.000    0.000    0.000    0.000    0.000 
#
# Total GULP energy -198221.751347 kJ/mol
# GULP energy per Si atom -12388.859459 kJ/mol
# Density = 2.263040 g / cm^3
# Si number density = 22.682026 Si / 1000 Ang^3
#
#
#
# Elastic Constant Matrix: (Units=GPa)
#
#
# Indices 1 2 3 4 5 6 
#
# 1 95.0455 18.6796 26.8384 -1.8348 13.9081 -2.6782
# 2 18.6796 86.5956 25.1372 2.9983 13.1473 0.9776
# 3 26.8384 25.1372 114.1518 -1.3001 20.2987 8.0722
# 4 -1.8348 2.9983 -1.3001 39.3303 4.9581 3.8690
# 5 13.9081 13.1473 20.2987 4.9581 48.1212 -0.2174
# 6 -2.6782 0.9776 8.0722 3.8690 -0.2174 35.1597
#
#
#
# Elastic Compliance Matrix: (Units=1/GPa)
#
#
# Indices 1 2 3 4 5 6 
#
# 1 0.011809 -0.001648 -0.002119 0.000745 -0.002140 0.001337
# 2 -0.001648 0.012853 -0.002092 -0.000874 -0.002063 0.000081
# 3 -0.002119 -0.002092 0.010521 0.001096 -0.003379 -0.002660
# 4 0.000745 -0.000874 0.001096 0.026265 -0.003159 -0.003080
# 5 -0.002140 -0.002063 -0.003379 -0.003159 0.023719 0.001164
# 6 0.001337 0.000081 -0.002660 -0.003080 0.001164 0.029498
#
#
# Mechanical properties :
#
#
# Convention : Reuss Voigt Hill
#
# Bulk Modulus (GPa) = 42.61768 48.56701 45.59235
# Shear Modulus (GPa) = 37.25698 39.53143 38.39421
#
# Velocity S-wave (km/s) = 4.05727 4.17928 4.11873
# Velocity P-wave (km/s) = 6.38581 6.68933 6.53933
#
# Compressibility (1/GPa) = 0.02346444
#
# Stress axis : x y z
#
# Youngs Moduli (GPa) = 84.68353 77.80198 95.05244
#
# Poissons Ratio (x) = 0.12823 0.20142
# Poissons Ratio (y) = 0.13957 0.19883
# Poissons Ratio (z) = 0.17944 0.16274
#
# Static dielectric constant tensor:
#      x y z
#    x 4.147640 -0.095070 0.215470 
#    y -0.095070 4.230910 -0.018750 
#    z 0.215470 -0.018750 4.473000 
# 
# 
# High freq. dielectric constant tensor:
#      x y z
#    x 1.882530 0.001060 0.008960 
#    y 0.001060 1.889330 0.001300 
#    z 0.008960 0.001300 1.917450 
# 
# From -- ./inp_files/403318.got.cif
#   From: 2010.06.25/outbox.cif.g09.slc.cpg/sg2_202_cif.got.tgz:403318.got - 2010.06.27 13:26:56.
