data_PCOD8029252
_publ_section_title
;
Structure prediction by ZEFSAII (Michael W. Deem and Ramdas Pophale) SiO2 
 PCOD8029252
Probable space group: P -1
;
_chemical_formula_sum "Si O2"
_cell_formula_units_Z 14
_cell_length_a 9.875908
_cell_length_b 8.503868
_cell_length_c 9.362955
_cell_angle_alpha 86.211300
_cell_angle_beta 62.961392
_cell_angle_gamma 107.222350
_cell_volume 650.107596
_symmetry_space_group_name_H-M "P -1"
_symmetry_group_IT_number 2
_symmetry_cell_setting 'triclinic'
loop_
_space_group_symop_operation_xyz
x,y,z
-x,-y,-z
loop_
_atom_site_type_symbol
_atom_site_label
_atom_site_fract_x
_atom_site_fract_y
_atom_site_fract_z
Si Si1 0.626960 0.819665 0.935966
Si Si2 0.465844 0.168360 0.524891
Si Si3 0.588537 0.614461 0.694633
Si Si4 0.276453 0.799359 0.188185
Si Si5 0.003403 0.400866 0.859169
Si Si6 0.782057 0.412838 0.501355
Si Si7 0.277579 0.276783 0.826834
O O1 0.605825 0.667435 0.847417
O O2 0.698825 0.004042 0.818458
O O3 0.452102 0.782096 0.097663
O O4 0.752810 0.806243 0.996756
O O5 0.407202 0.219753 0.401676
O O6 0.631511 0.313309 0.481196
O O7 0.326818 0.148755 0.710333
O O8 0.500000 0.000000 0.500000
O O9 0.745234 0.569334 0.579199
O O10 0.419746 0.461391 0.752597
O O11 0.185655 0.702080 0.380888
O O12 0.177269 0.724547 0.094183
O O13 0.065835 0.523559 0.684230
O O14 0.113913 0.290314 0.841705
O O15 0.000000 0.500000 0.000000
#
# Coordination Sequence:
#
# PCOD8029252 Si02
#       7
#     2   2   2   2   2   2   2
#     4  11  24  41  68  97 132 169 222 275 325 382
#     4  11  21  37  69 100 130 171 218 275 330 381
#     4  11  20  38  69  97 125 172 227 266 323 387
#     4  11  25  43  64  99 134 173 218 270 328 394
#     4  12  26  43  69  96 133 175 221 271 331 387
#     4  11  22  44  65  97 130 174 222 269 319 400
#     4  11  22  43  66  98 130 168 224 272 322 393
#
# _framework density 21.534896
#
# number of rings (size 3 to 8) (size 9 to 14) (size 15 to 20)
#    0.000    0.857    5.714    3.429    4.000    0.571 
#    0.000    0.714    0.000    0.000    0.000    0.000 
#    0.000    0.000    0.000    0.000    0.000    0.000 
#
# Total GULP energy -173616.024104 kJ/mol
# GULP energy per Si atom -12401.144579 kJ/mol
# Density = 2.148588 g / cm^3
# Si number density = 21.534896 Si / 1000 Ang^3
#
#
#
# Elastic Constant Matrix: (Units=GPa)
#
#
# Indices 1 2 3 4 5 6 
#
# 1 89.2161 28.7145 32.1207 -7.0015 17.1413 -3.7077
# 2 28.7145 94.5681 49.6373 10.7611 1.9618 -24.0083
# 3 32.1207 49.6373 113.7658 3.6964 20.6945 -19.1782
# 4 -7.0015 10.7611 3.6964 29.9813 -6.1290 5.1460
# 5 17.1413 1.9618 20.6945 -6.1290 33.3938 -1.6814
# 6 -3.7077 -24.0083 -19.1782 5.1460 -1.6814 33.8822
#
#
#
# Elastic Compliance Matrix: (Units=1/GPa)
#
#
# Indices 1 2 3 4 5 6 
#
# 1 0.014746 -0.004987 -0.001840 0.005040 -0.005412 -0.003996
# 2 -0.004987 0.018496 -0.005208 -0.008296 0.003735 0.011058
# 3 -0.001840 -0.005208 0.013668 -0.002433 -0.007473 0.003844
# 4 0.005040 -0.008296 -0.002433 0.041279 0.006347 -0.012658
# 5 -0.005412 0.003735 -0.007473 0.006347 0.038238 -0.001242
# 6 -0.003996 0.011058 0.003844 -0.012658 -0.001242 0.040949
#
#
# Mechanical properties :
#
#
# Convention : Reuss Voigt Hill
#
# Bulk Modulus (GPa) = 43.78379 57.61056 50.69718
# Shear Modulus (GPa) = 25.11835 31.92329 28.52082
#
# Velocity S-wave (km/s) = 3.41897 3.85437 3.64318
# Velocity P-wave (km/s) = 5.99679 6.82777 6.42573
#
# Compressibility (1/GPa) = 0.02283950
#
# Stress axis : x y z
#
# Youngs Moduli (GPa) = 67.81656 54.06634 73.16311
#
# Poissons Ratio (x) = 0.26963 0.13464
# Poissons Ratio (y) = 0.33821 0.38101
# Poissons Ratio (z) = 0.12480 0.28156
#
# Static dielectric constant tensor:
#      x y z
#    x 3.862500 0.106370 0.215680 
#    y 0.106370 3.257960 -0.197110 
#    z 0.215680 -0.197110 3.862590 
# 
# 
# High freq. dielectric constant tensor:
#      x y z
#    x 1.844400 -0.010500 0.024160 
#    y -0.010500 1.836730 0.006420 
#    z 0.024160 0.006420 1.848300 
# 
# From -- ./inp_files/157408.got.cif
#   From: 2010.06.25/outbox.cif.g09.slc.cpg/sg2_79_cif.got.tgz:157408.got - 2010.06.27 13:26:56.
