data_PCOD8029964
_publ_section_title
;
Structure prediction by ZEFSAII (Michael W. Deem and Ramdas Pophale) SiO2 
 PCOD8029964
Probable space group: P -1
;
_chemical_formula_sum "Si O2"
_cell_formula_units_Z 16
_cell_length_a 18.889858
_cell_length_b 12.428474
_cell_length_c 10.177181
_cell_angle_alpha 45.532039
_cell_angle_beta 27.563518
_cell_angle_gamma 47.307172
_cell_volume 777.141683
_symmetry_space_group_name_H-M "P -1"
_symmetry_group_IT_number 2
_symmetry_cell_setting 'triclinic'
loop_
_space_group_symop_operation_xyz
x,y,z
-x,-y,-z
loop_
_atom_site_type_symbol
_atom_site_label
_atom_site_fract_x
_atom_site_fract_y
_atom_site_fract_z
Si Si1 0.987531 0.104458 0.302749
Si Si2 0.598002 0.909936 0.799933
Si Si3 0.460603 0.899349 0.529555
Si Si4 0.948831 0.907511 0.283309
Si Si5 0.773882 0.374879 0.535377
Si Si6 0.214592 0.692024 0.137684
Si Si7 0.580140 0.624346 0.925069
Si Si8 0.257725 0.294646 0.674023
O O1 0.844097 0.246558 0.425656
O O2 0.142748 0.173029 0.962976
O O3 0.000000 0.000000 0.500000
O O4 0.951273 0.004702 0.327165
O O5 0.777870 0.875808 0.568716
O O6 0.552765 0.743563 0.989235
O O7 0.559206 0.009327 0.649609
O O8 0.500000 0.000000 0.000000
O O9 0.606619 0.762152 0.395512
O O10 0.500000 0.000000 0.500000
O O11 0.304743 0.834850 0.869210
O O12 0.064392 0.743388 0.247757
O O13 0.000000 0.000000 0.000000
O O14 0.846055 0.324818 0.601140
O O15 0.823133 0.538922 0.281541
O O16 0.586829 0.400738 0.832016
O O17 0.321147 0.535178 0.047106
O O18 0.673126 0.691916 0.597528
#
# Coordination Sequence:
#
# PCOD8029964 Si02
#       8
#     2   2   2   2   2   2   2   2
#     4  12  26  41  66  99 134 171 216 273 330 381
#     4  12  27  42  63  97 136 172 214 272 331 384
#     4  12  21  39  70  98 123 167 226 269 316 385
#     4  12  25  44  64  92 133 177 219 263 323 393
#     4  11  21  41  67 102 134 158 218 282 330 376
#     4  11  21  41  68  96 127 171 223 269 319 391
#     4  11  22  43  69  96 129 173 223 268 326 392
#     4  11  22  39  68 101 127 169 218 274 327 382
#
# _framework density 20.588267999999999
#
# number of rings (size 3 to 8) (size 9 to 14) (size 15 to 20)
#    0.000    0.500    6.250    3.375    3.500    0.500 
#    0.000    1.875    0.000    0.000    0.000    0.000 
#    0.000    0.000    0.000    0.000    0.000    0.000 
#
# Total GULP energy -198408.384033 kJ/mol
# GULP energy per Si atom -12400.524002 kJ/mol
# Density = 2.054141 g / cm^3
# Si number density = 20.588268 Si / 1000 Ang^3
#
#
#
# Elastic Constant Matrix: (Units=GPa)
#
#
# Indices 1 2 3 4 5 6 
#
# 1 118.0935 49.7410 27.4767 -3.8898 4.5982 -22.1971
# 2 49.7410 126.8166 10.5286 2.0100 12.7054 -12.8670
# 3 27.4767 10.5286 58.5564 -7.7573 -4.9945 -10.4157
# 4 -3.8898 2.0100 -7.7573 34.0691 -3.2012 -7.4374
# 5 4.5982 12.7054 -4.9945 -3.2012 26.7435 4.4844
# 6 -22.1971 -12.8670 -10.4157 -7.4374 4.4844 42.0008
#
#
#
# Elastic Compliance Matrix: (Units=1/GPa)
#
#
# Indices 1 2 3 4 5 6 
#
# 1 0.011974 -0.003752 -0.004061 0.001518 -0.001626 0.004614
# 2 -0.003752 0.009987 -0.000365 -0.001254 -0.004527 0.001247
# 3 -0.004061 -0.000365 0.020783 0.005477 0.004847 0.003348
# 4 0.001518 -0.001254 0.005477 0.032790 0.004084 0.007147
# 5 -0.001626 -0.004527 0.004847 0.004084 0.042023 -0.004808
# 6 0.004614 0.001247 0.003348 0.007147 -0.004808 0.029239
#
#
# Mechanical properties :
#
#
# Convention : Reuss Voigt Hill
#
# Bulk Modulus (GPa) = 37.89672 53.21769 45.55720
# Shear Modulus (GPa) = 29.07834 34.94404 32.01119
#
# Velocity S-wave (km/s) = 3.76223 4.12427 3.94741
# Velocity P-wave (km/s) = 6.10896 6.97024 6.55376
#
# Compressibility (1/GPa) = 0.02638751
#
# Stress axis : x y z
#
# Youngs Moduli (GPa) = 83.51631 100.12525 48.11581
#
# Poissons Ratio (x) = 0.37570 0.19538
# Poissons Ratio (y) = 0.31338 0.01759
# Poissons Ratio (z) = 0.33913 0.03659
#
# Static dielectric constant tensor:
#      x y z
#    x 6.545180 0.280470 0.768570 
#    y 0.280470 4.398750 0.156160 
#    z 0.768570 0.156160 3.968310 
# 
# 
# High freq. dielectric constant tensor:
#      x y z
#    x 1.794780 -0.011980 -0.012090 
#    y -0.011980 1.831180 -0.001380 
#    z -0.012090 -0.001380 1.799260 
# 
# From -- ./inp_files/283483.got.cif
#   From: 2010.06.25/outbox.cif.g09.slc.cpg/sg2_142_cif.got.tgz:283483.got - 2010.06.27 13:26:56.
