data_PCOD8029400
_publ_section_title
;
Structure prediction by ZEFSAII (Michael W. Deem and Ramdas Pophale) SiO2 
 PCOD8029400
Probable space group: P -1
;
_chemical_formula_sum "Si O2"
_cell_formula_units_Z 16
_cell_length_a 19.947209
_cell_length_b 13.044106
_cell_length_c 15.588606
_cell_angle_alpha 135.179497
_cell_angle_beta 152.788671
_cell_angle_gamma 26.929910
_cell_volume 768.578982
_symmetry_space_group_name_H-M "P -1"
_symmetry_group_IT_number 2
_symmetry_cell_setting 'triclinic'
loop_
_space_group_symop_operation_xyz
x,y,z
-x,-y,-z
loop_
_atom_site_type_symbol
_atom_site_label
_atom_site_fract_x
_atom_site_fract_y
_atom_site_fract_z
Si Si1 0.479213 0.141878 0.951902
Si Si2 0.638496 0.602303 0.351298
Si Si3 0.901102 0.613168 0.193561
Si Si4 0.753960 0.682536 0.381269
Si Si5 0.868141 0.891904 0.706806
Si Si6 0.326172 0.673791 0.324388
Si Si7 0.869587 0.871054 0.885365
Si Si8 0.429957 0.492223 0.140896
O O1 0.208769 0.330333 0.802439
O O2 0.466860 0.141244 0.834803
O O3 0.581365 0.218515 0.143696
O O4 0.676377 0.859685 0.030641
O O5 0.748362 0.533935 0.339381
O O6 0.557958 0.507911 0.233749
O O7 0.860648 0.472678 0.589715
O O8 0.408219 0.903033 0.258559
O O9 0.996998 0.390280 0.125661
O O10 0.750160 0.825729 0.525187
O O11 0.000000 0.500000 0.500000
O O12 0.824214 0.983627 0.808061
O O13 0.714747 0.119945 0.603862
O O14 0.165623 0.666009 0.898038
O O15 0.500000 0.500000 0.500000
O O16 0.426889 0.536178 0.264504
O O17 0.056857 0.819176 0.123419
#
# Coordination Sequence:
#
# PCOD8029400 Si02
#       8
#     2   2   2   2   2   2   2   2
#     4  11  24  44  64  94 135 179 220 257 325 397
#     4  12  23  40  70  96 126 172 223 277 319 384
#     4  11  23  40  68  91 129 181 214 265 324 392
#     4  12  23  42  64  99 126 171 226 262 318 392
#     4  11  20  41  68  93 129 175 214 263 318 406
#     4  11  23  39  65 104 132 166 212 270 333 384
#     4  11  20  42  66  97 127 170 222 262 330 386
#     4  11  21  43  67  93 132 176 218 259 327 394
#
# _framework density 20.817639
#
# number of rings (size 3 to 8) (size 9 to 14) (size 15 to 20)
#    0.000    0.750    8.750    1.125    1.750    1.000 
#    2.250    0.625    0.000    0.000    0.000    0.000 
#    0.000    0.000    0.000    0.000    0.000    0.000 
#
# Total GULP energy -198239.581009 kJ/mol
# GULP energy per Si atom -12389.973813 kJ/mol
# Density = 2.077026 g / cm^3
# Si number density = 20.817639 Si / 1000 Ang^3
#
#
#
# Elastic Constant Matrix: (Units=GPa)
#
#
# Indices 1 2 3 4 5 6 
#
# 1 107.1370 22.2982 46.1754 5.4160 1.5109 22.0283
# 2 22.2982 78.0093 23.0895 -5.5132 1.9949 17.4894
# 3 46.1754 23.0895 101.4912 6.8489 2.4990 7.5718
# 4 5.4160 -5.5132 6.8489 27.2063 2.4793 2.5568
# 5 1.5109 1.9949 2.4990 2.4793 43.0958 -0.6327
# 6 22.0283 17.4894 7.5718 2.5568 -0.6327 30.3787
#
#
#
# Elastic Compliance Matrix: (Units=1/GPa)
#
#
# Indices 1 2 3 4 5 6 
#
# 1 0.013439 -0.000486 -0.005352 -0.000647 -0.000220 -0.008082
# 2 -0.000486 0.016208 -0.003140 0.005072 -0.000970 -0.008644
# 3 -0.005352 -0.003140 0.013014 -0.003082 -0.000205 0.002700
# 4 -0.000647 0.005072 -0.003082 0.039379 -0.002373 -0.005047
# 5 -0.000220 -0.000970 -0.000205 -0.002373 0.023427 0.001456
# 6 -0.008082 -0.008644 0.002700 -0.005047 0.001456 0.043536
#
#
# Mechanical properties :
#
#
# Convention : Reuss Voigt Hill
#
# Bulk Modulus (GPa) = 40.47550 52.19599 46.33575
# Shear Modulus (GPa) = 28.53979 33.14110 30.84045
#
# Velocity S-wave (km/s) = 3.70664 3.99428 3.85315
# Velocity P-wave (km/s) = 6.14850 6.81174 6.48860
#
# Compressibility (1/GPa) = 0.02470630
#
# Stress axis : x y z
#
# Youngs Moduli (GPa) = 74.41040 61.69655 76.84048
#
# Poissons Ratio (x) = 0.02996 0.41124
# Poissons Ratio (y) = 0.03613 0.24128
# Poissons Ratio (z) = 0.39823 0.19373
#
# Static dielectric constant tensor:
#      x y z
#    x 3.903190 0.030180 -0.002410 
#    y 0.030180 3.916100 0.261830 
#    z -0.002410 0.261830 4.108100 
# 
# 
# High freq. dielectric constant tensor:
#      x y z
#    x 1.806580 0.016190 0.004050 
#    y 0.016190 1.810230 0.001280 
#    z 0.004050 0.001280 1.812120 
# 
# From -- ./inp_files/177859.got.cif
#   From: 2010.06.25/outbox.cif.g09.slc.cpg/sg2_89_cif.got.tgz:177859.got - 2010.06.27 13:26:56.
