data_PCOD8029221
_publ_section_title
;
Structure prediction by ZEFSAII (Michael W. Deem and Ramdas Pophale) SiO2 
 PCOD8029221
Probable space group: P -1
;
_chemical_formula_sum "Si O2"
_cell_formula_units_Z 14
_cell_length_a 10.808847
_cell_length_b 8.656280
_cell_length_c 11.451838
_cell_angle_alpha 78.039994
_cell_angle_beta 47.389563
_cell_angle_gamma 87.208680
_cell_volume 765.197773
_symmetry_space_group_name_H-M "P -1"
_symmetry_group_IT_number 2
_symmetry_cell_setting 'triclinic'
loop_
_space_group_symop_operation_xyz
x,y,z
-x,-y,-z
loop_
_atom_site_type_symbol
_atom_site_label
_atom_site_fract_x
_atom_site_fract_y
_atom_site_fract_z
Si Si1 0.311628 0.492550 0.789570
Si Si2 0.851366 0.670734 0.875694
Si Si3 0.509496 0.784601 0.301271
Si Si4 0.815882 0.054883 0.107323
Si Si5 0.294375 0.662386 0.996537
Si Si6 0.217499 0.771070 0.663970
Si Si7 0.522674 0.818498 0.028096
O O1 0.445972 0.389429 0.660480
O O2 0.392335 0.610990 0.824186
O O3 0.232381 0.591636 0.724941
O O4 0.169212 0.364317 0.964892
O O5 0.036233 0.762882 0.717197
O O6 0.823415 0.496952 0.856929
O O7 0.718032 0.786851 0.900070
O O8 0.361947 0.834225 0.469523
O O9 0.444961 0.765146 0.212082
O O10 0.673105 0.915661 0.180764
O O11 0.817375 0.198967 0.990519
O O12 0.767733 0.104825 0.259721
O O13 0.000000 0.000000 0.000000
O O14 0.426433 0.715860 0.003976
O O15 0.500000 0.000000 0.000000
#
# Coordination Sequence:
#
# PCOD8029221 Si02
#       7
#     2   2   2   2   2   2   2
#     4   8  19  35  59  80 109 149 191 220 285 335
#     4   9  20  35  60  82 105 153 190 233 270 330
#     4  11  22  35  58  86 116 150 176 244 288 325
#     4  11  22  36  60  85 113 148 193 228 279 340
#     4   9  20  35  62  81 104 148 197 235 259 327
#     4  11  21  37  55  87 122 139 183 238 294 332
#     4  11  20  38  61  80 111 146 207 224 274 337
#
# _framework density 18.295923999999999
#
# number of rings (size 3 to 8) (size 9 to 14) (size 15 to 20)
#    0.857    1.143    1.429    3.429    2.000    0.000 
#    0.000    1.429    0.000    0.000    0.000    0.000 
#    0.000    0.000    0.000    0.000    0.000    0.000 
#
# Total GULP energy -173467.987552 kJ/mol
# GULP energy per Si atom -12390.570539 kJ/mol
# Density = 1.825428 g / cm^3
# Si number density = 18.295924 Si / 1000 Ang^3
#
#
#
# Elastic Constant Matrix: (Units=GPa)
#
#
# Indices 1 2 3 4 5 6 
#
# 1 101.6439 42.8392 40.1749 8.0967 -9.3846 -1.2193
# 2 42.8392 108.2813 24.7896 10.9555 -4.8689 -10.9810
# 3 40.1749 24.7896 82.5728 15.4373 -11.6541 -2.2956
# 4 8.0967 10.9555 15.4373 21.9459 3.4228 -0.4976
# 5 -9.3846 -4.8689 -11.6541 3.4228 16.1785 1.5168
# 6 -1.2193 -10.9810 -2.2956 -0.4976 1.5168 34.1740
#
#
#
# Elastic Compliance Matrix: (Units=1/GPa)
#
#
# Indices 1 2 3 4 5 6 
#
# 1 0.013961 -0.004362 -0.005074 0.000058 0.003248 -0.001388
# 2 -0.004362 0.011888 -0.000378 -0.004187 0.001331 0.003519
# 3 -0.005074 -0.000378 0.019140 -0.013516 0.013573 0.000184
# 4 0.000058 -0.004187 -0.013516 0.060849 -0.023807 -0.000309
# 5 0.003248 0.001331 0.013573 -0.023807 0.079134 -0.002404
# 6 -0.001388 0.003519 0.000184 -0.000309 -0.002404 0.030458
#
#
# Mechanical properties :
#
#
# Convention : Reuss Voigt Hill
#
# Bulk Modulus (GPa) = 39.43129 56.45617 47.94373
# Shear Modulus (GPa) = 20.53289 26.77263 23.65276
#
# Velocity S-wave (km/s) = 3.35366 3.82948 3.59944
# Velocity P-wave (km/s) = 6.04936 7.10475 6.59819
#
# Compressibility (1/GPa) = 0.02536057
#
# Stress axis : x y z
#
# Youngs Moduli (GPa) = 71.62860 84.11909 52.24601
#
# Poissons Ratio (x) = 0.36695 0.26509
# Poissons Ratio (y) = 0.31246 0.01975
# Poissons Ratio (z) = 0.36343 0.03181
#
# Static dielectric constant tensor:
#      x y z
#    x 3.364150 -0.010770 0.022230 
#    y -0.010770 3.621900 0.165700 
#    z 0.022230 0.165700 3.034720 
# 
# 
# High freq. dielectric constant tensor:
#      x y z
#    x 1.704070 -0.001650 0.001760 
#    y -0.001650 1.729110 0.015470 
#    z 0.001760 0.015470 1.666050 
# 
# From -- ./inp_files/231957.got.cif
#   From: 2010.06.25/outbox.cif.g09.slc.cpg/sg2_116_cif.got.tgz:231957.got - 2010.06.27 13:26:56.
