data_PCOD8029314
_publ_section_title
;
Structure prediction by ZEFSAII (Michael W. Deem and Ramdas Pophale) SiO2 
 PCOD8029314
Probable space group: P -1
;
_chemical_formula_sum "Si O2"
_cell_formula_units_Z 16
_cell_length_a 21.526338
_cell_length_b 14.898859
_cell_length_c 9.311336
_cell_angle_alpha 36.596355
_cell_angle_beta 141.865608
_cell_angle_gamma 153.210930
_cell_volume 774.812210
_symmetry_space_group_name_H-M "P -1"
_symmetry_group_IT_number 2
_symmetry_cell_setting 'triclinic'
loop_
_space_group_symop_operation_xyz
x,y,z
-x,-y,-z
loop_
_atom_site_type_symbol
_atom_site_label
_atom_site_fract_x
_atom_site_fract_y
_atom_site_fract_z
Si Si1 0.723557 0.540141 0.684524
Si Si2 0.695857 0.855454 0.213349
Si Si3 0.412347 0.104948 0.769608
Si Si4 0.325617 0.732584 0.279577
Si Si5 0.942002 0.609959 0.150681
Si Si6 0.217839 0.842479 0.480733
Si Si7 0.904061 0.322071 0.934110
Si Si8 0.442133 0.096518 0.327183
O O1 0.707884 0.693099 0.407523
O O2 0.575664 0.315049 0.762291
O O3 0.774437 0.484178 0.718237
O O4 0.855947 0.668822 0.872335
O O5 0.647535 0.825284 0.328633
O O6 0.851682 0.096748 0.164532
O O7 0.572391 0.795495 0.963507
O O8 0.315497 0.004313 0.579917
O O9 0.403910 0.936515 0.054334
O O10 0.439951 0.738160 0.549770
O O11 0.242177 0.732863 0.254605
O O12 0.820375 0.373042 0.296784
O O13 0.068692 0.780724 0.275726
O O14 0.013529 0.587743 0.180902
O O15 0.290379 0.932356 0.341472
O O16 0.000000 0.500000 0.000000
O O17 0.500000 0.000000 0.500000
#
# Coordination Sequence:
#
# PCOD8029314 Si02
#       8
#     2   2   2   2   2   2   2   2
#     4  12  23  40  64  97 127 169 206 260 330 375
#     4  11  26  40  65  92 131 162 208 268 320 373
#     4  11  21  43  67  91 124 168 215 262 303 381
#     4  11  21  37  69  95 121 164 220 258 310 374
#     4  11  22  37  64  95 127 164 209 263 311 366
#     4  11  22  39  65  95 122 162 217 264 300 371
#     4  11  20  40  61  92 121 164 214 254 303 379
#     4  12  21  40  65  95 125 161 214 270 309 367
#
# _framework density 20.650164
#
# number of rings (size 3 to 8) (size 9 to 14) (size 15 to 20)
#    0.000    0.750    7.500    2.250    0.000    1.000 
#    0.000    0.625    0.000    0.000    0.000    0.000 
#    0.000    0.000    0.000    0.000    0.000    0.000 
#
# Total GULP energy -198288.114236 kJ/mol
# GULP energy per Si atom -12393.007140 kJ/mol
# Density = 2.060316 g / cm^3
# Si number density = 20.650164 Si / 1000 Ang^3
#
#
#
# Elastic Constant Matrix: (Units=GPa)
#
#
# Indices 1 2 3 4 5 6 
#
# 1 77.5311 19.1209 33.2855 -10.7264 -5.1754 -1.8429
# 2 19.1209 93.4094 51.8254 16.2645 7.0266 3.6224
# 3 33.2855 51.8254 136.8702 17.3949 17.0289 -6.5352
# 4 -10.7264 16.2645 17.3949 35.2025 -5.7239 6.1158
# 5 -5.1754 7.0266 17.0289 -5.7239 30.0518 -0.6784
# 6 -1.8429 3.6224 -6.5352 6.1158 -0.6784 24.1325
#
#
#
# Elastic Compliance Matrix: (Units=1/GPa)
#
#
# Indices 1 2 3 4 5 6 
#
# 1 0.018629 -0.003110 -0.006247 0.012242 0.009748 -0.002631
# 2 -0.003110 0.014814 -0.003802 -0.006053 -0.003044 -0.002042
# 3 -0.006247 -0.003802 0.012779 -0.008889 -0.008996 0.005554
# 4 0.012242 -0.006053 -0.008889 0.043993 0.016686 -0.011244
# 5 0.009748 -0.003044 -0.008996 0.016686 0.043846 -0.004231
# 6 -0.002631 -0.002042 0.005554 -0.011244 -0.004231 0.045778
#
#
# Mechanical properties :
#
#
# Convention : Reuss Voigt Hill
#
# Bulk Modulus (GPa) = 50.24340 57.36382 53.80361
# Shear Modulus (GPa) = 23.49697 31.44929 27.47313
#
# Velocity S-wave (km/s) = 3.37688 3.90674 3.65143
# Velocity P-wave (km/s) = 6.29190 6.94185 6.62485
#
# Compressibility (1/GPa) = 0.01990311
#
# Stress axis : x y z
#
# Youngs Moduli (GPa) = 53.68017 67.50334 78.25177
#
# Poissons Ratio (x) = 0.20995 0.48883
# Poissons Ratio (y) = 0.16696 0.29754
# Poissons Ratio (z) = 0.33533 0.25667
#
# Static dielectric constant tensor:
#      x y z
#    x 3.900240 0.127800 -0.138480 
#    y 0.127800 4.122340 0.563850 
#    z -0.138480 0.563850 3.811290 
# 
# 
# High freq. dielectric constant tensor:
#      x y z
#    x 1.806700 0.012380 -0.014920 
#    y 0.012380 1.809910 0.033490 
#    z -0.014920 0.033490 1.794840 
# 
# From -- ./inp_files/347480.got.cif
#   From: 2010.06.25/outbox.cif.g09.slc.cpg/sg2_174_cif.got.tgz:347480.got - 2010.06.27 13:26:56.
