data_PCOD8029103
_publ_section_title
;
Structure prediction by ZEFSAII (Michael W. Deem and Ramdas Pophale) SiO2 
 PCOD8029103
Probable space group: P -1
;
_chemical_formula_sum "Si O2"
_cell_formula_units_Z 12
_cell_length_a 20.231233
_cell_length_b 9.980747
_cell_length_c 16.595500
_cell_angle_alpha 34.189810
_cell_angle_beta 161.869320
_cell_angle_gamma 146.012969
_cell_volume 567.940480
_symmetry_space_group_name_H-M "P -1"
_symmetry_group_IT_number 2
_symmetry_cell_setting 'triclinic'
loop_
_space_group_symop_operation_xyz
x,y,z
-x,-y,-z
loop_
_atom_site_type_symbol
_atom_site_label
_atom_site_fract_x
_atom_site_fract_y
_atom_site_fract_z
Si Si1 0.012854 0.142374 0.070292
Si Si2 0.240620 0.492608 0.421815
Si Si3 0.949426 0.549617 0.603751
Si Si4 0.290818 0.975856 0.713221
Si Si5 0.722110 0.765271 0.813535
Si Si6 0.847579 0.263693 0.480382
O O1 0.245804 0.210670 0.258528
O O2 0.942018 0.390041 0.892266
O O3 0.022375 0.950883 0.247431
O O4 0.826427 0.028683 0.844063
O O5 0.470609 0.688487 0.583204
O O6 0.184378 0.428003 0.482464
O O7 0.252577 0.242645 0.515677
O O8 0.062436 0.819590 0.565042
O O9 0.778982 0.368786 0.433600
O O10 0.156118 0.434863 0.913103
O O11 0.338692 0.853588 0.743443
O O12 0.500000 0.000000 0.000000
O O13 0.000000 0.500000 0.500000
#
# Coordination Sequence:
#
# PCOD8029103 Si02
#       6
#     2   2   2   2   2   2
#     4   9  19  34  58  85 116 149 191 231 290 333
#     4  11  20  33  64  87 114 149 196 234 281 341
#     4   9  19  38  61  84 114 155 193 228 282 339
#     4  11  21  37  61  84 119 155 187 236 292 333
#     4   9  17  34  58  87 116 149 186 240 279 339
#     4   9  20  39  61  80 118 154 184 238 288 336
#
# _framework density 21.128975000000001
#
# number of rings (size 3 to 8) (size 9 to 14) (size 15 to 20)
#    0.000    2.333    1.667    2.000    0.000    0.667 
#    0.000    1.667   18.333    0.000    0.000    0.000 
#    0.000    0.000    0.000    0.000    0.000    0.000 
#
# Total GULP energy -148660.778329 kJ/mol
# GULP energy per Si atom -12388.398194 kJ/mol
# Density = 2.108088 g / cm^3
# Si number density = 21.128975 Si / 1000 Ang^3
#
#
#
# Elastic Constant Matrix: (Units=GPa)
#
#
# Indices 1 2 3 4 5 6 
#
# 1 75.8605 28.2592 27.7017 14.3114 -5.0264 1.8065
# 2 28.2592 95.5904 32.1413 -6.6824 -7.8204 -3.1165
# 3 27.7017 32.1413 59.8043 -1.5993 -5.9323 1.3603
# 4 14.3114 -6.6824 -1.5993 37.1458 6.2006 -7.8439
# 5 -5.0264 -7.8204 -5.9323 6.2006 33.4385 5.5850
# 6 1.8065 -3.1165 1.3603 -7.8439 5.5850 39.6401
#
#
#
# Elastic Compliance Matrix: (Units=1/GPa)
#
#
# Indices 1 2 3 4 5 6 
#
# 1 0.019174 -0.003965 -0.006623 -0.009601 0.003111 -0.003296
# 2 -0.003965 0.013896 -0.005517 0.004168 0.000533 0.002212
# 3 -0.006623 -0.005517 0.022978 0.002147 0.001511 -0.000708
# 4 -0.009601 0.004168 0.002147 0.034619 -0.007954 0.008663
# 5 0.003111 0.000533 0.001511 -0.007954 0.033313 -0.006419
# 6 -0.003296 0.002212 -0.000708 0.008663 -0.006419 0.028194
#
#
# Mechanical properties :
#
#
# Convention : Reuss Voigt Hill
#
# Bulk Modulus (GPa) = 41.95517 45.27329 43.61423
# Shear Modulus (GPa) = 25.99682 31.58840 28.79261
#
# Velocity S-wave (km/s) = 3.51149 3.87075 3.69549
# Velocity P-wave (km/s) = 6.02832 6.43821 6.23663
#
# Compressibility (1/GPa) = 0.02383496
#
# Stress axis : x y z
#
# Youngs Moduli (GPa) = 52.15455 71.96389 43.52009
#
# Poissons Ratio (x) = 0.28537 0.28825
# Poissons Ratio (y) = 0.20681 0.24012
# Poissons Ratio (z) = 0.34544 0.39706
#
# Static dielectric constant tensor:
#      x y z
#    x 4.026460 -0.105500 -0.218160 
#    y -0.105500 4.128620 -0.162360 
#    z -0.218160 -0.162360 3.430010 
# 
# 
# High freq. dielectric constant tensor:
#      x y z
#    x 1.820410 0.006080 -0.010920 
#    y 0.006080 1.846260 -0.024050 
#    z -0.010920 -0.024050 1.784790 
# 
# From -- ./inp_files/28864.got.cif
#   From: 2010.06.25/outbox.cif.g09.slc.cpg/sg2_15_cif.got.tgz:28864.got - 2010.06.27 13:26:56.
