data_PCOD8029256
_publ_section_title
;
Structure prediction by ZEFSAII (Michael W. Deem and Ramdas Pophale) SiO2 
 PCOD8029256
Probable space group: P -1
;
_chemical_formula_sum "Si O2"
_cell_formula_units_Z 16
_cell_length_a 17.865102
_cell_length_b 29.898964
_cell_length_c 24.307154
_cell_angle_alpha 169.609289
_cell_angle_beta 19.725072
_cell_angle_gamma 160.625304
_cell_volume 757.048277
_symmetry_space_group_name_H-M "P -1"
_symmetry_group_IT_number 2
_symmetry_cell_setting 'triclinic'
loop_
_space_group_symop_operation_xyz
x,y,z
-x,-y,-z
loop_
_atom_site_type_symbol
_atom_site_label
_atom_site_fract_x
_atom_site_fract_y
_atom_site_fract_z
Si Si1 0.196255 0.408976 0.725085
Si Si2 0.746784 0.806416 0.945522
Si Si3 0.307062 0.799786 0.745313
Si Si4 0.499912 0.064558 0.832851
Si Si5 0.809027 0.991990 0.668957
Si Si6 0.423767 0.839539 0.304321
Si Si7 0.824530 0.723551 0.167886
Si Si8 0.967519 0.998655 0.296132
O O1 0.278666 0.256942 0.532598
O O2 0.405877 0.659405 0.866904
O O3 0.111519 0.243668 0.528633
O O4 0.000000 0.500000 0.000000
O O5 0.740870 0.505467 0.580633
O O6 0.591397 0.882735 0.099202
O O7 0.646621 0.861479 0.139599
O O8 0.000000 0.000000 0.000000
O O9 0.291361 0.865947 0.771225
O O10 0.567028 0.988740 0.805386
O O11 0.128774 0.906686 0.031224
O O12 0.715443 0.948482 0.534895
O O13 0.928191 0.231198 0.916888
O O14 0.000000 0.000000 0.500000
O O15 0.500000 0.000000 0.500000
O O16 0.230397 0.927728 0.511915
O O17 0.338201 0.548814 0.032576
O O18 0.860509 0.752756 0.112621
#
# Coordination Sequence:
#
# PCOD8029256 Si02
#       8
#     2   2   2   2   2   2   2   2
#     4  11  20  39  71 103 141 183 226 278 351 424
#     4  12  28  49  74 102 141 186 241 295 342 419
#     4  12  27  45  70 109 144 182 234 292 352 414
#     4  12  23  44  73 104 139 187 230 283 352 423
#     4  11  20  38  71 103 138 182 228 274 347 425
#     4  12  28  49  73 103 137 188 243 287 347 420
#     4  11  24  43  74 102 138 188 230 280 354 420
#     4  11  28  46  68 108 147 179 232 296 349 411
#
# _framework density 21.134716000000001
#
# number of rings (size 3 to 8) (size 9 to 14) (size 15 to 20)
#    0.000    0.500    7.500    0.000    7.000    4.500 
#    0.000    0.000    0.000    0.000    0.000    0.000 
#    0.000    0.000    0.000    0.000    0.000    0.000 
#
# Total GULP energy -198296.308729 kJ/mol
# GULP energy per Si atom -12393.519296 kJ/mol
# Density = 2.108661 g / cm^3
# Si number density = 21.134716 Si / 1000 Ang^3
#
#
#
# Elastic Constant Matrix: (Units=GPa)
#
#
# Indices 1 2 3 4 5 6 
#
# 1 95.1791 37.1192 28.5695 19.6072 5.2472 -5.8850
# 2 37.1192 133.4385 47.7275 14.2038 2.2466 -9.1333
# 3 28.5695 47.7275 84.1311 6.6597 11.0311 2.7890
# 4 19.6072 14.2038 6.6597 42.7725 -9.9462 1.9811
# 5 5.2472 2.2466 11.0311 -9.9462 25.4989 -0.0243
# 6 -5.8850 -9.1333 2.7890 1.9811 -0.0243 35.6171
#
#
#
# Elastic Compliance Matrix: (Units=1/GPa)
#
#
# Indices 1 2 3 4 5 6 
#
# 1 0.013709 -0.002001 -0.002583 -0.006245 -0.003961 0.002299
# 2 -0.002001 0.010272 -0.005277 -0.001523 0.001198 0.002802
# 3 -0.002583 -0.005277 0.016826 -0.001104 -0.006716 -0.003041
# 4 -0.006245 -0.001523 -0.001104 0.030243 0.013691 -0.003009
# 5 -0.003961 0.001198 -0.006716 0.013691 0.048172 -0.000550
# 6 0.002299 0.002802 -0.003041 -0.003009 -0.000550 0.029580
#
#
# Mechanical properties :
#
#
# Convention : Reuss Voigt Hill
#
# Bulk Modulus (GPa) = 47.42633 59.95346 53.68990
# Shear Modulus (GPa) = 28.48144 34.06654 31.27399
#
# Velocity S-wave (km/s) = 3.67497 4.01917 3.85092
# Velocity P-wave (km/s) = 6.36364 7.06875 6.72544
#
# Compressibility (1/GPa) = 0.02108533
#
# Stress axis : x y z
#
# Youngs Moduli (GPa) = 72.94356 97.35192 59.43231
#
# Poissons Ratio (x) = 0.19480 0.15350
# Poissons Ratio (y) = 0.14596 0.31364
# Poissons Ratio (z) = 0.18839 0.51375
#
# Static dielectric constant tensor:
#      x y z
#    x 4.403350 -0.377520 -0.283840 
#    y -0.377520 4.521820 0.476280 
#    z -0.283840 0.476280 4.093350 
# 
# 
# High freq. dielectric constant tensor:
#      x y z
#    x 1.848720 -0.015580 -0.009810 
#    y -0.015580 1.833660 0.013530 
#    z -0.009810 0.013530 1.816080 
# 
# From -- ./inp_files/226194.got.cif
#   From: 2010.06.25/outbox.cif.g09.slc.cpg/sg2_114_cif.got.tgz:226194.got - 2010.06.27 13:26:56.
