data_PCOD8029878
_publ_section_title
;
Structure prediction by ZEFSAII (Michael W. Deem and Ramdas Pophale) SiO2 
 PCOD8029878
Probable space group: P -1
;
_chemical_formula_sum "Si O2"
_cell_formula_units_Z 14
_cell_length_a 7.885893
_cell_length_b 10.579415
_cell_length_c 11.517817
_cell_angle_alpha 133.118155
_cell_angle_beta 71.391766
_cell_angle_gamma 120.437766
_cell_volume 604.179666
_symmetry_space_group_name_H-M "P -1"
_symmetry_group_IT_number 2
_symmetry_cell_setting 'triclinic'
loop_
_space_group_symop_operation_xyz
x,y,z
-x,-y,-z
loop_
_atom_site_type_symbol
_atom_site_label
_atom_site_fract_x
_atom_site_fract_y
_atom_site_fract_z
Si Si1 0.176276 0.763963 0.158495
Si Si2 0.069559 0.723578 0.645499
Si Si3 0.201707 0.389410 0.973334
Si Si4 0.288945 0.335507 0.170101
Si Si5 0.547521 0.723850 0.315202
Si Si6 0.785315 0.128804 0.543772
Si Si7 0.572334 0.990805 0.108638
O O1 0.082631 0.768211 0.309118
O O2 0.384768 0.943120 0.203018
O O3 0.017223 0.772178 0.106737
O O4 0.215306 0.575170 0.017484
O O5 0.113737 0.823480 0.573639
O O6 0.000000 0.500000 0.500000
O O7 0.884467 0.754867 0.755918
O O8 0.254488 0.817529 0.754047
O O9 0.376609 0.335555 0.857318
O O10 0.213594 0.414664 0.124740
O O11 0.462808 0.537784 0.303385
O O12 0.355584 0.176746 0.013082
O O13 0.391635 0.806472 0.365983
O O14 0.724383 0.905300 0.445735
O O15 0.500000 0.000000 0.000000
#
# Coordination Sequence:
#
# PCOD8029878 Si02
#       7
#     2   2   2   2   2   2   2
#     4  11  23  41  69 102 140 171 231 287 336 409
#     4  12  25  44  70 103 143 186 228 278 349 420
#     4  11  22  40  71 104 131 178 228 287 342 405
#     4  12  23  45  72 101 136 185 232 281 349 414
#     4  11  21  40  68  99 130 176 232 279 336 408
#     4  11  23  41  69 100 138 180 227 280 341 413
#     4  12  27  46  72 103 139 182 236 293 344 406
#
# _framework density 23.171916
#
# number of rings (size 3 to 8) (size 9 to 14) (size 15 to 20)
#    0.000    0.571    4.286    5.143    0.000    2.857 
#    0.000    2.143    0.000    0.000    0.000    0.000 
#    0.000    0.000    0.000    0.000    0.000    0.000 
#
# Total GULP energy -173464.528949 kJ/mol
# GULP energy per Si atom -12390.323496 kJ/mol
# Density = 2.311918 g / cm^3
# Si number density = 23.171916 Si / 1000 Ang^3
#
#
#
# Elastic Constant Matrix: (Units=GPa)
#
#
# Indices 1 2 3 4 5 6 
#
# 1 47.2994 51.5867 27.6266 -7.4707 2.1957 6.5674
# 2 51.5867 123.7509 60.6583 -2.4104 6.8867 24.3096
# 3 27.6266 60.6583 114.2520 -1.3125 6.3590 9.3521
# 4 -7.4707 -2.4104 -1.3125 56.1432 8.0424 -0.6381
# 5 2.1957 6.8867 6.3590 8.0424 30.8948 -3.1980
# 6 6.5674 24.3096 9.3521 -0.6381 -3.1980 33.0059
#
#
#
# Elastic Compliance Matrix: (Units=1/GPa)
#
#
# Indices 1 2 3 4 5 6 
#
# 1 0.040746 -0.017458 -0.000983 0.004633 0.000527 0.005170
# 2 -0.017458 0.020189 -0.005525 -0.001295 -0.002834 -0.010130
# 3 -0.000983 -0.005525 0.011921 0.000076 -0.001091 0.000783
# 4 0.004633 -0.001295 0.000076 0.019095 -0.005038 -0.000109
# 5 0.000527 -0.002834 -0.001091 -0.005038 0.035077 0.005593
# 6 0.005170 -0.010130 0.000783 -0.000109 0.005593 0.037048
#
#
# Mechanical properties :
#
#
# Convention : Reuss Voigt Hill
#
# Bulk Modulus (GPa) = 40.12288 62.78283 51.45285
# Shear Modulus (GPa) = 22.69459 33.70416 28.19937
#
# Velocity S-wave (km/s) = 3.13293 3.81796 3.49228
# Velocity P-wave (km/s) = 5.51724 6.82561 6.20600
#
# Compressibility (1/GPa) = 0.02492344
#
# Stress axis : x y z
#
# Youngs Moduli (GPa) = 24.54219 49.53172 83.88425
#
# Poissons Ratio (x) = 0.86474 0.08246
# Poissons Ratio (y) = 0.42847 0.46348
# Poissons Ratio (z) = 0.02412 0.27367
#
# Static dielectric constant tensor:
#      x y z
#    x 4.080960 0.317830 0.093210 
#    y 0.317830 4.494350 0.203100 
#    z 0.093210 0.203100 4.433550 
# 
# 
# High freq. dielectric constant tensor:
#      x y z
#    x 1.895880 0.018520 -0.004600 
#    y 0.018520 1.914110 0.010070 
#    z -0.004600 0.010070 1.932720 
# 
# From -- ./inp_files/393285.got.cif
#   From: 2010.06.25/outbox.cif.g09.slc.cpg/sg2_197_cif.got.tgz:393285.got - 2010.06.27 13:26:56.
