data_PCOD8029477
_publ_section_title
;
Structure prediction by ZEFSAII (Michael W. Deem and Ramdas Pophale) SiO2 
 PCOD8029477
Probable space group: P -1
;
_chemical_formula_sum "Si O2"
_cell_formula_units_Z 16
_cell_length_a 8.743307
_cell_length_b 11.777178
_cell_length_c 19.775749
_cell_angle_alpha 44.778252
_cell_angle_beta 29.028910
_cell_angle_gamma 51.682360
_cell_volume 696.006217
_symmetry_space_group_name_H-M "P -1"
_symmetry_group_IT_number 2
_symmetry_cell_setting 'triclinic'
loop_
_space_group_symop_operation_xyz
x,y,z
-x,-y,-z
loop_
_atom_site_type_symbol
_atom_site_label
_atom_site_fract_x
_atom_site_fract_y
_atom_site_fract_z
Si Si1 0.259258 0.855169 0.652541
Si Si2 0.009862 0.355541 0.678957
Si Si3 0.305635 0.829418 0.385170
Si Si4 0.942732 0.694363 0.163547
Si Si5 0.349198 0.867857 0.823261
Si Si6 0.865592 0.016663 0.840596
Si Si7 0.720395 0.353282 0.391477
Si Si8 0.686555 0.689707 0.654698
O O1 0.185364 0.794536 0.631335
O O2 0.423317 0.708404 0.690999
O O3 0.941117 0.913471 0.787697
O O4 0.500000 0.000000 0.500000
O O5 0.777576 0.503147 0.694215
O O6 0.976613 0.286523 0.796817
O O7 0.360086 0.411435 0.500273
O O8 0.931161 0.206103 0.723306
O O9 0.600212 0.773491 0.249359
O O10 0.228720 0.700006 0.528754
O O11 0.979642 0.816160 0.474118
O O12 0.381926 0.004558 0.312231
O O13 0.940724 0.505595 0.224459
O O14 0.200114 0.788341 0.980878
O O15 0.527816 0.729314 0.771527
O O16 0.080554 0.953463 0.846217
O O17 0.500000 0.000000 0.000000
#
# Coordination Sequence:
#
# PCOD8029477 Si02
#       8
#     2   2   2   2   2   2   2   2
#     4  11  24  45  66  98 133 173 223 276 319 395
#     4  11  21  44  67  95 134 173 221 274 325 398
#     4  11  20  43  68  97 131 180 216 270 329 394
#     4  11  22  39  69  99 132 171 224 274 332 381
#     4  11  24  41  64 100 139 166 219 283 324 390
#     4  11  25  45  66  91 136 180 216 268 340 393
#     4  11  20  42  72  94 137 173 222 269 329 391
#     4  11  24  41  69  98 133 175 221 271 334 388
#
# _framework density 22.988299000000001
#
# number of rings (size 3 to 8) (size 9 to 14) (size 15 to 20)
#    0.000    1.000    6.250    2.250    0.000    4.000 
#    2.250    2.500    0.000    0.000    0.000    0.000 
#    0.000    0.000    0.000    0.000    0.000    0.000 
#
# Total GULP energy -198420.381886 kJ/mol
# GULP energy per Si atom -12401.273868 kJ/mol
# Density = 2.293598 g / cm^3
# Si number density = 22.988299 Si / 1000 Ang^3
#
#
#
# Elastic Constant Matrix: (Units=GPa)
#
#
# Indices 1 2 3 4 5 6 
#
# 1 26.6335 22.0224 14.5298 8.1378 -7.0786 11.7978
# 2 22.0224 138.6782 29.8536 2.7463 -0.9423 3.3739
# 3 14.5298 29.8536 91.5857 4.7487 5.7965 -8.6837
# 4 8.1378 2.7463 4.7487 41.2713 2.4045 -5.9962
# 5 -7.0786 -0.9423 5.7965 2.4045 30.0456 6.8786
# 6 11.7978 3.3739 -8.6837 -5.9962 6.8786 28.2644
#
#
#
# Elastic Compliance Matrix: (Units=1/GPa)
#
#
# Indices 1 2 3 4 5 6 
#
# 1 0.114512 -0.010432 -0.023171 -0.032747 0.050430 -0.072892
# 2 -0.010432 0.008851 -0.000735 0.002374 -0.003227 0.004361
# 3 -0.023171 -0.000735 0.017258 0.006311 -0.013843 0.019770
# 4 -0.032747 0.002374 0.006311 0.034770 -0.017831 0.027040
# 5 0.050430 -0.003227 -0.013843 -0.017831 0.059019 -0.043064
# 6 -0.072892 0.004361 0.019770 0.027040 -0.043064 0.087576
#
#
# Mechanical properties :
#
#
# Convention : Reuss Voigt Hill
#
# Bulk Modulus (GPa) = 13.89999 43.30100 28.60049
# Shear Modulus (GPa) = 12.05853 32.61570 22.33712
#
# Velocity S-wave (km/s) = 2.29279 3.77078 3.12055
# Velocity P-wave (km/s) = 3.61509 6.15104 5.04501
#
# Compressibility (1/GPa) = 0.07194251
#
# Stress axis : x y z
#
# Youngs Moduli (GPa) = 8.73274 112.98362 57.94451
#
# Poissons Ratio (x) = 1.17864 1.34266
# Poissons Ratio (y) = 0.09110 0.04262
# Poissons Ratio (z) = 0.20235 0.08310
#
# Static dielectric constant tensor:
#      x y z
#    x 4.723790 0.307830 -0.033710 
#    y 0.307830 4.488880 0.123990 
#    z -0.033710 0.123990 3.997380 
# 
# 
# High freq. dielectric constant tensor:
#      x y z
#    x 1.892910 0.004060 -0.001230 
#    y 0.004060 1.928160 0.003100 
#    z -0.001230 0.003100 1.893790 
# 
# From -- ./inp_files/589424.got.cif
#   From: 2010.06.25/outbox.cif.g09.slc.cpg/sg2_295_cif.got.tgz:589424.got - 2010.06.27 13:26:56.
