data_PCOD8029336
_publ_section_title
;
Structure prediction by ZEFSAII (Michael W. Deem and Ramdas Pophale) SiO2 
 PCOD8029336
Probable space group: P -1
;
_chemical_formula_sum "Si O2"
_cell_formula_units_Z 14
_cell_length_a 10.507872
_cell_length_b 9.514155
_cell_length_c 9.662990
_cell_angle_alpha 119.710143
_cell_angle_beta 123.632380
_cell_angle_gamma 66.740037
_cell_volume 688.849735
_symmetry_space_group_name_H-M "P -1"
_symmetry_group_IT_number 2
_symmetry_cell_setting 'triclinic'
loop_
_space_group_symop_operation_xyz
x,y,z
-x,-y,-z
loop_
_atom_site_type_symbol
_atom_site_label
_atom_site_fract_x
_atom_site_fract_y
_atom_site_fract_z
Si Si1 0.908616 0.066499 0.615169
Si Si2 0.078084 0.893723 0.871014
Si Si3 0.134965 0.289067 0.862057
Si Si4 0.279025 0.399279 0.282405
Si Si5 0.017538 0.549223 0.692479
Si Si6 0.385018 0.740212 0.557195
Si Si7 0.330433 0.963520 0.868770
O O1 0.720832 0.112895 0.520926
O O2 0.968818 0.238257 0.777091
O O3 0.000000 0.000000 0.500000
O O4 0.955403 0.924668 0.686457
O O5 0.109439 0.702018 0.832251
O O6 0.240463 0.952295 0.954654
O O7 0.000000 0.000000 0.000000
O O8 0.116251 0.406037 0.773833
O O9 0.243818 0.118207 0.803204
O O10 0.204902 0.372706 0.075785
O O11 0.341212 0.569900 0.400971
O O12 0.429657 0.261065 0.342273
O O13 0.154533 0.394900 0.324530
O O14 0.000000 0.500000 0.500000
O O15 0.332487 0.789218 0.707644
O O16 0.500000 0.000000 0.000000
#
# Coordination Sequence:
#
# PCOD8029336 Si02
#       7
#     2   2   2   2   2   2   2
#     4  11  20  40  67  94 121 177 226 252 306 401
#     4  11  25  39  63  99 132 162 210 273 325 365
#     4  11  22  40  70  93 121 174 226 256 305 396
#     4  11  24  40  64 100 126 170 218 270 313 387
#     4  12  24  41  63  95 136 163 209 271 334 374
#     4  11  22  38  69  93 128 161 230 262 310 369
#     4  11  22  44  70  92 126 177 222 256 314 400
#
# _framework density 20.323737000000001
#
# number of rings (size 3 to 8) (size 9 to 14) (size 15 to 20)
#    0.000    0.857    5.714    3.857    2.000    0.000 
#    0.000    2.857    0.000    0.000    0.000    0.000 
#    0.000    0.000    0.000    0.000    0.000    0.000 
#
# Total GULP energy -173445.127641 kJ/mol
# GULP energy per Si atom -12388.937689 kJ/mol
# Density = 2.027748 g / cm^3
# Si number density = 20.323737 Si / 1000 Ang^3
#
#
#
# Elastic Constant Matrix: (Units=GPa)
#
#
# Indices 1 2 3 4 5 6 
#
# 1 138.8271 47.9167 48.3966 -15.0535 6.8200 -18.1047
# 2 47.9167 115.9319 34.3386 -6.0403 2.7881 -1.6186
# 3 48.3966 34.3386 122.7329 4.6409 -5.6053 -6.7737
# 4 -15.0535 -6.0403 4.6409 39.8460 -7.0341 3.9240
# 5 6.8200 2.7881 -5.6053 -7.0341 35.7476 -1.4210
# 6 -18.1047 -1.6186 -6.7737 3.9240 -1.4210 33.8843
#
#
#
# Elastic Compliance Matrix: (Units=1/GPa)
#
#
# Indices 1 2 3 4 5 6 
#
# 1 0.010343 -0.003080 -0.003162 0.003128 -0.001441 0.004324
# 2 -0.003080 0.010473 -0.001852 0.000721 -0.000442 -0.001618
# 3 -0.003162 -0.001852 0.010122 -0.002380 0.001891 0.000600
# 4 0.003128 0.000721 -0.002380 0.027606 0.004335 -0.001785
# 5 -0.001441 -0.000442 0.001891 0.004335 0.029445 0.000320
# 6 0.004324 -0.001618 0.000600 -0.001785 0.000320 0.032086
#
#
# Mechanical properties :
#
#
# Convention : Reuss Voigt Hill
#
# Bulk Modulus (GPa) = 67.80135 70.97732 69.38934
# Shear Modulus (GPa) = 35.41565 38.35157 36.88361
#
# Velocity S-wave (km/s) = 4.17895 4.34871 4.26467
# Velocity P-wave (km/s) = 7.53113 7.75978 7.64631
#
# Compressibility (1/GPa) = 0.01474897
#
# Stress axis : x y z
#
# Youngs Moduli (GPa) = 96.68744 95.48258 98.79117
#
# Poissons Ratio (x) = 0.29410 0.31238
# Poissons Ratio (y) = 0.29781 0.18300
# Poissons Ratio (z) = 0.30573 0.17687
#
# Static dielectric constant tensor:
#      x y z
#    x 3.903530 -0.305920 0.355790 
#    y -0.305920 3.739500 0.237500 
#    z 0.355790 0.237500 4.240470 
# 
# 
# High freq. dielectric constant tensor:
#      x y z
#    x 1.779050 -0.026660 0.006530 
#    y -0.026660 1.792430 0.016670 
#    z 0.006530 0.016670 1.809890 
# 
# From -- ./inp_files/159950.got.cif
#   From: 2010.06.25/outbox.cif.g09.slc.cpg/sg2_80_cif.got.tgz:159950.got - 2010.06.27 13:26:56.
