data_PCOD8029911
_publ_section_title
;
Structure prediction by ZEFSAII (Michael W. Deem and Ramdas Pophale) SiO2 
 PCOD8029911
Probable space group: P -1
;
_chemical_formula_sum "Si O2"
_cell_formula_units_Z 14
_cell_length_a 7.433763
_cell_length_b 18.650816
_cell_length_c 10.353375
_cell_angle_alpha 146.976433
_cell_angle_beta 63.591262
_cell_angle_gamma 124.819139
_cell_volume 640.380248
_symmetry_space_group_name_H-M "P -1"
_symmetry_group_IT_number 2
_symmetry_cell_setting 'triclinic'
loop_
_space_group_symop_operation_xyz
x,y,z
-x,-y,-z
loop_
_atom_site_type_symbol
_atom_site_label
_atom_site_fract_x
_atom_site_fract_y
_atom_site_fract_z
Si Si1 0.900547 0.355448 0.893464
Si Si2 0.692773 0.646380 0.111077
Si Si3 0.351583 0.294946 0.338229
Si Si4 0.142442 0.043783 0.392886
Si Si5 0.914210 0.113272 0.345536
Si Si6 0.516830 0.610428 0.840445
Si Si7 0.510868 0.063889 0.952314
O O1 0.680367 0.337242 0.010657
O O2 0.000000 0.500000 0.000000
O O3 0.073703 0.360603 0.954806
O O4 0.847087 0.224383 0.614197
O O5 0.693072 0.785357 0.398691
O O6 0.500000 0.500000 0.000000
O O7 0.675142 0.673217 0.006178
O O8 0.108071 0.189125 0.296585
O O9 0.422024 0.437742 0.617265
O O10 0.343476 0.330656 0.244026
O O11 0.530224 0.226986 0.205208
O O12 0.987108 0.017104 0.276268
O O13 0.280016 0.945366 0.197979
O O14 0.000000 0.000000 0.500000
O O15 0.294219 0.985950 0.818705
O O16 0.500000 0.000000 0.000000
#
# Coordination Sequence:
#
# PCOD8029911 Si02
#       7
#     2   2   2   2   2   2   2
#     4  11  21  40  71  95 127 172 225 276 339 387
#     4  11  23  41  71  98 131 174 229 279 335 397
#     4  11  25  45  65  97 141 176 221 274 346 401
#     4  11  27  45  68 104 134 173 230 287 336 403
#     4  11  24  46  65  97 135 176 223 276 334 408
#     4  11  24  44  65 100 136 171 224 287 325 406
#     4  12  27  43  71  94 134 186 223 267 347 412
#
# _framework density 21.862010000000001
#
# number of rings (size 3 to 8) (size 9 to 14) (size 15 to 20)
#    0.000    0.857    4.286    2.143    6.000    0.571 
#    0.000    1.429    0.000    0.000    0.000    0.000 
#    0.000    0.000    0.000    0.000    0.000    0.000 
#
# Total GULP energy -173652.513340 kJ/mol
# GULP energy per Si atom -12403.750953 kJ/mol
# Density = 2.181225 g / cm^3
# Si number density = 21.862010 Si / 1000 Ang^3
#
#
#
# Elastic Constant Matrix: (Units=GPa)
#
#
# Indices 1 2 3 4 5 6 
#
# 1 165.9913 30.5351 58.7973 -13.7416 -3.0951 -14.3876
# 2 30.5351 83.2765 13.2526 -19.0905 -9.0664 -1.2944
# 3 58.7973 13.2526 121.3909 -8.8649 -31.3409 6.2709
# 4 -13.7416 -19.0905 -8.8649 36.1871 -2.8617 -5.6607
# 5 -3.0951 -9.0664 -31.3409 -2.8617 42.6204 -7.3704
# 6 -14.3876 -1.2944 6.2709 -5.6607 -7.3704 29.9990
#
#
#
# Elastic Compliance Matrix: (Units=1/GPa)
#
#
# Indices 1 2 3 4 5 6 
#
# 1 0.008569 -0.002249 -0.004650 0.001473 -0.002367 0.004681
# 2 -0.002249 0.015049 0.001167 0.008066 0.004788 0.002025
# 3 -0.004650 0.001167 0.013054 0.002445 0.009300 -0.002163
# 4 0.001473 0.008066 0.002445 0.035053 0.007532 0.009009
# 5 -0.002367 0.004788 0.009300 0.007532 0.032797 0.006606
# 6 0.004681 0.002025 -0.002163 0.009009 0.006606 0.039442
#
#
# Mechanical properties :
#
#
# Convention : Reuss Voigt Hill
#
# Bulk Modulus (GPa) = 39.67085 63.98098 51.82592
# Shear Modulus (GPa) = 30.51921 39.63288 35.07604
#
# Velocity S-wave (km/s) = 3.74035 4.26239 4.00988
# Velocity P-wave (km/s) = 6.06952 7.31802 6.72281
#
# Compressibility (1/GPa) = 0.02520742
#
# Stress axis : x y z
#
# Youngs Moduli (GPa) = 116.69988 66.44922 76.60295
#
# Poissons Ratio (x) = 0.14946 0.35623
# Poissons Ratio (y) = 0.26248 -0.08940
# Poissons Ratio (z) = 0.54270 -0.07755
#
# Static dielectric constant tensor:
#      x y z
#    x 4.134300 -0.152870 -0.239520 
#    y -0.152870 3.766180 0.005290 
#    z -0.239520 0.005290 4.423690 
# 
# 
# High freq. dielectric constant tensor:
#      x y z
#    x 1.861850 -0.014510 -0.004150 
#    y -0.014510 1.859400 -0.002200 
#    z -0.004150 -0.002200 1.877260 
# 
# From -- ./inp_files/405034.got.cif
#   From: 2010.06.25/outbox.cif.g09.slc.cpg/sg2_203_cif.got.tgz:405034.got - 2010.06.27 13:26:56.
