data_PCOD8029136
_publ_section_title
;
Structure prediction by ZEFSAII (Michael W. Deem and Ramdas Pophale) SiO2 
 PCOD8029136
Probable space group: P -1
;
_chemical_formula_sum "Si O2"
_cell_formula_units_Z 16
_cell_length_a 9.703260
_cell_length_b 30.563888
_cell_length_c 11.730482
_cell_angle_alpha 149.319010
_cell_angle_beta 48.991391
_cell_angle_gamma 151.179771
_cell_volume 785.896118
_symmetry_space_group_name_H-M "P -1"
_symmetry_group_IT_number 2
_symmetry_cell_setting 'triclinic'
loop_
_space_group_symop_operation_xyz
x,y,z
-x,-y,-z
loop_
_atom_site_type_symbol
_atom_site_label
_atom_site_fract_x
_atom_site_fract_y
_atom_site_fract_z
Si Si1 0.349215 0.619559 0.112043
Si Si2 0.223663 0.791256 0.755395
Si Si3 0.272201 0.898325 0.744264
Si Si4 0.637316 0.882627 0.420745
Si Si5 0.786588 0.839188 0.793581
Si Si6 0.748691 0.393373 0.618156
Si Si7 0.368257 0.369568 0.213262
Si Si8 0.432875 0.713812 0.938192
O O1 0.505578 0.769703 0.335856
O O2 0.379851 0.606248 0.198986
O O3 0.487699 0.593028 0.905210
O O4 0.000000 0.500000 0.000000
O O5 0.123821 0.782447 0.662974
O O6 0.169650 0.670155 0.524146
O O7 0.997415 0.752779 0.881899
O O8 0.571759 0.956036 0.961291
O O9 0.531387 0.940206 0.631643
O O10 0.991735 0.830167 0.668566
O O11 0.499715 0.816321 0.219769
O O12 0.000000 0.000000 0.500000
O O13 0.517591 0.712102 0.566930
O O14 0.611686 0.799632 0.915921
O O15 0.000000 0.000000 0.000000
O O16 0.061786 0.558390 0.770829
O O17 0.500000 0.500000 0.500000
O O18 0.411895 0.307183 0.132878
#
# Coordination Sequence:
#
# PCOD8029136 Si02
#       8
#     2   2   2   2   2   2   2   2
#     4  11  21  38  65 101 132 166 214 279 332 382
#     4  11  21  38  66  99 126 169 223 276 323 387
#     4  11  23  40  66  98 129 172 226 269 329 391
#     4  11  24  40  69 100 135 166 218 283 334 389
#     4  12  27  45  66  94 137 182 224 268 331 403
#     4  12  23  44  68  97 137 174 216 274 336 396
#     4  11  20  35  66 102 129 158 216 276 329 384
#     4  11  24  43  65  96 135 177 217 271 339 391
#
# _framework density 20.358924999999999
#
# number of rings (size 3 to 8) (size 9 to 14) (size 15 to 20)
#    0.000    0.750    7.500    1.875    3.500    0.000 
#    0.000    2.500    0.000    0.000    0.000    0.000 
#    0.000    0.000    0.000    0.000    0.000    0.000 
#
# Total GULP energy -198298.429746 kJ/mol
# GULP energy per Si atom -12393.651859 kJ/mol
# Density = 2.031259 g / cm^3
# Si number density = 20.358925 Si / 1000 Ang^3
#
#
#
# Elastic Constant Matrix: (Units=GPa)
#
#
# Indices 1 2 3 4 5 6 
#
# 1 90.9609 55.2650 34.3567 -3.7450 12.2145 7.8564
# 2 55.2650 152.0616 48.8915 -3.4019 6.0087 -4.2820
# 3 34.3567 48.8915 96.4001 -0.8537 6.0287 -0.4777
# 4 -3.7450 -3.4019 -0.8537 45.4235 3.6063 3.7763
# 5 12.2145 6.0087 6.0287 3.6063 33.2110 -1.3783
# 6 7.8564 -4.2820 -0.4777 3.7763 -1.3783 36.5473
#
#
#
# Elastic Compliance Matrix: (Units=1/GPa)
#
#
# Indices 1 2 3 4 5 6 
#
# 1 0.016158 -0.004793 -0.003029 0.001673 -0.004891 -0.004432
# 2 -0.004793 0.009333 -0.003060 0.000014 0.000715 0.002109
# 3 -0.003029 -0.003060 0.013046 -0.000220 -0.000658 0.000461
# 4 0.001673 0.000014 -0.000220 0.022635 -0.003153 -0.002819
# 5 -0.004891 0.000715 -0.000658 -0.003153 0.032353 0.002673
# 6 -0.004432 0.002109 0.000461 -0.002819 0.002673 0.028960
#
#
# Mechanical properties :
#
#
# Convention : Reuss Voigt Hill
#
# Bulk Modulus (GPa) = 59.61375 68.49433 64.05404
# Shear Modulus (GPa) = 33.36899 36.43032 34.89966
#
# Velocity S-wave (km/s) = 4.05289 4.23472 4.14480
# Velocity P-wave (km/s) = 7.15864 7.59124 7.37811
#
# Compressibility (1/GPa) = 0.01677465
#
# Stress axis : x y z
#
# Youngs Moduli (GPa) = 61.88770 107.14302 76.64990
#
# Poissons Ratio (x) = 0.51350 0.23220
# Poissons Ratio (y) = 0.29661 0.23452
# Poissons Ratio (z) = 0.18748 0.32782
#
# Static dielectric constant tensor:
#      x y z
#    x 3.587050 0.036250 0.082920 
#    y 0.036250 3.965290 0.039850 
#    z 0.082920 0.039850 3.832600 
# 
# 
# High freq. dielectric constant tensor:
#      x y z
#    x 1.764560 0.005700 0.005110 
#    y 0.005700 1.817170 0.005290 
#    z 0.005110 0.005290 1.804020 
# 
# From -- ./inp_files/281840.got.cif
#   From: 2010.06.25/outbox.cif.g09.slc.cpg/sg2_141_cif.got.tgz:281840.got - 2010.06.27 13:26:56.
