data_PCOD8029205
_publ_section_title
;
Structure prediction by ZEFSAII (Michael W. Deem and Ramdas Pophale) SiO2 
 PCOD8029205
Probable space group: P -1
;
_chemical_formula_sum "Si O2"
_cell_formula_units_Z 16
_cell_length_a 12.203297
_cell_length_b 10.644387
_cell_length_c 9.163356
_cell_angle_alpha 125.930810
_cell_angle_beta 66.621990
_cell_angle_gamma 128.497646
_cell_volume 753.375273
_symmetry_space_group_name_H-M "P -1"
_symmetry_group_IT_number 2
_symmetry_cell_setting 'triclinic'
loop_
_space_group_symop_operation_xyz
x,y,z
-x,-y,-z
loop_
_atom_site_type_symbol
_atom_site_label
_atom_site_fract_x
_atom_site_fract_y
_atom_site_fract_z
Si Si1 0.773139 0.918225 0.522012
Si Si2 0.345402 0.431780 0.477808
Si Si3 0.453189 0.990651 0.354350
Si Si4 0.664595 0.246942 0.191630
Si Si5 0.293551 0.230411 0.088263
Si Si6 0.131116 0.860958 0.102269
Si Si7 0.827797 0.740280 0.119712
Si Si8 0.409264 0.674812 0.007562
O O1 0.757757 0.752173 0.508961
O O2 0.627140 0.901879 0.547810
O O3 0.841618 0.905412 0.325535
O O4 0.863928 0.097913 0.697433
O O5 0.500000 0.500000 0.500000
O O6 0.288708 0.566658 0.621956
O O7 0.333595 0.399136 0.288666
O O8 0.585099 0.081421 0.235040
O O9 0.500000 0.000000 0.500000
O O10 0.357142 0.777169 0.213142
O O11 0.798601 0.256309 0.052806
O O12 0.561851 0.233089 0.105771
O O13 0.216218 0.045535 0.093040
O O14 0.191426 0.218083 0.007012
O O15 0.441665 0.277845 0.973841
O O16 0.970914 0.741489 0.055140
O O17 0.700598 0.540341 0.096152
#
# Coordination Sequence:
#
# PCOD8029205 Si02
#       8
#     2   2   2   2   2   2   2   2
#     4  11  22  42  65  95 129 174 225 269 320 394
#     4  11  20  37  67  97 124 168 219 277 324 381
#     4  12  25  39  67 103 133 166 221 284 332 381
#     4  12  22  43  67  93 134 171 221 258 338 390
#     4  11  23  42  68  96 132 172 223 274 330 383
#     4  11  25  45  67  92 139 186 211 259 335 412
#     4  12  26  43  65 102 136 171 224 273 326 386
#     4  12  23  42  68  98 129 174 220 279 324 376
#
# _framework density 21.237755
#
# number of rings (size 3 to 8) (size 9 to 14) (size 15 to 20)
#    0.000    0.500    6.250    3.000    1.750    0.500 
#    0.000    0.625    0.000    0.000    0.000    0.000 
#    0.000    0.000    0.000    0.000    0.000    0.000 
#
# Total GULP energy -198374.778111 kJ/mol
# GULP energy per Si atom -12398.423632 kJ/mol
# Density = 2.118942 g / cm^3
# Si number density = 21.237755 Si / 1000 Ang^3
#
#
#
# Elastic Constant Matrix: (Units=GPa)
#
#
# Indices 1 2 3 4 5 6 
#
# 1 110.9461 25.2770 53.9093 1.8404 8.9093 4.8600
# 2 25.2770 50.7605 26.2917 8.0408 3.0237 0.9980
# 3 53.9093 26.2917 148.1338 13.0219 -1.3428 -12.0980
# 4 1.8404 8.0408 13.0219 26.0225 -9.8388 -2.5026
# 5 8.9093 3.0237 -1.3428 -9.8388 37.3280 -2.9161
# 6 4.8600 0.9980 -12.0980 -2.5026 -2.9161 30.8496
#
#
#
# Elastic Compliance Matrix: (Units=1/GPa)
#
#
# Indices 1 2 3 4 5 6 
#
# 1 0.012305 -0.003875 -0.004203 0.001026 -0.002788 -0.003642
# 2 -0.003875 0.024310 -0.002447 -0.007440 -0.003253 -0.002047
# 3 -0.004203 -0.002447 0.009318 -0.002766 0.001142 0.004279
# 4 0.001026 -0.007440 -0.002766 0.047369 0.013062 0.004072
# 5 -0.002788 -0.003253 0.001142 0.013062 0.031596 0.005038
# 6 -0.003642 -0.002047 0.004279 0.004072 0.005038 0.035540
#
#
# Mechanical properties :
#
#
# Convention : Reuss Voigt Hill
#
# Bulk Modulus (GPa) = 40.19008 57.86627 49.02818
# Shear Modulus (GPa) = 26.34599 32.46417 29.40508
#
# Velocity S-wave (km/s) = 3.52593 3.91398 3.72501
# Velocity P-wave (km/s) = 5.96165 6.90881 6.45263
#
# Compressibility (1/GPa) = 0.02488176
#
# Stress axis : x y z
#
# Youngs Moduli (GPa) = 81.26738 41.13515 107.32430
#
# Poissons Ratio (x) = 0.15941 0.45110
# Poissons Ratio (y) = 0.31493 0.26263
# Poissons Ratio (z) = 0.34158 0.10066
#
# Static dielectric constant tensor:
#      x y z
#    x 3.753180 -0.146050 0.001120 
#    y -0.146050 3.579020 0.200650 
#    z 0.001120 0.200650 4.280820 
# 
# 
# High freq. dielectric constant tensor:
#      x y z
#    x 1.823620 -0.013460 0.000630 
#    y -0.013460 1.805600 0.010280 
#    z 0.000630 0.010280 1.855660 
# 
# From -- ./inp_files/185051.got.cif
#   From: 2010.06.25/outbox.cif.g09.slc.cpg/sg2_93_cif.got.tgz:185051.got - 2010.06.27 13:26:56.
