data_PCOD8029519
_publ_section_title
;
Structure prediction by ZEFSAII (Michael W. Deem and Ramdas Pophale) SiO2 
 PCOD8029519
Probable space group: P -1
;
_chemical_formula_sum "Si O2"
_cell_formula_units_Z 16
_cell_length_a 19.741631
_cell_length_b 11.300967
_cell_length_c 16.772339
_cell_angle_alpha 33.855063
_cell_angle_beta 21.432692
_cell_angle_gamma 41.686547
_cell_volume 755.377276
_symmetry_space_group_name_H-M "P -1"
_symmetry_group_IT_number 2
_symmetry_cell_setting 'triclinic'
loop_
_space_group_symop_operation_xyz
x,y,z
-x,-y,-z
loop_
_atom_site_type_symbol
_atom_site_label
_atom_site_fract_x
_atom_site_fract_y
_atom_site_fract_z
Si Si1 0.260536 0.876324 0.550730
Si Si2 0.736333 0.602732 0.118682
Si Si3 0.980421 0.767130 0.191138
Si Si4 0.391961 0.284604 0.275530
Si Si5 0.893825 0.464945 0.307430
Si Si6 0.434874 0.803629 0.236313
Si Si7 0.164589 0.192790 0.941313
Si Si8 0.359189 0.893708 0.779416
O O1 0.292652 0.652495 0.685291
O O2 0.315242 0.876777 0.398913
O O3 0.388236 0.075990 0.340195
O O4 0.046327 0.929639 0.754899
O O5 0.585481 0.660820 0.187201
O O6 0.731574 0.753007 0.118129
O O7 0.934633 0.668717 0.821751
O O8 0.820261 0.709328 0.465162
O O9 0.941150 0.607708 0.251548
O O10 0.180575 0.745296 0.022230
O O11 0.000000 0.000000 0.000000
O O12 0.522027 0.265846 0.218600
O O13 0.500000 0.500000 0.000000
O O14 0.697405 0.323222 0.614373
O O15 0.862933 0.582964 0.192506
O O16 0.500000 0.000000 0.000000
O O17 0.293559 0.066931 0.814978
O O18 0.500000 0.000000 0.500000
#
# Coordination Sequence:
#
# PCOD8029519 Si02
#       8
#     2   2   2   2   2   2   2   2
#     4  11  22  47  71  96 137 177 230 284 339 410
#     4  11  23  43  74 100 126 180 232 280 336 403
#     4  12  23  46  69 102 142 180 234 292 340 414
#     4  12  28  46  68 104 143 184 234 289 347 410
#     4  11  23  41  68 101 136 172 227 284 338 400
#     4  12  27  43  65 103 141 177 222 279 348 413
#     4  11  20  43  74 101 130 171 237 292 327 403
#     4  12  25  43  74 101 134 188 234 281 349 410
#
# _framework density 21.181467999999999
#
# number of rings (size 3 to 8) (size 9 to 14) (size 15 to 20)
#    0.000    0.500    6.250    2.625    3.500    2.000 
#    0.000    0.000    0.000    0.000    0.000    0.000 
#    0.000    0.000    0.000    0.000    0.000    0.000 
#
# Total GULP energy -198270.202118 kJ/mol
# GULP energy per Si atom -12391.887632 kJ/mol
# Density = 2.113326 g / cm^3
# Si number density = 21.181468 Si / 1000 Ang^3
#
#
#
# Elastic Constant Matrix: (Units=GPa)
#
#
# Indices 1 2 3 4 5 6 
#
# 1 127.7459 64.7296 80.7777 -4.9967 -21.7546 8.7109
# 2 64.7296 94.1694 64.6311 10.5757 -2.8393 7.9269
# 3 80.7777 64.6311 171.7137 1.7453 -11.9700 -10.9288
# 4 -4.9967 10.5757 1.7453 39.3622 3.0954 -3.9368
# 5 -21.7546 -2.8393 -11.9700 3.0954 45.9693 -4.7889
# 6 8.7109 7.9269 -10.9288 -3.9368 -4.7889 30.2256
#
#
#
# Elastic Compliance Matrix: (Units=1/GPa)
#
#
# Indices 1 2 3 4 5 6 
#
# 1 0.015791 -0.007941 -0.004276 0.003638 0.005344 -0.002694
# 2 -0.007941 0.020303 -0.004500 -0.006572 -0.003872 -0.006133
# 3 -0.004276 -0.004500 0.009982 0.000780 0.000898 0.006266
# 4 0.003638 -0.006572 0.000780 0.028052 0.000112 0.004629
# 5 0.005344 -0.003872 0.000898 0.000112 0.024657 0.003721
# 6 -0.002694 -0.006133 0.006266 0.004629 0.003721 0.038927
#
#
# Mechanical properties :
#
#
# Convention : Reuss Voigt Hill
#
# Bulk Modulus (GPa) = 79.08713 90.43398 84.76055
# Shear Modulus (GPa) = 28.51256 35.34413 31.92835
#
# Velocity S-wave (km/s) = 3.67292 4.08932 3.88670
# Velocity P-wave (km/s) = 7.44352 8.06748 7.76178
#
# Compressibility (1/GPa) = 0.01264428
#
# Stress axis : x y z
#
# Youngs Moduli (GPa) = 63.32606 49.25275 100.17801
#
# Poissons Ratio (x) = 0.39110 0.42833
# Poissons Ratio (y) = 0.50285 0.45080
# Poissons Ratio (z) = 0.27076 0.22164
#
# Static dielectric constant tensor:
#      x y z
#    x 4.080470 0.057210 -0.332370 
#    y 0.057210 3.897410 0.506940 
#    z -0.332370 0.506940 4.399230 
# 
# 
# High freq. dielectric constant tensor:
#      x y z
#    x 1.840490 0.013120 -0.020710 
#    y 0.013120 1.819910 0.021980 
#    z -0.020710 0.021980 1.840630 
# 
# From -- ./inp_files/499776.got.cif
#   From: 2010.06.25/outbox.cif.g09.slc.cpg/sg2_250_cif.got.tgz:499776.got - 2010.06.27 13:26:56.
