data_PCOD8029877
_publ_section_title
;
Structure prediction by ZEFSAII (Michael W. Deem and Ramdas Pophale) SiO2 
 PCOD8029877
Probable space group: P -1
;
_chemical_formula_sum "Si O2"
_cell_formula_units_Z 16
_cell_length_a 18.617514
_cell_length_b 7.923061
_cell_length_c 23.371718
_cell_angle_alpha 44.017094
_cell_angle_beta 156.654223
_cell_angle_gamma 147.298893
_cell_volume 714.691637
_symmetry_space_group_name_H-M "P -1"
_symmetry_group_IT_number 2
_symmetry_cell_setting 'triclinic'
loop_
_space_group_symop_operation_xyz
x,y,z
-x,-y,-z
loop_
_atom_site_type_symbol
_atom_site_label
_atom_site_fract_x
_atom_site_fract_y
_atom_site_fract_z
Si Si1 0.841503 0.757267 0.626408
Si Si2 0.457917 0.140362 0.780652
Si Si3 0.067720 0.102948 0.958295
Si Si4 0.218269 0.515107 0.166945
Si Si5 0.032124 0.778626 0.488394
Si Si6 0.503554 0.816058 0.417963
Si Si7 0.536957 0.372640 0.272169
Si Si8 0.707380 0.180411 0.059155
O O1 0.749548 0.873263 0.579130
O O2 0.642667 0.367509 0.584862
O O3 0.115997 0.899123 0.795366
O O4 0.818461 0.884070 0.519325
O O5 0.567786 0.187258 0.787453
O O6 0.526441 0.473385 0.767147
O O7 0.171069 0.853019 0.631756
O O8 0.560996 0.044413 0.925828
O O9 0.120549 0.432701 0.903316
O O10 0.314938 0.163341 0.116102
O O11 0.868415 0.828463 0.835070
O O12 0.000000 0.000000 0.000000
O O13 0.311460 0.585541 0.282837
O O14 0.000000 0.500000 0.000000
O O15 0.000000 0.500000 0.500000
O O16 0.772160 0.659849 0.339699
O O17 0.579163 0.162055 0.388774
O O18 0.500000 0.000000 0.000000
#
# Coordination Sequence:
#
# PCOD8029877 Si02
#       8
#     2   2   2   2   2   2   2   2
#     4  11  23  43  66  94 141 172 211 284 340 388
#     4  11  24  43  70 100 125 180 229 267 326 406
#     4  11  21  40  68  98 130 176 222 273 328 395
#     4  12  21  38  68 102 131 169 231 271 322 398
#     4  12  24  46  68  94 132 177 227 269 329 405
#     4  11  23  41  66 101 133 175 216 281 342 383
#     4  11  21  41  69  96 130 173 222 272 329 401
#     4  11  24  45  66  98 141 173 220 280 340 391
#
# _framework density 22.387276
#
# number of rings (size 3 to 8) (size 9 to 14) (size 15 to 20)
#    0.000    0.750    6.250    3.375    0.000    0.000 
#    2.250    4.375    0.000    0.000    0.000    0.000 
#    0.000    0.000    0.000    0.000    0.000    0.000 
#
# Total GULP energy -198216.011493 kJ/mol
# GULP energy per Si atom -12388.500718 kJ/mol
# Density = 2.233632 g / cm^3
# Si number density = 22.387276 Si / 1000 Ang^3
#
#
#
# Elastic Constant Matrix: (Units=GPa)
#
#
# Indices 1 2 3 4 5 6 
#
# 1 62.6149 29.4856 40.2702 4.1069 7.3183 16.7330
# 2 29.4856 82.4938 24.6958 -6.3849 -7.3922 14.5586
# 3 40.2702 24.6958 144.9600 -6.2573 17.5273 2.7643
# 4 4.1069 -6.3849 -6.2573 40.2657 -2.2889 2.6861
# 5 7.3183 -7.3922 17.5273 -2.2889 41.7853 7.6639
# 6 16.7330 14.5586 2.7643 2.6861 7.6639 37.2047
#
#
#
# Elastic Compliance Matrix: (Units=1/GPa)
#
#
# Indices 1 2 3 4 5 6 
#
# 1 0.025228 -0.006445 -0.005700 -0.004080 -0.001979 -0.007699
# 2 -0.006445 0.016540 -0.001472 0.003708 0.005778 -0.004922
# 3 -0.005700 -0.001472 0.009168 0.001361 -0.003602 0.003102
# 4 -0.004080 0.003708 0.001361 0.026345 0.002640 -0.002163
# 5 -0.001979 0.005778 -0.003602 0.002640 0.028261 -0.007116
# 6 -0.007699 -0.004922 0.003102 -0.002163 -0.007116 0.033658
#
#
# Mechanical properties :
#
#
# Convention : Reuss Voigt Hill
#
# Bulk Modulus (GPa) = 42.19278 53.21908 47.70593
# Shear Modulus (GPa) = 28.68024 36.89229 32.78627
#
# Velocity S-wave (km/s) = 3.58312 4.06385 3.83104
# Velocity P-wave (km/s) = 6.00050 6.77078 6.39725
#
# Compressibility (1/GPa) = 0.02370074
#
# Stress axis : x y z
#
# Youngs Moduli (GPa) = 39.63833 60.45981 109.07575
#
# Poissons Ratio (x) = 0.38967 0.62178
# Poissons Ratio (y) = 0.25548 0.16056
# Poissons Ratio (z) = 0.22596 0.08900
#
# Static dielectric constant tensor:
#      x y z
#    x 4.096940 0.210400 0.351050 
#    y 0.210400 4.159660 0.171100 
#    z 0.351050 0.171100 4.596930 
# 
# 
# High freq. dielectric constant tensor:
#      x y z
#    x 1.864170 0.013530 0.025810 
#    y 0.013530 1.877150 -0.001100 
#    z 0.025810 -0.001100 1.897430 
# 
# From -- ./inp_files/392898.got.cif
#   From: 2010.06.25/outbox.cif.g09.slc.cpg/sg2_197_cif.got.tgz:392898.got - 2010.06.27 13:26:56.
