data_PCOD8029793
_publ_section_title
;
Structure prediction by ZEFSAII (Michael W. Deem and Ramdas Pophale) SiO2 
 PCOD8029793
Probable space group: P -1
;
_chemical_formula_sum "Si O2"
_cell_formula_units_Z 14
_cell_length_a 15.118318
_cell_length_b 30.466922
_cell_length_c 24.743797
_cell_angle_alpha 9.804399
_cell_angle_beta 160.397049
_cell_angle_gamma 160.459448
_cell_volume 630.919762
_symmetry_space_group_name_H-M "P -1"
_symmetry_group_IT_number 2
_symmetry_cell_setting 'triclinic'
loop_
_space_group_symop_operation_xyz
x,y,z
-x,-y,-z
loop_
_atom_site_type_symbol
_atom_site_label
_atom_site_fract_x
_atom_site_fract_y
_atom_site_fract_z
Si Si1 0.822648 0.471345 0.319247
Si Si2 0.022515 0.239386 0.383310
Si Si3 0.644386 0.127428 0.724800
Si Si4 0.400396 0.097258 0.379991
Si Si5 0.589771 0.378585 0.495005
Si Si6 0.872516 0.163481 0.271653
Si Si7 0.783126 0.956289 0.859649
O O1 0.692540 0.415601 0.372059
O O2 0.842405 0.173809 0.677056
O O3 0.130753 0.651361 0.280558
O O4 0.635444 0.603646 0.012931
O O5 0.349554 0.290130 0.507709
O O6 0.884281 0.080238 0.442724
O O7 0.960615 0.528499 0.005313
O O8 0.896801 0.072710 0.565702
O O9 0.512092 0.168883 0.655633
O O10 0.442794 0.890313 0.862822
O O11 0.932450 0.060104 0.982954
O O12 0.623022 0.083707 0.568655
O O13 0.500000 0.000000 0.500000
O O14 0.609001 0.675915 0.122692
O O15 0.000000 0.000000 0.500000
#
# Coordination Sequence:
#
# PCOD8029793 Si02
#       7
#     2   2   2   2   2   2   2
#     4  11  23  39  65  93 131 172 211 262 320 389
#     4  11  24  42  63  95 135 167 216 268 322 383
#     4  11  21  39  69  98 125 164 218 268 321 376
#     4  12  26  43  62  90 132 178 213 260 325 392
#     4  11  21  41  67  96 126 165 217 275 317 371
#     4  11  22  39  68 100 128 164 214 274 322 373
#     4  11  22  41  64  95 127 166 219 268 318 376
#
# _framework density 22.189824999999999
#
# number of rings (size 3 to 8) (size 9 to 14) (size 15 to 20)
#    0.000    0.857    1.429    9.857    2.000    0.571 
#    0.000    0.000    0.000    3.429    0.000    0.000 
#    0.000    0.000    0.000    0.000    0.000    0.000 
#
# Total GULP energy -173547.036768 kJ/mol
# GULP energy per Si atom -12396.216912 kJ/mol
# Density = 2.213932 g / cm^3
# Si number density = 22.189825 Si / 1000 Ang^3
#
#
#
# Elastic Constant Matrix: (Units=GPa)
#
#
# Indices 1 2 3 4 5 6 
#
# 1 127.2936 38.2412 32.1172 -7.4321 11.4345 21.4399
# 2 38.2412 118.6704 23.2915 2.5783 2.7928 0.5572
# 3 32.1172 23.2915 107.8475 11.9455 -2.3360 4.3171
# 4 -7.4321 2.5783 11.9455 31.6550 -10.0302 0.2946
# 5 11.4345 2.7928 -2.3360 -10.0302 29.4020 -2.2270
# 6 21.4399 0.5572 4.3171 0.2946 -2.2270 35.1319
#
#
#
# Elastic Compliance Matrix: (Units=1/GPa)
#
#
# Indices 1 2 3 4 5 6 
#
# 1 0.011064 -0.002959 -0.002777 0.002741 -0.003809 -0.006628
# 2 -0.002959 0.009623 -0.001150 -0.001090 -0.000090 0.001798
# 3 -0.002777 -0.001150 0.010837 -0.004475 0.000558 0.000454
# 4 0.002741 -0.001090 -0.004475 0.037654 0.011475 -0.000694
# 5 -0.003809 -0.000090 0.000558 0.011475 0.039815 0.004685
# 6 -0.006628 0.001798 0.000454 -0.000694 0.004685 0.032728
#
#
# Mechanical properties :
#
#
# Convention : Reuss Voigt Hill
#
# Bulk Modulus (GPa) = 56.32994 60.12348 58.22671
# Shear Modulus (GPa) = 30.97680 36.58189 33.77934
#
# Velocity S-wave (km/s) = 3.74035 4.06469 3.90589
# Velocity P-wave (km/s) = 6.64035 7.01304 6.82924
#
# Compressibility (1/GPa) = 0.01775255
#
# Stress axis : x y z
#
# Youngs Moduli (GPa) = 90.38293 103.91313 92.27415
#
# Poissons Ratio (x) = 0.30750 0.25621
# Poissons Ratio (y) = 0.26746 0.10614
# Poissons Ratio (z) = 0.25096 0.11953
#
# Static dielectric constant tensor:
#      x y z
#    x 4.194090 -0.060460 0.129520 
#    y -0.060460 4.276790 0.092250 
#    z 0.129520 0.092250 3.796320 
# 
# 
# High freq. dielectric constant tensor:
#      x y z
#    x 1.881250 0.001140 0.026530 
#    y 0.001140 1.887640 0.009130 
#    z 0.026530 0.009130 1.845620 
# 
# From -- ./inp_files/390249.got.cif
#   From: 2010.06.25/outbox.cif.g09.slc.cpg/sg2_196_cif.got.tgz:390249.got - 2010.06.27 13:26:56.
