data_PCOD8029832
_publ_section_title
;
Structure prediction by ZEFSAII (Michael W. Deem and Ramdas Pophale) SiO2 
 PCOD8029832
Probable space group: P -1
;
_chemical_formula_sum "Si O2"
_cell_formula_units_Z 14
_cell_length_a 8.204577
_cell_length_b 8.950090
_cell_length_c 19.131334
_cell_angle_alpha 147.248655
_cell_angle_beta 55.736365
_cell_angle_gamma 113.952454
_cell_volume 620.914044
_symmetry_space_group_name_H-M "P -1"
_symmetry_group_IT_number 2
_symmetry_cell_setting 'triclinic'
loop_
_space_group_symop_operation_xyz
x,y,z
-x,-y,-z
loop_
_atom_site_type_symbol
_atom_site_label
_atom_site_fract_x
_atom_site_fract_y
_atom_site_fract_z
Si Si1 0.366110 0.629193 0.369349
Si Si2 0.609395 0.786958 0.129246
Si Si3 0.719764 0.931677 0.786272
Si Si4 0.765519 0.769704 0.349427
Si Si5 0.092578 0.281960 0.092679
Si Si6 0.099275 0.210260 0.826875
Si Si7 0.467169 0.349052 0.094138
O O1 0.254315 0.403566 0.346355
O O2 0.547939 0.709838 0.404280
O O3 0.482272 0.511666 0.225397
O O4 0.209659 0.914353 0.508179
O O5 0.729318 0.941042 0.220248
O O6 0.519217 0.531071 0.085724
O O7 0.427127 0.982950 0.211443
O O8 0.786663 0.663621 0.984908
O O9 0.938985 0.017022 0.763877
O O10 0.619283 0.060082 0.933952
O O11 0.783622 0.724033 0.244108
O O12 0.930741 0.544536 0.256554
O O13 0.246597 0.265750 0.112663
O O14 0.000000 0.000000 0.000000
O O15 0.000000 0.500000 0.000000
#
# Coordination Sequence:
#
# PCOD8029832 Si02
#       7
#     2   2   2   2   2   2   2
#     4  11  25  40  62  88 131 174 202 265 320 372
#     4  11  22  40  65  96 121 163 209 263 320 366
#     4  11  23  40  64  97 127 157 221 270 308 373
#     4  11  22  43  61  89 130 169 211 252 327 388
#     4  11  23  37  67  98 124 155 214 276 309 370
#     4  12  21  38  71  91 123 167 212 264 323 376
#     4  11  21  40  65  90 126 167 212 256 322 376
#
# _framework density 22.547404
#
# number of rings (size 3 to 8) (size 9 to 14) (size 15 to 20)
#    0.000    0.857    4.286    4.714    2.000    1.143 
#    0.000    0.714    3.143    0.000    0.000    0.000 
#    0.000    0.000    0.000    0.000    0.000    0.000 
#
# Total GULP energy -173460.869005 kJ/mol
# GULP energy per Si atom -12390.062072 kJ/mol
# Density = 2.249609 g / cm^3
# Si number density = 22.547404 Si / 1000 Ang^3
#
#
#
# Elastic Constant Matrix: (Units=GPa)
#
#
# Indices 1 2 3 4 5 6 
#
# 1 130.9274 38.0020 18.9532 19.6859 -5.9106 29.0450
# 2 38.0020 77.4400 32.7426 29.8917 1.9497 26.8465
# 3 18.9532 32.7426 94.4183 33.8368 -4.2736 5.3906
# 4 19.6859 29.8917 33.8368 39.6337 -2.2273 9.6619
# 5 -5.9106 1.9497 -4.2736 -2.2273 24.0189 -4.1059
# 6 29.0450 26.8465 5.3906 9.6619 -4.1059 38.3126
#
#
#
# Elastic Compliance Matrix: (Units=1/GPa)
#
#
# Indices 1 2 3 4 5 6 
#
# 1 0.009810 -0.002356 -0.000233 -0.001543 0.001532 -0.005200
# 2 -0.002356 0.024617 -0.003424 -0.011736 -0.006449 -0.012713
# 3 -0.000233 -0.003424 0.015893 -0.011588 0.002579 0.003539
# 4 -0.001543 -0.011736 -0.011588 0.044895 0.002672 -0.000012
# 5 0.001532 -0.006449 0.002579 0.002672 0.044452 0.007085
# 6 -0.005200 -0.012713 0.003539 -0.000012 0.007085 0.039216
#
#
# Mechanical properties :
#
#
# Convention : Reuss Voigt Hill
#
# Bulk Modulus (GPa) = 26.11371 53.57570 39.84470
# Shear Modulus (GPa) = 24.54922 34.59891 29.57407
#
# Velocity S-wave (km/s) = 3.30325 3.92151 3.62559
# Velocity P-wave (km/s) = 5.11424 6.65712 5.93602
#
# Compressibility (1/GPa) = 0.03829406
#
# Stress axis : x y z
#
# Youngs Moduli (GPa) = 101.93553 40.62292 62.92166
#
# Poissons Ratio (x) = 0.09569 0.01467
# Poissons Ratio (y) = 0.24012 0.21545
# Poissons Ratio (z) = 0.02376 0.13910
#
# Static dielectric constant tensor:
#      x y z
#    x 4.514760 0.124890 -0.006950 
#    y 0.124890 4.010650 -0.010040 
#    z -0.006950 -0.010040 3.873850 
# 
# 
# High freq. dielectric constant tensor:
#      x y z
#    x 1.898940 0.019920 0.000930 
#    y 0.019920 1.888560 0.005630 
#    z 0.000930 0.005630 1.860830 
# 
# From -- ./inp_files/157719.got.cif
#   From: 2010.06.25/outbox.cif.g09.slc.cpg/sg2_79_cif.got.tgz:157719.got - 2010.06.27 13:26:56.
