data_PCOD8029702
_publ_section_title
;
Structure prediction by ZEFSAII (Michael W. Deem and Ramdas Pophale) SiO2 
 PCOD8029702
Probable space group: P -1
;
_chemical_formula_sum "Si O2"
_cell_formula_units_Z 16
_cell_length_a 23.658401
_cell_length_b 12.167259
_cell_length_c 11.934378
_cell_angle_alpha 34.207657
_cell_angle_beta 29.799169
_cell_angle_gamma 27.806692
_cell_volume 769.800296
_symmetry_space_group_name_H-M "P -1"
_symmetry_group_IT_number 2
_symmetry_cell_setting 'triclinic'
loop_
_space_group_symop_operation_xyz
x,y,z
-x,-y,-z
loop_
_atom_site_type_symbol
_atom_site_label
_atom_site_fract_x
_atom_site_fract_y
_atom_site_fract_z
Si Si1 0.835541 0.205408 0.114300
Si Si2 0.849987 0.664869 0.321255
Si Si3 0.572332 0.754320 0.654994
Si Si4 0.925099 0.528393 0.718558
Si Si5 0.561654 0.411080 0.820745
Si Si6 0.967853 0.153897 0.533788
Si Si7 0.245875 0.825428 0.967348
Si Si8 0.781642 0.067446 0.552923
O O1 0.768163 0.210547 0.109069
O O2 0.764611 0.164375 0.374531
O O3 0.820714 0.450804 0.955723
O O4 0.000000 0.000000 0.000000
O O5 0.694133 0.724825 0.549084
O O6 0.956625 0.393694 0.311445
O O7 0.931537 0.644882 0.309876
O O8 0.825378 0.895613 0.106133
O O9 0.641629 0.509422 0.663835
O O10 0.500000 0.000000 0.500000
O O11 0.454312 0.766608 0.924851
O O12 0.000000 0.500000 0.500000
O O13 0.813959 0.804545 0.717682
O O14 0.411858 0.661585 0.839367
O O15 0.638781 0.264649 0.698644
O O16 0.821137 0.264081 0.758439
O O17 0.000000 0.000000 0.500000
O O18 0.087313 0.973244 0.571031
#
# Coordination Sequence:
#
# PCOD8029702 Si02
#       8
#     2   2   2   2   2   2   2   2
#     4  12  21  41  67  94 126 170 218 269 326 382
#     4  11  21  38  66  94 119 172 219 258 320 389
#     4  11  23  42  67  91 131 178 214 259 323 401
#     4  11  21  39  67  96 125 167 219 272 324 380
#     4  11  26  43  64  96 134 173 216 266 333 387
#     4  11  23  39  64  95 130 165 220 275 322 382
#     4  12  23  42  68  93 129 175 217 265 329 393
#     4  11  24  41  64  97 132 168 218 277 319 388
#
# _framework density 20.784611000000002
#
# number of rings (size 3 to 8) (size 9 to 14) (size 15 to 20)
#    0.000    0.750    6.250    1.500    1.750    2.000 
#    0.000    3.125    0.000    0.000    0.000    0.000 
#    0.000    0.000    0.000    0.000    0.000    0.000 
#
# Total GULP energy -198209.041791 kJ/mol
# GULP energy per Si atom -12388.065112 kJ/mol
# Density = 2.073730 g / cm^3
# Si number density = 20.784611 Si / 1000 Ang^3
#
#
#
# Elastic Constant Matrix: (Units=GPa)
#
#
# Indices 1 2 3 4 5 6 
#
# 1 87.2286 35.7003 32.2141 -8.3248 4.1577 9.0402
# 2 35.7003 116.6797 45.1382 -8.7414 16.5656 6.5042
# 3 32.2141 45.1382 79.8876 -12.7854 14.4703 6.3826
# 4 -8.3248 -8.7414 -12.7854 39.9628 6.2294 2.4158
# 5 4.1577 16.5656 14.4703 6.2294 35.4590 3.4079
# 6 9.0402 6.5042 6.3826 2.4158 3.4079 32.8327
#
#
#
# Elastic Compliance Matrix: (Units=1/GPa)
#
#
# Indices 1 2 3 4 5 6 
#
# 1 0.014452 -0.002792 -0.004104 0.001044 0.001375 -0.002848
# 2 -0.002792 0.011847 -0.004752 0.001045 -0.003415 -0.000377
# 3 -0.004104 -0.004752 0.018825 0.005107 -0.005747 -0.001367
# 4 0.001044 0.001045 0.005107 0.028429 -0.007419 -0.002809
# 5 0.001375 -0.003415 -0.005747 -0.007419 0.033429 -0.001509
# 6 -0.002848 -0.000377 -0.001367 -0.002809 -0.001509 0.031945
#
#
# Mechanical properties :
#
#
# Convention : Reuss Voigt Hill
#
# Bulk Modulus (GPa) = 45.81485 56.65568 51.23527
# Shear Modulus (GPa) = 29.49820 33.03378 31.26599
#
# Velocity S-wave (km/s) = 3.77136 3.99098 3.88272
# Velocity P-wave (km/s) = 6.40740 6.96813 6.69364
#
# Compressibility (1/GPa) = 0.02182699
#
# Stress axis : x y z
#
# Youngs Moduli (GPa) = 69.19467 84.40690 53.12044
#
# Poissons Ratio (x) = 0.23569 0.21803
# Poissons Ratio (y) = 0.19321 0.25243
# Poissons Ratio (z) = 0.28400 0.40111
#
# Static dielectric constant tensor:
#      x y z
#    x 6.947690 1.232640 -1.524780 
#    y 1.232640 4.452280 -0.813180 
#    z -1.524780 -0.813180 3.965380 
# 
# 
# High freq. dielectric constant tensor:
#      x y z
#    x 1.827990 -0.001270 -0.007560 
#    y -0.001270 1.823320 -0.027460 
#    z -0.007560 -0.027460 1.791210 
# 
# From -- ./inp_files/474746.got.cif
#   From: 2010.06.25/outbox.cif.g09.slc.cpg/sg2_238_cif.got.tgz:474746.got - 2010.06.27 13:26:56.
