data_PCOD8029271
_publ_section_title
;
Structure prediction by ZEFSAII (Michael W. Deem and Ramdas Pophale) SiO2 
 PCOD8029271
Probable space group: P -1
;
_chemical_formula_sum "Si O2"
_cell_formula_units_Z 16
_cell_length_a 15.216466
_cell_length_b 15.254479
_cell_length_c 9.334354
_cell_angle_alpha 37.690817
_cell_angle_beta 132.507570
_cell_angle_gamma 146.516502
_cell_volume 730.047547
_symmetry_space_group_name_H-M "P -1"
_symmetry_group_IT_number 2
_symmetry_cell_setting 'triclinic'
loop_
_space_group_symop_operation_xyz
x,y,z
-x,-y,-z
loop_
_atom_site_type_symbol
_atom_site_label
_atom_site_fract_x
_atom_site_fract_y
_atom_site_fract_z
Si Si1 0.209045 0.437955 0.054101
Si Si2 0.302206 0.206619 0.490369
Si Si3 0.207784 0.825876 0.766867
Si Si4 0.951804 0.455768 0.814545
Si Si5 0.768127 0.456118 0.383882
Si Si6 0.512164 0.025382 0.649491
Si Si7 0.570072 0.766522 0.100692
Si Si8 0.586744 0.547285 0.184424
O O1 0.203758 0.491244 0.817904
O O2 0.067130 0.409050 0.011396
O O3 0.181841 0.244276 0.280484
O O4 0.377200 0.603106 0.103406
O O5 0.341503 0.230571 0.670602
O O6 0.470858 0.367072 0.393584
O O7 0.219488 0.999349 0.604724
O O8 0.344480 0.891722 0.720276
O O9 0.038660 0.662175 0.714547
O O10 0.206336 0.718675 0.043831
O O11 0.907378 0.469022 0.587682
O O12 0.749184 0.588574 0.281602
O O13 0.600763 0.242452 0.500797
O O14 0.500000 0.000000 0.500000
O O15 0.616056 0.970861 0.884486
O O16 0.631682 0.734343 0.066632
O O17 0.500000 0.500000 0.000000
#
# Coordination Sequence:
#
# PCOD8029271 Si02
#       8
#     2   2   2   2   2   2   2   2
#     4  11  22  44  64  96 139 172 213 270 333 394
#     4  11  24  40  68  96 132 171 224 275 327 386
#     4  11  25  44  64  96 132 177 219 275 324 388
#     4  11  26  44  64  93 139 180 218 257 336 401
#     4  12  23  40  72  99 131 174 217 273 330 392
#     4  12  22  41  68 100 132 163 223 283 323 379
#     4  11  23  38  66 102 130 171 212 280 333 379
#     4  11  20  39  65 101 134 165 215 277 334 377
#
# _framework density 21.916381999999999
#
# number of rings (size 3 to 8) (size 9 to 14) (size 15 to 20)
#    0.000    0.750    6.250    2.625    1.750    3.500 
#    0.000    1.875    0.000    0.000    0.000    0.000 
#    0.000    0.000    0.000    0.000    0.000    0.000 
#
# Total GULP energy -198319.202314 kJ/mol
# GULP energy per Si atom -12394.950145 kJ/mol
# Density = 2.186650 g / cm^3
# Si number density = 21.916382 Si / 1000 Ang^3
#
#
#
# Elastic Constant Matrix: (Units=GPa)
#
#
# Indices 1 2 3 4 5 6 
#
# 1 111.6951 38.3661 44.3843 0.9591 2.6608 -15.4910
# 2 38.3661 63.9488 47.0927 -0.8707 5.0734 -18.1944
# 3 44.3843 47.0927 144.7794 11.3711 -2.7499 -11.0878
# 4 0.9591 -0.8707 11.3711 27.5468 -4.5321 5.9102
# 5 2.6608 5.0734 -2.7499 -4.5321 40.4466 -1.1097
# 6 -15.4910 -18.1944 -11.0878 5.9102 -1.1097 27.2783
#
#
#
# Elastic Compliance Matrix: (Units=1/GPa)
#
#
# Indices 1 2 3 4 5 6 
#
# 1 0.011742 -0.004971 -0.001740 -0.000475 -0.000245 0.002738
# 2 -0.004971 0.027171 -0.006462 0.000518 -0.003121 0.012434
# 3 -0.001740 -0.006462 0.009842 -0.003933 0.001143 -0.000399
# 4 -0.000475 0.000518 -0.003933 0.040804 0.003991 -0.010201
# 5 -0.000245 -0.003121 0.001143 0.003991 0.025613 -0.001580
# 6 0.002738 0.012434 -0.000399 -0.010201 -0.001580 0.048491
#
#
# Mechanical properties :
#
#
# Convention : Reuss Voigt Hill
#
# Bulk Modulus (GPa) = 44.62487 64.45662 54.54075
# Shear Modulus (GPa) = 25.31928 31.75968 28.53948
#
# Velocity S-wave (km/s) = 3.40261 3.81087 3.61251
# Velocity P-wave (km/s) = 5.98687 6.98840 6.50693
#
# Compressibility (1/GPa) = 0.02240903
#
# Stress axis : x y z
#
# Youngs Moduli (GPa) = 85.16750 36.80455 101.60076
#
# Poissons Ratio (x) = 0.18295 0.17682
# Poissons Ratio (y) = 0.42334 0.65651
# Poissons Ratio (z) = 0.14822 0.23782
#
# Static dielectric constant tensor:
#      x y z
#    x 4.342130 -0.311590 0.023060 
#    y -0.311590 3.831820 -0.174560 
#    z 0.023060 -0.174560 4.283510 
# 
# 
# High freq. dielectric constant tensor:
#      x y z
#    x 1.866850 -0.027330 -0.000530 
#    y -0.027330 1.838880 -0.003650 
#    z -0.000530 -0.003650 1.876110 
# 
# From -- ./inp_files/312438.got.cif
#   From: 2010.06.25/outbox.cif.g09.slc.cpg/sg2_157_cif.got.tgz:312438.got - 2010.06.27 13:26:56.
