data_PCOD8029042
_publ_section_title
;
Structure prediction by ZEFSAII (Michael W. Deem and Ramdas Pophale) SiO2 
 PCOD8029042
Probable space group: P -1
;
_chemical_formula_sum "Si O2"
_cell_formula_units_Z 16
_cell_length_a 8.662403
_cell_length_b 18.199712
_cell_length_c 12.104420
_cell_angle_alpha 37.448007
_cell_angle_beta 39.858386
_cell_angle_gamma 41.524481
_cell_volume 694.548049
_symmetry_space_group_name_H-M "P -1"
_symmetry_group_IT_number 2
_symmetry_cell_setting 'triclinic'
loop_
_space_group_symop_operation_xyz
x,y,z
-x,-y,-z
loop_
_atom_site_type_symbol
_atom_site_label
_atom_site_fract_x
_atom_site_fract_y
_atom_site_fract_z
Si Si1 0.534119 0.360401 0.603565
Si Si2 0.918803 0.184914 0.872420
Si Si3 0.614366 0.780035 0.797536
Si Si4 0.733108 0.526270 0.901429
Si Si5 0.196049 0.073303 0.066222
Si Si6 0.030449 0.131911 0.630287
Si Si7 0.121001 0.535941 0.493911
Si Si8 0.853588 0.732057 0.952220
O O1 0.500000 0.500000 0.500000
O O2 0.830500 0.272542 0.532277
O O3 0.369955 0.402794 0.530767
O O4 0.408998 0.284794 0.843705
O O5 0.027517 0.105038 0.795584
O O6 0.810419 0.336451 0.716659
O O7 0.683432 0.145678 0.094926
O O8 0.136081 0.153082 0.887413
O O9 0.630003 0.640089 0.911477
O O10 0.690611 0.865300 0.560841
O O11 0.802326 0.776847 0.800740
O O12 0.918698 0.564945 0.670339
O O13 0.897517 0.397348 0.029851
O O14 0.500000 0.500000 0.000000
O O15 0.045328 0.974126 0.268151
O O16 0.089540 0.165710 0.119763
O O17 0.500000 0.000000 0.000000
O O18 0.000000 0.500000 0.500000
#
# Coordination Sequence:
#
# PCOD8029042 Si02
#       8
#     2   2   2   2   2   2   2   2
#     4  11  19  40  66  98 140 172 227 283 346 416
#     4  12  24  48  71 101 147 181 239 301 347 424
#     4  12  24  44  73 105 143 186 234 291 359 424
#     4  11  23  41  66 109 149 179 237 287 356 431
#     4  12  26  48  73 100 141 193 243 293 353 422
#     4  12  25  45  73 106 137 193 241 284 360 422
#     4  11  22  37  67 101 141 182 218 287 358 406
#     4  11  23  43  67 101 147 188 230 293 349 414
#
# _framework density 23.036563999999998
#
# number of rings (size 3 to 8) (size 9 to 14) (size 15 to 20)
#    0.000    0.500    5.000    4.500    0.000    3.000 
#    0.000    0.000    0.000    0.000    0.000    0.000 
#    0.000    0.000    0.000    0.000    0.000    0.000 
#
# Total GULP energy -198387.848639 kJ/mol
# GULP energy per Si atom -12399.240540 kJ/mol
# Density = 2.298413 g / cm^3
# Si number density = 23.036564 Si / 1000 Ang^3
#
#
#
# Elastic Constant Matrix: (Units=GPa)
#
#
# Indices 1 2 3 4 5 6 
#
# 1 152.3017 42.4862 38.7284 10.1280 10.5157 17.2086
# 2 42.4862 84.2934 37.3281 -2.1457 3.5761 17.7461
# 3 38.7284 37.3281 121.5654 12.2260 -9.4136 0.5084
# 4 10.1280 -2.1457 12.2260 28.4018 5.9951 -7.2124
# 5 10.5157 3.5761 -9.4136 5.9951 38.6989 -7.7075
# 6 17.2086 17.7461 0.5084 -7.2124 -7.7075 55.2326
#
#
#
# Elastic Compliance Matrix: (Units=1/GPa)
#
#
# Indices 1 2 3 4 5 6 
#
# 1 0.008434 -0.002962 -0.001703 -0.002565 -0.002502 -0.002344
# 2 -0.002962 0.016646 -0.004814 0.004001 -0.003387 -0.004331
# 3 -0.001703 -0.004814 0.011117 -0.005049 0.004789 0.001984
# 4 -0.002565 0.004001 -0.005049 0.040980 -0.006450 0.004011
# 5 -0.002502 -0.003387 0.004789 -0.006450 0.030028 0.005171
# 6 -0.002344 -0.004331 0.001984 0.004011 0.005171 0.021454
#
#
# Mechanical properties :
#
#
# Convention : Reuss Voigt Hill
#
# Bulk Modulus (GPa) = 58.01295 66.13843 62.07569
# Shear Modulus (GPa) = 32.60252 40.44118 36.52185
#
# Velocity S-wave (km/s) = 3.76606 4.19444 3.98601
# Velocity P-wave (km/s) = 6.64444 7.22705 6.94186
#
# Compressibility (1/GPa) = 0.01723753
#
# Stress axis : x y z
#
# Youngs Moduli (GPa) = 118.57449 60.07625 89.95085
#
# Poissons Ratio (x) = 0.17795 0.15320
# Poissons Ratio (y) = 0.35123 0.43303
# Poissons Ratio (z) = 0.20195 0.28921
#
# Static dielectric constant tensor:
#      x y z
#    x 4.950490 0.177520 0.026030 
#    y 0.177520 3.862680 -0.053620 
#    z 0.026030 -0.053620 4.049720 
# 
# 
# High freq. dielectric constant tensor:
#      x y z
#    x 1.930540 -0.000460 -0.002220 
#    y -0.000460 1.911180 -0.011260 
#    z -0.002220 -0.011260 1.902510 
# 
# From -- ./inp_files/332688.got.cif
#   From: 2010.06.25/outbox.cif.g09.slc.cpg/sg2_167_cif.got.tgz:332688.got - 2010.06.27 13:26:56.
