data_PCOD8029125
_publ_section_title
;
Structure prediction by ZEFSAII (Michael W. Deem and Ramdas Pophale) SiO2 
 PCOD8029125
Probable space group: P -1
;
_chemical_formula_sum "Si O2"
_cell_formula_units_Z 16
_cell_length_a 14.814021
_cell_length_b 9.275059
_cell_length_c 11.343313
_cell_angle_alpha 96.348417
_cell_angle_beta 64.654012
_cell_angle_gamma 140.769718
_cell_volume 821.520548
_symmetry_space_group_name_H-M "P -1"
_symmetry_group_IT_number 2
_symmetry_cell_setting 'triclinic'
loop_
_space_group_symop_operation_xyz
x,y,z
-x,-y,-z
loop_
_atom_site_type_symbol
_atom_site_label
_atom_site_fract_x
_atom_site_fract_y
_atom_site_fract_z
Si Si1 0.399791 0.291186 0.135383
Si Si2 0.208373 0.531900 0.848368
Si Si3 0.444350 0.785963 0.067787
Si Si4 0.317970 0.986118 0.838927
Si Si5 0.286061 0.123587 0.643785
Si Si6 0.480819 0.617192 0.673971
Si Si7 0.894199 0.041626 0.885256
Si Si8 0.904624 0.718033 0.868648
O O1 0.447342 0.385447 0.251730
O O2 0.197260 0.065953 0.201954
O O3 0.500000 0.500000 0.000000
O O4 0.458162 0.196868 0.079173
O O5 0.223987 0.722627 0.849321
O O6 0.389421 0.662648 0.758032
O O7 0.086387 0.329164 0.792524
O O8 0.106553 0.377163 0.010343
O O9 0.243278 0.515001 0.156153
O O10 0.507597 0.837416 0.170964
O O11 0.500000 0.000000 0.000000
O O12 0.357651 0.095041 0.697680
O O13 0.207119 0.973944 0.969517
O O14 0.344524 0.354763 0.662658
O O15 0.360829 0.162523 0.479838
O O16 0.082475 0.884671 0.724566
O O17 0.889266 0.870922 0.919676
#
# Coordination Sequence:
#
# PCOD8029125 Si02
#       8
#     2   2   2   2   2   2   2   2
#     4  11  20  35  61  88 117 154 198 253 298 353
#     4  12  21  38  64  90 124 151 210 254 298 354
#     4  11  21  36  59  95 125 152 198 255 308 348
#     4  11  23  37  61  95 122 158 198 258 303 357
#     4  11  25  39  61  86 127 164 203 243 302 370
#     4  11  23  43  59  88 124 166 199 245 306 366
#     4  11  22  34  61  94 119 151 203 258 299 347
#     4  12  21  38  62  93 120 163 197 259 295 356
#
# _framework density 19.476078999999999
#
# number of rings (size 3 to 8) (size 9 to 14) (size 15 to 20)
#    0.000    0.750    6.250    3.000    0.000    0.500 
#    0.000    1.875    0.000    3.750    0.000    0.000 
#    0.000    0.000    0.000    0.000    0.000    0.000 
#
# Total GULP energy -198344.588849 kJ/mol
# GULP energy per Si atom -12396.536803 kJ/mol
# Density = 1.943175 g / cm^3
# Si number density = 19.476079 Si / 1000 Ang^3
#
#
#
# Elastic Constant Matrix: (Units=GPa)
#
#
# Indices 1 2 3 4 5 6 
#
# 1 113.5269 51.8756 49.5060 -9.9763 6.7266 7.0330
# 2 51.8756 121.8640 29.2595 -12.3562 -2.2124 7.0374
# 3 49.5060 29.2595 97.6903 -12.7341 6.1077 4.6792
# 4 -9.9763 -12.3562 -12.7341 19.2083 6.9948 -1.1539
# 5 6.7266 -2.2124 6.1077 6.9948 21.7818 1.2316
# 6 7.0330 7.0374 4.6792 -1.1539 1.2316 53.1960
#
#
#
# Elastic Compliance Matrix: (Units=1/GPa)
#
#
# Indices 1 2 3 4 5 6 
#
# 1 0.013404 -0.004325 -0.004924 0.002298 -0.003900 -0.000627
# 2 -0.004325 0.010622 -0.000571 0.003636 0.001449 -0.000738
# 3 -0.004924 -0.000571 0.014351 0.008498 -0.005277 -0.000229
# 4 0.002298 0.003636 0.008498 0.070511 -0.025399 0.000585
# 5 -0.003900 0.001449 -0.005277 -0.025399 0.056959 -0.001081
# 6 -0.000627 -0.000738 -0.000229 0.000585 -0.001081 0.019037
#
#
# Mechanical properties :
#
#
# Convention : Reuss Voigt Hill
#
# Bulk Modulus (GPa) = 53.36949 66.04036 59.70493
# Shear Modulus (GPa) = 23.72270 32.33325 28.02797
#
# Velocity S-wave (km/s) = 3.49383 4.07892 3.79766
# Velocity P-wave (km/s) = 6.61346 7.49436 7.06765
#
# Compressibility (1/GPa) = 0.01873730
#
# Stress axis : x y z
#
# Youngs Moduli (GPa) = 74.60545 94.14714 69.68083
#
# Poissons Ratio (x) = 0.40721 0.34309
# Poissons Ratio (y) = 0.32269 0.03977
# Poissons Ratio (z) = 0.36734 0.05373
#
# Static dielectric constant tensor:
#      x y z
#    x 3.902300 0.239510 -0.017790 
#    y 0.239510 3.863470 -0.063200 
#    z -0.017790 -0.063200 3.102930 
# 
# 
# High freq. dielectric constant tensor:
#      x y z
#    x 1.779470 0.004280 -0.002190 
#    y 0.004280 1.772640 -0.000690 
#    z -0.002190 -0.000690 1.706740 
# 
# From -- ./inp_files/175327.got.cif
#   From: 2010.06.25/outbox.cif.g09.slc.cpg/sg2_88_cif.got.tgz:175327.got - 2010.06.27 13:26:56.
