data_PCOD8029118
_publ_section_title
;
Structure prediction by ZEFSAII (Michael W. Deem and Ramdas Pophale) SiO2 
 PCOD8029118
Probable space group: P -1
;
_chemical_formula_sum "Si O2"
_cell_formula_units_Z 16
_cell_length_a 19.215860
_cell_length_b 19.464465
_cell_length_c 13.498697
_cell_angle_alpha 160.951752
_cell_angle_beta 34.761844
_cell_angle_gamma 145.366825
_cell_volume 910.006623
_symmetry_space_group_name_H-M "P -1"
_symmetry_group_IT_number 2
_symmetry_cell_setting 'triclinic'
loop_
_space_group_symop_operation_xyz
x,y,z
-x,-y,-z
loop_
_atom_site_type_symbol
_atom_site_label
_atom_site_fract_x
_atom_site_fract_y
_atom_site_fract_z
Si Si1 0.508257 0.706781 0.657273
Si Si2 0.246884 0.541581 0.336167
Si Si3 0.848803 0.039151 0.015361
Si Si4 0.634407 0.950599 0.657841
Si Si5 0.763356 0.857463 0.082185
Si Si6 0.384536 0.232414 0.174861
Si Si7 0.491092 0.145765 0.532184
Si Si8 0.864122 0.893210 0.215312
O O1 0.595219 0.796133 0.585738
O O2 0.440560 0.463172 0.373692
O O3 0.602424 0.735794 0.679478
O O4 0.398009 0.823041 0.970923
O O5 0.395646 0.646391 0.291372
O O6 0.170307 0.726341 0.674763
O O7 0.229597 0.397942 0.263804
O O8 0.193320 0.370337 0.077104
O O9 0.816696 0.977981 0.083875
O O10 0.763228 0.854207 0.794467
O O11 0.992256 0.041235 0.829025
O O12 0.562434 0.829625 0.480951
O O13 0.784533 0.996706 0.528093
O O14 0.618363 0.871095 0.281719
O O15 0.846945 0.985892 0.251102
O O16 0.458673 0.070508 0.818586
#
# Coordination Sequence:
#
# PCOD8029118 Si02
#       8
#     2   2   2   2   2   2   2   2
#     4   9  18  35  52  77  93 123 170 215 269 282
#     4   9  20  31  51  75 108 133 165 202 237 304
#     4  11  20  35  50  73 107 141 164 199 244 297
#     4   9  18  32  57  71  99 131 160 215 254 295
#     4   9  20  31  52  74 107 137 160 205 241 295
#     4   9  20  32  52  73 103 124 166 216 248 305
#     4   9  17  33  48  81 103 124 166 206 248 301
#     4   9  20  34  49  74 105 136 170 197 238 305
#
# _framework density 17.582288999999999
#
# number of rings (size 3 to 8) (size 9 to 14) (size 15 to 20)
#    0.750    2.000    0.000    1.125    1.750    3.000 
#    0.000    1.250    0.000    0.000    0.000    0.000 
#    0.000    0.000    0.000    0.000    0.000    0.000 
#
# Total GULP energy -198258.334816 kJ/mol
# GULP energy per Si atom -12391.145926 kJ/mol
# Density = 1.754227 g / cm^3
# Si number density = 17.582289 Si / 1000 Ang^3
#
#
#
# Elastic Constant Matrix: (Units=GPa)
#
#
# Indices 1 2 3 4 5 6 
#
# 1 71.4042 57.2747 44.9199 -5.6356 -10.6123 17.9402
# 2 57.2747 92.7941 57.4900 -13.8004 -9.9119 13.1854
# 3 44.9199 57.4900 60.5241 -0.6516 -4.5395 2.3417
# 4 -5.6356 -13.8004 -0.6516 32.2063 3.9514 -5.7882
# 5 -10.6123 -9.9119 -4.5395 3.9514 20.4291 -2.9576
# 6 17.9402 13.1854 2.3417 -5.7882 -2.9576 34.2457
#
#
#
# Elastic Compliance Matrix: (Units=1/GPa)
#
#
# Indices 1 2 3 4 5 6 
#
# 1 0.037511 -0.009427 -0.017659 -0.001529 0.009217 -0.014276
# 2 -0.009427 0.035768 -0.026397 0.011852 0.003617 -0.004712
# 3 -0.017659 -0.026397 0.053609 -0.010135 -0.006153 0.013504
# 4 -0.001529 0.011852 -0.010135 0.036644 -0.003981 0.002781
# 5 0.009217 0.003617 -0.006153 -0.003981 0.054641 -0.001754
# 6 -0.014276 -0.004712 0.013504 0.002781 -0.001754 0.037889
#
#
# Mechanical properties :
#
#
# Convention : Reuss Voigt Hill
#
# Bulk Modulus (GPa) = 50.19376 60.45461 55.32418
# Shear Modulus (GPa) = 13.52563 21.71207 17.61885
#
# Velocity S-wave (km/s) = 2.77659 3.51790 3.16900
# Velocity P-wave (km/s) = 6.23612 7.13858 6.70255
#
# Compressibility (1/GPa) = 0.01992280
#
# Stress axis : x y z
#
# Youngs Moduli (GPa) = 26.65869 27.95815 18.65360
#
# Poissons Ratio (x) = 0.26356 0.32940
# Poissons Ratio (y) = 0.25131 0.49240
# Poissons Ratio (z) = 0.47076 0.73801
#
# Static dielectric constant tensor:
#      x y z
#    x 3.266310 0.080320 -0.152680 
#    y 0.080320 3.132730 0.067180 
#    z -0.152680 0.067180 3.261690 
# 
# 
# High freq. dielectric constant tensor:
#      x y z
#    x 1.673810 0.004300 -0.014310 
#    y 0.004300 1.666840 0.006620 
#    z -0.014310 0.006620 1.670880 
# 
# From -- ./inp_files/253998.got.cif
#   From: 2010.06.25/outbox.cif.g09.slc.cpg/sg2_127_cif.got.tgz:253998.got - 2010.06.27 13:26:56.
