data_PCOD8029699
_publ_section_title
;
Structure prediction by ZEFSAII (Michael W. Deem and Ramdas Pophale) SiO2 
 PCOD8029699
Probable space group: P -1
;
_chemical_formula_sum "Si O2"
_cell_formula_units_Z 16
_cell_length_a 9.834072
_cell_length_b 15.240894
_cell_length_c 15.854299
_cell_angle_alpha 140.444954
_cell_angle_beta 26.306867
_cell_angle_gamma 141.900879
_cell_volume 630.830836
_symmetry_space_group_name_H-M "P -1"
_symmetry_group_IT_number 2
_symmetry_cell_setting 'triclinic'
loop_
_space_group_symop_operation_xyz
x,y,z
-x,-y,-z
loop_
_atom_site_type_symbol
_atom_site_label
_atom_site_fract_x
_atom_site_fract_y
_atom_site_fract_z
Si Si1 0.711852 0.233131 0.015807
Si Si2 0.601348 0.690526 0.277869
Si Si3 0.316400 0.200152 0.072996
Si Si4 0.260461 0.052058 0.727880
Si Si5 0.749395 0.245926 0.320518
Si Si6 0.209491 0.535646 0.233917
Si Si7 0.239498 0.816373 0.324005
Si Si8 0.373181 0.082258 0.252324
O O1 0.480682 0.301918 0.139005
O O2 0.576392 0.203314 0.162904
O O3 0.083788 0.348686 0.895562
O O4 0.699806 0.081540 0.862125
O O5 0.767627 0.806507 0.196986
O O6 0.470889 0.759701 0.479667
O O7 0.313238 0.564256 0.297205
O O8 0.097144 0.244763 0.161026
O O9 0.653396 0.203481 0.844378
O O10 0.107752 0.052583 0.130360
O O11 0.423160 0.073158 0.744516
O O12 0.500000 0.000000 0.500000
O O13 0.569432 0.115835 0.258572
O O14 0.863539 0.402461 0.325128
O O15 0.132771 0.669767 0.332074
O O16 0.500000 0.500000 0.000000
O O17 0.967087 0.890933 0.525234
#
# Coordination Sequence:
#
# PCOD8029699 Si02
#       8
#     2   2   2   2   2   2   2   2
#     4  11  25  44  68 105 146 180 225 290 357 416
#     4  11  24  44  71 101 138 186 231 290 346 411
#     4  12  25  40  69 104 139 180 230 284 345 422
#     4  11  21  38  65  99 138 174 223 281 348 411
#     4  12  26  45  72 103 139 188 239 283 341 414
#     4  11  24  47  73 100 140 186 237 289 339 406
#     4  11  25  42  69  99 137 184 232 283 344 412
#     4  11  26  46  70 104 145 183 227 290 355 418
#
# _framework density 25.363377
#
# number of rings (size 3 to 8) (size 9 to 14) (size 15 to 20)
#    0.000    0.750    2.500    5.250    7.000    1.500 
#    0.000    0.625    0.000    0.000    0.000    0.000 
#    0.000    0.000    0.000    0.000    0.000    0.000 
#
# Total GULP energy -198210.596016 kJ/mol
# GULP energy per Si atom -12388.162251 kJ/mol
# Density = 2.530565 g / cm^3
# Si number density = 25.363377 Si / 1000 Ang^3
#
#
#
# Elastic Constant Matrix: (Units=GPa)
#
#
# Indices 1 2 3 4 5 6 
#
# 1 137.7031 7.3133 34.4054 -10.8472 2.6591 16.4006
# 2 7.3133 53.9344 0.9301 -14.0524 0.9865 12.7261
# 3 34.4054 0.9301 96.0081 -21.0886 6.0163 3.9066
# 4 -10.8472 -14.0524 -21.0886 31.6023 3.5104 2.2056
# 5 2.6591 0.9865 6.0163 3.5104 50.8511 -0.1053
# 6 16.4006 12.7261 3.9066 2.2056 -0.1053 24.5258
#
#
#
# Elastic Compliance Matrix: (Units=1/GPa)
#
#
# Indices 1 2 3 4 5 6 
#
# 1 0.008721 0.000910 -0.002358 0.002294 -0.000366 -0.006137
# 2 0.000910 0.026388 0.003708 0.015897 -0.002129 -0.016330
# 3 -0.002358 0.003708 0.013836 0.010576 -0.002323 -0.003512
# 4 0.002294 0.015897 0.010576 0.048221 -0.005041 -0.015825
# 5 -0.000366 -0.002129 -0.002323 -0.005041 0.020353 0.002260
# 6 -0.006137 -0.016330 -0.003512 -0.015825 0.002260 0.055343
#
#
# Mechanical properties :
#
#
# Convention : Reuss Voigt Hill
#
# Bulk Modulus (GPa) = 18.70329 41.43811 30.07070
# Shear Modulus (GPa) = 26.85805 37.72894 32.29350
#
# Velocity S-wave (km/s) = 3.25765 3.86104 3.57211
# Velocity P-wave (km/s) = 4.64111 6.02081 5.37541
#
# Compressibility (1/GPa) = 0.05346653
#
# Stress axis : x y z
#
# Youngs Moduli (GPa) = 114.66062 37.89649 72.27385
#
# Poissons Ratio (x) = -0.03450 0.17040
# Poissons Ratio (y) = -0.10440 -0.26798
# Poissons Ratio (z) = 0.27033 -0.14051
#
# Static dielectric constant tensor:
#      x y z
#    x 5.194320 0.172610 0.101930 
#    y 0.172610 4.527420 -0.176390 
#    z 0.101930 -0.176390 4.428640 
# 
# 
# High freq. dielectric constant tensor:
#      x y z
#    x 2.040680 0.004540 0.009980 
#    y 0.004540 1.988230 -0.026930 
#    z 0.009980 -0.026930 2.014110 
# 
# From -- ./inp_files/507297.got.cif
#   From: 2010.06.25/outbox.cif.g09.slc.cpg/sg2_254_cif.got.tgz:507297.got - 2010.06.27 13:26:56.
