data_PCOD8029316
_publ_section_title
;
Structure prediction by ZEFSAII (Michael W. Deem and Ramdas Pophale) SiO2 
 PCOD8029316
Probable space group: P -1
;
_chemical_formula_sum "Si O2"
_cell_formula_units_Z 16
_cell_length_a 7.967570
_cell_length_b 7.597063
_cell_length_c 17.914557
_cell_angle_alpha 102.241739
_cell_angle_beta 62.420249
_cell_angle_gamma 118.473537
_cell_volume 844.834664
_symmetry_space_group_name_H-M "P -1"
_symmetry_group_IT_number 2
_symmetry_cell_setting 'triclinic'
loop_
_space_group_symop_operation_xyz
x,y,z
-x,-y,-z
loop_
_atom_site_type_symbol
_atom_site_label
_atom_site_fract_x
_atom_site_fract_y
_atom_site_fract_z
Si Si1 0.272519 0.030707 0.681178
Si Si2 0.704370 0.307112 0.002964
Si Si3 0.727477 0.577007 0.318823
Si Si4 0.860063 0.537852 0.132202
Si Si5 0.860070 0.954420 0.132202
Si Si6 0.885718 0.392899 0.400082
Si Si7 0.704368 0.900227 0.002967
Si Si8 0.323589 0.612018 0.400449
O O1 0.170891 0.178876 0.686858
O O2 0.209470 0.961340 0.773564
O O3 0.528027 0.157381 0.634705
O O4 0.186073 0.834258 0.631000
O O5 0.694144 0.375799 0.095895
O O6 0.705687 0.093473 0.981257
O O7 0.500004 0.294999 0.999996
O O8 0.913535 0.461364 0.930293
O O9 0.790519 0.478301 0.226436
O O10 0.813925 0.517178 0.368998
O O11 0.471969 0.494646 0.365297
O O12 0.863059 0.748512 0.133962
O O13 0.694152 0.914256 0.095896
O O14 0.086474 0.117540 0.069706
O O15 0.773174 0.386503 0.499832
O O16 0.138891 0.503500 0.368107
#
# Coordination Sequence:
#
# PCOD8029316 Si02
#       8
#     2   2   2   2   2   2   2   2
#     4   9  21  38  57  85 117 147 186 239 277 335
#     4   9  18  31  50  73 101 139 178 213 262 325
#     4   9  21  38  57  85 117 147 186 239 277 335
#     4   9  18  34  49  72 108 134 172 228 266 315
#     4   9  18  34  49  72 108 134 172 228 266 315
#     4  11  20  40  63  82 115 154 181 232 294 329
#     4   9  18  31  50  73 101 139 178 213 262 325
#     4   9  22  40  57  90 115 140 199 230 268 365
#
# _framework density 18.938614999999999
#
# number of rings (size 3 to 8) (size 9 to 14) (size 15 to 20)
#    0.750    2.000    0.000    0.750    1.750    2.500 
#    2.250    1.250    0.000    0.000    0.000    0.000 
#    0.000    0.000    0.000    0.000    0.000    0.000 
#
# Total GULP energy -198271.184461 kJ/mol
# GULP energy per Si atom -12391.949029 kJ/mol
# Density = 1.889551 g / cm^3
# Si number density = 18.938615 Si / 1000 Ang^3
#
#
#
# Elastic Constant Matrix: (Units=GPa)
#
#
# Indices 1 2 3 4 5 6 
#
# 1 118.1125 50.0961 51.5395 -0.9952 15.0607 30.0082
# 2 50.0961 80.0215 37.5894 12.5121 1.7497 21.9364
# 3 51.5395 37.5894 121.9592 2.4418 4.8523 20.0119
# 4 -0.9952 12.5121 2.4418 15.6968 1.8682 5.1764
# 5 15.0607 1.7497 4.8523 1.8682 16.7914 1.8631
# 6 30.0082 21.9364 20.0119 5.1764 1.8631 34.5248
#
#
#
# Elastic Compliance Matrix: (Units=1/GPa)
#
#
# Indices 1 2 3 4 5 6 
#
# 1 0.018038 -0.009159 -0.002939 0.013776 -0.014863 -0.009419
# 2 -0.009159 0.022994 -0.002751 -0.018647 0.008993 -0.002744
# 3 -0.002939 -0.002751 0.010597 0.001018 -0.000032 -0.001991
# 4 0.013776 -0.018647 0.001018 0.085666 -0.018847 -0.012544
# 5 -0.014863 0.008993 -0.000032 -0.018847 0.073379 0.006089
# 6 -0.009419 -0.002744 -0.001991 -0.012544 0.006089 0.041601
#
#
# Mechanical properties :
#
#
# Convention : Reuss Voigt Hill
#
# Bulk Modulus (GPa) = 45.59626 66.50480 56.05053
# Shear Modulus (GPa) = 17.28422 25.46046 21.37234
#
# Velocity S-wave (km/s) = 3.02428 3.67054 3.36297
# Velocity P-wave (km/s) = 6.02686 7.29082 6.68876
#
# Compressibility (1/GPa) = 0.02193162
#
# Stress axis : x y z
#
# Youngs Moduli (GPa) = 55.43946 43.49012 94.36821
#
# Poissons Ratio (x) = 0.39832 0.27733
# Poissons Ratio (y) = 0.50776 0.25957
# Poissons Ratio (z) = 0.16293 0.11963
#
# Static dielectric constant tensor:
#      x y z
#    x 3.498110 0.237290 -0.104620 
#    y 0.237290 3.331780 -0.080590 
#    z -0.104620 -0.080590 3.653670 
# 
# 
# High freq. dielectric constant tensor:
#      x y z
#    x 1.725860 0.006250 0.002540 
#    y 0.006250 1.721320 0.001450 
#    z 0.002540 0.001450 1.740890 
# 
# From -- ./inp_files/556326.got.cif
#   From: 2010.06.25/outbox.cif.g09.slc.cpg/sg2_279_cif.got.tgz:556326.got - 2010.06.27 13:26:56.
