data_PCOD8029377
_publ_section_title
;
Structure prediction by ZEFSAII (Michael W. Deem and Ramdas Pophale) SiO2 
 PCOD8029377
Probable space group: P -1
;
_chemical_formula_sum "Si O2"
_cell_formula_units_Z 16
_cell_length_a 9.004917
_cell_length_b 20.480250
_cell_length_c 14.515971
_cell_angle_alpha 161.542697
_cell_angle_beta 67.317676
_cell_angle_gamma 121.722945
_cell_volume 654.217061
_symmetry_space_group_name_H-M "P -1"
_symmetry_group_IT_number 2
_symmetry_cell_setting 'triclinic'
loop_
_space_group_symop_operation_xyz
x,y,z
-x,-y,-z
loop_
_atom_site_type_symbol
_atom_site_label
_atom_site_fract_x
_atom_site_fract_y
_atom_site_fract_z
Si Si1 0.070515 0.125359 0.052177
Si Si2 0.362936 0.021592 0.794432
Si Si3 0.280162 0.279578 0.760500
Si Si4 0.044407 0.502595 0.157677
Si Si5 0.006792 0.527519 0.662810
Si Si6 0.578362 0.189598 0.317358
Si Si7 0.796320 0.913455 0.675931
Si Si8 0.648594 0.109562 0.694044
O O1 0.064139 0.369234 0.374961
O O2 0.933316 0.924606 0.738611
O O3 0.285382 0.195815 0.071273
O O4 0.000000 0.000000 0.000000
O O5 0.198389 0.776179 0.449542
O O6 0.407756 0.940967 0.770543
O O7 0.550373 0.160545 0.871414
O O8 0.186107 0.199285 0.573834
O O9 0.275949 0.061871 0.523903
O O10 0.500000 0.500000 0.000000
O O11 0.149396 0.353889 0.943760
O O12 0.974072 0.520733 0.299971
O O13 0.847609 0.365188 0.959742
O O14 0.784352 0.433506 0.569456
O O15 0.152559 0.811011 0.983854
O O16 0.424877 0.261698 0.471742
O O17 0.500000 0.000000 0.000000
O O18 0.500000 0.000000 0.500000
#
# Coordination Sequence:
#
# PCOD8029377 Si02
#       8
#     2   2   2   2   2   2   2   2
#     4  12  24  44  72 105 140 186 229 290 361 422
#     4  11  24  47  66  99 150 178 231 296 354 413
#     4  12  24  47  75 104 135 189 240 290 354 425
#     4  11  23  45  75  96 141 189 233 291 353 423
#     4  11  23  44  72 100 140 184 232 284 349 428
#     4  11  20  40  72  96 135 180 228 284 345 419
#     4  12  25  44  72 100 139 182 239 285 351 422
#     4  12  27  45  70 104 142 182 241 298 352 417
#
# _framework density 24.456716
#
# number of rings (size 3 to 8) (size 9 to 14) (size 15 to 20)
#    0.000    0.500    7.500    1.500    1.750    1.500 
#    0.000    5.000    0.000    0.000    0.000    0.000 
#    0.000    0.000    0.000    0.000    0.000    0.000 
#
# Total GULP energy -198378.965781 kJ/mol
# GULP energy per Si atom -12398.685361 kJ/mol
# Density = 2.440105 g / cm^3
# Si number density = 24.456716 Si / 1000 Ang^3
#
#
#
# Elastic Constant Matrix: (Units=GPa)
#
#
# Indices 1 2 3 4 5 6 
#
# 1 98.6020 27.0063 17.3294 -10.2938 18.9960 19.6957
# 2 27.0063 67.6368 20.4977 -12.9183 3.5302 11.4992
# 3 17.3294 20.4977 83.2097 -9.0685 23.0532 9.0184
# 4 -10.2938 -12.9183 -9.0685 38.6716 4.8448 9.2416
# 5 18.9960 3.5302 23.0532 4.8448 47.3827 -14.3504
# 6 19.6957 11.4992 9.0184 9.2416 -14.3504 52.9593
#
#
#
# Elastic Compliance Matrix: (Units=1/GPa)
#
#
# Indices 1 2 3 4 5 6 
#
# 1 0.015338 -0.003302 0.002396 0.007161 -0.010691 -0.009542
# 2 -0.003302 0.018603 -0.002866 0.005494 -0.000243 -0.003348
# 3 0.002396 -0.002866 0.017215 0.007095 -0.012193 -0.007742
# 4 0.007161 0.005494 0.007095 0.036910 -0.015242 -0.015635
# 5 -0.010691 -0.000243 -0.012193 -0.015242 0.038733 0.019260
# 6 -0.009542 -0.003348 -0.007742 -0.015635 0.019260 0.032424
#
#
# Mechanical properties :
#
#
# Convention : Reuss Voigt Hill
#
# Bulk Modulus (GPa) = 22.92972 42.12390 32.52681
# Shear Modulus (GPa) = 27.57768 40.11040 33.84404
#
# Velocity S-wave (km/s) = 3.36164 4.05415 3.72403
# Velocity P-wave (km/s) = 4.94605 6.25908 5.64090
#
# Compressibility (1/GPa) = 0.04361152
#
# Stress axis : x y z
#
# Youngs Moduli (GPa) = 65.19559 53.75437 58.08772
#
# Poissons Ratio (x) = 0.17752 -0.13915
# Poissons Ratio (y) = 0.21530 0.16647
# Poissons Ratio (z) = -0.15618 0.15405
#
# Static dielectric constant tensor:
#      x y z
#    x 4.663480 0.323120 0.352690 
#    y 0.323120 4.567270 -0.152090 
#    z 0.352690 -0.152090 4.725060 
# 
# 
# High freq. dielectric constant tensor:
#      x y z
#    x 1.979790 0.012260 0.018800 
#    y 0.012260 1.973120 -0.016980 
#    z 0.018800 -0.016980 1.965180 
# 
# From -- ./inp_files/508190.got.cif
#   From: 2010.06.25/outbox.cif.g09.slc.cpg/sg2_255_cif.got.tgz:508190.got - 2010.06.27 13:26:56.
