data_PCOD8029326
_publ_section_title
;
Structure prediction by ZEFSAII (Michael W. Deem and Ramdas Pophale) SiO2 
 PCOD8029326
Probable space group: P -1
;
_chemical_formula_sum "Si O2"
_cell_formula_units_Z 16
_cell_length_a 14.502900
_cell_length_b 12.080998
_cell_length_c 8.518340
_cell_angle_alpha 143.499158
_cell_angle_beta 100.840038
_cell_angle_gamma 62.505553
_cell_volume 738.615262
_symmetry_space_group_name_H-M "P -1"
_symmetry_group_IT_number 2
_symmetry_cell_setting 'triclinic'
loop_
_space_group_symop_operation_xyz
x,y,z
-x,-y,-z
loop_
_atom_site_type_symbol
_atom_site_label
_atom_site_fract_x
_atom_site_fract_y
_atom_site_fract_z
Si Si1 0.519266 0.651391 0.318668
Si Si2 0.877625 0.809225 0.929152
Si Si3 0.320859 0.258730 0.680614
Si Si4 0.129132 0.520669 0.680193
Si Si5 0.596865 0.208383 0.958605
Si Si6 0.584422 0.679712 0.722064
Si Si7 0.682177 0.904026 0.182302
Si Si8 0.221402 0.757898 0.784381
O O1 0.591651 0.666632 0.221036
O O2 0.534325 0.409892 0.041093
O O3 0.570990 0.671883 0.522640
O O4 0.391027 0.846547 0.493575
O O5 0.847615 0.684893 0.650559
O O6 0.002979 0.656716 0.855597
O O7 0.796959 0.866333 0.115792
O O8 0.861173 0.032288 0.107702
O O9 0.207294 0.425562 0.747230
O O10 0.292095 0.265197 0.861271
O O11 0.386849 0.010326 0.355512
O O12 0.149942 0.684318 0.773802
O O13 0.523459 0.277514 0.171904
O O14 0.715521 0.170817 0.994473
O O15 0.690756 0.439608 0.526384
O O16 0.613424 0.864432 0.981013
#
# Coordination Sequence:
#
# PCOD8029326 Si02
#       8
#     2   2   2   2   2   2   2   2
#     4  11  22  40  63  89 123 165 204 251 301 354
#     4  11  23  42  67  90 118 159 214 258 300 351
#     4  12  24  41  59  90 134 164 197 244 310 376
#     4  11  23  42  67  90 118 162 207 262 302 352
#     4  11  22  36  63  93 124 162 197 248 309 363
#     4  11  21  37  64  92 123 158 205 254 297 357
#     4  12  24  40  62  91 130 167 197 248 307 368
#     4  11  20  40  66  96 117 152 211 263 301 348
#
# _framework density 21.662158000000002
#
# number of rings (size 3 to 8) (size 9 to 14) (size 15 to 20)
#    0.000    0.750    6.250    4.125    0.000    1.000 
#    2.250    0.000    0.000    1.500    0.000    0.000 
#    0.000    0.000    0.000    0.000    0.000    0.000 
#
# Total GULP energy -198486.130877 kJ/mol
# GULP energy per Si atom -12405.383180 kJ/mol
# Density = 2.161285 g / cm^3
# Si number density = 21.662158 Si / 1000 Ang^3
#
#
#
# Elastic Constant Matrix: (Units=GPa)
#
#
# Indices 1 2 3 4 5 6 
#
# 1 131.5890 42.9887 40.2110 8.8485 -15.6403 10.8888
# 2 42.9887 97.3087 31.2559 21.9016 -15.0185 18.9788
# 3 40.2110 31.2559 62.9571 19.3891 3.5802 0.4812
# 4 8.8485 21.9016 19.3891 26.7744 1.4578 -0.4680
# 5 -15.6403 -15.0185 3.5802 1.4578 37.0398 5.8375
# 6 10.8888 18.9788 0.4812 -0.4680 5.8375 36.1901
#
#
#
# Elastic Compliance Matrix: (Units=1/GPa)
#
#
# Indices 1 2 3 4 5 6 
#
# 1 0.011084 -0.001799 -0.007302 0.002769 0.005032 -0.003070
# 2 -0.001799 0.019081 -0.005076 -0.012060 0.009694 -0.011117
# 3 -0.007302 -0.005076 0.027414 -0.012743 -0.008180 0.005649
# 4 0.002769 -0.012060 -0.012743 0.055973 -0.005847 0.007328
# 5 0.005032 0.009694 -0.008180 -0.005847 0.036024 -0.012375
# 6 -0.003070 -0.011117 0.005649 0.007328 -0.012375 0.036401
#
#
# Mechanical properties :
#
#
# Convention : Reuss Voigt Hill
#
# Bulk Modulus (GPa) = 34.21703 57.86288 46.03995
# Shear Modulus (GPa) = 22.31410 31.82749 27.07079
#
# Velocity S-wave (km/s) = 3.21299 3.83726 3.53892
# Velocity P-wave (km/s) = 5.44008 6.81192 6.16428
#
# Compressibility (1/GPa) = 0.02922522
#
# Stress axis : x y z
#
# Youngs Moduli (GPa) = 90.21686 52.40931 36.47777
#
# Poissons Ratio (x) = 0.09430 0.26635
# Poissons Ratio (y) = 0.16232 0.18516
# Poissons Ratio (z) = 0.65874 0.26602
#
# Static dielectric constant tensor:
#      x y z
#    x 3.827370 0.118780 0.064100 
#    y 0.118780 4.018330 0.229110 
#    z 0.064100 0.229110 4.006710 
# 
# 
# High freq. dielectric constant tensor:
#      x y z
#    x 1.850990 0.008530 0.008370 
#    y 0.008530 1.853950 0.014450 
#    z 0.008370 0.014450 1.852320 
# 
# From -- ./inp_files/255831.got.cif
#   From: 2010.06.25/outbox.cif.g09.slc.cpg/sg2_128_cif.got.tgz:255831.got - 2010.06.27 13:26:56.
