data_PCOD8029241
_publ_section_title
;
Structure prediction by ZEFSAII (Michael W. Deem and Ramdas Pophale) SiO2 
 PCOD8029241
Probable space group: P -1
;
_chemical_formula_sum "Si O2"
_cell_formula_units_Z 16
_cell_length_a 12.385004
_cell_length_b 12.219788
_cell_length_c 13.213517
_cell_angle_alpha 111.626130
_cell_angle_beta 76.847683
_cell_angle_gamma 41.908387
_cell_volume 731.278625
_symmetry_space_group_name_H-M "P -1"
_symmetry_group_IT_number 2
_symmetry_cell_setting 'triclinic'
loop_
_space_group_symop_operation_xyz
x,y,z
-x,-y,-z
loop_
_atom_site_type_symbol
_atom_site_label
_atom_site_fract_x
_atom_site_fract_y
_atom_site_fract_z
Si Si1 0.838927 0.614855 0.976201
Si Si2 0.820845 0.410918 0.595041
Si Si3 0.436379 0.439312 0.948057
Si Si4 0.263104 0.060200 0.252279
Si Si5 0.169707 0.719655 0.889472
Si Si6 0.648478 0.328302 0.514227
Si Si7 0.755871 0.927483 0.979186
Si Si8 0.012464 0.758413 0.278510
O O1 0.806388 0.747772 0.946179
O O2 0.528953 0.878138 0.166816
O O3 0.042007 0.319013 0.781626
O O4 0.000000 0.500000 0.000000
O O5 0.780414 0.320706 0.524110
O O6 0.012044 0.212103 0.585814
O O7 0.965370 0.370154 0.476322
O O8 0.526613 0.748044 0.805276
O O9 0.228180 0.649225 0.971323
O O10 0.708545 0.098669 0.754811
O O11 0.500000 0.500000 0.000000
O O12 0.324705 0.472623 0.078701
O O13 0.233489 0.091290 0.149600
O O14 0.452541 0.458136 0.681816
O O15 0.008153 0.762442 0.903393
O O16 0.000000 0.000000 0.000000
O O17 0.500000 0.500000 0.500000
O O18 0.862645 0.014289 0.342992
#
# Coordination Sequence:
#
# PCOD8029241 Si02
#       8
#     2   2   2   2   2   2   2   2
#     4  11  26  48  74  96 142 185 233 295 345 413
#     4  12  24  44  74 103 143 182 227 290 348 420
#     4  11  20  38  65  94 136 178 226 280 344 411
#     4  11  24  44  69 103 133 185 234 279 352 414
#     4  12  23  40  67  99 137 184 228 284 356 408
#     4  12  25  42  68 107 142 175 235 291 345 420
#     4  12  24  47  70 101 141 184 236 286 349 412
#     4  11  24  44  67  99 138 182 228 285 351 410
#
# _framework density 21.879486
#
# number of rings (size 3 to 8) (size 9 to 14) (size 15 to 20)
#    0.000    0.500    3.750    6.750    1.750    0.500 
#    0.000    1.250    0.000    0.000    0.000    0.000 
#    0.000    0.000    0.000    0.000    0.000    0.000 
#
# Total GULP energy -198234.037576 kJ/mol
# GULP energy per Si atom -12389.627349 kJ/mol
# Density = 2.182969 g / cm^3
# Si number density = 21.879486 Si / 1000 Ang^3
#
#
#
# Elastic Constant Matrix: (Units=GPa)
#
#
# Indices 1 2 3 4 5 6 
#
# 1 147.2998 65.3726 51.3988 -16.2181 -0.1759 -13.3841
# 2 65.3726 149.7571 42.3929 -18.5734 11.5828 -6.4893
# 3 51.3988 42.3929 100.3707 -22.6200 -12.9356 -5.4707
# 4 -16.2181 -18.5734 -22.6200 31.8910 6.0998 6.7679
# 5 -0.1759 11.5828 -12.9356 6.0998 44.4036 3.3130
# 6 -13.3841 -6.4893 -5.4707 6.7679 3.3130 48.2291
#
#
#
# Elastic Compliance Matrix: (Units=1/GPa)
#
#
# Indices 1 2 3 4 5 6 
#
# 1 0.009553 -0.003039 -0.003489 0.000295 -0.000363 0.001830
# 2 -0.003039 0.009241 -0.002117 0.003000 -0.003450 -0.000024
# 3 -0.003489 -0.002117 0.014638 0.006797 0.003930 -0.000816
# 4 0.000295 0.003000 0.006797 0.039688 -0.003952 -0.004042
# 5 -0.000363 -0.003450 0.003930 -0.003952 0.025204 -0.001296
# 6 0.001830 -0.000024 -0.000816 -0.004042 -0.001296 0.021803
#
#
# Mechanical properties :
#
#
# Convention : Reuss Voigt Hill
#
# Bulk Modulus (GPa) = 61.94837 79.52848 70.73842
# Shear Modulus (GPa) = 35.01485 40.78896 37.90190
#
# Velocity S-wave (km/s) = 4.00478 4.32239 4.16661
# Velocity P-wave (km/s) = 7.05402 7.83186 7.45310
#
# Compressibility (1/GPa) = 0.01614247
#
# Stress axis : x y z
#
# Youngs Moduli (GPa) = 104.67604 108.21410 68.31682
#
# Poissons Ratio (x) = 0.32881 0.23838
# Poissons Ratio (y) = 0.31806 0.14461
# Poissons Ratio (z) = 0.36526 0.22907
#
# Static dielectric constant tensor:
#      x y z
#    x 3.845340 0.048950 0.415490 
#    y 0.048950 4.016960 -0.203460 
#    z 0.415490 -0.203460 3.412500 
# 
# 
# High freq. dielectric constant tensor:
#      x y z
#    x 1.866680 0.005350 -0.002730 
#    y 0.005350 1.873590 -0.003150 
#    z -0.002730 -0.003150 1.873540 
# 
# From -- ./inp_files/273802.got.cif
#   From: 2010.06.25/outbox.cif.g09.slc.cpg/sg2_137_cif.got.tgz:273802.got - 2010.06.27 13:26:56.
