data_PCOD8029379
_publ_section_title
;
Structure prediction by ZEFSAII (Michael W. Deem and Ramdas Pophale) SiO2 
 PCOD8029379
Probable space group: P -1
;
_chemical_formula_sum "Si O2"
_cell_formula_units_Z 16
_cell_length_a 9.032075
_cell_length_b 12.669746
_cell_length_c 14.319933
_cell_angle_alpha 115.578800
_cell_angle_beta 101.016078
_cell_angle_gamma 133.194756
_cell_volume 724.779855
_symmetry_space_group_name_H-M "P -1"
_symmetry_group_IT_number 2
_symmetry_cell_setting 'triclinic'
loop_
_space_group_symop_operation_xyz
x,y,z
-x,-y,-z
loop_
_atom_site_type_symbol
_atom_site_label
_atom_site_fract_x
_atom_site_fract_y
_atom_site_fract_z
Si Si1 0.865622 0.640428 0.454967
Si Si2 0.148045 0.034322 0.742162
Si Si3 0.871206 0.082366 0.772029
Si Si4 0.754369 0.659273 0.709372
Si Si5 0.833969 0.474537 0.040893
Si Si6 0.238455 0.568872 0.466643
Si Si7 0.881053 0.046560 0.973813
Si Si8 0.803185 0.411946 0.225466
O O1 0.508454 0.423587 0.338075
O O2 0.938791 0.584101 0.516879
O O3 0.921539 0.621366 0.352316
O O4 0.060713 0.888814 0.589650
O O5 0.028288 0.085750 0.730442
O O6 0.506325 0.280506 0.886366
O O7 0.010992 0.891507 0.765937
O O8 0.957919 0.122534 0.905375
O O9 0.986878 0.285258 0.831044
O O10 0.510297 0.841265 0.621251
O O11 0.612356 0.452387 0.560964
O O12 0.915389 0.729424 0.852492
O O13 0.818124 0.404293 0.113759
O O14 0.000000 0.500000 0.000000
O O15 0.009846 0.454543 0.315825
O O16 0.532512 0.833674 0.871613
O O17 0.000000 0.000000 0.000000
#
# Coordination Sequence:
#
# PCOD8029379 Si02
#       8
#     2   2   2   2   2   2   2   2
#     4  11  21  42  75 109 135 167 223 289 342 397
#     4  11  21  45  71  98 131 181 217 278 339 403
#     4  12  24  45  71  97 139 177 224 279 338 405
#     4  11  20  40  73 107 138 162 225 286 340 397
#     4  12  31  49  62  93 143 190 227 272 337 402
#     4  11  23  39  69 107 138 169 220 280 344 396
#     4  12  21  39  73 106 132 170 231 284 336 400
#     4  12  25  44  67 100 136 184 227 277 339 396
#
# _framework density 22.075671
#
# number of rings (size 3 to 8) (size 9 to 14) (size 15 to 20)
#    0.000    0.500    7.500    1.500    3.500    2.000 
#    0.000    0.625    0.000    0.000    0.000    0.000 
#    0.000    0.000    0.000    0.000    0.000    0.000 
#
# Total GULP energy -198414.254504 kJ/mol
# GULP energy per Si atom -12400.890906 kJ/mol
# Density = 2.202543 g / cm^3
# Si number density = 22.075671 Si / 1000 Ang^3
#
#
#
# Elastic Constant Matrix: (Units=GPa)
#
#
# Indices 1 2 3 4 5 6 
#
# 1 81.1813 23.5451 21.7506 6.6491 -1.6672 6.5718
# 2 23.5451 43.2011 13.0418 5.9229 1.5700 1.0985
# 3 21.7506 13.0418 106.4616 6.2844 -0.6759 0.0301
# 4 6.6491 5.9229 6.2844 38.8619 -1.4883 -7.9680
# 5 -1.6672 1.5700 -0.6759 -1.4883 45.8907 -3.6903
# 6 6.5718 1.0985 0.0301 -7.9680 -3.6903 28.5942
#
#
#
# Elastic Compliance Matrix: (Units=1/GPa)
#
#
# Indices 1 2 3 4 5 6 
#
# 1 0.015530 -0.007474 -0.002140 -0.001927 0.000423 -0.003762
# 2 -0.007474 0.028205 -0.001768 -0.002856 -0.001382 -0.000338
# 3 -0.002140 -0.001768 0.010102 -0.000930 0.000126 0.000306
# 4 -0.001927 -0.002856 -0.000930 0.028495 0.001638 0.008706
# 5 0.000423 -0.001382 0.000126 0.001638 0.022172 0.003274
# 6 -0.003762 -0.000338 0.000306 0.008706 0.003274 0.038698
#
#
# Mechanical properties :
#
#
# Convention : Reuss Voigt Hill
#
# Bulk Modulus (GPa) = 32.18117 38.61323 35.39720
# Shear Modulus (GPa) = 28.35685 34.16980 31.26332
#
# Velocity S-wave (km/s) = 3.58792 3.93854 3.76731
# Velocity P-wave (km/s) = 5.63680 6.18159 5.91547
#
# Compressibility (1/GPa) = 0.03107407
#
# Stress axis : x y z
#
# Youngs Moduli (GPa) = 64.39098 35.45466 98.98542
#
# Poissons Ratio (x) = 0.26497 0.21181
# Poissons Ratio (y) = 0.48123 0.17504
# Poissons Ratio (z) = 0.13779 0.06270
#
# Static dielectric constant tensor:
#      x y z
#    x 4.161340 0.071240 -0.296350 
#    y 0.071240 3.600940 -0.212060 
#    z -0.296350 -0.212060 4.450560 
# 
# 
# High freq. dielectric constant tensor:
#      x y z
#    x 1.881940 0.002860 -0.007380 
#    y 0.002860 1.822640 -0.005900 
#    z -0.007380 -0.005900 1.894330 
# 
# From -- ./inp_files/274775.got.cif
#   From: 2010.06.25/outbox.cif.g09.slc.cpg/sg2_138_cif.got.tgz:274775.got - 2010.06.27 13:26:56.
