data_PCOD8029083
_publ_section_title
;
Structure prediction by ZEFSAII (Michael W. Deem and Ramdas Pophale) SiO2 
 PCOD8029083
Probable space group: P -1
;
_chemical_formula_sum "Si O2"
_cell_formula_units_Z 16
_cell_length_a 22.801841
_cell_length_b 12.070982
_cell_length_c 11.276663
_cell_angle_alpha 147.770219
_cell_angle_beta 31.235520
_cell_angle_gamma 137.210317
_cell_volume 857.744063
_symmetry_space_group_name_H-M "P -1"
_symmetry_group_IT_number 2
_symmetry_cell_setting 'triclinic'
loop_
_space_group_symop_operation_xyz
x,y,z
-x,-y,-z
loop_
_atom_site_type_symbol
_atom_site_label
_atom_site_fract_x
_atom_site_fract_y
_atom_site_fract_z
Si Si1 0.336443 0.552614 0.348326
Si Si2 0.082109 0.969656 0.125067
Si Si3 0.972980 0.725571 0.888154
Si Si4 0.883818 0.369351 0.066971
Si Si5 0.536578 0.791065 0.307777
Si Si6 0.174152 0.911495 0.566699
Si Si7 0.900079 0.293605 0.710302
Si Si8 0.689588 0.063613 0.428155
O O1 0.212921 0.521550 0.590814
O O2 0.425818 0.636388 0.371505
O O3 0.340859 0.717987 0.381863
O O4 0.370914 0.328082 0.038235
O O5 0.104529 0.867060 0.121309
O O6 0.198263 0.023756 0.904975
O O7 0.013842 0.177900 0.444709
O O8 0.008063 0.799936 0.025936
O O9 0.935626 0.487269 0.742738
O O10 0.077370 0.754351 0.644136
O O11 0.867506 0.853929 0.139849
O O12 0.842674 0.358323 0.991446
O O13 0.000000 0.500000 0.000000
O O14 0.500000 0.000000 0.500000
O O15 0.593701 0.876930 0.409267
O O16 0.188196 0.845647 0.344325
O O17 0.289078 0.898326 0.433367
#
# Coordination Sequence:
#
# PCOD8029083 Si02
#       8
#     2   2   2   2   2   2   2   2
#     4   9  20  36  54  80 107 130 172 218 259 314
#     4   9  19  32  46  75 107 139 182 212 248 313
#     4   9  17  32  44  67 104 143 179 217 252 297
#     4  11  21  34  51  78 112 144 175 205 257 320
#     4   9  18  36  57  78 100 130 170 224 272 296
#     4   9  19  31  46  73 104 135 182 215 252 307
#     4  11  20  31  49  68 112 151 172 206 257 304
#     4   9  18  31  54  78 101 132 172 222 263 300
#
# _framework density 18.653583999999999
#
# number of rings (size 3 to 8) (size 9 to 14) (size 15 to 20)
#    0.000    2.500    1.250    1.500    1.750    1.000 
#    2.250    0.000    0.000    0.750    0.000    8.750 
#    0.000    0.000    0.000    0.000    0.000    0.000 
#
# Total GULP energy -198278.513303 kJ/mol
# GULP energy per Si atom -12392.407081 kJ/mol
# Density = 1.861113 g / cm^3
# Si number density = 18.653584 Si / 1000 Ang^3
#
#
#
# Elastic Constant Matrix: (Units=GPa)
#
#
# Indices 1 2 3 4 5 6 
#
# 1 128.8384 32.9368 32.7785 3.5924 5.8857 11.6723
# 2 32.9368 55.9234 30.5068 6.8758 -3.4478 2.6107
# 3 32.7785 30.5068 84.0437 9.2941 -5.9022 -2.6380
# 4 3.5924 6.8758 9.2941 22.5029 0.7839 -2.9494
# 5 5.8857 -3.4478 -5.9022 0.7839 25.0419 0.6822
# 6 11.6723 2.6107 -2.6380 -2.9494 0.6822 27.6989
#
#
#
# Elastic Compliance Matrix: (Units=1/GPa)
#
#
# Indices 1 2 3 4 5 6 
#
# 1 0.010131 -0.004581 -0.002719 0.000511 -0.003561 -0.003954
# 2 -0.004581 0.025017 -0.006627 -0.004497 0.003144 -0.001615
# 3 -0.002719 -0.006627 0.016142 -0.003966 0.003579 0.002797
# 4 0.000511 -0.004497 -0.003966 0.048145 -0.003318 0.005039
# 5 -0.003561 0.003144 0.003579 -0.003318 0.042146 0.000154
# 6 -0.003954 -0.001615 0.002797 0.005039 0.000154 0.038720
#
#
# Mechanical properties :
#
#
# Convention : Reuss Voigt Hill
#
# Bulk Modulus (GPa) = 42.66918 51.24998 46.95958
# Shear Modulus (GPa) = 23.15150 26.55428 24.85289
#
# Velocity S-wave (km/s) = 3.52679 3.77709 3.65408
# Velocity P-wave (km/s) = 6.28558 6.82320 6.55990
#
# Compressibility (1/GPa) = 0.02343612
#
# Stress axis : x y z
#
# Youngs Moduli (GPa) = 98.70340 39.97296 61.94936
#
# Poissons Ratio (x) = 0.18314 0.16845
# Poissons Ratio (y) = 0.45221 0.41051
# Poissons Ratio (z) = 0.26839 0.26488
#
# Static dielectric constant tensor:
#      x y z
#    x 3.810640 0.115690 -0.084550 
#    y 0.115690 3.208090 0.173310 
#    z -0.084550 0.173310 3.303460 
# 
# 
# High freq. dielectric constant tensor:
#      x y z
#    x 1.730190 0.006800 -0.002680 
#    y 0.006800 1.689980 0.030730 
#    z -0.002680 0.030730 1.707490 
# 
# From -- ./inp_files/66800.got.cif
#   From: 2010.06.25/outbox.cif.g09.slc.cpg/sg2_34_cif.got.tgz:66800.got - 2010.06.27 13:26:56.
