data_PCOD8029977
_publ_section_title
;
Structure prediction by ZEFSAII (Michael W. Deem and Ramdas Pophale) SiO2 
 PCOD8029977
Probable space group: P -1
;
_chemical_formula_sum "Si O2"
_cell_formula_units_Z 16
_cell_length_a 15.607870
_cell_length_b 9.636581
_cell_length_c 8.809673
_cell_angle_alpha 77.943740
_cell_angle_beta 112.067435
_cell_angle_gamma 146.584146
_cell_volume 661.864954
_symmetry_space_group_name_H-M "P -1"
_symmetry_group_IT_number 2
_symmetry_cell_setting 'triclinic'
loop_
_space_group_symop_operation_xyz
x,y,z
-x,-y,-z
loop_
_atom_site_type_symbol
_atom_site_label
_atom_site_fract_x
_atom_site_fract_y
_atom_site_fract_z
Si Si1 0.800230 0.222786 0.224058
Si Si2 0.292225 0.331136 0.475153
Si Si3 0.825865 0.117894 0.949314
Si Si4 0.348198 0.693364 0.952286
Si Si5 0.850489 0.622032 0.807122
Si Si6 0.153285 0.640930 0.336283
Si Si7 0.626704 0.873128 0.446900
Si Si8 0.535541 0.415127 0.154099
O O1 0.772605 0.140460 0.053044
O O2 0.793550 0.385863 0.198907
O O3 0.979696 0.394905 0.370833
O O4 0.646833 0.944224 0.268702
O O5 0.135650 0.216739 0.325067
O O6 0.435796 0.602730 0.420153
O O7 0.272768 0.144460 0.450013
O O8 0.327256 0.378688 0.668896
O O9 0.956389 0.158977 0.064263
O O10 0.914772 0.335618 0.840707
O O11 0.645118 0.837602 0.824426
O O12 0.394950 0.629210 0.882224
O O13 0.275547 0.533673 0.097355
O O14 0.500000 0.000000 0.000000
O O15 0.780928 0.414274 0.691414
O O16 0.301623 0.897335 0.472441
O O17 0.500000 0.500000 0.000000
#
# Coordination Sequence:
#
# PCOD8029977 Si02
#       8
#     2   2   2   2   2   2   2   2
#     4  11  21  41  68 105 136 175 229 288 340 403
#     4  11  27  46  65 100 140 188 227 277 344 407
#     4  11  21  46  70 100 142 179 220 287 350 405
#     4  12  23  40  72 103 133 173 237 283 333 407
#     4  11  24  44  71 106 138 174 228 287 346 407
#     4  11  21  43  71 101 139 179 224 284 354 399
#     4  11  25  43  69  94 145 183 228 278 342 407
#     4  12  27  47  71  98 139 187 229 277 345 412
#
# _framework density 24.174116999999999
#
# number of rings (size 3 to 8) (size 9 to 14) (size 15 to 20)
#    0.000    0.750    5.000    2.625    5.250    0.500 
#    2.250    4.375    0.000    0.000    0.000    0.000 
#    0.000    0.000    0.000    0.000    0.000    0.000 
#
# Total GULP energy -198251.921725 kJ/mol
# GULP energy per Si atom -12390.745108 kJ/mol
# Density = 2.411910 g / cm^3
# Si number density = 24.174117 Si / 1000 Ang^3
#
#
#
# Elastic Constant Matrix: (Units=GPa)
#
#
# Indices 1 2 3 4 5 6 
#
# 1 110.7154 -1.7015 17.4834 -7.5919 2.0758 -0.8427
# 2 -1.7015 24.9568 -12.1216 -4.8094 -12.7759 5.7102
# 3 17.4834 -12.1216 62.5423 -16.3325 6.4234 8.2802
# 4 -7.5919 -4.8094 -16.3325 29.4880 -10.0905 0.2216
# 5 2.0758 -12.7759 6.4234 -10.0905 37.8537 -9.2445
# 6 -0.8427 5.7102 8.2802 0.2216 -9.2445 28.3898
#
#
#
# Elastic Compliance Matrix: (Units=1/GPa)
#
#
# Indices 1 2 3 4 5 6 
#
# 1 0.009524 -0.000676 -0.002760 0.000898 0.000276 0.001307
# 2 -0.000676 0.074118 0.022249 0.033606 0.027095 -0.012856
# 3 -0.002760 0.022249 0.027126 0.019995 0.005763 -0.010748
# 4 0.000898 0.033606 0.019995 0.058272 0.022004 -0.005854
# 5 0.000276 0.027095 0.005763 0.022004 0.041993 0.006380
# 6 0.001307 -0.012856 -0.010748 -0.005854 0.006380 0.043107
#
#
# Mechanical properties :
#
#
# Convention : Reuss Voigt Hill
#
# Bulk Modulus (GPa) = 6.73884 22.83724 14.78804
# Shear Modulus (GPa) = 18.79858 32.11658 25.45758
#
# Velocity S-wave (km/s) = 2.79163 3.64889 3.24866
# Velocity P-wave (km/s) = 3.63106 5.21728 4.49470
#
# Compressibility (1/GPa) = 0.14839358
#
# Stress axis : x y z
#
# Youngs Moduli (GPa) = 104.99793 13.49202 36.86547
#
# Poissons Ratio (x) = 0.00912 0.10176
# Poissons Ratio (y) = 0.07096 -0.82023
# Poissons Ratio (z) = 0.28983 -0.30019
#
# Static dielectric constant tensor:
#      x y z
#    x 4.607680 0.128110 0.070870 
#    y 0.128110 4.464270 -0.227310 
#    z 0.070870 -0.227310 4.348140 
# 
# 
# High freq. dielectric constant tensor:
#      x y z
#    x 1.967440 0.005260 0.002130 
#    y 0.005260 1.948340 -0.013900 
#    z 0.002130 -0.013900 1.962790 
# 
# From -- ./inp_files/298324.got.cif
#   From: 2010.06.25/outbox.cif.g09.slc.cpg/sg2_150_cif.got.tgz:298324.got - 2010.06.27 13:26:56.
