data_PCOD8029496
_publ_section_title
;
Structure prediction by ZEFSAII (Michael W. Deem and Ramdas Pophale) SiO2 
 PCOD8029496
Probable space group: P -1
;
_chemical_formula_sum "Si O2"
_cell_formula_units_Z 16
_cell_length_a 8.482948
_cell_length_b 12.120183
_cell_length_c 10.673211
_cell_angle_alpha 117.581146
_cell_angle_beta 49.392242
_cell_angle_gamma 118.319388
_cell_volume 713.595097
_symmetry_space_group_name_H-M "P -1"
_symmetry_group_IT_number 2
_symmetry_cell_setting 'triclinic'
loop_
_space_group_symop_operation_xyz
x,y,z
-x,-y,-z
loop_
_atom_site_type_symbol
_atom_site_label
_atom_site_fract_x
_atom_site_fract_y
_atom_site_fract_z
Si Si1 0.175790 0.114214 0.530183
Si Si2 0.348464 0.698086 0.360628
Si Si3 0.736066 0.916935 0.242314
Si Si4 0.089286 0.264500 0.077762
Si Si5 0.161094 0.512384 0.035850
Si Si6 0.934638 0.655825 0.422659
Si Si7 0.642291 0.584852 0.767241
Si Si8 0.637475 0.172269 0.333230
O O1 0.185598 0.091482 0.660914
O O2 0.117721 0.247560 0.601323
O O3 0.411307 0.120608 0.349884
O O4 0.000000 0.000000 0.500000
O O5 0.526199 0.804516 0.250420
O O6 0.349387 0.552036 0.250418
O O7 0.402742 0.724273 0.491950
O O8 0.118134 0.724538 0.462290
O O9 0.700697 0.056414 0.313410
O O10 0.904487 0.880172 0.040801
O O11 0.198192 0.372731 0.976971
O O12 0.194311 0.302174 0.179944
O O13 0.834089 0.252029 0.192280
O O14 0.046629 0.559794 0.238939
O O15 0.397874 0.600067 0.918074
O O16 0.000000 0.500000 0.000000
O O17 0.722366 0.592585 0.583896
#
# Coordination Sequence:
#
# PCOD8029496 Si02
#       8
#     2   2   2   2   2   2   2   2
#     4  11  25  45  67  97 138 182 231 279 351 418
#     4  11  20  43  68  97 132 176 236 279 333 409
#     4  11  23  43  70  98 135 179 231 289 346 404
#     4  12  23  45  69 101 139 172 239 285 343 409
#     4  12  27  43  65 103 147 180 220 287 352 407
#     4  12  24  42  69 101 137 181 230 281 348 406
#     4  12  25  44  72 104 136 188 232 284 340 417
#     4  11  24  41  71 101 130 180 235 288 336 409
#
# _framework density 22.421678
#
# number of rings (size 3 to 8) (size 9 to 14) (size 15 to 20)
#    0.000    0.500    3.750    6.375    3.500    0.500 
#    0.000    0.625    0.000    0.000    0.000    0.000 
#    0.000    0.000    0.000    0.000    0.000    0.000 
#
# Total GULP energy -198266.436205 kJ/mol
# GULP energy per Si atom -12391.652263 kJ/mol
# Density = 2.237065 g / cm^3
# Si number density = 22.421678 Si / 1000 Ang^3
#
#
#
# Elastic Constant Matrix: (Units=GPa)
#
#
# Indices 1 2 3 4 5 6 
#
# 1 125.4869 38.3633 35.5388 -4.6826 -16.0574 18.1794
# 2 38.3633 78.5400 22.1426 4.9834 -1.0864 7.0700
# 3 35.5388 22.1426 118.0109 -6.7360 -12.1987 21.9705
# 4 -4.6826 4.9834 -6.7360 32.9179 5.0189 -8.6691
# 5 -16.0574 -1.0864 -12.1987 5.0189 29.5593 -5.4158
# 6 18.1794 7.0700 21.9705 -8.6691 -5.4158 44.1220
#
#
#
# Elastic Compliance Matrix: (Units=1/GPa)
#
#
# Indices 1 2 3 4 5 6 
#
# 1 0.010717 -0.004603 -0.001434 0.000635 0.004535 -0.002283
# 2 -0.004603 0.015737 -0.001872 -0.003236 -0.002256 -0.000606
# 3 -0.001434 -0.001872 0.010266 0.000802 0.002566 -0.003749
# 4 0.000635 -0.003236 0.000802 0.033290 -0.004013 0.005906
# 5 0.004535 -0.002256 0.002566 -0.004013 0.038154 0.001110
# 6 -0.002283 -0.000606 -0.003749 0.005906 0.001110 0.026865
#
#
# Mechanical properties :
#
#
# Convention : Reuss Voigt Hill
#
# Bulk Modulus (GPa) = 47.83980 57.12525 52.48253
# Shear Modulus (GPa) = 31.68309 36.38605 34.03457
#
# Velocity S-wave (km/s) = 3.76314 4.03278 3.90029
# Velocity P-wave (km/s) = 6.34542 6.87149 6.61369
#
# Compressibility (1/GPa) = 0.02090310
#
# Stress axis : x y z
#
# Youngs Moduli (GPa) = 93.31200 63.54516 97.41214
#
# Poissons Ratio (x) = 0.29247 0.13967
# Poissons Ratio (y) = 0.42947 0.18233
# Poissons Ratio (z) = 0.13379 0.11894
#
# Static dielectric constant tensor:
#      x y z
#    x 4.143140 0.242620 -0.256970 
#    y 0.242620 4.027540 -0.079010 
#    z -0.256970 -0.079010 4.193830 
# 
# 
# High freq. dielectric constant tensor:
#      x y z
#    x 1.880270 0.014640 -0.017760 
#    y 0.014640 1.880350 -0.001650 
#    z -0.017760 -0.001650 1.888520 
# 
# From -- ./inp_files/390918.got.cif
#   From: 2010.06.25/outbox.cif.g09.slc.cpg/sg2_196_cif.got.tgz:390918.got - 2010.06.27 13:26:56.
