data_PCOD8029762
_publ_section_title
;
Structure prediction by ZEFSAII (Michael W. Deem and Ramdas Pophale) SiO2 
 PCOD8029762
Probable space group: P -1
;
_chemical_formula_sum "Si O2"
_cell_formula_units_Z 16
_cell_length_a 9.166021
_cell_length_b 12.969341
_cell_length_c 17.803408
_cell_angle_alpha 138.171474
_cell_angle_beta 135.649586
_cell_angle_gamma 33.051239
_cell_volume 745.572865
_symmetry_space_group_name_H-M "P -1"
_symmetry_group_IT_number 2
_symmetry_cell_setting 'triclinic'
loop_
_space_group_symop_operation_xyz
x,y,z
-x,-y,-z
loop_
_atom_site_type_symbol
_atom_site_label
_atom_site_fract_x
_atom_site_fract_y
_atom_site_fract_z
Si Si1 0.698727 0.822826 0.918305
Si Si2 0.970732 0.677982 0.505434
Si Si3 0.942262 0.669379 0.328487
Si Si4 0.212748 0.239522 0.360928
Si Si5 0.294267 0.463119 0.925221
Si Si6 0.744935 0.014550 0.896105
Si Si7 0.241199 0.958336 0.610583
Si Si8 0.547446 0.328289 0.333804
O O1 0.692864 0.913844 0.886136
O O2 0.573220 0.711384 0.802099
O O3 0.020820 0.656217 0.974836
O O4 0.500000 0.000000 0.000000
O O5 0.832747 0.786140 0.432323
O O6 0.979415 0.485349 0.402080
O O7 0.265866 0.619912 0.595760
O O8 0.783930 0.824323 0.586368
O O9 0.274857 0.523216 0.382448
O O10 0.838093 0.546323 0.205350
O O11 0.823829 0.826164 0.299716
O O12 0.184820 0.108198 0.222642
O O13 0.484213 0.205400 0.424129
O O14 0.469526 0.252187 0.920657
O O15 0.500000 0.500000 0.000000
O O16 0.000000 0.000000 0.000000
O O17 0.268147 0.878569 0.660499
O O18 0.000000 0.000000 0.500000
#
# Coordination Sequence:
#
# PCOD8029762 Si02
#       8
#     2   2   2   2   2   2   2   2
#     4  11  25  44  70 101 133 170 227 286 328 391
#     4  11  23  39  66  96 135 169 212 277 329 390
#     4  11  21  39  66  91 128 170 214 267 323 390
#     4  11  24  43  62  98 132 170 222 265 330 399
#     4  11  23  42  69 100 127 179 230 262 333 408
#     4  12  24  45  72  91 135 182 219 277 336 395
#     4  12  21  38  64  89 122 170 212 248 325 393
#     4  11  22  42  66  92 131 171 213 268 333 389
#
# _framework density 21.460007999999998
#
# number of rings (size 3 to 8) (size 9 to 14) (size 15 to 20)
#    0.000    0.750    6.250    1.875    1.750    1.000 
#    0.000    0.000    0.000    0.000    0.000    0.000 
#    0.000    0.000    0.000    0.000    0.000    0.000 
#
# Total GULP energy -198234.455492 kJ/mol
# GULP energy per Si atom -12389.653468 kJ/mol
# Density = 2.141116 g / cm^3
# Si number density = 21.460008 Si / 1000 Ang^3
#
#
#
# Elastic Constant Matrix: (Units=GPa)
#
#
# Indices 1 2 3 4 5 6 
#
# 1 72.5351 6.7457 43.2130 9.4300 -2.5176 -11.4906
# 2 6.7457 110.1361 11.4234 10.0460 -13.3346 -4.7393
# 3 43.2130 11.4234 73.0982 16.9797 -8.7377 -15.5428
# 4 9.4300 10.0460 16.9797 27.1163 -3.3300 4.7845
# 5 -2.5176 -13.3346 -8.7377 -3.3300 39.6189 0.1742
# 6 -11.4906 -4.7393 -15.5428 4.7845 0.1742 34.2880
#
#
#
# Elastic Compliance Matrix: (Units=1/GPa)
#
#
# Indices 1 2 3 4 5 6 
#
# 1 0.021437 -0.000124 -0.012498 -0.000027 -0.001445 0.001512
# 2 -0.000124 0.009853 0.000145 -0.003658 0.003025 0.001881
# 3 -0.012498 0.000145 0.026819 -0.013758 0.003969 0.009888
# 4 -0.000027 -0.003658 -0.013758 0.049253 -0.000068 -0.013624
# 5 -0.001445 0.003025 0.003969 -0.000068 0.027029 0.001605
# 6 0.001512 0.001881 0.009888 -0.013624 0.001605 0.036307
#
#
# Mechanical properties :
#
#
# Convention : Reuss Voigt Hill
#
# Bulk Modulus (GPa) = 30.16216 42.05930 36.11073
# Shear Modulus (GPa) = 24.18921 33.16379 28.67650
#
# Velocity S-wave (km/s) = 3.36099 3.93539 3.65948
# Velocity P-wave (km/s) = 5.39882 6.34754 5.89230
#
# Compressibility (1/GPa) = 0.03315413
#
# Stress axis : x y z
#
# Youngs Moduli (GPa) = 46.64914 101.49095 37.28742
#
# Poissons Ratio (x) = 0.01259 0.46602
# Poissons Ratio (y) = 0.00579 -0.00540
# Poissons Ratio (z) = 0.58302 -0.01470
#
# Static dielectric constant tensor:
#      x y z
#    x 3.816970 -0.150600 0.044970 
#    y -0.150600 3.724700 -0.049330 
#    z 0.044970 -0.049330 3.360090 
# 
# 
# High freq. dielectric constant tensor:
#      x y z
#    x 1.829590 0.000860 0.024720 
#    y 0.000860 1.849270 0.002260 
#    z 0.024720 0.002260 1.842550 
# 
# From -- ./inp_files/500892.got.cif
#   From: 2010.06.25/outbox.cif.g09.slc.cpg/sg2_251_cif.got.tgz:500892.got - 2010.06.27 13:26:56.
