data_PCOD8029478
_publ_section_title
;
Structure prediction by ZEFSAII (Michael W. Deem and Ramdas Pophale) SiO2 
 PCOD8029478
Probable space group: P -1
;
_chemical_formula_sum "Si O2"
_cell_formula_units_Z 16
_cell_length_a 8.351846
_cell_length_b 17.947601
_cell_length_c 11.652228
_cell_angle_alpha 36.511443
_cell_angle_beta 140.905757
_cell_angle_gamma 135.062112
_cell_volume 638.654096
_symmetry_space_group_name_H-M "P -1"
_symmetry_group_IT_number 2
_symmetry_cell_setting 'triclinic'
loop_
_space_group_symop_operation_xyz
x,y,z
-x,-y,-z
loop_
_atom_site_type_symbol
_atom_site_label
_atom_site_fract_x
_atom_site_fract_y
_atom_site_fract_z
Si Si1 0.711179 0.941031 0.529505
Si Si2 0.661836 0.552948 0.848433
Si Si3 0.118822 0.180733 0.444499
Si Si4 0.467040 0.181577 0.853867
Si Si5 0.608745 0.585523 0.346217
Si Si6 0.841430 0.476339 0.272044
Si Si7 0.005824 0.768930 0.040827
Si Si8 0.220891 0.939348 0.147708
O O1 0.770197 0.905180 0.477652
O O2 0.396383 0.917934 0.381658
O O3 0.836941 0.093631 0.432439
O O4 0.801725 0.853629 0.784739
O O5 0.884393 0.679734 0.783263
O O6 0.577431 0.462997 0.803980
O O7 0.414177 0.601792 0.705271
O O8 0.787574 0.471967 0.110943
O O9 0.308660 0.210780 0.620558
O O10 0.405342 0.268419 0.817442
O O11 0.771510 0.213827 0.953373
O O12 0.389914 0.034233 0.030623
O O13 0.500000 0.500000 0.500000
O O14 0.905675 0.578043 0.492883
O O15 0.867112 0.620696 0.154680
O O16 0.107403 0.808904 0.176052
O O17 0.000000 0.000000 0.000000
#
# Coordination Sequence:
#
# PCOD8029478 Si02
#       8
#     2   2   2   2   2   2   2   2
#     4  11  24  42  76 103 128 186 235 290 348 415
#     4  11  25  46  68 104 142 188 238 292 349 416
#     4  11  20  42  73 102 136 180 239 287 340 424
#     4  12  24  46  70 105 143 187 236 291 350 421
#     4  12  25  44  69 105 143 188 235 293 347 414
#     4  11  26  46  72 105 143 193 237 288 356 420
#     4  12  23  47  76 102 140 185 242 281 349 433
#     4  12  29  47  69 106 144 180 229 300 363 414
#
# _framework density 25.052683999999999
#
# number of rings (size 3 to 8) (size 9 to 14) (size 15 to 20)
#    0.000    0.500    6.250    2.250    1.750    2.000 
#    4.500    0.000    0.000    0.000    0.000    0.000 
#    0.000    0.000    0.000    0.000    0.000    0.000 
#
# Total GULP energy -198453.249553 kJ/mol
# GULP energy per Si atom -12403.328097 kJ/mol
# Density = 2.499566 g / cm^3
# Si number density = 25.052684 Si / 1000 Ang^3
#
#
#
# Elastic Constant Matrix: (Units=GPa)
#
#
# Indices 1 2 3 4 5 6 
#
# 1 41.4246 18.2671 16.6195 3.8816 8.1976 -5.6046
# 2 18.2671 108.3677 44.3450 24.1753 1.8001 -22.9387
# 3 16.6195 44.3450 90.8372 19.4152 7.2271 0.5729
# 4 3.8816 24.1753 19.4152 33.4330 2.5719 1.5429
# 5 8.1976 1.8001 7.2271 2.5719 38.6045 6.5634
# 6 -5.6046 -22.9387 0.5729 1.5429 6.5634 30.1617
#
#
#
# Elastic Compliance Matrix: (Units=1/GPa)
#
#
# Indices 1 2 3 4 5 6 
#
# 1 0.028475 -0.002272 -0.003815 0.000796 -0.006117 0.004926
# 2 -0.002272 0.016826 -0.005886 -0.009027 -0.000831 0.013129
# 3 -0.003815 -0.005886 0.015528 -0.004029 -0.000682 -0.005126
# 4 0.000796 -0.009027 -0.004029 0.039093 -0.000134 -0.008612
# 5 -0.006117 -0.000831 -0.000682 -0.000134 0.028739 -0.008003
# 6 0.004926 0.013129 -0.005126 -0.008612 -0.008003 0.046334
#
#
# Mechanical properties :
#
#
# Convention : Reuss Voigt Hill
#
# Bulk Modulus (GPa) = 27.11233 44.34362 35.72798
# Shear Modulus (GPa) = 23.67030 31.19970 27.43500
#
# Velocity S-wave (km/s) = 3.07713 3.53280 3.31281
# Velocity P-wave (km/s) = 4.84464 5.86340 5.37820
#
# Compressibility (1/GPa) = 0.03688358
#
# Stress axis : x y z
#
# Youngs Moduli (GPa) = 35.11824 59.43204 64.40032
#
# Poissons Ratio (x) = 0.13502 0.24570
# Poissons Ratio (y) = 0.07978 0.37904
# Poissons Ratio (z) = 0.13398 0.34980
#
# Static dielectric constant tensor:
#      x y z
#    x 4.397130 0.090700 -0.097690 
#    y 0.090700 5.004790 0.173390 
#    z -0.097690 0.173390 4.525690 
# 
# 
# High freq. dielectric constant tensor:
#      x y z
#    x 1.978130 0.001740 -0.008590 
#    y 0.001740 2.016870 0.013960 
#    z -0.008590 0.013960 1.996510 
# 
# From -- ./inp_files/402918.got.cif
#   From: 2010.06.25/outbox.cif.g09.slc.cpg/sg2_202_cif.got.tgz:402918.got - 2010.06.27 13:26:56.
