data_PCOD8029109
_publ_section_title
;
Structure prediction by ZEFSAII (Michael W. Deem and Ramdas Pophale) SiO2 
 PCOD8029109
Probable space group: P -1
;
_chemical_formula_sum "Si O2"
_cell_formula_units_Z 16
_cell_length_a 8.925161
_cell_length_b 14.678900
_cell_length_c 19.828288
_cell_angle_alpha 20.795531
_cell_angle_beta 120.761085
_cell_angle_gamma 110.992148
_cell_volume 728.756019
_symmetry_space_group_name_H-M "P -1"
_symmetry_group_IT_number 2
_symmetry_cell_setting 'triclinic'
loop_
_space_group_symop_operation_xyz
x,y,z
-x,-y,-z
loop_
_atom_site_type_symbol
_atom_site_label
_atom_site_fract_x
_atom_site_fract_y
_atom_site_fract_z
Si Si1 0.175562 0.969366 0.245421
Si Si2 0.426214 0.669904 0.727882
Si Si3 0.591011 0.681092 0.531353
Si Si4 0.280976 0.844715 0.798053
Si Si5 0.077111 0.735909 0.507527
Si Si6 0.687847 0.786708 0.612145
Si Si7 0.085363 0.483789 0.956522
Si Si8 0.040763 0.748978 0.132669
O O1 0.377517 0.796216 0.374394
O O2 0.112855 0.750352 0.424756
O O3 0.198832 0.174085 0.167036
O O4 0.033979 0.134690 0.039291
O O5 0.252478 0.744475 0.584734
O O6 0.612571 0.719671 0.711977
O O7 0.358270 0.879636 0.631346
O O8 0.512421 0.341240 0.993519
O O9 0.585366 0.643456 0.636426
O O10 0.729558 0.412980 0.707527
O O11 0.691477 0.902509 0.407073
O O12 0.224533 0.647461 0.871183
O O13 0.110944 0.985129 0.715552
O O14 0.051452 0.453267 0.717178
O O15 0.912973 0.628913 0.765019
O O16 0.000000 0.500000 0.000000
O O17 0.000000 0.000000 0.000000
#
# Coordination Sequence:
#
# PCOD8029109 Si02
#       8
#     2   2   2   2   2   2   2   2
#     4  12  23  43  73  95 129 178 214 263 326 387
#     4  11  20  35  60  93 134 171 210 253 302 376
#     4  11  25  42  63  96 125 167 223 267 322 390
#     4  11  23  36  59  92 139 178 207 260 312 377
#     4  11  23  42  69  96 128 173 221 260 327 395
#     4  11  20  34  58  92 133 171 208 254 300 380
#     4  12  20  36  60  97 137 179 215 249 313 385
#     4  11  28  50  68  95 129 161 218 292 339 381
#
# _framework density 21.955223
#
# number of rings (size 3 to 8) (size 9 to 14) (size 15 to 20)
#    0.000    0.750    6.250    1.500    0.000    4.500 
#    0.000    0.625    0.000    0.000    0.000    0.000 
#    0.000    0.000    0.000    0.000    0.000    0.000 
#
# Total GULP energy -198255.553088 kJ/mol
# GULP energy per Si atom -12390.972068 kJ/mol
# Density = 2.190525 g / cm^3
# Si number density = 21.955223 Si / 1000 Ang^3
#
#
#
# Elastic Constant Matrix: (Units=GPa)
#
#
# Indices 1 2 3 4 5 6 
#
# 1 81.0556 18.5609 36.7242 -5.4397 16.6006 -2.9108
# 2 18.5609 63.1111 36.8888 -14.4857 1.9595 -13.6026
# 3 36.7242 36.8888 120.1757 -5.4488 21.9206 -5.1118
# 4 -5.4397 -14.4857 -5.4488 31.6634 -1.4705 6.5099
# 5 16.6006 1.9595 21.9206 -1.4705 44.0340 1.7056
# 6 -2.9108 -13.6026 -5.1118 6.5099 1.7056 20.5536
#
#
#
# Elastic Compliance Matrix: (Units=1/GPa)
#
#
# Indices 1 2 3 4 5 6 
#
# 1 0.015174 -0.002323 -0.003159 0.000836 -0.004013 -0.000106
# 2 -0.002323 0.024434 -0.006471 0.007400 0.002805 0.011656
# 3 -0.003159 -0.006471 0.011989 -0.001462 -0.004503 -0.000911
# 4 0.000836 0.007400 -0.001462 0.036371 0.001569 -0.006998
# 5 -0.004013 0.002805 -0.004503 0.001569 0.026490 -0.002527
# 6 -0.000106 0.011656 -0.000911 -0.006998 -0.002527 0.058552
#
#
# Mechanical properties :
#
#
# Convention : Reuss Voigt Hill
#
# Bulk Modulus (GPa) = 36.11041 49.85448 42.98245
# Shear Modulus (GPa) = 24.25473 30.72810 27.49142
#
# Velocity S-wave (km/s) = 3.32736 3.74516 3.54242
# Velocity P-wave (km/s) = 5.58970 6.43881 6.02922
#
# Compressibility (1/GPa) = 0.02769284
#
# Stress axis : x y z
#
# Youngs Moduli (GPa) = 65.90034 40.92665 83.40983
#
# Poissons Ratio (x) = 0.09506 0.26347
# Poissons Ratio (y) = 0.15307 0.53973
# Poissons Ratio (z) = 0.20816 0.26483
#
# Static dielectric constant tensor:
#      x y z
#    x 4.086900 -0.057630 0.146010 
#    y -0.057630 3.464510 0.078940 
#    z 0.146010 0.078940 4.195030 
# 
# 
# High freq. dielectric constant tensor:
#      x y z
#    x 1.872040 -0.005160 0.014120 
#    y -0.005160 1.817260 0.016030 
#    z 0.014120 0.016030 1.875440 
# 
# From -- ./inp_files/186428.got.cif
#   From: 2010.06.25/outbox.cif.g09.slc.cpg/sg2_94_cif.got.tgz:186428.got - 2010.06.27 13:26:56.
