data_PCOD8029728
_publ_section_title
;
Structure prediction by ZEFSAII (Michael W. Deem and Ramdas Pophale) SiO2 
 PCOD8029728
Probable space group: P -1
;
_chemical_formula_sum "Si O2"
_cell_formula_units_Z 14
_cell_length_a 16.679327
_cell_length_b 14.468048
_cell_length_c 8.963550
_cell_angle_alpha 110.552682
_cell_angle_beta 127.356007
_cell_angle_gamma 27.404703
_cell_volume 679.419280
_symmetry_space_group_name_H-M "P -1"
_symmetry_group_IT_number 2
_symmetry_cell_setting 'triclinic'
loop_
_space_group_symop_operation_xyz
x,y,z
-x,-y,-z
loop_
_atom_site_type_symbol
_atom_site_label
_atom_site_fract_x
_atom_site_fract_y
_atom_site_fract_z
Si Si1 0.620310 0.498125 0.621961
Si Si2 0.852338 0.929321 0.068321
Si Si3 0.958008 0.684816 0.443787
Si Si4 0.401711 0.844885 0.805272
Si Si5 0.897703 0.485145 0.879292
Si Si6 0.578107 0.679322 0.415315
Si Si7 0.164346 0.422991 0.815878
O O1 0.500000 0.500000 0.500000
O O2 0.565244 0.589694 0.446007
O O3 0.907763 0.229319 0.807692
O O4 0.524455 0.651695 0.734927
O O5 0.736381 0.085236 0.171245
O O6 0.923071 0.757922 0.118230
O O7 0.673432 0.079670 0.811698
O O8 0.210695 0.504937 0.573082
O O9 0.972854 0.632641 0.600441
O O10 0.769955 0.940144 0.375139
O O11 0.871868 0.662619 0.242490
O O12 0.569922 0.777175 0.041824
O O13 0.647309 0.703326 0.628557
O O14 0.860996 0.490784 0.012917
O O15 0.000000 0.500000 0.000000
#
# Coordination Sequence:
#
# PCOD8029728 Si02
#       7
#     2   2   2   2   2   2   2
#     4  11  27  48  70  95 123 167 225 283 343 394
#     4  11  24  43  65  97 131 169 222 267 327 396
#     4  11  23  39  63 102 135 176 221 253 316 392
#     4  12  22  43  69  91 135 174 210 274 323 382
#     4  11  21  39  59  95 141 177 218 261 305 379
#     4  11  22  43  64  92 134 171 215 277 320 382
#     4  11  22  38  62 101 138 176 221 252 309 393
#
# _framework density 20.605834999999999
#
# number of rings (size 3 to 8) (size 9 to 14) (size 15 to 20)
#    0.000    0.857    8.571    0.429    2.000    1.714 
#    0.000    0.714    0.000    0.000    0.000    0.000 
#    0.000    0.000    0.000    0.000    0.000    0.000 
#
# Total GULP energy -173436.007029 kJ/mol
# GULP energy per Si atom -12388.286216 kJ/mol
# Density = 2.055894 g / cm^3
# Si number density = 20.605835 Si / 1000 Ang^3
#
#
#
# Elastic Constant Matrix: (Units=GPa)
#
#
# Indices 1 2 3 4 5 6 
#
# 1 125.5577 39.0220 60.4961 -2.1225 27.2946 3.3687
# 2 39.0220 89.8099 45.6011 -2.4266 10.0006 -17.0164
# 3 60.4961 45.6011 142.4009 -19.8258 1.3511 4.5231
# 4 -2.1225 -2.4266 -19.8258 30.0022 -7.1965 -2.0870
# 5 27.2946 10.0006 1.3511 -7.1965 45.0519 6.7112
# 6 3.3687 -17.0164 4.5231 -2.0870 6.7112 26.8576
#
#
#
# Elastic Compliance Matrix: (Units=1/GPa)
#
#
# Indices 1 2 3 4 5 6 
#
# 1 0.012846 -0.002262 -0.005292 -0.004678 -0.007784 -0.000572
# 2 -0.002262 0.017998 -0.005551 -0.002600 -0.004906 0.013645
# 3 -0.005292 -0.005551 0.012349 0.008438 0.006287 -0.005848
# 4 -0.004678 -0.002600 0.008438 0.040619 0.009915 -0.001803
# 5 -0.007784 -0.004906 0.006287 0.009915 0.030908 -0.010144
# 6 -0.000572 0.013645 -0.005848 -0.001803 -0.010144 0.049330
#
#
# Mechanical properties :
#
#
# Convention : Reuss Voigt Hill
#
# Bulk Modulus (GPa) = 58.88773 72.00075 65.44424
# Shear Modulus (GPa) = 25.52047 34.55898 30.03972
#
# Velocity S-wave (km/s) = 3.52306 4.09974 3.82229
# Velocity P-wave (km/s) = 6.72231 7.57814 7.16302
#
# Compressibility (1/GPa) = 0.01698147
#
# Stress axis : x y z
#
# Youngs Moduli (GPa) = 77.84676 55.56260 80.97651
#
# Poissons Ratio (x) = 0.12570 0.42853
# Poissons Ratio (y) = 0.17612 0.44952
# Poissons Ratio (z) = 0.41197 0.30844
#
# Static dielectric constant tensor:
#      x y z
#    x 3.808610 -0.523530 -0.187920 
#    y -0.523530 3.993000 0.110220 
#    z -0.187920 0.110220 3.916770 
# 
# 
# High freq. dielectric constant tensor:
#      x y z
#    x 1.803900 -0.030890 -0.010590 
#    y -0.030890 1.789910 -0.001930 
#    z -0.010590 -0.001930 1.813380 
# 
# From -- ./inp_files/313599.got.cif
#   From: 2010.06.25/outbox.cif.g09.slc.cpg/sg2_157_cif.got.tgz:313599.got - 2010.06.27 13:26:56.
