data_PCOD8029746
_publ_section_title
;
Structure prediction by ZEFSAII (Michael W. Deem and Ramdas Pophale) SiO2 
 PCOD8029746
Probable space group: P -1
;
_chemical_formula_sum "Si O2"
_cell_formula_units_Z 14
_cell_length_a 9.490378
_cell_length_b 9.403523
_cell_length_c 16.653277
_cell_angle_alpha 60.883549
_cell_angle_beta 93.661346
_cell_angle_gamma 44.401887
_cell_volume 671.779202
_symmetry_space_group_name_H-M "P -1"
_symmetry_group_IT_number 2
_symmetry_cell_setting 'triclinic'
loop_
_space_group_symop_operation_xyz
x,y,z
-x,-y,-z
loop_
_atom_site_type_symbol
_atom_site_label
_atom_site_fract_x
_atom_site_fract_y
_atom_site_fract_z
Si Si1 0.609970 0.098945 0.788675
Si Si2 0.951247 0.146991 0.037153
Si Si3 0.499059 0.855199 0.602851
Si Si4 0.984433 0.846962 0.249631
Si Si5 0.226704 0.852166 0.366122
Si Si6 0.999795 0.816236 0.575578
Si Si7 0.481150 0.156496 0.204131
O O1 0.734617 0.064199 0.727299
O O2 0.291962 0.446941 0.687231
O O3 0.642919 0.872772 0.841796
O O4 0.781849 0.002405 0.895897
O O5 0.871503 0.095167 0.116693
O O6 0.693772 0.514184 0.912857
O O7 0.000000 0.000000 0.000000
O O8 0.523279 0.882010 0.690117
O O9 0.738210 0.495385 0.685779
O O10 0.500000 0.000000 0.500000
O O11 0.201562 0.070583 0.525160
O O12 0.035208 0.890063 0.323681
O O13 0.780257 0.901214 0.248702
O O14 0.500000 0.500000 0.500000
O O15 0.104427 0.090287 0.363276
O O16 0.000000 0.000000 0.500000
#
# Coordination Sequence:
#
# PCOD8029746 Si02
#       7
#     2   2   2   2   2   2   2
#     4  11  26  43  65  99 133 174 219 275 336 387
#     4  11  24  49  72  92 130 177 233 278 323 392
#     4  12  25  40  65 101 141 171 213 270 335 401
#     4  11  24  43  68 100 128 179 226 269 333 396
#     4  11  21  39  64  92 136 174 215 266 323 394
#     4  12  22  38  65  96 132 175 220 260 323 404
#     4  12  26  44  70  97 137 177 219 281 335 385
#
# _framework density 20.840181000000001
#
# number of rings (size 3 to 8) (size 9 to 14) (size 15 to 20)
#    0.000    0.571    4.286    4.286    2.000    1.143 
#    0.000    0.714    0.000    0.000    0.000    0.000 
#    0.000    0.000    0.000    0.000    0.000    0.000 
#
# Total GULP energy -173574.638622 kJ/mol
# GULP energy per Si atom -12398.188473 kJ/mol
# Density = 2.079275 g / cm^3
# Si number density = 20.840181 Si / 1000 Ang^3
#
#
#
# Elastic Constant Matrix: (Units=GPa)
#
#
# Indices 1 2 3 4 5 6 
#
# 1 124.4785 28.8185 33.9757 14.7691 7.9902 8.9278
# 2 28.8185 102.4559 34.0201 4.7989 8.1872 8.8491
# 3 33.9757 34.0201 93.1140 10.9171 2.1974 -0.1231
# 4 14.7691 4.7989 10.9171 35.7129 2.7484 7.0853
# 5 7.9902 8.1872 2.1974 2.7484 40.7174 0.0422
# 6 8.9278 8.8491 -0.1231 7.0853 0.0422 34.8911
#
#
#
# Elastic Compliance Matrix: (Units=1/GPa)
#
#
# Indices 1 2 3 4 5 6 
#
# 1 0.009590 -0.001465 -0.002637 -0.002553 -0.001271 -0.001571
# 2 -0.001465 0.011803 -0.003842 0.000901 -0.001936 -0.002813
# 3 -0.002637 -0.003842 0.013444 -0.003020 0.000766 0.002309
# 4 -0.002553 0.000901 -0.003020 0.031156 -0.001614 -0.005911
# 5 -0.001271 -0.001936 0.000766 -0.001614 0.025265 0.001116
# 6 -0.001571 -0.002813 0.002309 -0.005911 0.001116 0.030983
#
#
# Mechanical properties :
#
#
# Convention : Reuss Voigt Hill
#
# Bulk Modulus (GPa) = 52.76794 57.07522 54.92158
# Shear Modulus (GPa) = 34.61536 37.14655 35.88096
#
# Velocity S-wave (km/s) = 4.07995 4.22649 4.15386
# Velocity P-wave (km/s) = 6.89709 7.15990 7.02972
#
# Compressibility (1/GPa) = 0.01895090
#
# Stress axis : x y z
#
# Youngs Moduli (GPa) = 104.28017 84.72101 74.38141
#
# Poissons Ratio (x) = 0.12411 0.19611
# Poissons Ratio (y) = 0.15277 0.28575
# Poissons Ratio (z) = 0.27494 0.32547
#
# Static dielectric constant tensor:
#      x y z
#    x 2.849170 -2.927770 -0.360600 
#    y -2.927770 -6.699550 -1.318680 
#    z -0.360600 -1.318680 3.778730 
# 
# 
# High freq. dielectric constant tensor:
#      x y z
#    x 1.828240 0.005350 0.001510 
#    y 0.005350 1.821750 0.002600 
#    z 0.001510 0.002600 1.822900 
# 
# From -- ./inp_files/47388.got.cif
#   From: 2010.06.25/outbox.cif.g09.slc.cpg/sg2_24_cif.got.tgz:47388.got - 2010.06.27 13:26:56.
