data_PCOD8029445
_publ_section_title
;
Structure prediction by ZEFSAII (Michael W. Deem and Ramdas Pophale) SiO2 
 PCOD8029445
Probable space group: P -1
;
_chemical_formula_sum "Si O2"
_cell_formula_units_Z 12
_cell_length_a 11.334370
_cell_length_b 13.985661
_cell_length_c 18.835397
_cell_angle_alpha 147.673195
_cell_angle_beta 21.874280
_cell_angle_gamma 148.277648
_cell_volume 560.814908
_symmetry_space_group_name_H-M "P -1"
_symmetry_group_IT_number 2
_symmetry_cell_setting 'triclinic'
loop_
_space_group_symop_operation_xyz
x,y,z
-x,-y,-z
loop_
_atom_site_type_symbol
_atom_site_label
_atom_site_fract_x
_atom_site_fract_y
_atom_site_fract_z
Si Si1 0.773851 0.254802 0.634372
Si Si2 0.815478 0.550042 0.067034
Si Si3 0.134308 0.401238 0.286254
Si Si4 0.120892 0.209761 0.036123
Si Si5 0.858686 0.482971 0.284529
Si Si6 0.418046 0.119377 0.558634
O O1 0.915216 0.394622 0.575325
O O2 0.917440 0.336586 0.681928
O O3 0.797388 0.043643 0.478937
O O4 0.379899 0.231665 0.841407
O O5 0.416391 0.424027 0.204099
O O6 0.823796 0.766329 0.208889
O O7 0.000000 0.500000 0.000000
O O8 0.017119 0.518166 0.866008
O O9 0.288963 0.343283 0.092654
O O10 0.769750 0.254940 0.415174
O O11 0.831544 0.283485 0.212376
O O12 0.000000 0.000000 0.000000
O O13 0.500000 0.500000 0.500000
O O14 0.500000 0.000000 0.500000
#
# Coordination Sequence:
#
# PCOD8029445 Si02
#       6
#     2   2   2   2   2   2
#     4  11  22  45  74 101 132 179 241 283 331 414
#     4  12  27  45  65 104 149 180 220 289 355 403
#     4  11  22  43  73  98 134 185 228 285 335 410
#     4  11  20  41  77 101 126 173 246 283 326 404
#     4  11  25  46  69  99 142 183 227 284 345 405
#     4  12  25  43  73 104 135 178 239 280 344 415
#
# _framework density 21.397432999999999
#
# number of rings (size 3 to 8) (size 9 to 14) (size 15 to 20)
#    0.000    0.667    6.667    1.500    4.667    0.000 
#    3.000    3.333    0.000    0.000    0.000    0.000 
#    0.000    0.000    0.000    0.000    0.000    0.000 
#
# Total GULP energy -148665.128062 kJ/mol
# GULP energy per Si atom -12388.760672 kJ/mol
# Density = 2.134873 g / cm^3
# Si number density = 21.397433 Si / 1000 Ang^3
#
#
#
# Elastic Constant Matrix: (Units=GPa)
#
#
# Indices 1 2 3 4 5 6 
#
# 1 146.0767 55.7229 60.4874 14.6713 -5.7107 4.5838
# 2 55.7229 149.9929 60.3034 14.4884 -0.5576 -4.6482
# 3 60.4874 60.3034 127.0515 23.6110 3.4531 7.3933
# 4 14.6713 14.4884 23.6110 33.9772 -2.2600 6.9567
# 5 -5.7107 -0.5576 3.4531 -2.2600 33.5843 3.7806
# 6 4.5838 -4.6482 7.3933 6.9567 3.7806 29.6428
#
#
#
# Elastic Compliance Matrix: (Units=1/GPa)
#
#
# Indices 1 2 3 4 5 6 
#
# 1 0.009146 -0.002060 -0.003286 -0.000440 0.001949 -0.001063
# 2 -0.002060 0.008920 -0.003167 -0.001317 -0.000286 0.002853
# 3 -0.003286 -0.003167 0.012096 -0.005475 -0.002059 -0.001458
# 4 -0.000440 -0.001317 -0.005475 0.035803 0.003737 -0.007652
# 5 0.001949 -0.000286 -0.002059 0.003737 0.031092 -0.004675
# 6 -0.001063 0.002853 -0.001458 -0.007652 -0.004675 0.037102
#
#
# Mechanical properties :
#
#
# Convention : Reuss Voigt Hill
#
# Bulk Modulus (GPa) = 76.11687 86.23874 81.17781
# Shear Modulus (GPa) = 32.14131 35.88136 34.01133
#
# Velocity S-wave (km/s) = 3.87991 4.09944 3.99119
# Velocity P-wave (km/s) = 7.46470 7.92452 7.69804
#
# Compressibility (1/GPa) = 0.01313769
#
# Stress axis : x y z
#
# Youngs Moduli (GPa) = 109.33963 112.10976 82.66904
#
# Poissons Ratio (x) = 0.23093 0.27164
# Poissons Ratio (y) = 0.22522 0.26177
# Poissons Ratio (z) = 0.35927 0.35500
#
# Static dielectric constant tensor:
#      x y z
#    x 4.074200 0.381960 0.231880 
#    y 0.381960 4.833420 -0.066020 
#    z 0.231880 -0.066020 5.941060 
# 
# 
# High freq. dielectric constant tensor:
#      x y z
#    x 1.844000 0.006040 0.028540 
#    y 0.006040 1.839550 0.015550 
#    z 0.028540 0.015550 1.840550 
# 
# From -- ./inp_files/498704.got.cif
#   From: 2010.06.25/outbox.cif.g09.slc.cpg/sg2_250_cif.got.tgz:498704.got - 2010.06.27 13:26:56.
