data_PCOD8029999
_publ_section_title
;
Structure prediction by ZEFSAII (Michael W. Deem and Ramdas Pophale) SiO2 
 PCOD8029999
Probable space group: P -1
;
_chemical_formula_sum "Si O2"
_cell_formula_units_Z 16
_cell_length_a 9.226550
_cell_length_b 21.283006
_cell_length_c 9.009414
_cell_angle_alpha 114.607171
_cell_angle_beta 63.435112
_cell_angle_gamma 151.168989
_cell_volume 761.830381
_symmetry_space_group_name_H-M "P -1"
_symmetry_group_IT_number 2
_symmetry_cell_setting 'triclinic'
loop_
_space_group_symop_operation_xyz
x,y,z
-x,-y,-z
loop_
_atom_site_type_symbol
_atom_site_label
_atom_site_fract_x
_atom_site_fract_y
_atom_site_fract_z
Si Si1 0.884436 0.762305 0.361664
Si Si2 0.865433 0.411593 0.110379
Si Si3 0.767366 0.219414 0.964327
Si Si4 0.210258 0.521474 0.348214
Si Si5 0.723571 0.715951 0.715932
Si Si6 0.588984 0.962338 0.508498
Si Si7 0.967456 0.286039 0.275021
Si Si8 0.825802 0.002619 0.143990
O O1 0.562470 0.670114 0.351244
O O2 0.846926 0.729408 0.518963
O O3 0.979446 0.727296 0.198022
O O4 0.129931 0.914555 0.388428
O O5 0.602862 0.367326 0.249809
O O6 0.139745 0.497715 0.183192
O O7 0.742964 0.291675 0.004370
O O8 0.000000 0.500000 0.000000
O O9 0.438753 0.070281 0.921530
O O10 0.836290 0.230154 0.114897
O O11 0.000000 0.500000 0.500000
O O12 0.118196 0.415009 0.357076
O O13 0.746524 0.661971 0.771652
O O14 0.939906 0.850687 0.820833
O O15 0.313358 0.829366 0.597003
O O16 0.696099 0.945843 0.316760
O O17 0.500000 0.000000 0.500000
O O18 0.000000 0.000000 0.000000
#
# Coordination Sequence:
#
# PCOD8029999 Si02
#       8
#     2   2   2   2   2   2   2   2
#     4  11  23  43  72  93 136 176 228 268 334 395
#     4  11  26  43  64  93 140 172 224 275 335 395
#     4  11  24  42  67 100 135 171 224 279 331 396
#     4  11  26  47  66  98 138 174 225 281 334 396
#     4  11  22  43  68  97 131 179 220 274 331 401
#     4  11  21  44  66  97 136 170 221 272 328 400
#     4  11  25  42  71 101 136 174 224 281 334 392
#     4  11  21  41  69  96 135 173 220 271 332 395
#
# _framework density 21.002050000000001
#
# number of rings (size 3 to 8) (size 9 to 14) (size 15 to 20)
#    0.000    1.000    6.250    0.000    3.500    5.500 
#    0.000    1.250    0.000    0.000    0.000    0.000 
#    0.000    0.000    0.000    0.000    0.000    0.000 
#
# Total GULP energy -198335.277589 kJ/mol
# GULP energy per Si atom -12395.954849 kJ/mol
# Density = 2.095425 g / cm^3
# Si number density = 21.002050 Si / 1000 Ang^3
#
#
#
# Elastic Constant Matrix: (Units=GPa)
#
#
# Indices 1 2 3 4 5 6 
#
# 1 124.9133 44.8073 45.5691 1.0444 -8.0040 7.1095
# 2 44.8073 87.3312 23.3545 6.9008 5.8319 18.0916
# 3 45.5691 23.3545 124.5559 -2.6846 -21.0410 -3.7532
# 4 1.0444 6.9008 -2.6846 32.5013 8.0148 5.6895
# 5 -8.0040 5.8319 -21.0410 8.0148 34.9838 -3.8532
# 6 7.1095 18.0916 -3.7532 5.6895 -3.8532 42.2896
#
#
#
# Elastic Compliance Matrix: (Units=1/GPa)
#
#
# Indices 1 2 3 4 5 6 
#
# 1 0.010907 -0.005020 -0.002756 0.000032 0.001691 0.000219
# 2 -0.005020 0.016599 -0.002514 -0.000886 -0.005986 -0.006907
# 3 -0.002756 -0.002514 0.010731 -0.000719 0.006761 0.003204
# 4 0.000032 -0.000886 -0.000719 0.033897 -0.008598 -0.005034
# 5 0.001691 -0.005986 0.006761 -0.008598 0.036819 0.007388
# 6 0.000219 -0.006907 0.003204 -0.005034 0.007388 0.028199
#
#
# Mechanical properties :
#
#
# Convention : Reuss Voigt Hill
#
# Bulk Modulus (GPa) = 56.63434 62.69580 59.66507
# Shear Modulus (GPa) = 30.55863 36.82624 33.69243
#
# Velocity S-wave (km/s) = 3.81863 4.19198 4.00965
# Velocity P-wave (km/s) = 6.81668 7.30392 7.06450
#
# Compressibility (1/GPa) = 0.01765713
#
# Stress axis : x y z
#
# Youngs Moduli (GPa) = 91.68070 60.24405 93.18461
#
# Poissons Ratio (x) = 0.30243 0.25683
# Poissons Ratio (y) = 0.46025 0.23428
# Poissons Ratio (z) = 0.25269 0.15146
#
# Static dielectric constant tensor:
#      x y z
#    x 4.281940 0.899670 0.218090 
#    y 0.899670 5.152000 0.493690 
#    z 0.218090 0.493690 4.108850 
# 
# 
# High freq. dielectric constant tensor:
#      x y z
#    x 1.818420 0.021580 -0.005410 
#    y 0.021580 1.823650 0.010830 
#    z -0.005410 0.010830 1.836720 
# 
# From -- ./inp_files/199778.got.cif
#   From: 2010.06.25/outbox.cif.g09.slc.cpg/sg2_100_cif.got.tgz:199778.got - 2010.06.27 13:26:56.
