data_PCOD8029680
_publ_section_title
;
Structure prediction by ZEFSAII (Michael W. Deem and Ramdas Pophale) SiO2 
 PCOD8029680
Probable space group: P -1
;
_chemical_formula_sum "Si O2"
_cell_formula_units_Z 14
_cell_length_a 11.908622
_cell_length_b 12.878437
_cell_length_c 9.274229
_cell_angle_alpha 74.968343
_cell_angle_beta 119.027112
_cell_angle_gamma 54.880853
_cell_volume 669.493501
_symmetry_space_group_name_H-M "P -1"
_symmetry_group_IT_number 2
_symmetry_cell_setting 'triclinic'
loop_
_space_group_symop_operation_xyz
x,y,z
-x,-y,-z
loop_
_atom_site_type_symbol
_atom_site_label
_atom_site_fract_x
_atom_site_fract_y
_atom_site_fract_z
Si Si1 0.799786 0.865418 0.864500
Si Si2 0.495532 0.124428 0.326634
Si Si3 0.635390 0.297897 0.636009
Si Si4 0.663435 0.025673 0.170012
Si Si5 0.233295 0.415995 0.291775
Si Si6 0.084869 0.029082 0.875513
Si Si7 0.789408 0.695428 0.389818
O O1 0.585559 0.938332 0.755672
O O2 0.719579 0.969692 0.624175
O O3 0.846350 0.921587 0.992549
O O4 0.032734 0.639533 0.066033
O O5 0.568055 0.136800 0.223071
O O6 0.268875 0.328285 0.194029
O O7 0.500000 0.500000 0.500000
O O8 0.472513 0.311171 0.500200
O O9 0.812733 0.193012 0.651771
O O10 0.780994 0.171432 0.917523
O O11 0.847831 0.983635 0.239676
O O12 0.797799 0.819209 0.347686
O O13 0.453263 0.171402 0.875068
O O14 0.187741 0.365463 0.411917
O O15 0.000000 0.500000 0.500000
#
# Coordination Sequence:
#
# PCOD8029680 Si02
#       7
#     2   2   2   2   2   2   2
#     4  11  21  38  62  90 123 162 202 244 299 370
#     4  11  23  37  59  91 133 162 191 238 316 379
#     4  11  23  40  67  89 112 160 215 259 293 347
#     4  11  22  38  58  92 126 156 196 254 309 362
#     4  12  22  41  62  93 123 163 205 248 298 367
#     4  11  22  41  66  90 116 156 213 258 296 349
#     4  11  22  36  62  91 124 158 202 254 304 353
#
# _framework density 20.91133
#
# number of rings (size 3 to 8) (size 9 to 14) (size 15 to 20)
#    0.000    0.857    4.286    5.571    0.000    1.143 
#    0.000    0.714    0.000    1.714    0.000    0.000 
#    0.000    0.000    0.000    0.000    0.000    0.000 
#
# Total GULP energy -173578.217428 kJ/mol
# GULP energy per Si atom -12398.444102 kJ/mol
# Density = 2.086374 g / cm^3
# Si number density = 20.911330 Si / 1000 Ang^3
#
#
#
# Elastic Constant Matrix: (Units=GPa)
#
#
# Indices 1 2 3 4 5 6 
#
# 1 112.3895 37.5503 6.4306 -4.3341 -11.8142 -35.2825
# 2 37.5503 101.1625 32.0757 -16.9557 -26.5727 -25.5897
# 3 6.4306 32.0757 60.0017 -22.2257 -9.3496 -9.6025
# 4 -4.3341 -16.9557 -22.2257 41.5308 2.4144 -5.0479
# 5 -11.8142 -26.5727 -9.3496 2.4144 34.0975 4.4637
# 6 -35.2825 -25.5897 -9.6025 -5.0479 4.4637 40.4815
#
#
#
# Elastic Compliance Matrix: (Units=1/GPa)
#
#
# Indices 1 2 3 4 5 6 
#
# 1 0.013257 -0.001843 0.003014 0.003485 0.002259 0.011290
# 2 -0.001843 0.017549 -0.004468 0.004934 0.010430 0.007892
# 3 0.003014 -0.004468 0.024884 0.012505 0.002587 0.006980
# 4 0.003485 0.004934 0.012505 0.034469 0.004347 0.012942
# 5 0.002259 0.010430 0.002587 0.004347 0.037915 0.005536
# 6 0.011290 0.007892 0.006980 0.012942 0.005536 0.042190
#
#
# Mechanical properties :
#
#
# Convention : Reuss Voigt Hill
#
# Bulk Modulus (GPa) = 20.36836 47.29632 33.83234
# Shear Modulus (GPa) = 25.87676 36.38845 31.13261
#
# Velocity S-wave (km/s) = 3.52156 4.17601 3.86267
# Velocity P-wave (km/s) = 5.12803 6.77634 6.00897
#
# Compressibility (1/GPa) = 0.04909574
#
# Stress axis : x y z
#
# Youngs Moduli (GPa) = 75.43152 56.98343 40.18681
#
# Poissons Ratio (x) = 0.10504 -0.12113
# Poissons Ratio (y) = 0.13905 0.17955
# Poissons Ratio (z) = -0.22737 0.25459
#
# Static dielectric constant tensor:
#      x y z
#    x 4.079990 0.034470 0.026730 
#    y 0.034470 4.035140 -0.119220 
#    z 0.026730 -0.119220 3.891620 
# 
# 
# High freq. dielectric constant tensor:
#      x y z
#    x 1.816590 -0.010820 -0.002310 
#    y -0.010820 1.813930 -0.024230 
#    z -0.002310 -0.024230 1.818350 
# 
# From -- ./inp_files/269955.got.cif
#   From: 2010.06.25/outbox.cif.g09.slc.cpg/sg2_135_cif.got.tgz:269955.got - 2010.06.27 13:26:56.
