data_PCOD8029574
_publ_section_title
;
Structure prediction by ZEFSAII (Michael W. Deem and Ramdas Pophale) SiO2 
 PCOD8029574
Probable space group: P -1
;
_chemical_formula_sum "Si O2"
_cell_formula_units_Z 14
_cell_length_a 9.126310
_cell_length_b 16.312790
_cell_length_c 16.156451
_cell_angle_alpha 25.800168
_cell_angle_beta 60.105985
_cell_angle_gamma 43.784294
_cell_volume 625.921501
_symmetry_space_group_name_H-M "P -1"
_symmetry_group_IT_number 2
_symmetry_cell_setting 'triclinic'
loop_
_space_group_symop_operation_xyz
x,y,z
-x,-y,-z
loop_
_atom_site_type_symbol
_atom_site_label
_atom_site_fract_x
_atom_site_fract_y
_atom_site_fract_z
Si Si1 0.574339 0.762103 0.030816
Si Si2 0.453922 0.957087 0.461852
Si Si3 0.713288 0.395331 0.476179
Si Si4 0.959357 0.253477 0.272195
Si Si5 0.364727 0.557946 0.069155
Si Si6 0.215206 0.062188 0.725883
Si Si7 0.102792 0.141410 0.152213
O O1 0.600257 0.645600 0.219664
O O2 0.714796 0.523972 0.139191
O O3 0.677635 0.890326 0.893813
O O4 0.290801 0.014727 0.846439
O O5 0.473441 0.714485 0.675026
O O6 0.641520 0.887464 0.406271
O O7 0.500000 0.000000 0.500000
O O8 0.172782 0.216706 0.281659
O O9 0.500000 0.500000 0.500000
O O10 0.929652 0.302073 0.560610
O O11 0.803812 0.150316 0.616024
O O12 0.954527 0.295313 0.138253
O O13 0.000000 0.000000 0.500000
O O14 0.500000 0.500000 0.000000
O O15 0.105244 0.660265 0.038258
O O16 0.329859 0.773118 0.933042
#
# Coordination Sequence:
#
# PCOD8029574 Si02
#       7
#     2   2   2   2   2   2   2
#     4  12  24  42  68  98 134 170 214 267 331 395
#     4  12  22  35  57  92 137 172 206 254 311 395
#     4  11  27  49  68  91 127 172 229 283 321 376
#     4  12  22  37  62 100 138 168 203 254 325 397
#     4  11  21  34  56  90 132 172 209 250 315 391
#     4  11  24  41  63  94 125 170 216 264 330 383
#     4  11  23  41  63  95 132 171 213 265 330 388
#
# _framework density 22.367023
#
# number of rings (size 3 to 8) (size 9 to 14) (size 15 to 20)
#    0.000    0.571    4.286    5.571    0.000    1.143 
#    0.000    0.714    0.000    0.000    0.000    0.000 
#    0.000    0.000    0.000    0.000    0.000    0.000 
#
# Total GULP energy -173485.056115 kJ/mol
# GULP energy per Si atom -12391.789723 kJ/mol
# Density = 2.231611 g / cm^3
# Si number density = 22.367023 Si / 1000 Ang^3
#
#
#
# Elastic Constant Matrix: (Units=GPa)
#
#
# Indices 1 2 3 4 5 6 
#
# 1 142.4323 25.0301 46.4355 14.4193 30.0524 -16.8173
# 2 25.0301 57.9293 16.1307 18.3825 18.8316 -14.8892
# 3 46.4355 16.1307 99.2842 30.2177 15.2229 -7.8214
# 4 14.4193 18.3825 30.2177 27.3937 0.1863 -4.1639
# 5 30.0524 18.8316 15.2229 0.1863 50.5821 -2.1469
# 6 -16.8173 -14.8892 -7.8214 -4.1639 -2.1469 24.4760
#
#
#
# Elastic Compliance Matrix: (Units=1/GPa)
#
#
# Indices 1 2 3 4 5 6 
#
# 1 0.009722 -0.000470 -0.003288 -0.000402 -0.004403 0.004889
# 2 -0.000470 0.031937 0.005862 -0.025196 -0.012621 0.015585
# 3 -0.003288 0.005862 0.018469 -0.022088 -0.005580 0.002962
# 4 -0.000402 -0.025196 -0.022088 0.076628 0.015634 -0.008254
# 5 -0.004403 -0.012621 -0.005580 0.015634 0.028395 -0.007336
# 6 0.004889 0.015585 0.002962 -0.008254 -0.007336 0.052595
#
#
# Mechanical properties :
#
#
# Convention : Reuss Voigt Hill
#
# Bulk Modulus (GPa) = 15.54331 52.75983 34.15157
# Shear Modulus (GPa) = 21.27819 34.62701 27.95260
#
# Velocity S-wave (km/s) = 3.08769 3.93889 3.53898
# Velocity P-wave (km/s) = 4.43577 6.65777 5.65694
#
# Compressibility (1/GPa) = 0.06433638
#
# Stress axis : x y z
#
# Youngs Moduli (GPa) = 102.85507 31.31196 54.14470
#
# Poissons Ratio (x) = 0.01471 0.17804
# Poissons Ratio (y) = 0.04832 -0.31741
# Poissons Ratio (z) = 0.33822 -0.18356
#
# Static dielectric constant tensor:
#      x y z
#    x 4.515670 0.019400 0.174630 
#    y 0.019400 3.324550 -0.049320 
#    z 0.174630 -0.049320 4.233940 
# 
# 
# High freq. dielectric constant tensor:
#      x y z
#    x 1.916130 -0.002110 0.005180 
#    y -0.002110 1.826840 0.013550 
#    z 0.005180 0.013550 1.896040 
# 
# From -- ./inp_files/177013.got.cif
#   From: 2010.06.25/outbox.cif.g09.slc.cpg/sg2_89_cif.got.tgz:177013.got - 2010.06.27 13:26:56.
