data_PCOD8029641
_publ_section_title
;
Structure prediction by ZEFSAII (Michael W. Deem and Ramdas Pophale) SiO2 
 PCOD8029641
Probable space group: P -1
;
_chemical_formula_sum "Si O2"
_cell_formula_units_Z 12
_cell_length_a 17.438271
_cell_length_b 15.974585
_cell_length_c 7.729822
_cell_angle_alpha 42.039406
_cell_angle_beta 130.929784
_cell_angle_gamma 156.533886
_cell_volume 571.424118
_symmetry_space_group_name_H-M "P -1"
_symmetry_group_IT_number 2
_symmetry_cell_setting 'triclinic'
loop_
_space_group_symop_operation_xyz
x,y,z
-x,-y,-z
loop_
_atom_site_type_symbol
_atom_site_label
_atom_site_fract_x
_atom_site_fract_y
_atom_site_fract_z
Si Si1 0.076505 0.959500 0.476382
Si Si2 0.784827 0.048693 0.607602
Si Si3 0.076748 0.937088 0.894278
Si Si4 0.083813 0.554656 0.353603
Si Si5 0.480376 0.995800 0.774505
Si Si6 0.852132 0.532611 0.967966
O O1 0.224150 0.055107 0.409183
O O2 0.174975 0.066543 0.651088
O O3 0.881296 0.668315 0.652820
O O4 0.017408 0.035396 0.210634
O O5 0.616393 0.973942 0.462930
O O6 0.995904 0.335149 0.483558
O O7 0.765570 0.949027 0.910769
O O8 0.905256 0.653359 0.047000
O O9 0.000000 0.500000 0.500000
O O10 0.314082 0.791458 0.341064
O O11 0.012025 0.593174 0.065896
O O12 0.359615 0.750339 0.902056
O O13 0.500000 0.000000 0.000000
#
# Coordination Sequence:
#
# PCOD8029641 Si02
#       6
#     2   2   2   2   2   2
#     4   9  18  36  64  86 123 163 200 251 307 355
#     4  11  21  37  63  91 120 160 203 251 304 365
#     4   9  19  37  61  92 116 167 204 245 306 361
#     4  11  21  39  59  91 123 156 201 249 307 366
#     4  11  24  36  62  94 124 161 201 251 311 367
#     4   9  19  38  59  86 121 158 196 250 303 360
#
# _framework density 21.000163000000001
#
# number of rings (size 3 to 8) (size 9 to 14) (size 15 to 20)
#    1.000    1.000    1.667    2.500    0.000    5.333 
#    0.000    0.000    0.000   22.000    0.000    0.000 
#    0.000    0.000    0.000    0.000    0.000    0.000 
#
# Total GULP energy -148664.537356 kJ/mol
# GULP energy per Si atom -12388.711446 kJ/mol
# Density = 2.095237 g / cm^3
# Si number density = 21.000163 Si / 1000 Ang^3
#
#
#
# Elastic Constant Matrix: (Units=GPa)
#
#
# Indices 1 2 3 4 5 6 
#
# 1 118.4637 39.1738 45.6178 3.6831 2.3995 1.7821
# 2 39.1738 97.6184 33.3456 14.3616 4.7773 23.1638
# 3 45.6178 33.3456 124.2057 22.7964 10.0279 2.2309
# 4 3.6831 14.3616 22.7964 17.2493 -5.6368 -2.4864
# 5 2.3995 4.7773 10.0279 -5.6368 36.6408 0.0965
# 6 1.7821 23.1638 2.2309 -2.4864 0.0965 24.4264
#
#
#
# Elastic Compliance Matrix: (Units=1/GPa)
#
#
# Indices 1 2 3 4 5 6 
#
# 1 0.012147 -0.006727 -0.005283 0.012130 0.003375 0.007197
# 2 -0.006727 0.021563 0.002204 -0.024900 -0.006745 -0.022667
# 3 -0.005283 0.002204 0.014251 -0.022694 -0.007319 -0.005287
# 4 0.012130 -0.024900 -0.022694 0.120277 0.027069 0.036937
# 5 0.003375 -0.006745 -0.007319 0.027069 0.034093 0.009439
# 6 0.007197 -0.022667 -0.005287 0.036937 0.009439 0.066115
#
#
# Mechanical properties :
#
#
# Convention : Reuss Voigt Hill
#
# Bulk Modulus (GPa) = 35.27712 64.06246 49.66979
# Shear Modulus (GPa) = 16.80627 30.47336 23.63981
#
# Velocity S-wave (km/s) = 2.83201 3.81346 3.35878
# Velocity P-wave (km/s) = 5.24678 7.06838 6.22457
#
# Compressibility (1/GPa) = 0.02834698
#
# Stress axis : x y z
#
# Youngs Moduli (GPa) = 82.32741 46.37618 70.17032
#
# Poissons Ratio (x) = 0.31198 0.37072
# Poissons Ratio (y) = 0.55383 -0.15462
# Poissons Ratio (z) = 0.43494 -0.10219
#
# Static dielectric constant tensor:
#      x y z
#    x 3.729280 -0.233760 0.150490 
#    y -0.233760 3.718510 0.268070 
#    z 0.150490 0.268070 4.168520 
# 
# 
# High freq. dielectric constant tensor:
#      x y z
#    x 1.824510 -0.022070 0.006390 
#    y -0.022070 1.768030 0.006180 
#    z 0.006390 0.006180 1.839870 
# 
# From -- ./inp_files/60515.got.cif
#   From: 2010.06.25/outbox.cif.g09.slc.cpg/sg2_31_cif.got.tgz:60515.got - 2010.06.27 13:26:56.
