data_PCOD8029226
_publ_section_title
;
Structure prediction by ZEFSAII (Michael W. Deem and Ramdas Pophale) SiO2 
 PCOD8029226
Probable space group: P -1
;
_chemical_formula_sum "Si O2"
_cell_formula_units_Z 16
_cell_length_a 18.916140
_cell_length_b 27.518821
_cell_length_c 6.623785
_cell_angle_alpha 55.201978
_cell_angle_beta 54.863409
_cell_angle_gamma 17.092203
_cell_volume 825.702620
_symmetry_space_group_name_H-M "P -1"
_symmetry_group_IT_number 2
_symmetry_cell_setting 'triclinic'
loop_
_space_group_symop_operation_xyz
x,y,z
-x,-y,-z
loop_
_atom_site_type_symbol
_atom_site_label
_atom_site_fract_x
_atom_site_fract_y
_atom_site_fract_z
Si Si1 0.828974 0.555829 0.192291
Si Si2 0.157225 0.052876 0.929145
Si Si3 0.957693 0.670761 0.323199
Si Si4 0.784915 0.094389 0.076021
Si Si5 0.023303 0.718492 0.455673
Si Si6 0.549422 0.060682 0.564101
Si Si7 0.368237 0.896713 0.349426
Si Si8 0.284304 0.466717 0.887090
O O1 0.561641 0.747898 0.227560
O O2 0.825421 0.518747 0.085420
O O3 0.930793 0.458055 0.451976
O O4 0.000000 0.500000 0.000000
O O5 0.122174 0.009213 0.005337
O O6 0.409497 0.920204 0.738712
O O7 0.938552 0.236492 0.776205
O O8 0.153499 0.053913 0.177032
O O9 0.957727 0.725861 0.342204
O O10 0.684769 0.830397 0.327336
O O11 0.125751 0.579942 0.075348
O O12 0.716217 0.101030 0.370079
O O13 0.563258 0.276988 0.932262
O O14 0.000000 0.000000 0.000000
O O15 0.255773 0.542668 0.606968
O O16 0.786181 0.866260 0.642989
O O17 0.530558 0.111388 0.678761
#
# Coordination Sequence:
#
# PCOD8029226 Si02
#       8
#     2   2   2   2   2   2   2   2
#     4  11  22  34  58  91 128 164 192 244 299 359
#     4   9  21  41  60  85 120 153 202 245 297 362
#     4  11  21  34  57  87 127 168 201 238 294 353
#     4  11  24  43  67  90 113 152 209 265 311 354
#     4   9  23  38  58  83 130 164 196 246 291 356
#     4   9  21  35  56  88 120 168 204 231 285 364
#     4  11  20  38  63  87 119 162 199 248 306 351
#     4  11  23  40  56  91 125 155 204 252 296 361
#
# _framework density 19.377437
#
# number of rings (size 3 to 8) (size 9 to 14) (size 15 to 20)
#    0.750    1.000    2.500    1.875    3.500    3.000 
#    0.000    0.625    0.000    1.500    0.000    0.000 
#    0.000    0.000    0.000    0.000    0.000    0.000 
#
# Total GULP energy -198307.698484 kJ/mol
# GULP energy per Si atom -12394.231155 kJ/mol
# Density = 1.933333 g / cm^3
# Si number density = 19.377437 Si / 1000 Ang^3
#
#
#
# Elastic Constant Matrix: (Units=GPa)
#
#
# Indices 1 2 3 4 5 6 
#
# 1 95.5727 50.6877 43.9028 -6.3555 4.5971 6.1704
# 2 50.6877 90.4602 43.7182 -26.7133 -5.7533 3.0655
# 3 43.9028 43.7182 87.5439 -23.7031 11.2669 -0.4154
# 4 -6.3555 -26.7133 -23.7031 32.1082 1.9705 2.2611
# 5 4.5971 -5.7533 11.2669 1.9705 19.7501 1.3307
# 6 6.1704 3.0655 -0.4154 2.2611 1.3307 33.4796
#
#
#
# Elastic Compliance Matrix: (Units=1/GPa)
#
#
# Indices 1 2 3 4 5 6 
#
# 1 0.018295 -0.009963 -0.006338 -0.009063 -0.002517 -0.001826
# 2 -0.009963 0.023567 -0.004355 0.013904 0.010398 -0.001728
# 3 -0.006338 -0.004355 0.021738 0.011887 -0.013486 0.001570
# 4 -0.009063 0.013904 0.011887 0.050214 -0.005454 -0.002630
# 5 -0.002517 0.010398 -0.013486 -0.005454 0.062672 -0.002778
# 6 -0.001826 -0.001728 0.001570 -0.002630 -0.002778 0.030671
#
#
# Mechanical properties :
#
#
# Convention : Reuss Voigt Hill
#
# Bulk Modulus (GPa) = 44.86571 61.13268 52.99919
# Shear Modulus (GPa) = 19.53907 26.08546 22.81226
#
# Velocity S-wave (km/s) = 3.17888 3.67301 3.43484
# Velocity P-wave (km/s) = 6.05620 7.04307 6.56820
#
# Compressibility (1/GPa) = 0.02228874
#
# Stress axis : x y z
#
# Youngs Moduli (GPa) = 54.66013 42.43138 46.00338
#
# Poissons Ratio (x) = 0.42273 0.29158
# Poissons Ratio (y) = 0.54457 0.20033
# Poissons Ratio (z) = 0.34645 0.18477
#
# Static dielectric constant tensor:
#      x y z
#    x 3.438750 0.298950 0.177730 
#    y 0.298950 3.443400 -0.253870 
#    z 0.177730 -0.253870 3.766710 
# 
# 
# High freq. dielectric constant tensor:
#      x y z
#    x 1.749300 0.027990 0.016760 
#    y 0.027990 1.736720 -0.020790 
#    z 0.016760 -0.020790 1.756490 
# 
# From -- ./inp_files/113221.got.cif
#   From: 2010.06.25/outbox.cif.g09.slc.cpg/sg2_57_cif.got.tgz:113221.got - 2010.06.27 13:26:56.
