data_PCOD8029106
_publ_section_title
;
Structure prediction by ZEFSAII (Michael W. Deem and Ramdas Pophale) SiO2 
 PCOD8029106
Probable space group: P -1
;
_chemical_formula_sum "Si O2"
_cell_formula_units_Z 16
_cell_length_a 18.356662
_cell_length_b 12.524911
_cell_length_c 12.251416
_cell_angle_alpha 100.697437
_cell_angle_beta 160.801110
_cell_angle_gamma 74.968304
_cell_volume 878.865858
_symmetry_space_group_name_H-M "P -1"
_symmetry_group_IT_number 2
_symmetry_cell_setting 'triclinic'
loop_
_space_group_symop_operation_xyz
x,y,z
-x,-y,-z
loop_
_atom_site_type_symbol
_atom_site_label
_atom_site_fract_x
_atom_site_fract_y
_atom_site_fract_z
Si Si1 0.886824 0.828252 0.747996
Si Si2 0.772159 0.625131 0.606881
Si Si3 0.111182 0.622445 0.283577
Si Si4 0.344240 0.777786 0.515835
Si Si5 0.908402 0.979940 0.249398
Si Si6 0.507272 0.828254 0.368448
Si Si7 0.293650 0.979940 0.634646
Si Si8 0.278833 0.222211 0.107239
O O1 0.864824 0.701200 0.662516
O O2 0.698708 0.877817 0.586323
O O3 0.838396 0.903733 0.586952
O O4 0.134747 0.825045 0.145854
O O5 0.529382 0.701194 0.327098
O O6 0.755811 0.504960 0.514105
O O7 0.949570 0.610324 0.954276
O O8 0.297382 0.686224 0.517569
O O9 0.956767 0.686229 0.176941
O O10 0.389567 0.882858 0.664785
O O11 0.572437 0.724084 0.756912
O O12 0.118836 0.939100 0.457222
O O13 0.778017 0.882858 0.053237
O O14 0.000000 0.000000 0.500000
O O15 0.745016 0.096269 0.996465
O O16 0.562417 0.825057 0.573528
O O17 0.500000 0.000000 0.000000
#
# Coordination Sequence:
#
# PCOD8029106 Si02
#       8
#     2   2   2   2   2   2   2   2
#     4   9  18  35  55  79 110 145 179 221 276 323
#     4   7  16  32  59  75 117 145 176 229 276 321
#     4   9  16  36  53  85 111 147 184 225 276 321
#     4  11  20  34  56  83 112 147 184 225 272 327
#     4  12  23  36  52  80 112 144 185 229 278 333
#     4   9  18  35  55  79 110 145 179 221 276 323
#     4  12  23  36  52  80 112 144 185 229 278 333
#     4  11  20  34  56  83 112 147 184 225 272 327
#
# _framework density 18.205282
#
# number of rings (size 3 to 8) (size 9 to 14) (size 15 to 20)
#    0.750    1.250    2.500    3.750    0.000    0.000 
#    0.000   11.250    0.000    3.000    0.000    3.500 
#    0.000    0.000    0.000    0.000    0.000    0.000 
#
# Total GULP energy -198257.204550 kJ/mol
# GULP energy per Si atom -12391.075284 kJ/mol
# Density = 1.816385 g / cm^3
# Si number density = 18.205282 Si / 1000 Ang^3
#
#
#
# Elastic Constant Matrix: (Units=GPa)
#
#
# Indices 1 2 3 4 5 6 
#
# 1 102.9017 38.0223 35.7674 8.4776 20.0362 0.6739
# 2 38.0223 121.3695 40.5415 9.4064 -5.0974 -9.8728
# 3 35.7674 40.5415 70.7060 9.4489 5.7617 -7.8739
# 4 8.4776 9.4064 9.4489 8.4872 -0.6610 6.5614
# 5 20.0362 -5.0974 5.7617 -0.6610 34.9052 2.3398
# 6 0.6739 -9.8728 -7.8739 6.5614 2.3398 17.6013
#
#
#
# Elastic Compliance Matrix: (Units=1/GPa)
#
#
# Indices 1 2 3 4 5 6 
#
# 1 0.014376 -0.003000 -0.004001 -0.006941 -0.008137 -0.000353
# 2 -0.003000 0.012365 -0.002012 -0.017895 0.002685 0.012464
# 3 -0.004001 -0.002012 0.027509 -0.047970 -0.005453 0.029938
# 4 -0.006941 -0.017895 -0.047970 0.318574 0.025605 -0.153392
# 5 -0.008137 0.002685 -0.005453 0.025605 0.036100 -0.014966
# 6 -0.000353 0.012464 0.029938 -0.153392 -0.014966 0.136382
#
#
# Mechanical properties :
#
#
# Convention : Reuss Voigt Hill
#
# Bulk Modulus (GPa) = 27.60519 58.18217 42.89368
# Shear Modulus (GPa) = 8.68953 24.24180 16.46566
#
# Velocity S-wave (km/s) = 2.18711 3.65304 3.01066
# Velocity P-wave (km/s) = 4.64480 7.05842 5.97476
#
# Compressibility (1/GPa) = 0.03622507
#
# Stress axis : x y z
#
# Youngs Moduli (GPa) = 69.56212 80.87647 36.35163
#
# Poissons Ratio (x) = 0.24261 0.14543
# Poissons Ratio (y) = 0.20867 0.07312
# Poissons Ratio (z) = 0.27830 0.16269
#
# Static dielectric constant tensor:
#      x y z
#    x 3.353240 0.026720 0.199510 
#    y 0.026720 3.675470 -0.079060 
#    z 0.199510 -0.079060 3.140940 
# 
# 
# High freq. dielectric constant tensor:
#      x y z
#    x 1.698270 0.000110 0.014720 
#    y 0.000110 1.698410 0.001180 
#    z 0.014720 0.001180 1.681300 
# 
# From -- ./inp_files/465092.got.cif
#   From: 2010.06.25/outbox.cif.g09.slc.cpg/sg2_233_cif.got.tgz:465092.got - 2010.06.27 13:26:56.
