data_PCOD8029885
_publ_section_title
;
Structure prediction by ZEFSAII (Michael W. Deem and Ramdas Pophale) SiO2 
 PCOD8029885
Probable space group: P -1
;
_chemical_formula_sum "Si O2"
_cell_formula_units_Z 14
_cell_length_a 20.952995
_cell_length_b 21.129050
_cell_length_c 12.491468
_cell_angle_alpha 21.384630
_cell_angle_beta 27.524266
_cell_angle_gamma 18.258120
_cell_volume 631.595646
_symmetry_space_group_name_H-M "P -1"
_symmetry_group_IT_number 2
_symmetry_cell_setting 'triclinic'
loop_
_space_group_symop_operation_xyz
x,y,z
-x,-y,-z
loop_
_atom_site_type_symbol
_atom_site_label
_atom_site_fract_x
_atom_site_fract_y
_atom_site_fract_z
Si Si1 0.406550 0.488732 0.897413
Si Si2 0.976809 0.794900 0.996576
Si Si3 0.952734 0.288318 0.544957
Si Si4 0.769817 0.337535 0.513955
Si Si5 0.916996 0.496682 0.896931
Si Si6 0.316926 0.071049 0.604769
Si Si7 0.278887 0.727295 0.927540
O O1 0.530532 0.503840 0.610516
O O2 0.226380 0.549048 0.010694
O O3 0.279949 0.708834 0.827467
O O4 0.584548 0.207459 0.130352
O O5 0.902646 0.061445 0.696819
O O6 0.875047 0.773403 0.274535
O O7 0.928713 0.751226 0.021224
O O8 0.839394 0.324013 0.551661
O O9 0.854180 0.302732 0.776350
O O10 0.951819 0.498394 0.227130
O O11 0.184924 0.003995 0.650503
O O12 0.786121 0.488476 0.176932
O O13 0.758915 0.766177 0.645118
O O14 0.500000 0.000000 0.500000
O O15 0.500000 0.500000 0.000000
#
# Coordination Sequence:
#
# PCOD8029885 Si02
#       7
#     2   2   2   2   2   2   2
#     4  11  22  43  71  93 132 174 222 271 326 391
#     4  11  24  46  70  93 133 177 219 270 332 387
#     4  11  24  41  67  98 132 170 224 269 323 395
#     4  11  25  46  65  98 135 178 218 265 330 407
#     4  12  25  44  67  99 138 170 216 279 333 382
#     4  11  24  42  67 103 130 167 226 280 320 388
#     4  11  21  40  69  95 125 174 221 269 326 381
#
# _framework density 22.166080000000001
#
# number of rings (size 3 to 8) (size 9 to 14) (size 15 to 20)
#    0.000    0.857    4.286    3.000    6.000    0.571 
#    2.571    0.714    0.000    0.000    0.000    0.000 
#    0.000    0.000    0.000    0.000    0.000    0.000 
#
# Total GULP energy -173546.096480 kJ/mol
# GULP energy per Si atom -12396.149749 kJ/mol
# Density = 2.211563 g / cm^3
# Si number density = 22.166080 Si / 1000 Ang^3
#
#
#
# Elastic Constant Matrix: (Units=GPa)
#
#
# Indices 1 2 3 4 5 6 
#
# 1 86.6608 42.2872 33.4916 1.2475 -24.8567 12.7361
# 2 42.2872 143.2764 53.1805 13.5271 -9.1053 7.9643
# 3 33.4916 53.1805 125.9201 23.8430 -7.5455 12.7786
# 4 1.2475 13.5271 23.8430 27.0532 7.5266 -2.7255
# 5 -24.8567 -9.1053 -7.5455 7.5266 31.1835 -0.6979
# 6 12.7361 7.9643 12.7786 -2.7255 -0.6979 37.6625
#
#
#
# Elastic Compliance Matrix: (Units=1/GPa)
#
#
# Indices 1 2 3 4 5 6 
#
# 1 0.018619 -0.003512 -0.001820 -0.001796 0.013702 -0.004812
# 2 -0.003512 0.009145 -0.002538 -0.002113 -0.000234 -0.000042
# 3 -0.001820 -0.002538 0.012049 -0.010518 0.003181 -0.003638
# 4 -0.001796 -0.002113 -0.010518 0.052978 -0.017198 0.008138
# 5 0.013702 -0.000234 0.003181 -0.017198 0.047707 -0.006024
# 6 -0.004812 -0.000042 -0.003638 0.008138 -0.006024 0.029900
#
#
# Mechanical properties :
#
#
# Convention : Reuss Voigt Hill
#
# Bulk Modulus (GPa) = 41.53850 68.19729 54.86790
# Shear Modulus (GPa) = 25.75173 34.30637 30.02905
#
# Velocity S-wave (km/s) = 3.41216 3.93835 3.68466
# Velocity P-wave (km/s) = 5.85697 7.17733 6.55050
#
# Compressibility (1/GPa) = 0.02407405
#
# Stress axis : x y z
#
# Youngs Moduli (GPa) = 53.70751 109.34880 82.99703
#
# Poissons Ratio (x) = 0.38406 0.15102
# Poissons Ratio (y) = 0.18863 0.21062
# Poissons Ratio (z) = 0.09772 0.27749
#
# Static dielectric constant tensor:
#      x y z
#    x 3.876090 -0.125470 -0.169580 
#    y -0.125470 4.012530 0.051230 
#    z -0.169580 0.051230 3.954420 
# 
# 
# High freq. dielectric constant tensor:
#      x y z
#    x 1.877570 0.010780 -0.017730 
#    y 0.010780 1.877150 0.005240 
#    z -0.017730 0.005240 1.863460 
# 
# From -- ./inp_files/75270.got.cif
#   From: 2010.06.25/outbox.cif.g09.slc.cpg/sg2_38_cif.got.tgz:75270.got - 2010.06.27 13:26:56.
