data_PCOD8029204
_publ_section_title
;
Structure prediction by ZEFSAII (Michael W. Deem and Ramdas Pophale) SiO2 
 PCOD8029204
Probable space group: P -1
;
_chemical_formula_sum "Si O2"
_cell_formula_units_Z 14
_cell_length_a 10.394725
_cell_length_b 10.904909
_cell_length_c 9.924700
_cell_angle_alpha 66.378413
_cell_angle_beta 137.962850
_cell_angle_gamma 98.359066
_cell_volume 668.611923
_symmetry_space_group_name_H-M "P -1"
_symmetry_group_IT_number 2
_symmetry_cell_setting 'triclinic'
loop_
_space_group_symop_operation_xyz
x,y,z
-x,-y,-z
loop_
_atom_site_type_symbol
_atom_site_label
_atom_site_fract_x
_atom_site_fract_y
_atom_site_fract_z
Si Si1 0.676994 0.424722 0.077866
Si Si2 0.780716 0.097072 0.311640
Si Si3 0.567043 0.957290 0.420718
Si Si4 0.315118 0.861698 0.066133
Si Si5 0.981957 0.488723 0.776125
Si Si6 0.457552 0.432787 0.634661
Si Si7 0.948264 0.729322 0.857077
O O1 0.765711 0.260872 0.242871
O O2 0.850866 0.503044 0.207322
O O3 0.500000 0.500000 0.000000
O O4 0.600488 0.461763 0.849508
O O5 0.677519 0.057819 0.382712
O O6 0.667024 0.073809 0.096150
O O7 0.000000 0.000000 0.500000
O O8 0.364015 0.958287 0.180436
O O9 0.723816 0.810779 0.620243
O O10 0.500000 0.000000 0.500000
O O11 0.497907 0.729438 0.282505
O O12 0.099974 0.828487 0.926184
O O13 0.771940 0.512020 0.528061
O O14 0.999182 0.609855 0.839196
O O15 0.031144 0.339062 0.949451
O O16 0.500000 0.500000 0.500000
#
# Coordination Sequence:
#
# PCOD8029204 Si02
#       7
#     2   2   2   2   2   2   2
#     4  11  26  42  64  99 136 169 214 281 336 376
#     4  11  23  48  67  94 132 181 225 263 324 412
#     4  12  27  42  67  97 131 171 220 283 334 378
#     4  11  22  41  68  95 126 175 228 262 324 404
#     4  11  20  38  68  95 130 168 215 270 320 399
#     4  11  20  37  67  97 122 170 221 259 320 400
#     4  11  21  39  66 100 126 166 222 267 322 398
#
# _framework density 20.938903
#
# number of rings (size 3 to 8) (size 9 to 14) (size 15 to 20)
#    0.000    0.857    7.143    1.286    2.000    1.143 
#    0.000    0.000    0.000    0.000    0.000    0.000 
#    0.000    0.000    0.000    0.000    0.000    0.000 
#
# Total GULP energy -173476.417209 kJ/mol
# GULP energy per Si atom -12391.172658 kJ/mol
# Density = 2.089124 g / cm^3
# Si number density = 20.938903 Si / 1000 Ang^3
#
#
#
# Elastic Constant Matrix: (Units=GPa)
#
#
# Indices 1 2 3 4 5 6 
#
# 1 144.6489 35.2720 53.2733 -5.5765 -1.1019 11.1202
# 2 35.2720 44.2748 33.0227 -2.4183 -1.9341 6.5041
# 3 53.2733 33.0227 124.0312 -13.6176 0.2249 7.3500
# 4 -5.5765 -2.4183 -13.6176 31.9269 4.4599 2.2682
# 5 -1.1019 -1.9341 0.2249 4.4599 42.9599 4.5599
# 6 11.1202 6.5041 7.3500 2.2682 4.5599 29.0473
#
#
#
# Elastic Compliance Matrix: (Units=1/GPa)
#
#
# Indices 1 2 3 4 5 6 
#
# 1 0.009242 -0.005263 -0.002432 0.000282 0.000174 -0.001794
# 2 -0.005263 0.031938 -0.006144 -0.001110 0.001852 -0.003786
# 3 -0.002432 -0.006144 0.011233 0.004057 -0.000741 -0.000736
# 4 0.000282 -0.001110 0.004057 0.033683 -0.003242 -0.003007
# 5 0.000174 0.001852 -0.000741 -0.003242 0.024112 -0.003826
# 6 -0.001794 -0.003786 -0.000736 -0.003007 -0.003826 0.036983
#
#
# Mechanical properties :
#
#
# Convention : Reuss Voigt Hill
#
# Bulk Modulus (GPa) = 40.42570 61.78787 51.10678
# Shear Modulus (GPa) = 27.30558 33.54595 30.42577
#
# Velocity S-wave (km/s) = 3.61509 4.00695 3.81606
# Velocity P-wave (km/s) = 6.06413 7.14005 6.62397
#
# Compressibility (1/GPa) = 0.02473674
#
# Stress axis : x y z
#
# Youngs Moduli (GPa) = 108.19904 31.31101 89.02347
#
# Poissons Ratio (x) = 0.16478 0.21647
# Poissons Ratio (y) = 0.56943 0.54693
# Poissons Ratio (z) = 0.26309 0.19236
#
# Static dielectric constant tensor:
#      x y z
#    x 4.068330 0.210320 0.190670 
#    y 0.210320 3.924420 0.198750 
#    z 0.190670 0.198750 4.285030 
# 
# 
# High freq. dielectric constant tensor:
#      x y z
#    x 1.818490 0.021300 0.005780 
#    y 0.021300 1.794580 -0.007580 
#    z 0.005780 -0.007580 1.842520 
# 
# From -- ./inp_files/185468.got.cif
#   From: 2010.06.25/outbox.cif.g09.slc.cpg/sg2_93_cif.got.tgz:185468.got - 2010.06.27 13:26:56.
