data_PCOD8029840
_publ_section_title
;
Structure prediction by ZEFSAII (Michael W. Deem and Ramdas Pophale) SiO2 
 PCOD8029840
Probable space group: P -1
;
_chemical_formula_sum "Si O2"
_cell_formula_units_Z 16
_cell_length_a 17.329007
_cell_length_b 9.298264
_cell_length_c 10.082879
_cell_angle_alpha 40.859979
_cell_angle_beta 129.452883
_cell_angle_gamma 113.875643
_cell_volume 811.388342
_symmetry_space_group_name_H-M "P -1"
_symmetry_group_IT_number 2
_symmetry_cell_setting 'triclinic'
loop_
_space_group_symop_operation_xyz
x,y,z
-x,-y,-z
loop_
_atom_site_type_symbol
_atom_site_label
_atom_site_fract_x
_atom_site_fract_y
_atom_site_fract_z
Si Si1 0.411784 0.916659 0.266941
Si Si2 0.261368 0.656832 0.126207
Si Si3 0.909984 0.512342 0.785733
Si Si4 0.078340 0.916809 0.030449
Si Si5 0.394212 0.412315 0.961097
Si Si6 0.092898 0.039592 0.660360
Si Si7 0.295802 0.858994 0.433673
Si Si8 0.635350 0.732439 0.673686
O O1 0.346327 0.779301 0.199876
O O2 0.389421 0.867982 0.429764
O O3 0.527330 0.819698 0.429631
O O4 0.391735 0.184974 0.031589
O O5 0.197445 0.533873 0.244844
O O6 0.308504 0.474912 0.200736
O O7 0.182583 0.852037 0.839592
O O8 0.879051 0.728747 0.515036
O O9 0.949539 0.326181 0.852304
O O10 0.000000 0.500000 0.000000
O O11 0.068689 0.044038 0.788784
O O12 0.191601 0.918089 0.201472
O O13 0.000000 0.000000 0.000000
O O14 0.306737 0.612314 0.680483
O O15 0.500000 0.500000 0.000000
O O16 0.373369 0.360188 0.125119
O O17 0.000000 0.000000 0.500000
O O18 0.302069 0.057555 0.408141
#
# Coordination Sequence:
#
# PCOD8029840 Si02
#       8
#     2   2   2   2   2   2   2   2
#     4  11  21  43  64  92 132 172 220 268 323 398
#     4  11  25  41  64 101 130 173 222 274 330 383
#     4  11  23  45  68  88 133 180 215 270 335 397
#     4  11  26  42  67 105 132 166 227 283 325 391
#     4  11  21  40  66  91 127 180 215 262 338 392
#     4  11  23  45  70  93 132 181 221 264 340 401
#     4  11  22  42  64  93 132 172 216 267 335 386
#     4  11  24  39  66  94 134 171 219 276 321 400
#
# _framework density 19.719287999999999
#
# number of rings (size 3 to 8) (size 9 to 14) (size 15 to 20)
#    0.000    1.000    7.500    1.125    3.500    2.500 
#    0.000    0.625    0.000    0.000    0.000    0.000 
#    0.000    0.000    0.000    0.000    0.000    0.000 
#
# Total GULP energy -198281.379607 kJ/mol
# GULP energy per Si atom -12392.586225 kJ/mol
# Density = 1.967441 g / cm^3
# Si number density = 19.719288 Si / 1000 Ang^3
#
#
#
# Elastic Constant Matrix: (Units=GPa)
#
#
# Indices 1 2 3 4 5 6 
#
# 1 88.0743 64.6581 59.2315 -7.6955 11.3606 -12.7160
# 2 64.6581 172.6456 76.9854 -11.6945 9.2492 -5.8552
# 3 59.2315 76.9854 150.3161 -17.3144 1.0449 3.3379
# 4 -7.6955 -11.6945 -17.3144 45.4455 12.7820 5.1983
# 5 11.3606 9.2492 1.0449 12.7820 22.1194 -5.6783
# 6 -12.7160 -5.8552 3.3379 5.1983 -5.6783 40.3880
#
#
#
# Elastic Compliance Matrix: (Units=1/GPa)
#
#
# Indices 1 2 3 4 5 6 
#
# 1 0.020207 -0.004358 -0.005557 0.001937 -0.008183 0.004790
# 2 -0.004358 0.008769 -0.002623 0.001129 -0.002038 -0.000316
# 3 -0.005557 -0.002623 0.010522 0.002395 0.001266 -0.003130
# 4 0.001937 0.001129 0.002395 0.030008 -0.020504 -0.006169
# 5 -0.008183 -0.002038 0.001266 -0.020504 0.064287 0.008701
# 6 0.004790 -0.000316 -0.003130 -0.006169 0.008701 0.028498
#
#
# Mechanical properties :
#
#
# Convention : Reuss Voigt Hill
#
# Bulk Modulus (GPa) = 69.33417 90.30956 79.82186
# Shear Modulus (GPa) = 26.01842 35.60133 30.80987
#
# Velocity S-wave (km/s) = 3.63635 4.25362 3.95704
# Velocity P-wave (km/s) = 7.27101 8.36788 7.83865
#
# Compressibility (1/GPa) = 0.01442290
#
# Stress axis : x y z
#
# Youngs Moduli (GPa) = 49.48888 114.04340 95.03890
#
# Poissons Ratio (x) = 0.49697 0.52812
# Poissons Ratio (y) = 0.21566 0.24925
# Poissons Ratio (z) = 0.27500 0.29909
#
# Static dielectric constant tensor:
#      x y z
#    x 3.660550 0.105500 0.010930 
#    y 0.105500 4.282020 -0.388950 
#    z 0.010930 -0.388950 3.778000 
# 
# 
# High freq. dielectric constant tensor:
#      x y z
#    x 1.756340 0.013370 0.010140 
#    y 0.013370 1.790140 -0.007460 
#    z 0.010140 -0.007460 1.774450 
# 
# From -- ./inp_files/328506.got.cif
#   From: 2010.06.25/outbox.cif.g09.slc.cpg/sg2_165_cif.got.tgz:328506.got - 2010.06.27 13:26:56.
