data_PCOD8029795
_publ_section_title
;
Structure prediction by ZEFSAII (Michael W. Deem and Ramdas Pophale) SiO2 
 PCOD8029795
Probable space group: P -1
;
_chemical_formula_sum "Si O2"
_cell_formula_units_Z 14
_cell_length_a 8.968396
_cell_length_b 21.373870
_cell_length_c 8.327104
_cell_angle_alpha 32.250762
_cell_angle_beta 111.953868
_cell_angle_gamma 125.307935
_cell_volume 670.452792
_symmetry_space_group_name_H-M "P -1"
_symmetry_group_IT_number 2
_symmetry_cell_setting 'triclinic'
loop_
_space_group_symop_operation_xyz
x,y,z
-x,-y,-z
loop_
_atom_site_type_symbol
_atom_site_label
_atom_site_fract_x
_atom_site_fract_y
_atom_site_fract_z
Si Si1 0.339654 0.645362 0.434201
Si Si2 0.552327 0.148629 0.253424
Si Si3 0.796977 0.862199 0.692580
Si Si4 0.387127 0.138162 0.700045
Si Si5 0.270177 0.852619 0.360612
Si Si6 0.986220 0.408529 0.341973
Si Si7 0.705163 0.566815 0.366356
O O1 0.532468 0.731146 0.430953
O O2 0.158568 0.598270 0.571537
O O3 0.316567 0.507073 0.652344
O O4 0.347731 0.743759 0.082599
O O5 0.362067 0.138957 0.258726
O O6 0.713129 0.198845 0.345534
O O7 0.500000 0.000000 0.500000
O O8 0.743603 0.850991 0.508197
O O9 0.810862 0.730616 0.027338
O O10 0.000000 0.000000 0.500000
O O11 0.558066 0.132662 0.704465
O O12 0.269038 0.993873 0.063681
O O13 0.078785 0.740758 0.435736
O O14 0.184204 0.468378 0.381935
O O15 0.000000 0.500000 0.000000
O O16 0.500000 0.500000 0.500000
#
# Coordination Sequence:
#
# PCOD8029795 Si02
#       7
#     2   2   2   2   2   2   2
#     4  11  23  43  69  98 132 179 233 276 336 411
#     4  11  21  39  70 101 132 174 226 279 336 400
#     4  11  25  44  66  96 139 180 223 277 346 400
#     4   9  19  37  63  94 123 174 219 271 328 390
#     4   9  18  36  64  91 129 164 222 278 319 382
#     4  11  25  44  69  97 130 180 238 277 330 409
#     4  12  26  45  66  99 147 178 216 285 354 403
#
# _framework density 20.881411
#
# number of rings (size 3 to 8) (size 9 to 14) (size 15 to 20)
#    0.000    1.429    2.857    2.143    8.000    0.571 
#    0.000    0.714    0.000    0.000    0.000    0.000 
#    0.000    0.000    0.000    0.000    0.000    0.000 
#
# Total GULP energy -173590.481770 kJ/mol
# GULP energy per Si atom -12399.320126 kJ/mol
# Density = 2.083388 g / cm^3
# Si number density = 20.881411 Si / 1000 Ang^3
#
#
#
# Elastic Constant Matrix: (Units=GPa)
#
#
# Indices 1 2 3 4 5 6 
#
# 1 90.3342 59.5711 49.3150 1.1322 -9.3499 -5.8749
# 2 59.5711 175.7606 60.0806 -1.8218 2.9722 0.5846
# 3 49.3150 60.0806 142.6154 1.5765 -6.1906 -6.9439
# 4 1.1322 -1.8218 1.5765 45.5031 -7.8092 1.2390
# 5 -9.3499 2.9722 -6.1906 -7.8092 32.6822 -1.7315
# 6 -5.8749 0.5846 -6.9439 1.2390 -1.7315 32.5644
#
#
#
# Elastic Compliance Matrix: (Units=1/GPa)
#
#
# Indices 1 2 3 4 5 6 
#
# 1 0.016618 -0.004515 -0.003518 0.000264 0.004698 0.002569
# 2 -0.004515 0.007939 -0.001964 0.000121 -0.002437 -0.001510
# 3 -0.003518 -0.001964 0.009167 -0.000186 0.000939 0.001412
# 4 0.000264 0.000121 -0.000186 0.022937 0.005479 -0.000576
# 5 0.004698 -0.002437 0.000939 0.005479 0.033792 0.002680
# 6 0.002569 -0.001510 0.001412 -0.000576 0.002680 0.031664
#
#
# Mechanical properties :
#
#
# Convention : Reuss Voigt Hill
#
# Bulk Modulus (GPa) = 72.83328 82.96039 77.89684
# Shear Modulus (GPa) = 34.08582 38.13284 36.10933
#
# Velocity S-wave (km/s) = 4.04462 4.27800 4.16295
# Velocity P-wave (km/s) = 7.53440 8.01357 7.77767
#
# Compressibility (1/GPa) = 0.01372999
#
# Stress axis : x y z
#
# Youngs Moduli (GPa) = 60.17555 125.96695 109.08351
#
# Poissons Ratio (x) = 0.56874 0.38378
# Poissons Ratio (y) = 0.27169 0.21421
# Poissons Ratio (z) = 0.21171 0.24737
#
# Static dielectric constant tensor:
#      x y z
#    x 3.592290 -0.028280 0.116380 
#    y -0.028280 4.491840 0.083230 
#    z 0.116380 0.083230 4.420210 
# 
# 
# High freq. dielectric constant tensor:
#      x y z
#    x 1.787340 -0.006530 -0.007760 
#    y -0.006530 1.842140 -0.004750 
#    z -0.007760 -0.004750 1.828380 
# 
# From -- ./inp_files/222901.got.cif
#   From: 2010.06.25/outbox.cif.g09.slc.cpg/sg2_112_cif.got.tgz:222901.got - 2010.06.27 13:26:56.
