data_PCOD8029654
_publ_section_title
;
Structure prediction by ZEFSAII (Michael W. Deem and Ramdas Pophale) SiO2 
 PCOD8029654
Probable space group: P -1
;
_chemical_formula_sum "Si O2"
_cell_formula_units_Z 16
_cell_length_a 15.758313
_cell_length_b 9.576048
_cell_length_c 24.533961
_cell_angle_alpha 47.969123
_cell_angle_beta 150.498151
_cell_angle_gamma 152.363247
_cell_volume 757.617039
_symmetry_space_group_name_H-M "P -1"
_symmetry_group_IT_number 2
_symmetry_cell_setting 'triclinic'
loop_
_space_group_symop_operation_xyz
x,y,z
-x,-y,-z
loop_
_atom_site_type_symbol
_atom_site_label
_atom_site_fract_x
_atom_site_fract_y
_atom_site_fract_z
Si Si1 0.558421 0.117273 0.440599
Si Si2 0.116128 0.225782 0.955789
Si Si3 0.764569 0.790757 0.768691
Si Si4 0.185719 0.034305 0.635908
Si Si5 0.758677 0.281940 0.737136
Si Si6 0.206318 0.268164 0.793172
Si Si7 0.142958 0.230295 0.363880
Si Si8 0.768087 0.285390 0.323947
O O1 0.477504 0.260264 0.351734
O O2 0.911421 0.412244 0.543638
O O3 0.500000 0.000000 0.500000
O O4 0.361919 0.819450 0.365988
O O5 0.006266 0.341697 0.867914
O O6 0.483786 0.572191 0.070319
O O7 0.990780 0.004388 0.890660
O O8 0.000000 0.000000 0.000000
O O9 0.546912 0.411473 0.746271
O O10 0.967567 0.977021 0.779728
O O11 0.190204 0.823303 0.673590
O O12 0.000000 0.000000 0.500000
O O13 0.011602 0.887648 0.633554
O O14 0.900081 0.617372 0.735708
O O15 0.489868 0.011409 0.700890
O O16 0.300268 0.570440 0.776716
O O17 0.044283 0.098674 0.687903
O O18 0.500000 0.500000 0.500000
#
# Coordination Sequence:
#
# PCOD8029654 Si02
#       8
#     2   2   2   2   2   2   2   2
#     4  11  21  37  65 100 137 173 222 284 352 420
#     4  11  24  47  72  98 138 185 245 287 332 407
#     4  11  24  42  69  99 136 182 225 287 348 406
#     4  12  25  43  66 103 144 178 221 286 350 417
#     4  11  25  42  69  99 138 186 232 283 350 407
#     4  12  25  45  72  98 138 187 232 288 341 409
#     4  12  27  45  70 106 144 179 227 287 358 420
#     4  12  23  40  69 100 138 178 228 278 356 410
#
# _framework density 21.118849000000001
#
# number of rings (size 3 to 8) (size 9 to 14) (size 15 to 20)
#    0.000    0.500    3.750    5.250    3.500    0.500 
#    0.000    0.625    0.000    0.000    0.000    0.000 
#    0.000    0.000    0.000    0.000    0.000    0.000 
#
# Total GULP energy -198451.146232 kJ/mol
# GULP energy per Si atom -12403.196639 kJ/mol
# Density = 2.107078 g / cm^3
# Si number density = 21.118849 Si / 1000 Ang^3
#
#
#
# Elastic Constant Matrix: (Units=GPa)
#
#
# Indices 1 2 3 4 5 6 
#
# 1 142.3944 51.7455 46.4134 -3.9122 2.3543 13.4256
# 2 51.7455 117.7421 36.4279 -3.9055 5.8038 6.4141
# 3 46.4134 36.4279 114.2626 6.1487 4.5545 2.9018
# 4 -3.9122 -3.9055 6.1487 28.1943 2.0812 5.9531
# 5 2.3543 5.8038 4.5545 2.0812 33.9030 5.4296
# 6 13.4256 6.4141 2.9018 5.9531 5.4296 45.5086
#
#
#
# Elastic Compliance Matrix: (Units=1/GPa)
#
#
# Indices 1 2 3 4 5 6 
#
# 1 0.009349 -0.003039 -0.002894 0.001989 0.000533 -0.002469
# 2 -0.003039 0.010660 -0.002191 0.001744 -0.001341 -0.000534
# 3 -0.002894 -0.002191 0.010807 -0.003210 -0.000838 0.000993
# 4 0.001989 0.001744 -0.003210 0.037938 -0.001467 -0.005416
# 5 0.000533 -0.001341 -0.000838 -0.001467 0.030428 -0.003353
# 6 -0.002469 -0.000534 0.000993 -0.005416 -0.003353 0.023823
#
#
# Mechanical properties :
#
#
# Convention : Reuss Voigt Hill
#
# Bulk Modulus (GPa) = 68.64742 71.50807 70.07775
# Shear Modulus (GPa) = 34.69614 37.50867 36.10240
#
# Velocity S-wave (km/s) = 4.05767 4.21892 4.13908
# Velocity P-wave (km/s) = 7.38436 7.59380 7.48981
#
# Compressibility (1/GPa) = 0.01456719
#
# Stress axis : x y z
#
# Youngs Moduli (GPa) = 106.96098 93.81180 92.53456
#
# Poissons Ratio (x) = 0.28510 0.26783
# Poissons Ratio (y) = 0.32507 0.20272
# Poissons Ratio (z) = 0.30958 0.20552
#
# Static dielectric constant tensor:
#      x y z
#    x 4.468240 -0.294950 -0.602570 
#    y -0.294950 4.069360 0.300960 
#    z -0.602570 0.300960 4.779890 
# 
# 
# High freq. dielectric constant tensor:
#      x y z
#    x 1.843750 0.002630 0.007890 
#    y 0.002630 1.836850 0.003670 
#    z 0.007890 0.003670 1.822020 
# 
# From -- ./inp_files/225506.got.cif
#   From: 2010.06.25/outbox.cif.g09.slc.cpg/sg2_113_cif.got.tgz:225506.got - 2010.06.27 13:26:56.
