data_PCOD8029643
_publ_section_title
;
Structure prediction by ZEFSAII (Michael W. Deem and Ramdas Pophale) SiO2 
 PCOD8029643
Probable space group: P -1
;
_chemical_formula_sum "Si O2"
_cell_formula_units_Z 12
_cell_length_a 11.368972
_cell_length_b 8.760573
_cell_length_c 9.919371
_cell_angle_alpha 105.184530
_cell_angle_beta 126.947773
_cell_angle_gamma 42.465089
_cell_volume 502.003852
_symmetry_space_group_name_H-M "P -1"
_symmetry_group_IT_number 2
_symmetry_cell_setting 'triclinic'
loop_
_space_group_symop_operation_xyz
x,y,z
-x,-y,-z
loop_
_atom_site_type_symbol
_atom_site_label
_atom_site_fract_x
_atom_site_fract_y
_atom_site_fract_z
Si Si1 0.994781 0.773083 0.742597
Si Si2 0.585399 0.997329 0.198792
Si Si3 0.333584 0.222372 0.537745
Si Si4 0.842753 0.476897 0.921366
Si Si5 0.919459 0.269305 0.497186
Si Si6 0.240962 0.737381 0.366910
O O1 0.895329 0.689685 0.603519
O O2 0.140254 0.711601 0.697951
O O3 0.808015 0.061329 0.702811
O O4 0.122460 0.633532 0.935107
O O5 0.415951 0.266164 0.200695
O O6 0.573486 0.861224 0.264844
O O7 0.829746 0.874993 0.333219
O O8 0.500000 0.000000 0.000000
O O9 0.265652 0.455403 0.508089
O O10 0.500000 0.000000 0.500000
O O11 0.885332 0.307095 0.801558
O O12 0.000000 0.500000 0.000000
O O13 0.865101 0.160847 0.530114
O O14 0.500000 0.500000 0.500000
#
# Coordination Sequence:
#
# PCOD8029643 Si02
#       6
#     2   2   2   2   2   2
#     4  11  23  41  63  94 131 169 214 270 325 384
#     4  11  21  37  63  95 127 166 215 270 318 373
#     4  11  21  38  64  93 126 169 217 266 319 384
#     4  12  25  44  68  97 132 174 221 267 319 390
#     4  11  23  42  65  95 131 173 219 268 323 391
#     4  12  25  44  67  96 132 173 216 271 332 386
#
# _framework density 23.904201
#
# number of rings (size 3 to 8) (size 9 to 14) (size 15 to 20)
#    0.000    0.667    0.000   12.000    0.000    0.000 
#    0.000    6.667    0.000    0.000    0.000    0.000 
#    0.000    0.000    0.000    0.000    0.000    0.000 
#
# Total GULP energy -148737.313989 kJ/mol
# GULP energy per Si atom -12394.776166 kJ/mol
# Density = 2.384979 g / cm^3
# Si number density = 23.904201 Si / 1000 Ang^3
#
#
#
# Elastic Constant Matrix: (Units=GPa)
#
#
# Indices 1 2 3 4 5 6 
#
# 1 89.4716 8.2658 44.9670 -11.4848 -24.1402 -6.3458
# 2 8.2658 76.2168 9.0023 -22.7373 1.3252 -2.4850
# 3 44.9670 9.0023 128.0615 -3.8946 -27.0390 -3.4122
# 4 -11.4848 -22.7373 -3.8946 50.1643 1.7650 -2.6450
# 5 -24.1402 1.3252 -27.0390 1.7650 37.6813 0.7881
# 6 -6.3458 -2.4850 -3.4122 -2.6450 0.7881 45.7073
#
#
#
# Elastic Compliance Matrix: (Units=1/GPa)
#
#
# Indices 1 2 3 4 5 6 
#
# 1 0.015541 -0.000427 -0.003794 0.002921 0.007072 0.001898
# 2 -0.000427 0.015440 -0.001108 0.006943 -0.001961 0.001133
# 3 -0.003794 -0.001108 0.010253 -0.000748 0.005000 0.000049
# 4 0.002921 0.006943 -0.000748 0.023806 -0.000069 0.002106
# 5 0.007072 -0.001961 0.005000 -0.000069 0.034715 0.000646
# 6 0.001898 0.001133 0.000049 0.002106 0.000646 0.022318
#
#
# Mechanical properties :
#
#
# Convention : Reuss Voigt Hill
#
# Bulk Modulus (GPa) = 32.70608 46.46889 39.58749
# Shear Modulus (GPa) = 34.98388 42.14490 38.56439
#
# Velocity S-wave (km/s) = 3.82973 4.20345 4.02093
# Velocity P-wave (km/s) = 5.76781 6.56053 6.17690
#
# Compressibility (1/GPa) = 0.03057535
#
# Stress axis : x y z
#
# Youngs Moduli (GPa) = 64.34675 64.76673 97.53118
#
# Poissons Ratio (x) = 0.02765 0.37007
# Poissons Ratio (y) = 0.02747 0.10807
# Poissons Ratio (z) = 0.24415 0.07177
#
# Static dielectric constant tensor:
#      x y z
#    x 4.507630 0.122990 -0.476160 
#    y 0.122990 4.689420 -0.051570 
#    z -0.476160 -0.051570 4.496880 
# 
# 
# High freq. dielectric constant tensor:
#      x y z
#    x 1.941720 0.001970 -0.031840 
#    y 0.001970 1.976230 -0.004980 
#    z -0.031840 -0.004980 1.944930 
# 
# From -- ./inp_files/181516.got.cif
#   From: 2010.06.25/outbox.cif.g09.slc.cpg/sg2_91_cif.got.tgz:181516.got - 2010.06.27 13:26:56.
