data_PCOD8029509
_publ_section_title
;
Structure prediction by ZEFSAII (Michael W. Deem and Ramdas Pophale) SiO2 
 PCOD8029509
Probable space group: P -1
;
_chemical_formula_sum "Si O2"
_cell_formula_units_Z 16
_cell_length_a 12.442529
_cell_length_b 16.174996
_cell_length_c 9.590451
_cell_angle_alpha 144.052646
_cell_angle_beta 133.777451
_cell_angle_gamma 47.375846
_cell_volume 786.287398
_symmetry_space_group_name_H-M "P -1"
_symmetry_group_IT_number 2
_symmetry_cell_setting 'triclinic'
loop_
_space_group_symop_operation_xyz
x,y,z
-x,-y,-z
loop_
_atom_site_type_symbol
_atom_site_label
_atom_site_fract_x
_atom_site_fract_y
_atom_site_fract_z
Si Si1 0.959411 0.452795 0.245962
Si Si2 0.250516 0.756571 0.163476
Si Si3 0.556327 0.331780 0.535946
Si Si4 0.229348 0.710379 0.580823
Si Si5 0.230906 0.382257 0.190980
Si Si6 0.230783 0.278543 0.734915
Si Si7 0.937602 0.952229 0.735720
Si Si8 0.455207 0.672298 0.964468
O O1 0.887597 0.596359 0.287321
O O2 0.000000 0.500000 0.500000
O O3 0.110619 0.358387 0.167696
O O4 0.838690 0.357950 0.020623
O O5 0.382526 0.766980 0.407822
O O6 0.126599 0.911134 0.237424
O O7 0.342540 0.697811 0.027580
O O8 0.704106 0.292020 0.515375
O O9 0.403497 0.301195 0.291444
O O10 0.524694 0.500858 0.773735
O O11 0.203625 0.555356 0.386789
O O12 0.353013 0.748339 0.846561
O O13 0.070198 0.835857 0.612707
O O14 0.209775 0.313337 0.928826
O O15 0.197917 0.124213 0.459908
O O16 0.403525 0.256245 0.801751
O O17 0.000000 0.000000 0.000000
#
# Coordination Sequence:
#
# PCOD8029509 Si02
#       8
#     2   2   2   2   2   2   2   2
#     4  12  24  40  66 103 137 171 225 281 328 386
#     4  12  26  43  64 100 141 180 210 271 350 392
#     4  11  22  40  68 106 132 165 223 287 341 368
#     4  11  20  43  71  95 139 172 223 276 327 396
#     4  11  22  42  70 106 127 170 232 284 323 387
#     4  12  24  43  73  98 127 178 233 274 321 398
#     4  12  27  47  64  96 140 185 219 262 340 414
#     4  11  21  42  71  98 131 174 227 275 326 392
#
# _framework density 20.348794000000002
#
# number of rings (size 3 to 8) (size 9 to 14) (size 15 to 20)
#    0.000    0.500    6.250    3.750    3.500    1.000 
#    0.000    0.625    0.000    0.000    0.000    0.000 
#    0.000    0.000    0.000    0.000    0.000    0.000 
#
# Total GULP energy -198422.973625 kJ/mol
# GULP energy per Si atom -12401.435852 kJ/mol
# Density = 2.030248 g / cm^3
# Si number density = 20.348794 Si / 1000 Ang^3
#
#
#
# Elastic Constant Matrix: (Units=GPa)
#
#
# Indices 1 2 3 4 5 6 
#
# 1 45.0382 -18.7499 23.2692 21.7498 3.0730 -20.2062
# 2 -18.7499 113.1487 34.8150 -11.0559 -7.9863 -5.8425
# 3 23.2692 34.8150 104.7450 -16.4585 4.3879 4.7276
# 4 21.7498 -11.0559 -16.4585 20.3838 -3.5880 -0.1471
# 5 3.0730 -7.9863 4.3879 -3.5880 31.1869 -1.2827
# 6 -20.2062 -5.8425 4.7276 -0.1471 -1.2827 29.6239
#
#
#
# Elastic Compliance Matrix: (Units=1/GPa)
#
#
# Indices 1 2 3 4 5 6 
#
# 1 -0.052349 -0.012282 0.028898 0.073036 0.004615 -0.042178
# 2 -0.012282 0.007724 0.003577 0.020977 0.004806 -0.007113
# 3 0.028898 0.003577 -0.003953 -0.032691 -0.004285 0.020700
# 4 0.073036 0.020977 -0.032691 -0.043429 0.000204 0.058965
# 5 0.004615 0.004806 -0.004285 0.000204 0.033724 0.006241
# 6 -0.042178 -0.007113 0.020700 0.058965 0.006241 0.000844
#
#
# Mechanical properties :
#
#
# Convention : Reuss Voigt Hill
#
# Bulk Modulus (GPa) = -122.07055 37.95563 -42.05746
# Shear Modulus (GPa) = -49.72309 31.14541 -9.28884
#
# Velocity S-wave (km/s) = -4.94858 3.91650 -2.13886
# Velocity P-wave (km/s) = 9.63175 6.25660 5.17811
#
# Compressibility (1/GPa) = -0.00819198
#
# Stress axis : x y z
#
# Youngs Moduli (GPa) = -19.10266 129.47291 -252.95726
#
# Poissons Ratio (x) = 1.59020 7.30998
# Poissons Ratio (y) = -0.23462 0.90487
# Poissons Ratio (z) = 0.55203 -0.46315
#
# Static dielectric constant tensor:
#      x y z
#    x 3.876850 -0.124250 0.021050 
#    y -0.124250 3.792350 -0.311490 
#    z 0.021050 -0.311490 3.781030 
# 
# 
# High freq. dielectric constant tensor:
#      x y z
#    x 1.810570 -0.009980 -0.002130 
#    y -0.009980 1.791350 -0.027060 
#    z -0.002130 -0.027060 1.791120 
# 
# From -- ./inp_files/186750.got.cif
#   From: 2010.06.25/outbox.cif.g09.slc.cpg/sg2_94_cif.got.tgz:186750.got - 2010.06.27 13:26:56.
