data_PCOD8029380
_publ_section_title
;
Structure prediction by ZEFSAII (Michael W. Deem and Ramdas Pophale) SiO2 
 PCOD8029380
Probable space group: P -1
;
_chemical_formula_sum "Si O2"
_cell_formula_units_Z 14
_cell_length_a 26.183778
_cell_length_b 9.342082
_cell_length_c 9.087977
_cell_angle_alpha 134.271588
_cell_angle_beta 151.418669
_cell_angle_gamma 36.391337
_cell_volume 630.669414
_symmetry_space_group_name_H-M "P -1"
_symmetry_group_IT_number 2
_symmetry_cell_setting 'triclinic'
loop_
_space_group_symop_operation_xyz
x,y,z
-x,-y,-z
loop_
_atom_site_type_symbol
_atom_site_label
_atom_site_fract_x
_atom_site_fract_y
_atom_site_fract_z
Si Si1 0.533326 0.248592 0.350308
Si Si2 0.691445 0.970103 0.286609
Si Si3 0.881870 0.012456 0.136598
Si Si4 0.544573 0.917787 0.389557
Si Si5 0.948269 0.873305 0.870894
Si Si6 0.263091 0.465016 0.765628
Si Si7 0.171531 0.381383 0.184765
O O1 0.500000 0.500000 0.500000
O O2 0.543242 0.117011 0.431461
O O3 0.662856 0.087172 0.464693
O O4 0.414779 0.293338 0.978724
O O5 0.746363 0.686447 0.235366
O O6 0.812242 0.957138 0.509820
O O7 0.561962 0.127868 0.975355
O O8 0.761149 0.286868 0.056622
O O9 0.000000 0.000000 0.500000
O O10 0.848886 0.834079 0.999776
O O11 0.914078 0.968084 0.016629
O O12 0.500000 0.000000 0.500000
O O13 0.694304 0.692526 0.606855
O O14 0.054178 0.584891 0.934049
O O15 0.000000 0.000000 0.000000
O O16 0.167966 0.499142 0.417937
#
# Coordination Sequence:
#
# PCOD8029380 Si02
#       7
#     2   2   2   2   2   2   2
#     4  11  21  40  71 102 134 178 234 276 337 413
#     4  11  22  45  69  98 139 185 227 282 337 410
#     4  12  24  41  74 102 128 186 242 270 331 418
#     4  11  24  43  68 102 136 176 222 287 350 397
#     4  12  27  45  66 101 144 178 221 289 352 398
#     4  11  20  40  74 101 128 176 240 279 325 402
#     4  12  23  47  72  99 138 180 232 285 332 412
#
# _framework density 22.198634999999999
#
# number of rings (size 3 to 8) (size 9 to 14) (size 15 to 20)
#    0.000    0.571    5.714    3.857    0.000    4.571 
#    2.571    3.571    0.000    0.000    0.000    0.000 
#    0.000    0.000    0.000    0.000    0.000    0.000 
#
# Total GULP energy -173505.523642 kJ/mol
# GULP energy per Si atom -12393.251689 kJ/mol
# Density = 2.214811 g / cm^3
# Si number density = 22.198635 Si / 1000 Ang^3
#
#
#
# Elastic Constant Matrix: (Units=GPa)
#
#
# Indices 1 2 3 4 5 6 
#
# 1 114.1902 47.3409 59.2742 -8.1616 23.8514 -3.8937
# 2 47.3409 136.0631 42.4618 2.6748 17.2757 -4.8539
# 3 59.2742 42.4618 138.1982 -17.9588 35.1981 -3.2416
# 4 -8.1616 2.6748 -17.9588 37.3328 -5.4714 6.5877
# 5 23.8514 17.2757 35.1981 -5.4714 37.7919 2.9840
# 6 -3.8937 -4.8539 -3.2416 6.5877 2.9840 22.7538
#
#
#
# Elastic Compliance Matrix: (Units=1/GPa)
#
#
# Indices 1 2 3 4 5 6 
#
# 1 0.012551 -0.002787 -0.003578 0.000495 -0.003348 0.001339
# 2 -0.002787 0.009114 -0.001491 -0.002600 -0.001570 0.002214
# 3 -0.003578 -0.001491 0.011606 0.003718 -0.007380 0.000615
# 4 0.000495 -0.002600 0.003718 0.030879 0.002613 -0.009223
# 5 -0.003348 -0.001570 -0.007380 0.002613 0.037142 -0.007587
# 6 0.001339 0.002214 0.000615 -0.009223 -0.007587 0.048403
#
#
# Mechanical properties :
#
#
# Convention : Reuss Voigt Hill
#
# Bulk Modulus (GPa) = 56.95396 76.28945 66.62170
# Shear Modulus (GPa) = 29.19543 35.53401 32.36472
#
# Velocity S-wave (km/s) = 3.63049 4.00525 3.82247
# Velocity P-wave (km/s) = 6.57922 7.47200 7.03978
#
# Compressibility (1/GPa) = 0.01755804
#
# Stress axis : x y z
#
# Youngs Moduli (GPa) = 79.67794 109.72220 86.16295
#
# Poissons Ratio (x) = 0.30579 0.30830
# Poissons Ratio (y) = 0.22206 0.12848
# Poissons Ratio (z) = 0.28510 0.16361
#
# Static dielectric constant tensor:
#      x y z
#    x 3.770000 -0.172950 0.303730 
#    y -0.172950 4.313020 -0.145270 
#    z 0.303730 -0.145270 4.998490 
# 
# 
# High freq. dielectric constant tensor:
#      x y z
#    x 1.843550 -0.012280 0.018540 
#    y -0.012280 1.876200 -0.013860 
#    z 0.018540 -0.013860 1.905070 
# 
# From -- ./inp_files/343305.got.cif
#   From: 2010.06.25/outbox.cif.g09.slc.cpg/sg2_172_cif.got.tgz:343305.got - 2010.06.27 13:26:56.
