data_PCOD8029720
_publ_section_title
;
Structure prediction by ZEFSAII (Michael W. Deem and Ramdas Pophale) SiO2 
 PCOD8029720
Probable space group: P -1
;
_chemical_formula_sum "Si O2"
_cell_formula_units_Z 14
_cell_length_a 20.630432
_cell_length_b 8.978980
_cell_length_c 5.484745
_cell_angle_alpha 106.804739
_cell_angle_beta 88.888932
_cell_angle_gamma 42.171205
_cell_volume 608.272948
_symmetry_space_group_name_H-M "P -1"
_symmetry_group_IT_number 2
_symmetry_cell_setting 'triclinic'
loop_
_space_group_symop_operation_xyz
x,y,z
-x,-y,-z
loop_
_atom_site_type_symbol
_atom_site_label
_atom_site_fract_x
_atom_site_fract_y
_atom_site_fract_z
Si Si1 0.968941 0.892824 0.561108
Si Si2 0.686255 0.323749 0.221674
Si Si3 0.168970 0.395548 0.502319
Si Si4 0.781273 0.038169 0.561405
Si Si5 0.515468 0.839683 0.619001
Si Si6 0.182683 0.661500 0.928144
Si Si7 0.669608 0.739033 0.880157
O O1 0.068719 0.593673 0.427556
O O2 0.879008 0.966616 0.462244
O O3 0.000000 0.000000 0.500000
O O4 0.916431 0.039280 0.891972
O O5 0.713167 0.166193 0.378983
O O6 0.562807 0.594228 0.374006
O O7 0.740379 0.392988 0.288165
O O8 0.718541 0.196228 0.892355
O O9 0.145453 0.565101 0.792741
O O10 0.277459 0.237136 0.293939
O O11 0.175216 0.216014 0.534224
O O12 0.595040 0.748984 0.776220
O O13 0.500000 0.000000 0.500000
O O14 0.401672 0.018819 0.824028
O O15 0.241697 0.525002 0.115271
#
# Coordination Sequence:
#
# PCOD8029720 Si02
#       7
#     2   2   2   2   2   2   2
#     4  11  22  42  71 100 132 178 237 280 328 399
#     4  11  23  46  68 100 134 178 228 280 333 407
#     4  12  24  43  64 100 140 182 220 279 344 409
#     4  11  28  44  68  99 147 183 218 276 350 407
#     4  11  21  38  71 104 126 170 233 292 333 392
#     4  11  22  41  70  99 132 176 233 285 332 396
#     4  11  22  38  68 101 135 168 228 282 346 389
#
# _framework density 23.015982999999999
#
# number of rings (size 3 to 8) (size 9 to 14) (size 15 to 20)
#    0.000    0.857    4.286    3.429    4.000    1.143 
#    0.000    5.714    0.000    0.000    0.000    0.000 
#    0.000    0.000    0.000    0.000    0.000    0.000 
#
# Total GULP energy -173485.055647 kJ/mol
# GULP energy per Si atom -12391.789689 kJ/mol
# Density = 2.296360 g / cm^3
# Si number density = 23.015983 Si / 1000 Ang^3
#
#
#
# Elastic Constant Matrix: (Units=GPa)
#
#
# Indices 1 2 3 4 5 6 
#
# 1 51.3187 5.7945 9.3795 9.1548 -12.7940 14.0493
# 2 5.7945 111.7011 16.4439 -0.4069 -9.2907 17.2715
# 3 9.3795 16.4439 72.3223 3.1278 -11.8218 -1.0059
# 4 9.1548 -0.4069 3.1278 43.6826 -2.8405 0.1974
# 5 -12.7940 -9.2907 -11.8218 -2.8405 31.2247 2.9892
# 6 14.0493 17.2715 -1.0059 0.1974 2.9892 37.2646
#
#
#
# Elastic Compliance Matrix: (Units=1/GPa)
#
#
# Indices 1 2 3 4 5 6 
#
# 1 0.026494 0.001639 -0.001922 -0.004611 0.011315 -0.011684
# 2 0.001639 0.010358 -0.002077 0.000157 0.003533 -0.005759
# 3 -0.001922 -0.002077 0.015274 -0.000447 0.004167 0.001768
# 4 -0.004611 0.000157 -0.000447 0.023886 0.000015 0.001526
# 5 0.011315 0.003533 0.004167 0.000015 0.040155 -0.009012
# 6 -0.011684 -0.005759 0.001768 0.001526 -0.009012 0.034672
#
#
# Mechanical properties :
#
#
# Convention : Reuss Voigt Hill
#
# Bulk Modulus (GPa) = 21.09441 33.17533 27.13487
# Shear Modulus (GPa) = 29.17810 36.01600 32.59705
#
# Velocity S-wave (km/s) = 3.56439 3.96008 3.76743
# Velocity P-wave (km/s) = 5.11124 5.94600 5.54436
#
# Compressibility (1/GPa) = 0.04740593
#
# Stress axis : x y z
#
# Youngs Moduli (GPa) = 37.74398 96.54249 65.47218
#
# Poissons Ratio (x) = -0.15828 0.12586
# Poissons Ratio (y) = -0.06188 0.13600
# Poissons Ratio (z) = 0.07256 0.20053
#
# Static dielectric constant tensor:
#      x y z
#    x 4.130010 -0.332970 -0.345180 
#    y -0.332970 4.453660 0.382300 
#    z -0.345180 0.382300 4.497760 
# 
# 
# High freq. dielectric constant tensor:
#      x y z
#    x 1.880360 -0.005220 -0.017380 
#    y -0.005220 1.915350 0.013240 
#    z -0.017380 0.013240 1.919060 
# 
# From -- ./inp_files/37214.got.cif
#   From: 2010.06.25/outbox.cif.g09.slc.cpg/sg2_19_cif.got.tgz:37214.got - 2010.06.27 13:26:56.
