data_PCOD8029932
_publ_section_title
;
Structure prediction by ZEFSAII (Michael W. Deem and Ramdas Pophale) SiO2 
 PCOD8029932
Probable space group: P -1
;
_chemical_formula_sum "Si O2"
_cell_formula_units_Z 14
_cell_length_a 12.730617
_cell_length_b 15.559512
_cell_length_c 11.904259
_cell_angle_alpha 140.559429
_cell_angle_beta 47.753888
_cell_angle_gamma 151.913534
_cell_volume 704.941861
_symmetry_space_group_name_H-M "P -1"
_symmetry_group_IT_number 2
_symmetry_cell_setting 'triclinic'
loop_
_space_group_symop_operation_xyz
x,y,z
-x,-y,-z
loop_
_atom_site_type_symbol
_atom_site_label
_atom_site_fract_x
_atom_site_fract_y
_atom_site_fract_z
Si Si1 0.400783 0.053034 0.558181
Si Si2 0.922714 0.245816 0.701324
Si Si3 0.253645 0.268878 0.405044
Si Si4 0.770312 0.327711 0.204588
Si Si5 0.270328 0.975833 0.149556
Si Si6 0.018675 0.134095 0.209351
Si Si7 0.814320 0.465346 0.559523
O O1 0.597796 0.295767 0.621583
O O2 0.500000 0.000000 0.500000
O O3 0.289539 0.910291 0.384069
O O4 0.225777 0.014652 0.714577
O O5 0.830372 0.169576 0.815260
O O6 0.080030 0.232571 0.559051
O O7 0.051138 0.479029 0.815961
O O8 0.500000 0.500000 0.500000
O O9 0.208433 0.247084 0.281925
O O10 0.187126 0.065965 0.279276
O O11 0.771430 0.409406 0.402324
O O12 0.535196 0.180253 0.165997
O O13 0.805684 0.191002 0.058936
O O14 0.097316 0.319536 0.268110
O O15 0.000000 0.000000 0.000000
O O16 0.000000 0.500000 0.500000
#
# Coordination Sequence:
#
# PCOD8029932 Si02
#       7
#     2   2   2   2   2   2   2
#     4  11  22  41  69  94 125 177 218 263 336 396
#     4  11  21  41  64  92 127 167 220 265 320 392
#     4  11  22  43  65  91 133 174 209 260 335 386
#     4  11  22  40  61  97 124 163 214 269 310 383
#     4  11  23  37  64  92 129 163 214 263 319 379
#     4  11  26  45  67 101 134 166 225 279 318 398
#     4  12  22  42  71  88 129 175 213 265 337 385
#
# _framework density 19.859794999999998
#
# number of rings (size 3 to 8) (size 9 to 14) (size 15 to 20)
#    0.000    0.857    7.143    0.857    2.000    0.571 
#    0.000    1.429    0.000    0.000    0.000    0.000 
#    0.000    0.000    0.000    0.000    0.000    0.000 
#
# Total GULP energy -173543.836854 kJ/mol
# GULP energy per Si atom -12395.988347 kJ/mol
# Density = 1.981459 g / cm^3
# Si number density = 19.859795 Si / 1000 Ang^3
#
#
#
# Elastic Constant Matrix: (Units=GPa)
#
#
# Indices 1 2 3 4 5 6 
#
# 1 101.5295 43.6228 42.4621 12.1298 -11.2400 0.8715
# 2 43.6228 151.8236 39.1243 15.1699 -4.2714 -11.6860
# 3 42.4621 39.1243 122.6276 21.0540 -12.3981 -4.0545
# 4 12.1298 15.1699 21.0540 28.6416 -12.6728 -4.5109
# 5 -11.2400 -4.2714 -12.3981 -12.6728 30.1530 5.3019
# 6 0.8715 -11.6860 -4.0545 -4.5109 5.3019 35.3654
#
#
#
# Elastic Compliance Matrix: (Units=1/GPa)
#
#
# Indices 1 2 3 4 5 6 
#
# 1 0.012868 -0.002905 -0.003191 -0.000467 0.003262 -0.002192
# 2 -0.002905 0.008152 -0.001259 -0.002645 -0.002012 0.002585
# 3 -0.003191 -0.001259 0.010681 -0.005514 0.000692 0.000080
# 4 -0.000467 -0.002645 -0.005514 0.048510 0.017200 0.002114
# 5 0.003262 -0.002012 0.000692 0.017200 0.042459 -0.004837
# 6 -0.002192 0.002585 0.000080 0.002114 -0.004837 0.030189
#
#
# Mechanical properties :
#
#
# Convention : Reuss Voigt Hill
#
# Bulk Modulus (GPa) = 58.85655 69.59992 64.22823
# Shear Modulus (GPa) = 28.86290 35.55011 32.20650
#
# Velocity S-wave (km/s) = 3.81640 4.23549 4.03139
# Velocity P-wave (km/s) = 7.00858 7.68381 7.35395
#
# Compressibility (1/GPa) = 0.01699046
#
# Stress axis : x y z
#
# Youngs Moduli (GPa) = 77.71199 122.66300 93.62559
#
# Poissons Ratio (x) = 0.35636 0.29880
# Poissons Ratio (y) = 0.22577 0.11786
# Poissons Ratio (z) = 0.24801 0.15441
#
# Static dielectric constant tensor:
#      x y z
#    x 3.696350 -0.005040 -0.097600 
#    y -0.005040 3.919630 0.228750 
#    z -0.097600 0.228750 3.723550 
# 
# 
# High freq. dielectric constant tensor:
#      x y z
#    x 1.775410 -0.003250 -0.007580 
#    y -0.003250 1.787910 0.009910 
#    z -0.007580 0.009910 1.777010 
# 
# From -- ./inp_files/179754.got.cif
#   From: 2010.06.25/outbox.cif.g09.slc.cpg/sg2_90_cif.got.tgz:179754.got - 2010.06.27 13:26:56.
