data_PCOD8029189
_publ_section_title
;
Structure prediction by ZEFSAII (Michael W. Deem and Ramdas Pophale) SiO2 
 PCOD8029189
Probable space group: P -1
;
_chemical_formula_sum "Si O2"
_cell_formula_units_Z 16
_cell_length_a 10.071297
_cell_length_b 15.115695
_cell_length_c 15.805279
_cell_angle_alpha 143.424766
_cell_angle_beta 35.969567
_cell_angle_gamma 131.923050
_cell_volume 840.983001
_symmetry_space_group_name_H-M "P -1"
_symmetry_group_IT_number 2
_symmetry_cell_setting 'triclinic'
loop_
_space_group_symop_operation_xyz
x,y,z
-x,-y,-z
loop_
_atom_site_type_symbol
_atom_site_label
_atom_site_fract_x
_atom_site_fract_y
_atom_site_fract_z
Si Si1 0.658645 0.483316 0.678251
Si Si2 0.837229 0.938137 0.766271
Si Si3 0.824020 0.498445 0.294690
Si Si4 0.628895 0.169518 0.158425
Si Si5 0.015321 0.119002 0.656535
Si Si6 0.041951 0.370812 0.496642
Si Si7 0.837301 0.421868 0.954473
Si Si8 0.459443 0.275642 0.490456
O O1 0.792941 0.614872 0.658987
O O2 0.638414 0.344888 0.517716
O O3 0.800076 0.437030 0.651595
O O4 0.416993 0.532016 0.870576
O O5 0.606509 0.857808 0.789870
O O6 0.999751 0.805319 0.601073
O O7 0.964475 0.043508 0.713866
O O8 0.792619 0.038560 0.948748
O O9 0.743273 0.327456 0.192583
O O10 0.846651 0.540562 0.413485
O O11 0.640303 0.598747 0.422347
O O12 0.068275 0.528655 0.148054
O O13 0.584561 0.163121 0.277486
O O14 0.834912 0.243976 0.829408
O O15 0.266936 0.193400 0.583173
O O16 0.000000 0.000000 0.500000
O O17 0.000000 0.500000 0.000000
#
# Coordination Sequence:
#
# PCOD8029189 Si02
#       8
#     2   2   2   2   2   2   2   2
#     4  11  24  41  64  88 120 161 204 249 300 351
#     4  11  23  35  57  94 123 154 194 253 299 356
#     4  11  20  37  64  90 116 154 205 252 292 349
#     4  11  21  33  61  91 118 150 203 251 291 346
#     4  11  21  35  58  92 123 149 194 251 305 343
#     4  11  24  42  62  87 125 160 199 246 305 362
#     4  11  22  37  65  92 117 154 207 254 288 349
#     4  11  20  37  62  89 116 159 203 248 295 347
#
# _framework density 19.025357
#
# number of rings (size 3 to 8) (size 9 to 14) (size 15 to 20)
#    0.000    1.000    6.250    2.625    3.500    0.500 
#    0.000    1.250    2.750    0.000    0.000    0.000 
#    0.000    0.000    0.000    0.000    0.000    0.000 
#
# Total GULP energy -198424.830754 kJ/mol
# GULP energy per Si atom -12401.551922 kJ/mol
# Density = 1.898205 g / cm^3
# Si number density = 19.025357 Si / 1000 Ang^3
#
#
#
# Elastic Constant Matrix: (Units=GPa)
#
#
# Indices 1 2 3 4 5 6 
#
# 1 70.3709 36.0766 25.2859 2.9933 0.0806 -0.3744
# 2 36.0766 117.6010 43.8649 7.7226 -7.8743 -11.8600
# 3 25.2859 43.8649 106.7833 2.7252 8.9258 -5.0010
# 4 2.9933 7.7226 2.7252 35.2253 6.9964 6.2859
# 5 0.0806 -7.8743 8.9258 6.9964 25.5038 -0.0634
# 6 -0.3744 -11.8600 -5.0010 6.2859 -0.0634 23.0890
#
#
#
# Elastic Compliance Matrix: (Units=1/GPa)
#
#
# Indices 1 2 3 4 5 6 
#
# 1 0.017489 -0.004933 -0.002181 0.000461 -0.000949 -0.002851
# 2 -0.004933 0.013122 -0.004349 -0.004748 0.006909 0.007030
# 3 -0.002181 -0.004349 0.012129 0.001392 -0.005963 -0.000038
# 4 0.000461 -0.004748 0.001392 0.033517 -0.011177 -0.011285
# 5 -0.000949 0.006909 -0.005963 -0.011177 0.046513 0.005413
# 6 -0.002851 0.007030 -0.000038 -0.011285 0.005413 0.049955
#
#
# Mechanical properties :
#
#
# Convention : Reuss Voigt Hill
#
# Bulk Modulus (GPa) = 50.46990 56.13446 53.30218
# Shear Modulus (GPa) = 24.72114 29.39883 27.05998
#
# Velocity S-wave (km/s) = 3.60860 3.93522 3.77545
# Velocity P-wave (km/s) = 6.62932 7.08640 6.86167
#
# Compressibility (1/GPa) = 0.01981379
#
# Stress axis : x y z
#
# Youngs Moduli (GPa) = 57.17753 76.20566 82.44675
#
# Poissons Ratio (x) = 0.37593 0.17982
# Poissons Ratio (y) = 0.28206 0.35860
# Poissons Ratio (z) = 0.12470 0.33145
#
# Static dielectric constant tensor:
#      x y z
#    x 3.271210 -0.066880 0.204630 
#    y -0.066880 3.871480 -0.085740 
#    z 0.204630 -0.085740 3.816090 
# 
# 
# High freq. dielectric constant tensor:
#      x y z
#    x 1.703860 0.001860 0.021090 
#    y 0.001860 1.754450 -0.004400 
#    z 0.021090 -0.004400 1.748940 
# 
# From -- ./inp_files/205328.got.cif
#   From: 2010.06.25/outbox.cif.g09.slc.cpg/sg2_103_cif.got.tgz:205328.got - 2010.06.27 13:26:56.
