data_PCOD8029673
_publ_section_title
;
Structure prediction by ZEFSAII (Michael W. Deem and Ramdas Pophale) SiO2 
 PCOD8029673
Probable space group: P -1
;
_chemical_formula_sum "Si O2"
_cell_formula_units_Z 12
_cell_length_a 8.401705
_cell_length_b 15.453808
_cell_length_c 9.405207
_cell_angle_alpha 63.488996
_cell_angle_beta 31.488456
_cell_angle_gamma 75.353986
_cell_volume 549.024677
_symmetry_space_group_name_H-M "P -1"
_symmetry_group_IT_number 2
_symmetry_cell_setting 'triclinic'
loop_
_space_group_symop_operation_xyz
x,y,z
-x,-y,-z
loop_
_atom_site_type_symbol
_atom_site_label
_atom_site_fract_x
_atom_site_fract_y
_atom_site_fract_z
Si Si1 0.792264 0.607330 0.402271
Si Si2 0.862344 0.514145 0.941651
Si Si3 0.097802 0.205686 0.626137
Si Si4 0.738590 0.766109 0.108502
Si Si5 0.326007 0.885785 0.745545
Si Si6 0.051629 0.742755 0.602598
O O1 0.075756 0.564156 0.164470
O O2 0.901909 0.686490 0.387877
O O3 0.679275 0.661300 0.314346
O O4 0.515466 0.512641 0.735794
O O5 0.006984 0.625570 0.689817
O O6 0.000000 0.500000 0.000000
O O7 0.435484 0.182969 0.412526
O O8 0.026470 0.201177 0.517398
O O9 0.811149 0.123956 0.982293
O O10 0.409657 0.796833 0.341662
O O11 0.024595 0.851283 0.896334
O O12 0.806116 0.751727 0.903478
O O13 0.500000 0.000000 0.500000
#
# Coordination Sequence:
#
# PCOD8029673 Si02
#       6
#     2   2   2   2   2   2
#     4  11  21  38  60  87 125 176 215 248 287 370
#     4  12  21  35  61  92 126 170 226 242 284 364
#     4  11  25  43  63  95 132 158 204 267 327 356
#     4  11  21  40  64  90 122 167 213 250 313 371
#     4  11  24  47  72  90 117 165 212 254 316 405
#     4  12  24  38  62  96 133 164 203 267 309 349
#
# _framework density 21.856943000000001
#
# number of rings (size 3 to 8) (size 9 to 14) (size 15 to 20)
#    0.000    0.667    3.333    7.000    0.000    1.333 
#    0.000    5.000    0.000    0.000    0.000    0.000 
#    0.000    0.000    0.000    0.000    0.000    0.000 
#
# Total GULP energy -148837.466724 kJ/mol
# GULP energy per Si atom -12403.122227 kJ/mol
# Density = 2.180720 g / cm^3
# Si number density = 21.856943 Si / 1000 Ang^3
#
#
#
# Elastic Constant Matrix: (Units=GPa)
#
#
# Indices 1 2 3 4 5 6 
#
# 1 82.6987 20.0960 43.3453 -15.8250 9.4201 0.8967
# 2 20.0960 58.8785 24.7826 -8.2046 -5.3145 7.4271
# 3 43.3453 24.7826 130.3381 -4.2869 -7.4563 1.9056
# 4 -15.8250 -8.2046 -4.2869 40.2077 8.3042 -0.6066
# 5 9.4201 -5.3145 -7.4563 8.3042 38.5858 0.9140
# 6 0.8967 7.4271 1.9056 -0.6066 0.9140 15.9998
#
#
#
# Elastic Compliance Matrix: (Units=1/GPa)
#
#
# Indices 1 2 3 4 5 6 
#
# 1 0.018200 -0.003802 -0.005557 0.007414 -0.007687 0.002127
# 2 -0.003802 0.020982 -0.002348 0.001730 0.003214 -0.009365
# 3 -0.005557 -0.002348 0.010091 -0.002311 0.003483 -0.000087
# 4 0.007414 0.001730 -0.002311 0.029643 -0.008414 0.000661
# 5 -0.007687 0.003214 0.003483 -0.008414 0.030803 -0.003555
# 6 0.002127 -0.009365 -0.000087 0.000661 -0.003555 0.066967
#
#
# Mechanical properties :
#
#
# Convention : Reuss Voigt Hill
#
# Bulk Modulus (GPa) = 38.66801 49.81812 44.24306
# Shear Modulus (GPa) = 23.95560 31.20477 27.58018
#
# Velocity S-wave (km/s) = 3.31421 3.78257 3.55611
# Velocity P-wave (km/s) = 5.68991 6.47452 6.09485
#
# Compressibility (1/GPa) = 0.02586117
#
# Stress axis : x y z
#
# Youngs Moduli (GPa) = 54.94611 47.65900 99.09706
#
# Poissons Ratio (x) = 0.18119 0.55064
# Poissons Ratio (y) = 0.20890 0.23264
# Poissons Ratio (z) = 0.30531 0.11188
#
# Static dielectric constant tensor:
#      x y z
#    x 3.704720 -0.017870 0.029500 
#    y -0.017870 3.652030 0.123360 
#    z 0.029500 0.123360 4.339840 
# 
# 
# High freq. dielectric constant tensor:
#      x y z
#    x 1.844650 0.005930 -0.000050 
#    y 0.005930 1.832580 0.013070 
#    z -0.000050 0.013070 1.888110 
# 
# From -- ./inp_files/24485.got.cif
#   From: 2010.06.25/outbox.cif.g09.slc.cpg/sg2_13_cif.got.tgz:24485.got - 2010.06.27 13:26:56.
