data_PCOD8029359
_publ_section_title
;
Structure prediction by ZEFSAII (Michael W. Deem and Ramdas Pophale) SiO2 
 PCOD8029359
Probable space group: P -1
;
_chemical_formula_sum "Si O2"
_cell_formula_units_Z 16
_cell_length_a 11.653702
_cell_length_b 8.294139
_cell_length_c 19.392322
_cell_angle_alpha 137.344975
_cell_angle_beta 140.194535
_cell_angle_gamma 38.758468
_cell_volume 706.384821
_symmetry_space_group_name_H-M "P -1"
_symmetry_group_IT_number 2
_symmetry_cell_setting 'triclinic'
loop_
_space_group_symop_operation_xyz
x,y,z
-x,-y,-z
loop_
_atom_site_type_symbol
_atom_site_label
_atom_site_fract_x
_atom_site_fract_y
_atom_site_fract_z
Si Si1 0.693017 0.750845 0.337812
Si Si2 0.816756 0.851767 0.041620
Si Si3 0.477955 0.539637 0.920533
Si Si4 0.108920 0.678852 0.462499
Si Si5 0.303970 0.269566 0.302133
Si Si6 0.795478 0.463242 0.807412
Si Si7 0.873526 0.120058 0.911834
Si Si8 0.541182 0.706449 0.399112
O O1 0.642112 0.616468 0.207337
O O2 0.649151 0.645106 0.355633
O O3 0.936082 0.636105 0.407603
O O4 0.552301 0.085943 0.373204
O O5 0.952413 0.728994 0.135790
O O6 0.987546 0.859783 0.075073
O O7 0.627775 0.151226 0.058021
O O8 0.734522 0.665144 0.909141
O O9 0.694218 0.420245 0.944172
O O10 0.500000 0.500000 0.000000
O O11 0.186381 0.533204 0.378737
O O12 0.309166 0.546930 0.562443
O O13 0.000000 0.000000 0.500000
O O14 0.266423 0.360156 0.234549
O O15 0.219100 0.065202 0.217221
O O16 0.676598 0.289898 0.704518
O O17 0.000000 0.000000 0.000000
O O18 0.500000 0.000000 0.500000
#
# Coordination Sequence:
#
# PCOD8029359 Si02
#       8
#     2   2   2   2   2   2   2   2
#     4  11  25  46  73 103 136 189 242 285 355 428
#     4  11  23  44  67 104 143 181 228 289 358 425
#     4  11  22  37  70 103 135 175 227 283 342 430
#     4  12  28  45  74 105 136 182 242 300 356 408
#     4  11  23  45  69 104 144 181 232 299 346 422
#     4  11  25  43  72 100 145 189 229 293 362 412
#     4  11  20  40  69  99 134 184 229 274 358 420
#     4  12  27  50  74  98 143 195 242 292 348 422
#
# _framework density 22.650544
#
# number of rings (size 3 to 8) (size 9 to 14) (size 15 to 20)
#    0.000    0.750    3.750    4.125    3.500    2.000 
#    0.000    6.875    0.000    0.000    0.000    0.000 
#    0.000    0.000    0.000    0.000    0.000    0.000 
#
# Total GULP energy -198363.711600 kJ/mol
# GULP energy per Si atom -12397.731975 kJ/mol
# Density = 2.259899 g / cm^3
# Si number density = 22.650544 Si / 1000 Ang^3
#
#
#
# Elastic Constant Matrix: (Units=GPa)
#
#
# Indices 1 2 3 4 5 6 
#
# 1 43.9270 -2.4957 33.7866 -3.4488 -2.8247 6.7613
# 2 -2.4957 169.6012 46.9778 2.1486 -7.5964 -5.5606
# 3 33.7866 46.9778 120.8115 4.3796 1.6938 -8.5076
# 4 -3.4488 2.1486 4.3796 44.3323 3.9698 -5.4098
# 5 -2.8247 -7.5964 1.6938 3.9698 34.4720 -5.2591
# 6 6.7613 -5.5606 -8.5076 -5.4098 -5.2591 36.5218
#
#
#
# Elastic Compliance Matrix: (Units=1/GPa)
#
#
# Indices 1 2 3 4 5 6 
#
# 1 0.033127 0.003446 -0.011255 0.002373 0.002609 -0.007503
# 2 0.003446 0.007070 -0.003754 0.000101 0.001993 -0.000134
# 3 -0.011255 -0.003754 0.013250 -0.001350 -0.001609 0.004167
# 4 0.002373 0.000101 -0.001350 0.023348 -0.002035 0.002427
# 5 0.002609 0.001993 -0.001609 -0.002035 0.030515 0.003538
# 6 -0.007503 -0.000134 0.004167 0.002427 0.003538 0.030589
#
#
# Mechanical properties :
#
#
# Convention : Reuss Voigt Hill
#
# Bulk Modulus (GPa) = 32.98164 54.54192 43.76178
# Shear Modulus (GPa) = 29.21708 40.13662 34.67685
#
# Velocity S-wave (km/s) = 3.59542 4.21407 3.91698
# Velocity P-wave (km/s) = 5.64170 6.91447 6.31026
#
# Compressibility (1/GPa) = 0.03031990
#
# Stress axis : x y z
#
# Youngs Moduli (GPa) = 30.18720 141.43682 75.47332
#
# Poissons Ratio (x) = -0.48737 0.84947
# Poissons Ratio (y) = -0.10402 0.28333
# Poissons Ratio (z) = 0.33976 0.53096
#
# Static dielectric constant tensor:
#      x y z
#    x 3.914430 -0.251920 0.072880 
#    y -0.251920 4.352390 -0.128760 
#    z 0.072880 -0.128760 4.321390 
# 
# 
# High freq. dielectric constant tensor:
#      x y z
#    x 1.891640 0.004190 0.000120 
#    y 0.004190 1.911860 -0.011360 
#    z 0.000120 -0.011360 1.898350 
# 
# From -- ./inp_files/515577.got.cif
#   From: 2010.06.25/outbox.cif.g09.slc.cpg/sg2_258_cif.got.tgz:515577.got - 2010.06.27 13:26:56.
