data_PCOD8029411
_publ_section_title
;
Structure prediction by ZEFSAII (Michael W. Deem and Ramdas Pophale) SiO2 
 PCOD8029411
Probable space group: P -1
;
_chemical_formula_sum "Si O2"
_cell_formula_units_Z 16
_cell_length_a 16.278192
_cell_length_b 9.940999
_cell_length_c 19.577209
_cell_angle_alpha 139.656051
_cell_angle_beta 20.535323
_cell_angle_gamma 135.755635
_cell_volume 719.373173
_symmetry_space_group_name_H-M "P -1"
_symmetry_group_IT_number 2
_symmetry_cell_setting 'triclinic'
loop_
_space_group_symop_operation_xyz
x,y,z
-x,-y,-z
loop_
_atom_site_type_symbol
_atom_site_label
_atom_site_fract_x
_atom_site_fract_y
_atom_site_fract_z
Si Si1 0.442178 0.842756 0.175367
Si Si2 0.172792 0.472093 0.043357
Si Si3 0.985156 0.618570 0.437773
Si Si4 0.786163 0.729877 0.492966
Si Si5 0.093875 0.239862 0.880033
Si Si6 0.082583 0.207678 0.141814
Si Si7 0.565704 0.788685 0.904991
Si Si8 0.632858 0.485248 0.319259
O O1 0.261357 0.650874 0.251426
O O2 0.280394 0.041467 0.390021
O O3 0.648651 0.840389 0.068371
O O4 0.557724 0.839875 0.010154
O O5 0.086840 0.301537 0.099079
O O6 0.964552 0.639476 0.262333
O O7 0.214418 0.356986 0.895266
O O8 0.403304 0.595395 0.934759
O O9 0.914242 0.736354 0.468796
O O10 0.828200 0.711896 0.656067
O O11 0.961191 0.370399 0.351036
O O12 0.551856 0.587975 0.623055
O O13 0.249734 0.297836 0.714149
O O14 0.086500 0.993618 0.802209
O O15 0.828414 0.310142 0.103792
O O16 0.500000 0.000000 0.000000
O O17 0.500000 0.500000 0.500000
#
# Coordination Sequence:
#
# PCOD8029411 Si02
#       8
#     2   2   2   2   2   2   2   2
#     4  12  23  44  68  97 139 176 225 281 342 398
#     4  11  24  44  72  97 141 180 226 282 337 403
#     4  11  24  43  65  98 137 176 227 277 341 405
#     4  11  20  41  69  98 132 177 221 280 340 392
#     4  11  24  45  70  99 137 179 226 276 343 405
#     4  11  25  46  66 100 141 184 221 281 344 404
#     4  12  24  41  72 102 129 182 234 281 335 401
#     4  11  23  43  71 103 132 171 230 290 329 397
#
# _framework density 22.241584
#
# number of rings (size 3 to 8) (size 9 to 14) (size 15 to 20)
#    0.000    0.750    6.250    2.625    0.000    0.500 
#    4.500    3.125    0.000    0.000    0.000    0.000 
#    0.000    0.000    0.000    0.000    0.000    0.000 
#
# Total GULP energy -198429.296970 kJ/mol
# GULP energy per Si atom -12401.831061 kJ/mol
# Density = 2.219096 g / cm^3
# Si number density = 22.241584 Si / 1000 Ang^3
#
#
#
# Elastic Constant Matrix: (Units=GPa)
#
#
# Indices 1 2 3 4 5 6 
#
# 1 67.4191 17.4746 25.2808 -1.2290 6.4118 2.9696
# 2 17.4746 110.2844 30.8042 3.7204 27.2135 -2.7586
# 3 25.2808 30.8042 102.1752 -0.7344 23.7316 -6.6708
# 4 -1.2290 3.7204 -0.7344 40.1661 -2.2291 -0.9497
# 5 6.4118 27.2135 23.7316 -2.2291 33.9784 -4.8283
# 6 2.9696 -2.7586 -6.6708 -0.9497 -4.8283 26.8360
#
#
#
# Elastic Compliance Matrix: (Units=1/GPa)
#
#
# Indices 1 2 3 4 5 6 
#
# 1 0.016866 -0.001823 -0.003965 0.000581 0.000673 -0.002898
# 2 -0.001823 0.011822 -0.001188 -0.001653 -0.008468 -0.000461
# 3 -0.003965 -0.001188 0.012898 -0.000110 -0.006994 0.002260
# 4 0.000581 -0.001653 -0.000110 0.025267 0.003119 0.001194
# 5 0.000673 -0.008468 -0.006994 0.003119 0.041881 0.004962
# 6 -0.002898 -0.000461 0.002260 0.001194 0.004962 0.039034
#
#
# Mechanical properties :
#
#
# Convention : Reuss Voigt Hill
#
# Bulk Modulus (GPa) = 36.18764 47.44421 41.81593
# Shear Modulus (GPa) = 29.25167 33.95069 31.60118
#
# Velocity S-wave (km/s) = 3.63047 3.91122 3.77346
# Velocity P-wave (km/s) = 5.82060 6.46332 6.15036
#
# Compressibility (1/GPa) = 0.02763374
#
# Stress axis : x y z
#
# Youngs Moduli (GPa) = 59.29058 84.58713 77.53368
#
# Poissons Ratio (x) = 0.15422 0.30740
# Poissons Ratio (y) = 0.10810 0.09212
# Poissons Ratio (z) = 0.23507 0.10050
#
# Static dielectric constant tensor:
#      x y z
#    x 3.944110 0.087290 -0.108620 
#    y 0.087290 4.080760 0.023580 
#    z -0.108620 0.023580 4.170760 
# 
# 
# High freq. dielectric constant tensor:
#      x y z
#    x 1.869170 0.008510 -0.007790 
#    y 0.008510 1.877800 0.000930 
#    z -0.007790 0.000930 1.880490 
# 
# From -- ./inp_files/186382.got.cif
#   From: 2010.06.25/outbox.cif.g09.slc.cpg/sg2_94_cif.got.tgz:186382.got - 2010.06.27 13:26:56.
