data_PCOD8029037
_publ_section_title
;
Structure prediction by ZEFSAII (Michael W. Deem and Ramdas Pophale) SiO2 
 PCOD8029037
Probable space group: P -1
;
_chemical_formula_sum "Si O2"
_cell_formula_units_Z 16
_cell_length_a 14.261466
_cell_length_b 13.641677
_cell_length_c 6.412219
_cell_angle_alpha 107.967962
_cell_angle_beta 123.806137
_cell_angle_gamma 40.503326
_cell_volume 657.902866
_symmetry_space_group_name_H-M "P -1"
_symmetry_group_IT_number 2
_symmetry_cell_setting 'triclinic'
loop_
_space_group_symop_operation_xyz
x,y,z
-x,-y,-z
loop_
_atom_site_type_symbol
_atom_site_label
_atom_site_fract_x
_atom_site_fract_y
_atom_site_fract_z
Si Si1 0.108181 0.729190 0.761570
Si Si2 0.349852 0.509661 0.569161
Si Si3 0.677090 0.842470 0.038673
Si Si4 0.146306 0.977000 0.607299
Si Si5 0.133929 0.254447 0.384605
Si Si6 0.674696 0.019344 0.836898
Si Si7 0.690587 0.694438 0.603235
Si Si8 0.711745 0.274611 0.698089
O O1 0.283348 0.603895 0.765043
O O2 0.060649 0.653678 0.772005
O O3 0.132865 0.806065 0.007180
O O4 0.945629 0.861130 0.499249
O O5 0.260506 0.458471 0.425795
O O6 0.551847 0.359935 0.706169
O O7 0.300335 0.613752 0.380724
O O8 0.809572 0.741211 0.319706
O O9 0.655597 0.747550 0.834719
O O10 0.500000 0.000000 0.000000
O O11 0.733354 0.886735 0.968258
O O12 0.265489 0.841626 0.492956
O O13 0.249182 0.932156 0.918321
O O14 0.000000 0.000000 0.500000
O O15 0.155168 0.339058 0.314334
O O16 0.239566 0.077508 0.336391
O O17 0.474439 0.170859 0.657214
#
# Coordination Sequence:
#
# PCOD8029037 Si02
#       8
#     2   2   2   2   2   2   2   2
#     4  12  26  47  72 101 143 181 230 289 353 404
#     4  11  28  48  68 102 138 190 231 281 339 429
#     4  11  19  40  64 102 140 174 227 284 342 403
#     4  12  25  43  74 107 135 178 233 293 343 400
#     4  11  23  41  70 104 141 178 222 296 343 405
#     4  11  23  39  67 107 141 172 234 284 346 408
#     4  11  25  40  70 103 142 184 230 277 345 419
#     4  11  27  50  72  98 142 184 234 288 342 407
#
# _framework density 24.319703000000001
#
# number of rings (size 3 to 8) (size 9 to 14) (size 15 to 20)
#    0.000    0.750    5.000    2.250    5.250    3.500 
#    0.000    1.250    0.000    0.000    0.000    0.000 
#    0.000    0.000    0.000    0.000    0.000    0.000 
#
# Total GULP energy -198267.851516 kJ/mol
# GULP energy per Si atom -12391.740720 kJ/mol
# Density = 2.426435 g / cm^3
# Si number density = 24.319703 Si / 1000 Ang^3
#
#
#
# Elastic Constant Matrix: (Units=GPa)
#
#
# Indices 1 2 3 4 5 6 
#
# 1 138.7563 30.7442 19.0157 13.2770 4.5851 -4.2380
# 2 30.7442 73.2759 21.2314 22.4283 -1.2505 -0.6154
# 3 19.0157 21.2314 137.9601 34.9048 16.1909 -4.5781
# 4 13.2770 22.4283 34.9048 27.8523 0.5799 4.7979
# 5 4.5851 -1.2505 16.1909 0.5799 28.5925 3.8294
# 6 -4.2380 -0.6154 -4.5781 4.7979 3.8294 40.7348
#
#
#
# Elastic Compliance Matrix: (Units=1/GPa)
#
#
# Indices 1 2 3 4 5 6 
#
# 1 0.008096 -0.002901 -0.000039 -0.001637 -0.001521 0.001130
# 2 -0.002901 0.019558 0.001668 -0.016831 0.000433 0.002123
# 3 -0.000039 0.001668 0.012370 -0.017390 -0.007126 0.004130
# 4 -0.001637 -0.016831 -0.017390 0.073897 0.009479 -0.011974
# 5 -0.001521 0.000433 -0.007126 0.009479 0.039859 -0.005816
# 6 0.001130 0.002123 0.004130 -0.011974 -0.005816 0.027120
#
#
# Mechanical properties :
#
#
# Convention : Reuss Voigt Hill
#
# Bulk Modulus (GPa) = 26.68067 54.66387 40.67227
# Shear Modulus (GPa) = 25.51830 38.03600 31.77715
#
# Velocity S-wave (km/s) = 3.24278 3.95903 3.61867
# Velocity P-wave (km/s) = 5.00155 6.58973 5.84979
#
# Compressibility (1/GPa) = 0.03748032
#
# Stress axis : x y z
#
# Youngs Moduli (GPa) = 123.51067 51.13026 80.83862
#
# Poissons Ratio (x) = 0.14833 0.00318
# Poissons Ratio (y) = 0.35830 -0.13485
# Poissons Ratio (z) = 0.00485 -0.08529
#
# Static dielectric constant tensor:
#      x y z
#    x 4.582260 -0.035540 0.043120 
#    y -0.035540 4.451840 0.390310 
#    z 0.043120 0.390310 4.587720 
# 
# 
# High freq. dielectric constant tensor:
#      x y z
#    x 1.980780 -0.001520 -0.001890 
#    y -0.001520 1.938730 0.023360 
#    z -0.001890 0.023360 1.970980 
# 
# From -- ./inp_files/98523.got.cif
#   From: 2010.06.25/outbox.cif.g09.slc.cpg/sg2_50_cif.got.tgz:98523.got - 2010.06.27 13:26:56.
