data_PCOD8029332
_publ_section_title
;
Structure prediction by ZEFSAII (Michael W. Deem and Ramdas Pophale) SiO2 
 PCOD8029332
Probable space group: P -1
;
_chemical_formula_sum "Si O2"
_cell_formula_units_Z 16
_cell_length_a 9.574810
_cell_length_b 11.957723
_cell_length_c 18.251456
_cell_angle_alpha 49.250247
_cell_angle_beta 102.414666
_cell_angle_gamma 142.052669
_cell_volume 745.175757
_symmetry_space_group_name_H-M "P -1"
_symmetry_group_IT_number 2
_symmetry_cell_setting 'triclinic'
loop_
_space_group_symop_operation_xyz
x,y,z
-x,-y,-z
loop_
_atom_site_type_symbol
_atom_site_label
_atom_site_fract_x
_atom_site_fract_y
_atom_site_fract_z
Si Si1 0.161593 0.169567 0.228137
Si Si2 0.786551 0.083970 0.725056
Si Si3 0.638736 0.157893 0.327901
Si Si4 0.790138 0.166909 0.947666
Si Si5 0.587343 0.282701 0.415472
Si Si6 0.184244 0.055284 0.848873
Si Si7 0.278316 0.148304 0.046207
Si Si8 0.741058 0.723797 0.643081
O O1 0.107020 0.157251 0.311672
O O2 0.123237 0.959112 0.305274
O O3 0.488460 0.515889 0.092876
O O4 0.922599 0.038120 0.207335
O O5 0.071853 0.423950 0.645696
O O6 0.581305 0.018702 0.690195
O O7 0.610204 0.841159 0.874399
O O8 0.530033 0.152427 0.387577
O O9 0.967309 0.496841 0.195446
O O10 0.621035 0.972584 0.433731
O O11 0.759609 0.004709 0.956663
O O12 0.500000 0.000000 0.000000
O O13 0.884360 0.170777 0.031795
O O14 0.510431 0.380218 0.348917
O O15 0.544231 0.400550 0.742246
O O16 0.024314 0.037621 0.888215
O O17 0.000000 0.000000 0.500000
#
# Coordination Sequence:
#
# PCOD8029332 Si02
#       8
#     2   2   2   2   2   2   2   2
#     4  11  22  39  69 100 125 163 224 279 322 375
#     4  11  20  40  67 104 121 163 229 280 318 380
#     4  11  23  41  66  88 135 175 211 265 325 389
#     4  12  25  42  67  98 138 175 211 266 340 395
#     4  11  23  41  64  95 125 174 223 265 316 386
#     4  11  23  44  71  98 126 172 224 274 323 384
#     4  11  21  40  72  98 128 165 226 275 320 379
#     4  12  25  41  65  92 136 171 216 268 328 385
#
# _framework density 21.471443000000001
#
# number of rings (size 3 to 8) (size 9 to 14) (size 15 to 20)
#    0.000    0.750    6.250    3.750    1.750    0.500 
#    0.000    3.750    0.000    0.000    0.000    0.000 
#    0.000    0.000    0.000    0.000    0.000    0.000 
#
# Total GULP energy -198348.575634 kJ/mol
# GULP energy per Si atom -12396.785977 kJ/mol
# Density = 2.142257 g / cm^3
# Si number density = 21.471443 Si / 1000 Ang^3
#
#
#
# Elastic Constant Matrix: (Units=GPa)
#
#
# Indices 1 2 3 4 5 6 
#
# 1 48.4227 26.8513 23.5096 9.0173 5.5424 16.8503
# 2 26.8513 123.5133 38.9295 15.4176 -4.3340 8.1308
# 3 23.5096 38.9295 140.4076 13.7089 2.1577 5.5339
# 4 9.0173 15.4176 13.7089 34.9060 3.2649 10.3476
# 5 5.5424 -4.3340 2.1577 3.2649 29.8982 -0.6475
# 6 16.8503 8.1308 5.5339 10.3476 -0.6475 23.1214
#
#
#
# Elastic Compliance Matrix: (Units=1/GPa)
#
#
# Indices 1 2 3 4 5 6 
#
# 1 0.033728 -0.005319 -0.003391 0.002571 -0.007563 -0.023261
# 2 -0.005319 0.010178 -0.001736 -0.003410 0.003009 0.002323
# 3 -0.003391 -0.001736 0.008307 -0.002249 0.000068 0.002102
# 4 0.002571 -0.003410 -0.002249 0.035660 -0.005054 -0.016236
# 5 -0.007563 0.003009 0.000068 -0.005054 0.035999 0.007707
# 6 -0.023261 0.002323 0.002102 -0.016236 0.007707 0.066364
#
#
# Mechanical properties :
#
#
# Convention : Reuss Voigt Hill
#
# Bulk Modulus (GPa) = 31.92651 54.54717 43.23684
# Shear Modulus (GPa) = 22.56638 32.45533 27.51085
#
# Velocity S-wave (km/s) = 3.24542 3.89209 3.58338
# Velocity P-wave (km/s) = 5.38008 6.75704 6.10749
#
# Compressibility (1/GPa) = 0.03132193
#
# Stress axis : x y z
#
# Youngs Moduli (GPa) = 29.64853 98.24982 120.38071
#
# Poissons Ratio (x) = 0.52257 0.40818
# Poissons Ratio (y) = 0.15769 0.20902
# Poissons Ratio (z) = 0.10053 0.17059
#
# Static dielectric constant tensor:
#      x y z
#    x 3.596480 0.096000 0.381140 
#    y 0.096000 4.050370 0.179510 
#    z 0.381140 0.179510 4.185710 
# 
# 
# High freq. dielectric constant tensor:
#      x y z
#    x 1.802630 0.007960 0.025660 
#    y 0.007960 1.852830 0.005770 
#    z 0.025660 0.005770 1.859720 
# 
# From -- ./inp_files/307089.got.cif
#   From: 2010.06.25/outbox.cif.g09.slc.cpg/sg2_154_cif.got.tgz:307089.got - 2010.06.27 13:26:56.
