data_PCOD8029176
_publ_section_title
;
Structure prediction by ZEFSAII (Michael W. Deem and Ramdas Pophale) SiO2 
 PCOD8029176
Probable space group: P -1
;
_chemical_formula_sum "Si O2"
_cell_formula_units_Z 14
_cell_length_a 11.313914
_cell_length_b 9.243333
_cell_length_c 9.426686
_cell_angle_alpha 103.485756
_cell_angle_beta 97.978735
_cell_angle_gamma 47.901981
_cell_volume 711.103789
_symmetry_space_group_name_H-M "P -1"
_symmetry_group_IT_number 2
_symmetry_cell_setting 'triclinic'
loop_
_space_group_symop_operation_xyz
x,y,z
-x,-y,-z
loop_
_atom_site_type_symbol
_atom_site_label
_atom_site_fract_x
_atom_site_fract_y
_atom_site_fract_z
Si Si1 0.198968 0.717134 0.715050
Si Si2 0.482107 0.840745 0.756425
Si Si3 0.051642 0.296056 0.412247
Si Si4 0.485845 0.302692 0.561680
Si Si5 0.624335 0.018108 0.762135
Si Si6 0.801333 0.027349 0.418491
Si Si7 0.605844 0.286598 0.038600
O O1 0.375128 0.529651 0.643120
O O2 0.235055 0.767628 0.882248
O O3 0.086578 0.665729 0.698860
O O4 0.116992 0.902955 0.635588
O O5 0.581292 0.706218 0.601223
O O6 0.546223 0.952153 0.829818
O O7 0.501655 0.712686 0.862731
O O8 0.294376 0.996714 0.717273
O O9 0.212714 0.175022 0.323359
O O10 0.068801 0.180137 0.528917
O O11 0.000000 0.500000 0.500000
O O12 0.493680 0.169163 0.654686
O O13 0.670278 0.203067 0.548467
O O14 0.665540 0.123395 0.892137
O O15 0.500000 0.500000 0.000000
#
# Coordination Sequence:
#
# PCOD8029176 Si02
#       7
#     2   2   2   2   2   2   2
#     4  11  20  37  58  87 121 152 194 237 294 350
#     4   9  20  35  63  86 115 149 195 247 289 328
#     4  11  24  36  58  87 119 156 194 241 293 345
#     4   9  18  33  65  89 110 145 200 247 286 328
#     4  11  21  39  58  88 123 152 193 238 292 350
#     4   8  20  34  58  87 113 147 189 246 291 326
#     4  11  23  37  60  90 117 156 193 240 293 347
#
# _framework density 19.687704
#
# number of rings (size 3 to 8) (size 9 to 14) (size 15 to 20)
#    0.857    1.143    1.429    2.571    2.000    0.571 
#    0.000    1.429    0.000    4.286    0.000    0.000 
#    0.000    0.000    0.000    0.000    0.000    0.000 
#
# Total GULP energy -173479.949289 kJ/mol
# GULP energy per Si atom -12391.424949 kJ/mol
# Density = 1.964289 g / cm^3
# Si number density = 19.687704 Si / 1000 Ang^3
#
#
#
# Elastic Constant Matrix: (Units=GPa)
#
#
# Indices 1 2 3 4 5 6 
#
# 1 101.0911 39.9502 30.6726 -4.0780 13.5670 25.0197
# 2 39.9502 108.9231 53.3937 -4.7447 1.9835 14.7633
# 3 30.6726 53.3937 91.9203 -3.7702 5.2836 13.0207
# 4 -4.0780 -4.7447 -3.7702 35.9193 9.2972 -3.1310
# 5 13.5670 1.9835 5.2836 9.2972 22.8895 1.3426
# 6 25.0197 14.7633 13.0207 -3.1310 1.3426 24.7745
#
#
#
# Elastic Compliance Matrix: (Units=1/GPa)
#
#
# Indices 1 2 3 4 5 6 
#
# 1 0.016055 -0.003417 -0.000910 0.002560 -0.009295 -0.012872
# 2 -0.003417 0.013967 -0.006924 -0.000039 0.002510 -0.001374
# 3 -0.000910 -0.006924 0.015833 0.001106 -0.002790 -0.002986
# 4 0.002560 -0.000039 0.001106 0.032271 -0.014979 0.001747
# 5 -0.009295 0.002510 -0.002790 -0.014979 0.055446 0.004459
# 6 -0.012872 -0.001374 -0.002986 0.001747 0.004459 0.055731
#
#
# Mechanical properties :
#
#
# Convention : Reuss Voigt Hill
#
# Bulk Modulus (GPa) = 42.82056 61.10748 51.96402
# Shear Modulus (GPa) = 22.76975 28.57788 25.67381
#
# Velocity S-wave (km/s) = 3.40449 3.81407 3.61509
# Velocity P-wave (km/s) = 6.10338 7.10647 6.62394
#
# Compressibility (1/GPa) = 0.02335327
#
# Stress axis : x y z
#
# Youngs Moduli (GPa) = 62.28591 71.59707 63.15867
#
# Poissons Ratio (x) = 0.24466 0.05746
# Poissons Ratio (y) = 0.21284 0.43731
# Poissons Ratio (z) = 0.05667 0.49574
#
# Static dielectric constant tensor:
#      x y z
#    x 3.368540 0.167810 0.087020 
#    y 0.167810 3.404680 -0.151420 
#    z 0.087020 -0.151420 3.597030 
# 
# 
# High freq. dielectric constant tensor:
#      x y z
#    x 1.754770 0.021510 0.009570 
#    y 0.021510 1.755960 -0.011740 
#    z 0.009570 -0.011740 1.754450 
# 
# From -- ./inp_files/244559.got.cif
#   From: 2010.06.25/outbox.cif.g09.slc.cpg/sg2_123_cif.got.tgz:244559.got - 2010.06.27 13:26:56.
