data_PCOD8029602
_publ_section_title
;
Structure prediction by ZEFSAII (Michael W. Deem and Ramdas Pophale) SiO2 
 PCOD8029602
Probable space group: P -1
;
_chemical_formula_sum "Si O2"
_cell_formula_units_Z 16
_cell_length_a 12.717947
_cell_length_b 13.052448
_cell_length_c 14.453438
_cell_angle_alpha 19.996483
_cell_angle_beta 85.546196
_cell_angle_gamma 84.688449
_cell_volume 816.632091
_symmetry_space_group_name_H-M "P -1"
_symmetry_group_IT_number 2
_symmetry_cell_setting 'triclinic'
loop_
_space_group_symop_operation_xyz
x,y,z
-x,-y,-z
loop_
_atom_site_type_symbol
_atom_site_label
_atom_site_fract_x
_atom_site_fract_y
_atom_site_fract_z
Si Si1 0.771531 0.877773 0.803950
Si Si2 0.925362 0.728414 0.757770
Si Si3 0.522597 0.331008 0.738683
Si Si4 0.764410 0.346761 0.742277
Si Si5 0.179380 0.322702 0.716045
Si Si6 0.327981 0.513083 0.709576
Si Si7 0.039195 0.829496 0.364514
Si Si8 0.909371 0.425965 0.830008
O O1 0.823674 0.805900 0.762452
O O2 0.680286 0.132272 0.577978
O O3 0.859563 0.989280 0.772914
O O4 0.712792 0.614564 0.082096
O O5 0.876765 0.540613 0.836471
O O6 0.000000 0.000000 0.500000
O O7 0.000000 0.500000 0.000000
O O8 0.500000 0.500000 0.500000
O O9 0.640066 0.321534 0.779091
O O10 0.449466 0.439842 0.737419
O O11 0.500000 0.000000 0.000000
O O12 0.776456 0.612670 0.442896
O O13 0.808502 0.454837 0.745391
O O14 0.829388 0.036706 0.969167
O O15 0.257665 0.412492 0.714669
O O16 0.070076 0.533470 0.550531
O O17 0.992315 0.675689 0.588100
O O18 0.956743 0.079220 0.113757
#
# Coordination Sequence:
#
# PCOD8029602 Si02
#       8
#     2   2   2   2   2   2   2   2
#     4  11  21  36  61  87 116 148 196 245 292 341
#     4  12  22  40  62  87 115 157 199 248 291 345
#     4  12  22  40  62  87 115 157 199 248 291 345
#     4  12  24  39  58  87 121 161 199 241 293 350
#     4  11  22  37  58  85 125 160 196 232 287 359
#     4  11  21  36  61  87 116 148 196 245 292 341
#     4  11  22  37  58  85 125 160 196 232 287 359
#     4  12  24  39  58  87 121 161 199 241 293 350
#
# _framework density 19.592666000000001
#
# number of rings (size 3 to 8) (size 9 to 14) (size 15 to 20)
#    0.000    0.500    5.000    6.000    0.000    3.000 
#    0.000    0.000    0.000    1.500    0.000    0.000 
#    0.000    0.000    0.000    0.000    0.000    0.000 
#
# Total GULP energy -198251.419331 kJ/mol
# GULP energy per Si atom -12390.713708 kJ/mol
# Density = 1.954807 g / cm^3
# Si number density = 19.592666 Si / 1000 Ang^3
#
#
#
# Elastic Constant Matrix: (Units=GPa)
#
#
# Indices 1 2 3 4 5 6 
#
# 1 74.1349 50.0029 25.2377 4.1233 6.0414 -17.4034
# 2 50.0029 88.4724 17.4565 10.4645 6.7754 -4.4476
# 3 25.2377 17.4565 117.8711 7.6769 5.5269 -3.2407
# 4 4.1233 10.4645 7.6769 27.7123 -9.5908 -3.2385
# 5 6.0414 6.7754 5.5269 -9.5908 21.7056 -1.1334
# 6 -17.4034 -4.4476 -3.2407 -3.2385 -1.1334 27.9415
#
#
#
# Elastic Compliance Matrix: (Units=1/GPa)
#
#
# Indices 1 2 3 4 5 6 
#
# 1 0.028139 -0.014977 -0.003705 0.004471 0.000559 0.015253
# 2 -0.014977 0.020852 0.000841 -0.009139 -0.006971 -0.007254
# 3 -0.003705 0.000841 0.009513 -0.003773 -0.003407 -0.001646
# 4 0.004471 -0.009139 -0.003773 0.049386 0.024789 0.007622
# 5 0.000559 -0.006971 -0.003407 0.024789 0.060129 0.004155
# 6 0.015253 -0.007254 -0.001646 0.007622 0.004155 0.044996
#
#
# Mechanical properties :
#
#
# Convention : Reuss Voigt Hill
#
# Bulk Modulus (GPa) = 43.81728 51.76364 47.79046
# Shear Modulus (GPa) = 19.50818 27.99063 23.74941
#
# Velocity S-wave (km/s) = 3.15888 3.78382 3.48538
# Velocity P-wave (km/s) = 5.97640 6.75033 6.37512
#
# Compressibility (1/GPa) = 0.02282205
#
# Stress axis : x y z
#
# Youngs Moduli (GPa) = 35.53837 47.95714 105.12253
#
# Poissons Ratio (x) = 0.71826 0.38945
# Poissons Ratio (y) = 0.53227 -0.08844
# Poissons Ratio (z) = 0.13166 -0.04035
#
# Static dielectric constant tensor:
#      x y z
#    x 3.437100 -0.249550 0.112910 
#    y -0.249550 3.379400 -0.035990 
#    z 0.112910 -0.035990 3.912150 
# 
# 
# High freq. dielectric constant tensor:
#      x y z
#    x 1.738290 -0.020030 0.003920 
#    y -0.020030 1.745520 0.000910 
#    z 0.003920 0.000910 1.793360 
# 
# From -- ./inp_files/452086.got.cif
#   From: 2010.06.25/outbox.cif.g09.slc.cpg/sg2_227_cif.got.tgz:452086.got - 2010.06.27 13:26:56.
