data_PCOD8029633
_publ_section_title
;
Structure prediction by ZEFSAII (Michael W. Deem and Ramdas Pophale) SiO2 
 PCOD8029633
Probable space group: P -1
;
_chemical_formula_sum "Si O2"
_cell_formula_units_Z 16
_cell_length_a 25.576877
_cell_length_b 13.827733
_cell_length_c 22.617358
_cell_angle_alpha 32.940849
_cell_angle_beta 9.452344
_cell_angle_gamma 34.170818
_cell_volume 714.326891
_symmetry_space_group_name_H-M "P -1"
_symmetry_group_IT_number 2
_symmetry_cell_setting 'triclinic'
loop_
_space_group_symop_operation_xyz
x,y,z
-x,-y,-z
loop_
_atom_site_type_symbol
_atom_site_label
_atom_site_fract_x
_atom_site_fract_y
_atom_site_fract_z
Si Si1 0.784388 0.405204 0.913132
Si Si2 0.626106 0.407531 0.633621
Si Si3 0.483421 0.978819 0.852723
Si Si4 0.949842 0.246738 0.616307
Si Si5 0.574999 0.778280 0.689269
Si Si6 0.604172 0.155573 0.505600
Si Si7 0.830585 0.822908 0.799474
Si Si8 0.879030 0.601910 0.141094
O O1 0.841154 0.579726 0.719911
O O2 0.124029 0.349733 0.588581
O O3 0.528284 0.437946 0.233770
O O4 0.642728 0.245586 0.113481
O O5 0.688175 0.470749 0.464706
O O6 0.935726 0.329548 0.359525
O O7 0.361647 0.252303 0.003562
O O8 0.821095 0.886704 0.535062
O O9 0.477161 0.092991 0.742017
O O10 0.189896 0.837404 0.245864
O O11 0.423811 0.123051 0.895266
O O12 0.638483 0.283333 0.984938
O O13 0.711083 0.979617 0.440487
O O14 0.325624 0.234483 0.736492
O O15 0.857550 0.311867 0.153689
O O16 0.000000 0.000000 0.500000
O O17 0.000000 0.500000 0.000000
#
# Coordination Sequence:
#
# PCOD8029633 Si02
#       8
#     2   2   2   2   2   2   2   2
#     4  12  23  41  60  90 129 168 208 257 306 364
#     4  12  26  42  63  94 126 167 213 251 305 375
#     4  11  21  37  62  94 125 160 204 258 313 374
#     4  11  21  37  62  95 126 163 206 253 310 376
#     4  11  23  40  64  90 124 167 209 257 306 362
#     4  11  23  42  64  92 120 156 210 261 307 361
#     4  12  23  41  63  93 131 167 197 246 312 381
#     4  12  24  44  68  92 122 160 203 261 313 363
#
# _framework density 22.398710000000001
#
# number of rings (size 3 to 8) (size 9 to 14) (size 15 to 20)
#    0.000    0.500    0.000   11.250    0.000    0.000 
#    0.000    3.750    0.000    0.000    0.000    0.000 
#    0.000    0.000    0.000    0.000    0.000    0.000 
#
# Total GULP energy -198416.193885 kJ/mol
# GULP energy per Si atom -12401.012118 kJ/mol
# Density = 2.234773 g / cm^3
# Si number density = 22.398710 Si / 1000 Ang^3
#
#
#
# Elastic Constant Matrix: (Units=GPa)
#
#
# Indices 1 2 3 4 5 6 
#
# 1 67.5828 26.9002 24.6169 4.7118 -5.2270 19.1187
# 2 26.9002 90.4475 34.4224 8.9023 8.6725 5.5038
# 3 24.6169 34.4224 82.6801 8.8091 -2.2810 9.0279
# 4 4.7118 8.9023 8.8091 44.7232 6.3683 -12.1117
# 5 -5.2270 8.6725 -2.2810 6.3683 44.1892 -3.5710
# 6 19.1187 5.5038 9.0279 -12.1117 -3.5710 44.7049
#
#
#
# Elastic Compliance Matrix: (Units=1/GPa)
#
#
# Indices 1 2 3 4 5 6 
#
# 1 0.020413 -0.004417 -0.002895 -0.003362 0.002948 -0.008277
# 2 -0.004417 0.014587 -0.004825 -0.000842 -0.003468 0.000563
# 3 -0.002895 -0.004825 0.015480 -0.002513 0.001617 -0.001846
# 4 -0.003362 -0.000842 -0.002513 0.026273 -0.003430 0.008893
# 5 0.002948 -0.003468 0.001617 -0.003430 0.024224 -0.000154
# 6 -0.008277 0.000563 -0.001846 0.008893 -0.000154 0.028609
#
#
# Mechanical properties :
#
#
# Convention : Reuss Voigt Hill
#
# Bulk Modulus (GPa) = 38.16161 45.84324 42.00243
# Shear Modulus (GPa) = 30.75045 37.04152 33.89599
#
# Velocity S-wave (km/s) = 3.70924 4.07102 3.89434
# Velocity P-wave (km/s) = 5.95139 6.52756 6.24612
#
# Compressibility (1/GPa) = 0.02620434
#
# Stress axis : x y z
#
# Youngs Moduli (GPa) = 48.98719 68.55194 64.60027
#
# Poissons Ratio (x) = 0.30282 0.18705
# Poissons Ratio (y) = 0.21639 0.31173
# Poissons Ratio (z) = 0.14184 0.33080
#
# Static dielectric constant tensor:
#      x y z
#    x 4.596790 0.680270 -0.171770 
#    y 0.680270 4.521750 -0.062110 
#    z -0.171770 -0.062110 4.111060 
# 
# 
# High freq. dielectric constant tensor:
#      x y z
#    x 1.887140 0.011310 -0.018910 
#    y 0.011310 1.888050 0.003850 
#    z -0.018910 0.003850 1.884490 
# 
# From -- ./inp_files/614415.got.cif
#   From: 2010.06.25/outbox.cif.g09.slc.cpg/sg2_308_cif.got.tgz:614415.got - 2010.06.27 13:26:56.
