data_PCOD8029920
_publ_section_title
;
Structure prediction by ZEFSAII (Michael W. Deem and Ramdas Pophale) SiO2 
 PCOD8029920
Probable space group: P -1
;
_chemical_formula_sum "Si O2"
_cell_formula_units_Z 14
_cell_length_a 11.445915
_cell_length_b 8.832164
_cell_length_c 8.208897
_cell_angle_alpha 72.106769
_cell_angle_beta 71.108022
_cell_angle_gamma 112.732519
_cell_volume 629.023668
_symmetry_space_group_name_H-M "P -1"
_symmetry_group_IT_number 2
_symmetry_cell_setting 'triclinic'
loop_
_space_group_symop_operation_xyz
x,y,z
-x,-y,-z
loop_
_atom_site_type_symbol
_atom_site_label
_atom_site_fract_x
_atom_site_fract_y
_atom_site_fract_z
Si Si1 0.211742 0.508865 0.308743
Si Si2 0.124323 0.591619 0.777346
Si Si3 0.596532 0.611362 0.575586
Si Si4 0.830718 0.012437 0.425509
Si Si5 0.318422 0.496865 0.908645
Si Si6 0.059608 0.707118 0.313052
Si Si7 0.861715 0.913035 0.805314
O O1 0.321900 0.496551 0.382721
O O2 0.199519 0.690269 0.291899
O O3 0.042621 0.323561 0.469344
O O4 0.267235 0.525127 0.096346
O O5 0.190231 0.812392 0.639158
O O6 0.260858 0.577552 0.771414
O O7 0.054162 0.464098 0.692511
O O8 0.000000 0.500000 0.000000
O O9 0.500000 0.500000 0.500000
O O10 0.492717 0.600121 0.774119
O O11 0.714259 0.835470 0.422615
O O12 0.992010 0.087785 0.264743
O O13 0.805336 0.929862 0.647549
O O14 0.256614 0.275681 0.986132
O O15 0.117473 0.914316 0.149866
#
# Coordination Sequence:
#
# PCOD8029920 Si02
#       7
#     2   2   2   2   2   2   2
#     4  11  21  43  68  98 134 182 230 280 338 398
#     4  12  24  42  67 107 141 173 225 293 345 394
#     4  12  27  46  70 100 146 186 225 277 353 420
#     4  11  23  44  70  99 139 181 231 280 348 408
#     4  12  25  44  72 102 141 184 226 285 343 411
#     4  11  22  39  72 105 137 172 231 293 339 396
#     4  11  21  40  74 106 126 181 238 285 334 400
#
# _framework density 22.256713999999999
#
# number of rings (size 3 to 8) (size 9 to 14) (size 15 to 20)
#    0.000    0.571    5.714    3.857    0.000    2.286 
#    0.000    0.714    0.000    0.000    0.000    0.000 
#    0.000    0.000    0.000    0.000    0.000    0.000 
#
# Total GULP energy -173515.987821 kJ/mol
# GULP energy per Si atom -12393.999130 kJ/mol
# Density = 2.220606 g / cm^3
# Si number density = 22.256714 Si / 1000 Ang^3
#
#
#
# Elastic Constant Matrix: (Units=GPa)
#
#
# Indices 1 2 3 4 5 6 
#
# 1 144.6182 48.8877 37.2625 -9.6252 9.2455 -25.9248
# 2 48.8877 125.8920 24.3465 -15.6304 18.2724 -10.3347
# 3 37.2625 24.3465 71.4947 -5.6023 -7.4567 -9.1069
# 4 -9.6252 -15.6304 -5.6023 38.1358 -13.9854 4.1473
# 5 9.2455 18.2724 -7.4567 -13.9854 36.1100 -1.6929
# 6 -25.9248 -10.3347 -9.1069 4.1473 -1.6929 41.2200
#
#
#
# Elastic Compliance Matrix: (Units=1/GPa)
#
#
# Indices 1 2 3 4 5 6 
#
# 1 0.009635 -0.002374 -0.003864 -0.000330 -0.001978 0.004563
# 2 -0.002374 0.010219 -0.002569 0.001549 -0.004486 0.000162
# 3 -0.003864 -0.002569 0.017998 0.003191 0.007283 0.000880
# 4 -0.000330 0.001549 0.003191 0.031930 0.012240 -0.001824
# 5 -0.001978 -0.004486 0.007283 0.012240 0.036691 -0.000484
# 6 0.004563 0.000162 0.000880 -0.001824 -0.000484 0.027528
#
#
# Mechanical properties :
#
#
# Convention : Reuss Voigt Hill
#
# Bulk Modulus (GPa) = 49.41188 62.55535 55.98362
# Shear Modulus (GPa) = 31.57356 38.52706 35.05031
#
# Velocity S-wave (km/s) = 3.77053 4.16508 3.97270
# Velocity P-wave (km/s) = 6.41911 7.16225 6.80084
#
# Compressibility (1/GPa) = 0.02023805
#
# Stress axis : x y z
#
# Youngs Moduli (GPa) = 103.78433 97.86162 55.56316
#
# Poissons Ratio (x) = 0.23229 0.21472
# Poissons Ratio (y) = 0.24635 0.14272
# Poissons Ratio (z) = 0.40107 0.25136
#
# Static dielectric constant tensor:
#      x y z
#    x 4.327970 -0.296670 0.052220 
#    y -0.296670 4.294650 -0.004380 
#    z 0.052220 -0.004380 4.127920 
# 
# 
# High freq. dielectric constant tensor:
#      x y z
#    x 1.881170 -0.021710 0.008320 
#    y -0.021710 1.878950 0.001450 
#    z 0.008320 0.001450 1.866590 
# 
# From -- ./inp_files/242941.got.cif
#   From: 2010.06.25/outbox.cif.g09.slc.cpg/sg2_122_cif.got.tgz:242941.got - 2010.06.27 13:26:56.
