data_PCOD8029384
_publ_section_title
;
Structure prediction by ZEFSAII (Michael W. Deem and Ramdas Pophale) SiO2 
 PCOD8029384
Probable space group: P -1
;
_chemical_formula_sum "Si O2"
_cell_formula_units_Z 16
_cell_length_a 12.092667
_cell_length_b 9.586331
_cell_length_c 8.955619
_cell_angle_alpha 123.757481
_cell_angle_beta 57.845600
_cell_angle_gamma 115.662550
_cell_volume 716.699978
_symmetry_space_group_name_H-M "P -1"
_symmetry_group_IT_number 2
_symmetry_cell_setting 'triclinic'
loop_
_space_group_symop_operation_xyz
x,y,z
-x,-y,-z
loop_
_atom_site_type_symbol
_atom_site_label
_atom_site_fract_x
_atom_site_fract_y
_atom_site_fract_z
Si Si1 0.368987 0.357999 0.370218
Si Si2 0.187145 0.419524 0.802951
Si Si3 0.742357 0.844318 0.189882
Si Si4 0.759406 0.941063 0.904484
Si Si5 0.897822 0.257192 0.829552
Si Si6 0.265677 0.875878 0.404011
Si Si7 0.440502 0.715377 0.384035
Si Si8 0.519028 0.107494 0.239481
O O1 0.309634 0.409604 0.599652
O O2 0.255594 0.230645 0.284476
O O3 0.425446 0.519743 0.324071
O O4 0.497672 0.276056 0.266288
O O5 0.197089 0.313342 0.884044
O O6 0.051591 0.344915 0.768504
O O7 0.191237 0.616212 0.960073
O O8 0.583650 0.785468 0.250327
O O9 0.784619 0.002168 0.366518
O O10 0.799929 0.900170 0.018779
O O11 0.877582 0.085284 0.841044
O O12 0.619881 0.007659 0.026327
O O13 0.857493 0.214393 0.661541
O O14 0.328065 0.729080 0.351914
O O15 0.373325 0.988264 0.284732
O O16 0.420204 0.838247 0.609026
#
# Coordination Sequence:
#
# PCOD8029384 Si02
#       8
#     2   2   2   2   2   2   2   2
#     4  12  25  39  67  99 133 176 215 263 321 391
#     4  11  26  49  65  94 127 173 227 270 320 380
#     4  11  23  41  68  98 138 166 213 268 325 389
#     4  12  24  40  67 103 131 170 215 266 324 393
#     4  11  27  46  70  89 127 178 223 271 320 381
#     4  11  21  43  66  96 132 177 206 269 326 384
#     4  11  22  38  65 103 136 170 205 269 330 377
#     4  11  20  41  62 101 136 167 211 259 332 388
#
# _framework density 22.324543999999999
#
# number of rings (size 3 to 8) (size 9 to 14) (size 15 to 20)
#    0.000    0.750    6.250    2.250    3.500    3.000 
#    0.000    0.625    0.000    0.000    0.000    0.000 
#    0.000    0.000    0.000    0.000    0.000    0.000 
#
# Total GULP energy -198515.694970 kJ/mol
# GULP energy per Si atom -12407.230936 kJ/mol
# Density = 2.227373 g / cm^3
# Si number density = 22.324544 Si / 1000 Ang^3
#
#
#
# Elastic Constant Matrix: (Units=GPa)
#
#
# Indices 1 2 3 4 5 6 
#
# 1 74.9472 31.4213 14.7898 0.2211 26.4312 -15.3543
# 2 31.4213 111.9805 22.2858 7.4501 23.5828 -18.2560
# 3 14.7898 22.2858 66.2587 6.2337 21.6315 -4.2573
# 4 0.2211 7.4501 6.2337 25.6488 -4.7935 8.7248
# 5 26.4312 23.5828 21.6315 -4.7935 30.5453 2.9444
# 6 -15.3543 -18.2560 -4.2573 8.7248 2.9444 36.8152
#
#
#
# Elastic Compliance Matrix: (Units=1/GPa)
#
#
# Indices 1 2 3 4 5 6 
#
# 1 0.027662 0.002792 0.007536 -0.016626 -0.036025 0.020614
# 2 0.002792 0.014646 0.002736 -0.013035 -0.018994 0.013352
# 3 0.007536 0.002736 0.024918 -0.017318 -0.030338 0.013912
# 4 -0.016626 -0.013035 -0.017318 0.068825 0.050965 -0.035787
# 5 -0.036025 -0.018994 -0.030338 0.050965 0.112786 -0.049050
# 6 0.020614 0.013352 0.013912 -0.035787 -0.049050 0.056394
#
#
# Mechanical properties :
#
#
# Convention : Reuss Voigt Hill
#
# Bulk Modulus (GPa) = 10.71196 43.35335 27.03265
# Shear Modulus (GPa) = 16.11754 30.91450 23.51602
#
# Velocity S-wave (km/s) = 2.68986 3.72530 3.24909
# Velocity P-wave (km/s) = 3.80208 6.16162 5.11963
#
# Compressibility (1/GPa) = 0.09335364
#
# Stress axis : x y z
#
# Youngs Moduli (GPa) = 36.15062 68.27713 40.13217
#
# Poissons Ratio (x) = -0.19063 -0.30245
# Poissons Ratio (y) = -0.10093 -0.10979
# Poissons Ratio (z) = -0.27244 -0.18678
#
# Static dielectric constant tensor:
#      x y z
#    x 3.834210 -0.164530 0.186840 
#    y -0.164530 4.060850 0.188860 
#    z 0.186840 0.188860 3.902020 
# 
# 
# High freq. dielectric constant tensor:
#      x y z
#    x 1.873080 -0.014150 0.018720 
#    y -0.014150 1.886080 0.011990 
#    z 0.018720 0.011990 1.868860 
# 
# From -- ./inp_files/186972.got.cif
#   From: 2010.06.25/outbox.cif.g09.slc.cpg/sg2_94_cif.got.tgz:186972.got - 2010.06.27 13:26:56.
