data_PCOD8029978
_publ_section_title
;
Structure prediction by ZEFSAII (Michael W. Deem and Ramdas Pophale) SiO2 
 PCOD8029978
Probable space group: P -1
;
_chemical_formula_sum "Si O2"
_cell_formula_units_Z 16
_cell_length_a 20.750773
_cell_length_b 27.612244
_cell_length_c 9.598140
_cell_angle_alpha 27.407594
_cell_angle_beta 152.792777
_cell_angle_gamma 161.378880
_cell_volume 763.869132
_symmetry_space_group_name_H-M "P -1"
_symmetry_group_IT_number 2
_symmetry_cell_setting 'triclinic'
loop_
_space_group_symop_operation_xyz
x,y,z
-x,-y,-z
loop_
_atom_site_type_symbol
_atom_site_label
_atom_site_fract_x
_atom_site_fract_y
_atom_site_fract_z
Si Si1 0.314607 0.867848 0.376550
Si Si2 0.962923 0.918661 0.992578
Si Si3 0.069454 0.542331 0.866687
Si Si4 0.531233 0.557957 0.067851
Si Si5 0.718148 0.925509 0.301338
Si Si6 0.615350 0.299607 0.537983
Si Si7 0.494265 0.673938 0.276622
Si Si8 0.570112 0.858558 0.706267
O O1 0.146187 0.700310 0.560437
O O2 0.423771 0.870913 0.447914
O O3 0.500000 0.000000 0.500000
O O4 0.201271 0.911470 0.995472
O O5 0.905210 0.970729 0.628093
O O6 0.775082 0.728574 0.129253
O O7 0.000000 0.000000 0.000000
O O8 0.177265 0.975785 0.217058
O O9 0.857209 0.393378 0.751126
O O10 0.251036 0.557936 0.152861
O O11 0.000000 0.500000 0.000000
O O12 0.464860 0.427455 0.377857
O O13 0.500000 0.500000 0.000000
O O14 0.376296 0.569024 0.769585
O O15 0.501614 0.812244 0.265081
O O16 0.661554 0.831920 0.290026
O O17 0.480610 0.188121 0.432193
O O18 0.521204 0.724546 0.040020
#
# Coordination Sequence:
#
# PCOD8029978 Si02
#       8
#     2   2   2   2   2   2   2   2
#     4  11  23  42  66  98 134 169 219 276 332 393
#     4  11  23  45  68  95 137 176 222 276 336 390
#     4  11  21  41  68  91 130 175 217 268 333 393
#     4  11  21  42  69  93 126 174 226 267 322 398
#     4  11  21  45  66  95 136 170 225 276 323 402
#     4  11  23  42  65  93 132 170 221 274 328 394
#     4  11  23  42  64  97 131 168 221 277 324 394
#     4  11  25  44  64  95 138 171 215 286 329 390
#
# _framework density 20.945996000000001
#
# number of rings (size 3 to 8) (size 9 to 14) (size 15 to 20)
#    0.000    1.000    8.750    0.000    0.000    7.500 
#    4.500    0.000    0.000    0.000    0.000    0.000 
#    0.000    0.000    0.000    0.000    0.000    0.000 
#
# Total GULP energy -198403.623731 kJ/mol
# GULP energy per Si atom -12400.226483 kJ/mol
# Density = 2.089832 g / cm^3
# Si number density = 20.945996 Si / 1000 Ang^3
#
#
#
# Elastic Constant Matrix: (Units=GPa)
#
#
# Indices 1 2 3 4 5 6 
#
# 1 53.1420 17.9938 0.5805 -2.4525 -0.0602 -3.7586
# 2 17.9938 93.8545 16.9300 12.5705 -0.0825 -2.3863
# 3 0.5805 16.9300 101.1715 -15.3839 1.6995 -7.4255
# 4 -2.4525 12.5705 -15.3839 46.2654 1.1640 2.2560
# 5 -0.0602 -0.0825 1.6995 1.1640 26.5368 -1.3155
# 6 -3.7586 -2.3863 -7.4255 2.2560 -1.3155 31.9321
#
#
#
# Elastic Compliance Matrix: (Units=1/GPa)
#
#
# Indices 1 2 3 4 5 6 
#
# 1 0.020585 -0.004451 0.001181 0.002588 -0.000048 0.002180
# 2 -0.004451 0.012632 -0.002788 -0.004611 0.000416 0.000115
# 3 0.001181 -0.002788 0.011196 0.004457 -0.000810 0.002186
# 4 0.002588 -0.004611 0.004457 0.024561 -0.001411 -0.000797
# 5 -0.000048 0.000416 -0.000810 -0.001411 0.037873 0.001497
# 6 0.002180 0.000115 0.002186 -0.000797 0.001497 0.032208
#
#
# Mechanical properties :
#
#
# Convention : Reuss Voigt Hill
#
# Bulk Modulus (GPa) = 30.96248 35.46408 33.21328
# Shear Modulus (GPa) = 30.87648 35.12445 33.00047
#
# Velocity S-wave (km/s) = 3.84357 4.09945 3.97357
# Velocity P-wave (km/s) = 5.87465 6.27497 6.07810
#
# Compressibility (1/GPa) = 0.03229715
#
# Stress axis : x y z
#
# Youngs Moduli (GPa) = 48.57842 79.16456 89.32018
#
# Poissons Ratio (x) = 0.35236 -0.10549
# Poissons Ratio (y) = 0.21622 0.24903
# Poissons Ratio (z) = -0.05737 0.22071
#
# Static dielectric constant tensor:
#      x y z
#    x 3.703480 0.197010 -0.295000 
#    y 0.197010 4.226320 -0.188160 
#    z -0.295000 -0.188160 3.775330 
# 
# 
# High freq. dielectric constant tensor:
#      x y z
#    x 1.811060 0.003300 -0.008550 
#    y 0.003300 1.819100 0.006750 
#    z -0.008550 0.006750 1.829060 
# 
# From -- ./inp_files/350176.got.cif
#   From: 2010.06.25/outbox.cif.g09.slc.cpg/sg2_176_cif.got.tgz:350176.got - 2010.06.27 13:26:56.
