data_PCOD8029603
_publ_section_title
;
Structure prediction by ZEFSAII (Michael W. Deem and Ramdas Pophale) SiO2 
 PCOD8029603
Probable space group: P -1
;
_chemical_formula_sum "Si O2"
_cell_formula_units_Z 16
_cell_length_a 14.263963
_cell_length_b 22.902893
_cell_length_c 23.320623
_cell_angle_alpha 12.426263
_cell_angle_beta 26.947744
_cell_angle_gamma 27.481215
_cell_volume 732.053007
_symmetry_space_group_name_H-M "P -1"
_symmetry_group_IT_number 2
_symmetry_cell_setting 'triclinic'
loop_
_space_group_symop_operation_xyz
x,y,z
-x,-y,-z
loop_
_atom_site_type_symbol
_atom_site_label
_atom_site_fract_x
_atom_site_fract_y
_atom_site_fract_z
Si Si1 0.530579 0.975094 0.387050
Si Si2 0.654086 0.489527 0.872362
Si Si3 0.980023 0.236528 0.200613
Si Si4 0.366262 0.978230 0.037144
Si Si5 0.093541 0.541469 0.634938
Si Si6 0.432605 0.207084 0.011054
Si Si7 0.461236 0.756138 0.515948
Si Si8 0.072641 0.296550 0.310688
O O1 0.549069 0.728797 0.658014
O O2 0.580452 0.843886 0.422736
O O3 0.297328 0.146026 0.354548
O O4 0.683767 0.190891 0.111661
O O5 0.883592 0.537605 0.717669
O O6 0.500000 0.500000 0.000000
O O7 0.789697 0.190096 0.389750
O O8 0.179770 0.301400 0.064846
O O9 0.056117 0.941146 0.411223
O O10 0.896752 0.485423 0.964123
O O11 0.176302 0.817324 0.307809
O O12 0.514057 0.820083 0.059042
O O13 0.500000 0.000000 0.000000
O O14 0.269131 0.278077 0.778485
O O15 0.052300 0.535460 0.730985
O O16 0.515484 0.928997 0.266313
O O17 0.542434 0.439486 0.758828
#
# Coordination Sequence:
#
# PCOD8029603 Si02
#       8
#     2   2   2   2   2   2   2   2
#     4  11  23  40  62  99 135 165 203 264 346 397
#     4  12  24  40  69  99 137 166 212 271 341 392
#     4  11  22  37  61  97 130 167 215 266 328 387
#     4  12  27  46  67  95 132 178 225 265 316 379
#     4  12  25  41  67  96 132 176 219 264 328 387
#     4  12  23  42  64  89 128 173 227 271 313 383
#     4  11  23  39  66  92 129 171 214 269 335 388
#     4  11  21  36  61  94 137 166 204 260 329 405
#
# _framework density 21.856341
#
# number of rings (size 3 to 8) (size 9 to 14) (size 15 to 20)
#    0.000    0.500    1.250    9.750    1.750    0.000 
#    0.000    0.000    0.000   15.000    0.000    0.000 
#    0.000    0.000    0.000    0.000    0.000    0.000 
#
# Total GULP energy -198487.132195 kJ/mol
# GULP energy per Si atom -12405.445762 kJ/mol
# Density = 2.180659 g / cm^3
# Si number density = 21.856341 Si / 1000 Ang^3
#
#
#
# Elastic Constant Matrix: (Units=GPa)
#
#
# Indices 1 2 3 4 5 6 
#
# 1 127.2489 36.0591 62.2274 7.9384 -13.5260 13.8783
# 2 36.0591 52.7444 22.3569 -1.3210 -2.4298 10.6535
# 3 62.2274 22.3569 144.8115 -3.7296 -6.0254 12.3668
# 4 7.9384 -1.3210 -3.7296 32.7849 2.0266 -2.9025
# 5 -13.5260 -2.4298 -6.0254 2.0266 50.4255 -3.4252
# 6 13.8783 10.6535 12.3668 -2.9025 -3.4252 32.9442
#
#
#
# Elastic Compliance Matrix: (Units=1/GPa)
#
#
# Indices 1 2 3 4 5 6 
#
# 1 0.012430 -0.006354 -0.004214 -0.004054 0.002573 -0.001690
# 2 -0.006354 0.024576 -0.000629 0.002081 -0.001016 -0.004957
# 3 -0.004214 -0.000629 0.008958 0.001920 -0.000252 -0.001241
# 4 -0.004054 0.002081 0.001920 0.032162 -0.001850 0.002955
# 5 0.002573 -0.001016 -0.000252 -0.001850 0.020606 0.001319
# 6 -0.001690 -0.004957 -0.001241 0.002955 0.001319 0.033533
#
#
# Mechanical properties :
#
#
# Convention : Reuss Voigt Hill
#
# Bulk Modulus (GPa) = 42.42368 62.89906 52.66137
# Shear Modulus (GPa) = 30.76620 36.84168 33.80394
#
# Velocity S-wave (km/s) = 3.75594 4.11010 3.93700
# Velocity P-wave (km/s) = 6.18562 7.16692 6.69427
#
# Compressibility (1/GPa) = 0.02357174
#
# Stress axis : x y z
#
# Youngs Moduli (GPa) = 80.44863 40.68942 111.62834
#
# Poissons Ratio (x) = 0.25853 0.47036
# Poissons Ratio (y) = 0.51115 0.07025
# Poissons Ratio (z) = 0.33898 0.02561
#
# Static dielectric constant tensor:
#      x y z
#    x 4.143820 0.166970 -0.290850 
#    y 0.166970 3.627580 -0.159240 
#    z -0.290850 -0.159240 4.277990 
# 
# 
# High freq. dielectric constant tensor:
#      x y z
#    x 1.868310 0.015600 -0.007110 
#    y 0.015600 1.827740 -0.009990 
#    z -0.007110 -0.009990 1.885580 
# 
# From -- ./inp_files/612378.got.cif
#   From: 2010.06.25/outbox.cif.g09.slc.cpg/sg2_307_cif.got.tgz:612378.got - 2010.06.27 13:26:56.
