data_PCOD8029168
_publ_section_title
;
Structure prediction by ZEFSAII (Michael W. Deem and Ramdas Pophale) SiO2 
 PCOD8029168
Probable space group: P -1
;
_chemical_formula_sum "Si O2"
_cell_formula_units_Z 14
_cell_length_a 8.933745
_cell_length_b 11.610560
_cell_length_c 17.306816
_cell_angle_alpha 33.819701
_cell_angle_beta 126.403700
_cell_angle_gamma 138.885322
_cell_volume 654.425421
_symmetry_space_group_name_H-M "P -1"
_symmetry_group_IT_number 2
_symmetry_cell_setting 'triclinic'
loop_
_space_group_symop_operation_xyz
x,y,z
-x,-y,-z
loop_
_atom_site_type_symbol
_atom_site_label
_atom_site_fract_x
_atom_site_fract_y
_atom_site_fract_z
Si Si1 0.690256 0.717057 0.383587
Si Si2 0.479864 0.522855 0.690225
Si Si3 0.277357 0.719217 0.081621
Si Si4 0.846676 0.442557 0.187066
Si Si5 0.894174 0.064261 0.501182
Si Si6 0.356323 0.836189 0.877475
Si Si7 0.741075 0.762574 0.061231
O O1 0.500000 0.500000 0.500000
O O2 0.686746 0.589315 0.372724
O O3 0.944674 0.861057 0.416144
O O4 0.609765 0.899802 0.244211
O O5 0.678806 0.482181 0.762068
O O6 0.321712 0.366186 0.801917
O O7 0.630976 0.830029 0.571326
O O8 0.086905 0.696850 0.090608
O O9 0.203644 0.657071 0.003047
O O10 0.500000 0.000000 0.000000
O O11 0.881363 0.298724 0.345835
O O12 0.753504 0.263857 0.183496
O O13 0.693831 0.536174 0.116023
O O14 0.000000 0.000000 0.500000
O O15 0.593213 0.863670 0.935048
O O16 0.000000 0.000000 0.000000
#
# Coordination Sequence:
#
# PCOD8029168 Si02
#       7
#     2   2   2   2   2   2   2
#     4  12  22  39  73 103 131 170 227 277 329 391
#     4  11  23  45  65 100 136 173 225 274 329 398
#     4  11  20  36  67  96 130 166 221 279 326 380
#     4  12  23  44  65  96 137 170 222 275 328 401
#     4  12  23  41  70 103 130 174 219 283 330 383
#     4  11  23  40  67  99 125 173 223 274 338 385
#     4  11  28  45  66  93 139 179 215 271 344 401
#
# _framework density 21.392811999999999
#
# number of rings (size 3 to 8) (size 9 to 14) (size 15 to 20)
#    0.000    0.571    5.714    2.571    2.000    1.714 
#    2.571    0.714    0.000    0.000    0.000    0.000 
#    0.000    0.000    0.000    0.000    0.000    0.000 
#
# Total GULP energy -173545.381776 kJ/mol
# GULP energy per Si atom -12396.098698 kJ/mol
# Density = 2.134412 g / cm^3
# Si number density = 21.392812 Si / 1000 Ang^3
#
#
#
# Elastic Constant Matrix: (Units=GPa)
#
#
# Indices 1 2 3 4 5 6 
#
# 1 90.6791 41.3864 38.6943 2.5006 -10.1812 2.2896
# 2 41.3864 128.4679 48.8266 3.1036 -12.9524 -0.3640
# 3 38.6943 48.8266 108.0616 5.2003 -1.6694 13.5261
# 4 2.5006 3.1036 5.2003 35.3727 2.5377 -6.5628
# 5 -10.1812 -12.9524 -1.6694 2.5377 41.6926 -2.3001
# 6 2.2896 -0.3640 13.5261 -6.5628 -2.3001 27.7451
#
#
#
# Elastic Compliance Matrix: (Units=1/GPa)
#
#
# Indices 1 2 3 4 5 6 
#
# 1 0.014248 -0.002863 -0.003863 -0.000214 0.002494 0.000826
# 2 -0.002863 0.010487 -0.004004 0.000167 0.002530 0.002575
# 3 -0.003863 -0.004004 0.013418 -0.002517 -0.001885 -0.007027
# 4 -0.000214 0.000167 -0.002517 0.030285 -0.001487 0.008287
# 5 0.002494 0.002530 -0.001885 -0.001487 0.025534 0.002511
# 6 0.000826 0.002575 -0.007027 0.008287 0.002511 0.041602
#
#
# Mechanical properties :
#
#
# Convention : Reuss Voigt Hill
#
# Bulk Modulus (GPa) = 59.90821 65.00257 62.45539
# Shear Modulus (GPa) = 30.75067 34.18218 32.46643
#
# Velocity S-wave (km/s) = 3.79546 4.00163 3.89991
# Velocity P-wave (km/s) = 6.87547 7.19735 7.03825
#
# Compressibility (1/GPa) = 0.01669220
#
# Stress axis : x y z
#
# Youngs Moduli (GPa) = 70.18556 95.35892 74.52621
#
# Poissons Ratio (x) = 0.27301 0.28788
# Poissons Ratio (y) = 0.20094 0.29844
# Poissons Ratio (z) = 0.27111 0.38186
#
# Static dielectric constant tensor:
#      x y z
#    x 4.092140 -0.211770 0.243290 
#    y -0.211770 4.072220 0.125060 
#    z 0.243290 0.125060 5.011200 
# 
# 
# High freq. dielectric constant tensor:
#      x y z
#    x 1.823620 -0.009150 -0.010520 
#    y -0.009150 1.845030 -0.001020 
#    z -0.010520 -0.001020 1.853190 
# 
# From -- ./inp_files/239061.got.cif
#   From: 2010.06.25/outbox.cif.g09.slc.cpg/sg2_120_cif.got.tgz:239061.got - 2010.06.27 13:26:56.
