data_PCOD8029143
_publ_section_title
;
Structure prediction by ZEFSAII (Michael W. Deem and Ramdas Pophale) SiO2 
 PCOD8029143
Probable space group: P -1
;
_chemical_formula_sum "Si O2"
_cell_formula_units_Z 16
_cell_length_a 7.961712
_cell_length_b 15.363427
_cell_length_c 12.185153
_cell_angle_alpha 133.265551
_cell_angle_beta 53.536807
_cell_angle_gamma 97.083008
_cell_volume 763.353487
_symmetry_space_group_name_H-M "P -1"
_symmetry_group_IT_number 2
_symmetry_cell_setting 'triclinic'
loop_
_space_group_symop_operation_xyz
x,y,z
-x,-y,-z
loop_
_atom_site_type_symbol
_atom_site_label
_atom_site_fract_x
_atom_site_fract_y
_atom_site_fract_z
Si Si1 0.126335 0.610772 0.720994
Si Si2 0.382435 0.265862 0.036731
Si Si3 0.062945 0.996848 0.645873
Si Si4 0.523610 0.667849 0.547968
Si Si5 0.409495 0.893751 0.961592
Si Si6 0.835004 0.657971 0.224471
Si Si7 0.833633 0.223232 0.745374
Si Si8 0.245914 0.174439 0.809596
O O1 0.294602 0.643711 0.605126
O O2 0.266206 0.458768 0.580333
O O3 0.896777 0.619990 0.752877
O O4 0.030154 0.721889 0.954120
O O5 0.448802 0.198897 0.070883
O O6 0.559649 0.324866 0.980567
O O7 0.419775 0.154494 0.828305
O O8 0.935452 0.103028 0.690138
O O9 0.271155 0.026982 0.639201
O O10 0.873606 0.021704 0.835960
O O11 0.168473 0.841877 0.428581
O O12 0.457061 0.804621 0.757815
O O13 0.611401 0.682147 0.406638
O O14 0.500000 0.000000 0.000000
O O15 0.008067 0.702607 0.259298
O O16 0.713898 0.748082 0.241534
O O17 0.000000 0.500000 0.000000
#
# Coordination Sequence:
#
# PCOD8029143 Si02
#       8
#     2   2   2   2   2   2   2   2
#     4   9  20  39  60  87 112 159 203 236 293 354
#     4   9  20  39  58  87 120 154 202 244 295 348
#     4   9  17  35  55  81 112 154 203 229 283 363
#     4  11  21  37  63  86 117 160 201 236 297 358
#     4  11  21  35  57  84 122 156 194 248 292 352
#     4  11  20  36  58  86 114 149 200 246 286 345
#     4   9  19  32  59  83 113 155 192 241 293 343
#     4   9  18  38  58  82 115 153 195 242 288 342
#
# _framework density 20.960145000000001
#
# number of rings (size 3 to 8) (size 9 to 14) (size 15 to 20)
#    0.750    1.500    2.500    0.750    0.000    2.000 
#    0.000    7.500    0.000    0.000    0.000    0.000 
#    0.000    0.000    0.000    0.000    0.000    0.000 
#
# Total GULP energy -198271.102182 kJ/mol
# GULP energy per Si atom -12391.943886 kJ/mol
# Density = 2.091244 g / cm^3
# Si number density = 20.960145 Si / 1000 Ang^3
#
#
#
# Elastic Constant Matrix: (Units=GPa)
#
#
# Indices 1 2 3 4 5 6 
#
# 1 44.4790 -4.5175 11.8922 -17.3140 -17.1623 7.1905
# 2 -4.5175 73.1392 36.5697 -26.8313 -7.6509 16.5551
# 3 11.8922 36.5697 84.7731 -21.4580 5.5860 6.7224
# 4 -17.3140 -26.8313 -21.4580 39.2249 8.0456 0.5065
# 5 -17.1623 -7.6509 5.5860 8.0456 33.4142 -2.9756
# 6 7.1905 16.5551 6.7224 0.5065 -2.9756 26.7482
#
#
#
# Elastic Compliance Matrix: (Units=1/GPa)
#
#
# Indices 1 2 3 4 5 6 
#
# 1 0.060351 0.034173 -0.013228 0.037180 0.029277 -0.031497
# 2 0.034173 0.044638 -0.014061 0.034440 0.018997 -0.031819
# 3 -0.013228 -0.014061 0.019423 -0.002421 -0.012137 0.006073
# 4 0.037180 0.034440 -0.002421 0.062573 0.009576 -0.030822
# 5 0.029277 0.018997 -0.012137 0.009576 0.048021 -0.011417
# 6 -0.031497 -0.031819 0.006073 -0.030822 -0.011417 0.063334
#
#
# Mechanical properties :
#
#
# Convention : Reuss Voigt Hill
#
# Bulk Modulus (GPa) = 7.23695 32.25336 19.74515
# Shear Modulus (GPa) = 15.12256 30.44058 22.78157
#
# Velocity S-wave (km/s) = 2.68897 3.81505 3.30039
# Velocity P-wave (km/s) = 3.61953 5.90148 4.89533
#
# Compressibility (1/GPa) = 0.13817971
#
# Stress axis : x y z
#
# Youngs Moduli (GPa) = 16.56970 22.40259 51.48527
#
# Poissons Ratio (x) = -0.76557 0.68107
# Poissons Ratio (y) = -0.56624 0.72393
# Poissons Ratio (z) = 0.21919 0.31500
#
# Static dielectric constant tensor:
#      x y z
#    x 3.801670 0.252610 -0.022040 
#    y 0.252610 3.572700 -0.206130 
#    z -0.022040 -0.206130 4.104050 
# 
# 
# High freq. dielectric constant tensor:
#      x y z
#    x 1.815480 0.021680 -0.003180 
#    y 0.021680 1.795970 -0.018390 
#    z -0.003180 -0.018390 1.831380 
# 
# From -- ./inp_files/399547.got.cif
#   From: 2010.06.25/outbox.cif.g09.slc.cpg/sg2_200_cif.got.tgz:399547.got - 2010.06.27 13:26:56.
