data_PCOD8029545
_publ_section_title
;
Structure prediction by ZEFSAII (Michael W. Deem and Ramdas Pophale) SiO2 
 PCOD8029545
Probable space group: P -1
;
_chemical_formula_sum "Si O2"
_cell_formula_units_Z 16
_cell_length_a 20.065136
_cell_length_b 12.350787
_cell_length_c 16.686061
_cell_angle_alpha 148.945565
_cell_angle_beta 159.207343
_cell_angle_gamma 33.315566
_cell_volume 743.451936
_symmetry_space_group_name_H-M "P -1"
_symmetry_group_IT_number 2
_symmetry_cell_setting 'triclinic'
loop_
_space_group_symop_operation_xyz
x,y,z
-x,-y,-z
loop_
_atom_site_type_symbol
_atom_site_label
_atom_site_fract_x
_atom_site_fract_y
_atom_site_fract_z
Si Si1 0.761089 0.139008 0.590823
Si Si2 0.932805 0.130288 0.122381
Si Si3 0.799192 0.483492 0.600686
Si Si4 0.788827 0.604666 0.938534
Si Si5 0.790801 0.768881 0.630116
Si Si6 0.573053 0.183882 0.244358
Si Si7 0.635226 0.845776 0.769408
Si Si8 0.424834 0.723392 0.099996
O O1 0.818509 0.367190 0.785857
O O2 0.704538 0.073915 0.396589
O O3 0.585661 0.167265 0.473625
O O4 0.936076 0.975334 0.722989
O O5 0.049614 0.262206 0.279970
O O6 0.754910 0.305686 0.065582
O O7 0.838963 0.953904 0.858730
O O8 0.788210 0.550513 0.537443
O O9 0.679340 0.303866 0.374486
O O10 0.723302 0.699221 0.701681
O O11 0.018568 0.371429 0.786289
O O12 0.606216 0.643794 0.816216
O O13 0.760685 0.772536 0.941683
O O14 0.582800 0.821860 0.389534
O O15 0.500000 0.000000 0.000000
O O16 0.655291 0.090868 0.935609
O O17 0.500000 0.500000 0.000000
#
# Coordination Sequence:
#
# PCOD8029545 Si02
#       8
#     2   2   2   2   2   2   2   2
#     4  11  20  44  73 102 134 180 230 289 343 407
#     4  11  24  44  73 101 137 182 239 295 334 405
#     4  12  23  40  75 102 132 183 232 285 343 413
#     4  11  22  41  71 106 130 176 234 283 346 413
#     4  11  25  43  68 103 137 180 240 284 338 398
#     4  11  26  43  64 104 148 176 216 288 353 414
#     4  11  21  41  71 100 137 177 239 285 337 416
#     4  12  27  45  67  99 142 187 230 286 354 407
#
# _framework density 21.521232000000001
#
# number of rings (size 3 to 8) (size 9 to 14) (size 15 to 20)
#    0.000    0.750    6.250    1.500    1.750    4.000 
#    2.250    0.000    0.000    0.000    0.000    0.000 
#    0.000    0.000    0.000    0.000    0.000    0.000 
#
# Total GULP energy -198371.688512 kJ/mol
# GULP energy per Si atom -12398.230532 kJ/mol
# Density = 2.147225 g / cm^3
# Si number density = 21.521232 Si / 1000 Ang^3
#
#
#
# Elastic Constant Matrix: (Units=GPa)
#
#
# Indices 1 2 3 4 5 6 
#
# 1 127.4767 60.9431 63.5544 -7.9080 17.5433 20.0185
# 2 60.9431 84.9717 44.3385 -6.3857 2.2509 8.4034
# 3 63.5544 44.3385 106.3502 -12.0092 6.4417 5.1235
# 4 -7.9080 -6.3857 -12.0092 35.1340 -4.3690 6.8112
# 5 17.5433 2.2509 6.4417 -4.3690 40.0499 2.1431
# 6 20.0185 8.4034 5.1235 6.8112 2.1431 33.1212
#
#
#
# Elastic Compliance Matrix: (Units=1/GPa)
#
#
# Indices 1 2 3 4 5 6 
#
# 1 0.016296 -0.007814 -0.005722 0.000957 -0.005309 -0.006835
# 2 -0.007814 0.019127 -0.003381 0.000933 0.002993 0.000007
# 3 -0.005722 -0.003381 0.014444 0.002826 0.000603 0.001462
# 4 0.000957 0.000933 0.002826 0.031726 0.002961 -0.007968
# 5 -0.005309 0.002993 0.000603 0.002961 0.027353 -0.000023
# 6 -0.006835 0.000007 0.001462 -0.007968 -0.000023 0.035735
#
#
# Mechanical properties :
#
#
# Convention : Reuss Voigt Hill
#
# Bulk Modulus (GPa) = 62.36837 72.94116 67.65476
# Shear Modulus (GPa) = 27.19453 31.65853 29.42653
#
# Velocity S-wave (km/s) = 3.55859 3.83957 3.70175
# Velocity P-wave (km/s) = 6.77699 7.32275 7.05515
#
# Compressibility (1/GPa) = 0.01603377
#
# Stress axis : x y z
#
# Youngs Moduli (GPa) = 61.36461 52.28194 69.23180
#
# Poissons Ratio (x) = 0.40851 0.39615
# Poissons Ratio (y) = 0.47947 0.23409
# Poissons Ratio (z) = 0.35113 0.17678
#
# Static dielectric constant tensor:
#      x y z
#    x 4.153040 0.153390 0.264830 
#    y 0.153390 3.843850 -0.260040 
#    z 0.264830 -0.260040 3.932120 
# 
# 
# High freq. dielectric constant tensor:
#      x y z
#    x 1.850300 0.017590 0.023020 
#    y 0.017590 1.832900 -0.019060 
#    z 0.023020 -0.019060 1.847970 
# 
# From -- ./inp_files/472420.got.cif
#   From: 2010.06.25/outbox.cif.g09.slc.cpg/sg2_237_cif.got.tgz:472420.got - 2010.06.27 13:26:56.
