data_PCOD8029984
_publ_section_title
;
Structure prediction by ZEFSAII (Michael W. Deem and Ramdas Pophale) SiO2 
 PCOD8029984
Probable space group: P -1
;
_chemical_formula_sum "Si O2"
_cell_formula_units_Z 16
_cell_length_a 9.498129
_cell_length_b 12.207977
_cell_length_c 9.376851
_cell_angle_alpha 80.261044
_cell_angle_beta 60.966873
_cell_angle_gamma 114.425345
_cell_volume 766.486621
_symmetry_space_group_name_H-M "P -1"
_symmetry_group_IT_number 2
_symmetry_cell_setting 'triclinic'
loop_
_space_group_symop_operation_xyz
x,y,z
-x,-y,-z
loop_
_atom_site_type_symbol
_atom_site_label
_atom_site_fract_x
_atom_site_fract_y
_atom_site_fract_z
Si Si1 0.898873 0.609856 0.498067
Si Si2 0.657786 0.256155 0.065156
Si Si3 0.297318 0.687478 0.393205
Si Si4 0.660141 0.879298 0.973717
Si Si5 0.947470 0.187087 0.846010
Si Si6 0.710454 0.531984 0.909759
Si Si7 0.075147 0.215640 0.078552
Si Si8 0.673282 0.155672 0.372916
O O1 0.752515 0.463065 0.525496
O O2 0.834079 0.609971 0.690559
O O3 0.126533 0.660471 0.376112
O O4 0.902313 0.724795 0.377015
O O5 0.628812 0.226229 0.254057
O O6 0.456264 0.141061 0.110267
O O7 0.847408 0.261697 0.926314
O O8 0.704557 0.400123 0.969538
O O9 0.507941 0.784159 0.193229
O O10 0.297178 0.757996 0.521453
O O11 0.819443 0.844945 0.880179
O O12 0.774774 0.035731 0.921589
O O13 0.074064 0.189659 0.915348
O O14 0.807355 0.624969 0.980658
O O15 0.500000 0.500000 0.000000
O O16 0.856321 0.146455 0.259277
O O17 0.500000 0.000000 0.500000
#
# Coordination Sequence:
#
# PCOD8029984 Si02
#       8
#     2   2   2   2   2   2   2   2
#     4  11  22  40  66 100 125 175 229 280 322 401
#     4  11  23  41  70  97 130 182 224 271 342 402
#     4  11  21  41  68  94 135 169 225 277 330 396
#     4  12  23  46  68  97 138 182 222 280 343 405
#     4  11  25  40  69  99 131 177 236 271 335 404
#     4  12  23  46  67  99 140 178 224 282 348 399
#     4  11  25  44  67  95 143 178 215 286 349 393
#     4  11  26  43  67 102 136 176 231 281 334 404
#
# _framework density 20.874469999999999
#
# number of rings (size 3 to 8) (size 9 to 14) (size 15 to 20)
#    0.000    0.750    5.000    3.000    3.500    1.000 
#    4.500    2.500    0.000    0.000    0.000    0.000 
#    0.000    0.000    0.000    0.000    0.000    0.000 
#
# Total GULP energy -198402.615065 kJ/mol
# GULP energy per Si atom -12400.163442 kJ/mol
# Density = 2.082696 g / cm^3
# Si number density = 20.874470 Si / 1000 Ang^3
#
#
#
# Elastic Constant Matrix: (Units=GPa)
#
#
# Indices 1 2 3 4 5 6 
#
# 1 75.9566 10.6228 33.0163 2.9312 -5.3664 -0.9125
# 2 10.6228 107.2345 46.5301 -13.4507 3.3688 17.2318
# 3 33.0163 46.5301 111.4831 -12.0374 -0.6591 10.4138
# 4 2.9312 -13.4507 -12.0374 33.9201 7.1929 -1.5905
# 5 -5.3664 3.3688 -0.6591 7.1929 26.3205 4.4361
# 6 -0.9125 17.2318 10.4138 -1.5905 4.4361 37.5839
#
#
#
# Elastic Compliance Matrix: (Units=1/GPa)
#
#
# Indices 1 2 3 4 5 6 
#
# 1 0.015893 -0.000170 -0.005168 -0.004072 0.004035 0.001247
# 2 -0.000170 0.012414 -0.004369 0.003626 -0.002034 -0.004092
# 3 -0.005168 -0.004369 0.012817 0.003377 -0.000855 -0.001430
# 4 -0.004072 0.003626 0.003377 0.034742 -0.010710 0.000037
# 5 0.004035 -0.002034 -0.000855 -0.010710 0.042694 -0.004225
# 6 0.001247 -0.004092 -0.001430 0.000037 -0.004225 0.029410
#
#
# Mechanical properties :
#
#
# Convention : Reuss Voigt Hill
#
# Bulk Modulus (GPa) = 46.06208 52.77918 49.42063
# Shear Modulus (GPa) = 28.63326 33.19855 30.91590
#
# Velocity S-wave (km/s) = 3.70765 3.99230 3.85260
# Velocity P-wave (km/s) = 6.35948 6.82570 6.59671
#
# Compressibility (1/GPa) = 0.02170983
#
# Stress axis : x y z
#
# Youngs Moduli (GPa) = 62.92129 80.55167 78.01910
#
# Poissons Ratio (x) = 0.01367 0.40322
# Poissons Ratio (y) = 0.01068 0.34090
# Poissons Ratio (z) = 0.32519 0.35196
#
# Static dielectric constant tensor:
#      x y z
#    x 3.958550 0.222470 0.059560 
#    y 0.222470 3.866540 0.184070 
#    z 0.059560 0.184070 3.638000 
# 
# 
# High freq. dielectric constant tensor:
#      x y z
#    x 1.816090 0.013180 0.000020 
#    y 0.013180 1.830160 -0.001640 
#    z 0.000020 -0.001640 1.815250 
# 
# From -- ./inp_files/185797.got.cif
#   From: 2010.06.25/outbox.cif.g09.slc.cpg/sg2_93_cif.got.tgz:185797.got - 2010.06.27 13:26:56.
