data_PCOD8029048
_publ_section_title
;
Structure prediction by ZEFSAII (Michael W. Deem and Ramdas Pophale) SiO2 
 PCOD8029048
Probable space group: P -1
;
_chemical_formula_sum "Si O2"
_cell_formula_units_Z 14
_cell_length_a 9.275918
_cell_length_b 11.412779
_cell_length_c 17.544853
_cell_angle_alpha 29.746388
_cell_angle_beta 50.222159
_cell_angle_gamma 61.402352
_cell_volume 693.711432
_symmetry_space_group_name_H-M "P -1"
_symmetry_group_IT_number 2
_symmetry_cell_setting 'triclinic'
loop_
_space_group_symop_operation_xyz
x,y,z
-x,-y,-z
loop_
_atom_site_type_symbol
_atom_site_label
_atom_site_fract_x
_atom_site_fract_y
_atom_site_fract_z
Si Si1 0.375923 0.557280 0.442906
Si Si2 0.600980 0.403948 0.330167
Si Si3 0.288877 0.066540 0.034971
Si Si4 0.376415 0.079753 0.157475
Si Si5 0.954358 0.422541 0.645128
Si Si6 0.775910 0.991452 0.580306
Si Si7 0.619125 0.577704 0.753455
O O1 0.500000 0.500000 0.500000
O O2 0.407562 0.398935 0.447705
O O3 0.155696 0.486038 0.585058
O O4 0.454087 0.841398 0.241881
O O5 0.729078 0.227641 0.421345
O O6 0.534445 0.348633 0.296112
O O7 0.720980 0.677491 0.144271
O O8 0.229088 0.094650 0.128921
O O9 0.137536 0.861256 0.159711
O O10 0.500000 0.000000 0.000000
O O11 0.283286 0.037622 0.295421
O O12 0.543199 0.317625 0.964672
O O13 0.816255 0.577580 0.643134
O O14 0.000000 0.500000 0.500000
O O15 0.655042 0.767107 0.702357
O O16 0.000000 0.000000 0.500000
#
# Coordination Sequence:
#
# PCOD8029048 Si02
#       7
#     2   2   2   2   2   2   2
#     4  12  22  37  64  99 132 160 208 273 327 374
#     4  11  22  43  66  92 131 168 213 264 321 383
#     4  11  19  40  69 101 127 159 212 272 324 376
#     4  11  21  42  67  91 133 166 208 272 326 372
#     4  12  20  37  71 100 124 166 214 264 324 388
#     4  12  27  43  63  91 132 177 219 261 315 387
#     4  11  23  43  66  93 125 177 215 253 326 387
#
# _framework density 20.1813
#
# number of rings (size 3 to 8) (size 9 to 14) (size 15 to 20)
#    0.000    0.571    8.571    1.714    0.000    0.000 
#    2.571    4.286    0.000    0.000    0.000    0.000 
#    0.000    0.000    0.000    0.000    0.000    0.000 
#
# Total GULP energy -173470.713567 kJ/mol
# GULP energy per Si atom -12390.765255 kJ/mol
# Density = 2.013537 g / cm^3
# Si number density = 20.181300 Si / 1000 Ang^3
#
#
#
# Elastic Constant Matrix: (Units=GPa)
#
#
# Indices 1 2 3 4 5 6 
#
# 1 106.8957 50.9054 62.9695 -1.5409 9.6200 -7.4852
# 2 50.9054 91.2307 38.8239 -11.7629 4.2065 1.0480
# 3 62.9695 38.8239 117.1993 -19.5543 4.2428 -13.4876
# 4 -1.5409 -11.7629 -19.5543 37.6589 7.5901 1.2029
# 5 9.6200 4.2065 4.2428 7.5901 22.4123 -2.6123
# 6 -7.4852 1.0480 -13.4876 1.2029 -2.6123 37.4511
#
#
#
# Elastic Compliance Matrix: (Units=1/GPa)
#
#
# Indices 1 2 3 4 5 6 
#
# 1 0.017456 -0.006976 -0.007674 -0.004877 -0.002978 0.000869
# 2 -0.006976 0.015978 -0.001001 0.004599 -0.001660 -0.002465
# 3 -0.007674 -0.001001 0.014617 0.007114 -0.001294 0.003440
# 4 -0.004877 0.004599 0.007114 0.033843 -0.011629 -0.000440
# 5 -0.002978 -0.001660 -0.001294 -0.011629 0.050729 0.002897
# 6 0.000869 -0.002465 0.003440 -0.000440 0.002897 0.028399
#
#
# Mechanical properties :
#
#
# Convention : Reuss Voigt Hill
#
# Bulk Modulus (GPa) = 59.70695 68.96927 64.33811
# Shear Modulus (GPa) = 25.26461 30.34625 27.80543
#
# Velocity S-wave (km/s) = 3.54203 3.88194 3.71588
# Velocity P-wave (km/s) = 6.81010 7.37168 7.09645
#
# Compressibility (1/GPa) = 0.01674847
#
# Stress axis : x y z
#
# Youngs Moduli (GPa) = 57.28685 62.58796 68.41505
#
# Poissons Ratio (x) = 0.43662 0.52500
# Poissons Ratio (y) = 0.39964 0.06848
# Poissons Ratio (z) = 0.43961 0.06265
#
# Static dielectric constant tensor:
#      x y z
#    x 3.770240 0.352050 0.278000 
#    y 0.352050 3.753390 -0.177530 
#    z 0.278000 -0.177530 3.339410 
# 
# 
# High freq. dielectric constant tensor:
#      x y z
#    x 1.776530 0.023700 0.008290 
#    y 0.023700 1.785290 -0.001470 
#    z 0.008290 -0.001470 1.799950 
# 
# From -- ./inp_files/206495.got.cif
#   From: 2010.06.25/outbox.cif.g09.slc.cpg/sg2_104_cif.got.tgz:206495.got - 2010.06.27 13:26:56.
