data_PCOD8029018
_publ_section_title
;
Structure prediction by ZEFSAII (Michael W. Deem and Ramdas Pophale) SiO2 
 PCOD8029018
Probable space group: P -1
;
_chemical_formula_sum "Si O2"
_cell_formula_units_Z 14
_cell_length_a 12.290574
_cell_length_b 18.222598
_cell_length_c 9.321896
_cell_angle_alpha 131.953117
_cell_angle_beta 142.746656
_cell_angle_gamma 26.498316
_cell_volume 556.408792
_symmetry_space_group_name_H-M "P -1"
_symmetry_group_IT_number 2
_symmetry_cell_setting 'triclinic'
loop_
_space_group_symop_operation_xyz
x,y,z
-x,-y,-z
loop_
_atom_site_type_symbol
_atom_site_label
_atom_site_fract_x
_atom_site_fract_y
_atom_site_fract_z
Si Si1 0.259553 0.786259 0.746392
Si Si2 0.064268 0.689524 0.597266
Si Si3 0.358038 0.848330 0.437585
Si Si4 0.235743 0.188102 0.023692
Si Si5 0.429855 0.885104 0.238196
Si Si6 0.816575 0.482925 0.760202
Si Si7 0.893808 0.237523 0.990069
O O1 0.126669 0.761833 0.675019
O O2 0.470760 0.645583 0.661963
O O3 0.468970 0.766960 0.034863
O O4 0.973866 0.969702 0.615660
O O5 0.202054 0.537069 0.453573
O O6 0.702793 0.838035 0.427754
O O7 0.219810 0.627974 0.839316
O O8 0.615508 0.774374 0.719127
O O9 0.424730 0.862672 0.370462
O O10 0.365678 0.724909 0.283814
O O11 0.051386 0.218156 0.996000
O O12 0.997262 0.315302 0.813309
O O13 0.500000 0.000000 0.000000
O O14 0.120505 0.072991 0.111476
O O15 0.000000 0.500000 0.000000
#
# Coordination Sequence:
#
# PCOD8029018 Si02
#       7
#     2   2   2   2   2   2   2
#     4  11  22  42  71 108 138 188 241 286 353 430
#     4  12  21  41  75 100 136 193 240 284 342 437
#     4  11  22  43  77 109 142 179 247 301 346 417
#     4  12  28  47  71 110 147 184 237 304 357 415
#     4  11  19  38  75 109 139 179 244 295 348 419
#     4  12  28  50  69 103 153 195 227 292 373 428
#     4  11  22  40  73 108 134 182 244 297 340 410
#
# _framework density 25.161356999999999
#
# number of rings (size 3 to 8) (size 9 to 14) (size 15 to 20)
#    0.000    0.571    5.714    4.286    2.000    0.571 
#    5.143    3.571    0.000    0.000    0.000    0.000 
#    0.000    0.000    0.000    0.000    0.000    0.000 
#
# Total GULP energy -173608.474347 kJ/mol
# GULP energy per Si atom -12400.605311 kJ/mol
# Density = 2.510409 g / cm^3
# Si number density = 25.161357 Si / 1000 Ang^3
#
#
#
# Elastic Constant Matrix: (Units=GPa)
#
#
# Indices 1 2 3 4 5 6 
#
# 1 139.2248 34.4610 61.6481 17.7361 8.4485 -24.2103
# 2 34.4610 70.8671 28.4303 10.6952 -19.4901 -19.4059
# 3 61.6481 28.4303 117.7123 22.0905 15.0500 -2.2987
# 4 17.7361 10.6952 22.0905 42.0761 -3.9716 -0.8071
# 5 8.4485 -19.4901 15.0500 -3.9716 48.9600 10.0544
# 6 -24.2103 -19.4059 -2.2987 -0.8071 10.0544 26.2410
#
#
#
# Elastic Compliance Matrix: (Units=1/GPa)
#
#
# Indices 1 2 3 4 5 6 
#
# 1 0.012151 -0.001641 -0.004852 -0.002296 -0.003686 0.010914
# 2 -0.001641 0.022683 -0.005228 -0.001311 0.008447 0.011527
# 3 -0.004852 -0.005228 0.013593 -0.004306 -0.004641 -0.005507
# 4 -0.002296 -0.001311 -0.004306 0.027654 0.004318 -0.004269
# 5 -0.003686 0.008447 -0.004641 0.004318 0.027864 -0.008104
# 6 0.010914 0.011527 -0.005507 -0.004269 -0.008104 0.059194
#
#
# Mechanical properties :
#
#
# Convention : Reuss Voigt Hill
#
# Bulk Modulus (GPa) = 40.02306 64.09811 52.06059
# Shear Modulus (GPa) = 25.65267 37.00641 31.32954
#
# Velocity S-wave (km/s) = 3.19647 3.83921 3.53249
# Velocity P-wave (km/s) = 5.43731 6.72182 6.11339
#
# Compressibility (1/GPa) = 0.02498559
#
# Stress axis : x y z
#
# Youngs Moduli (GPa) = 82.29445 44.08498 73.56646
#
# Poissons Ratio (x) = 0.07233 0.35697
# Poissons Ratio (y) = 0.13503 0.38461
# Poissons Ratio (z) = 0.39932 0.23048
#
# Static dielectric constant tensor:
#      x y z
#    x 4.604420 -0.348100 -0.086040 
#    y -0.348100 4.737000 0.448900 
#    z -0.086040 0.448900 5.401070 
# 
# 
# High freq. dielectric constant tensor:
#      x y z
#    x 2.008540 -0.011080 0.009310 
#    y -0.011080 1.989100 0.020440 
#    z 0.009310 0.020440 2.030030 
# 
# From -- ./inp_files/279997.got.cif
#   From: 2010.06.25/outbox.cif.g09.slc.cpg/sg2_140_cif.got.tgz:279997.got - 2010.06.27 13:26:56.
