data_PCOD8029331
_publ_section_title
;
Structure prediction by ZEFSAII (Michael W. Deem and Ramdas Pophale) SiO2 
 PCOD8029331
Probable space group: P -1
;
_chemical_formula_sum "Si O2"
_cell_formula_units_Z 16
_cell_length_a 9.631941
_cell_length_b 15.174507
_cell_length_c 8.655497
_cell_angle_alpha 103.817065
_cell_angle_beta 75.345067
_cell_angle_gamma 44.961939
_cell_volume 684.535292
_symmetry_space_group_name_H-M "P -1"
_symmetry_group_IT_number 2
_symmetry_cell_setting 'triclinic'
loop_
_space_group_symop_operation_xyz
x,y,z
-x,-y,-z
loop_
_atom_site_type_symbol
_atom_site_label
_atom_site_fract_x
_atom_site_fract_y
_atom_site_fract_z
Si Si1 0.484330 0.740880 0.044823
Si Si2 0.916628 0.036876 0.354846
Si Si3 0.673168 0.118429 0.158020
Si Si4 0.844712 0.614013 0.444871
Si Si5 0.075490 0.344999 0.088754
Si Si6 0.997845 0.842172 0.457559
Si Si7 0.875274 0.396788 0.840350
Si Si8 0.775378 0.890640 0.850650
O O1 0.438714 0.751632 0.877573
O O2 0.656323 0.741617 0.023654
O O3 0.609971 0.584498 0.008922
O O4 0.211924 0.894673 0.258021
O O5 0.877105 0.055966 0.190135
O O6 0.812238 0.185884 0.517901
O O7 0.828482 0.989503 0.444664
O O8 0.438709 0.211410 0.369263
O O9 0.808148 0.967178 0.966595
O O10 0.000000 0.500000 0.500000
O O11 0.860627 0.528580 0.270860
O O12 0.968575 0.640185 0.357169
O O13 0.055089 0.276035 0.193309
O O14 0.024688 0.327558 0.929471
O O15 0.833348 0.874991 0.646602
O O16 0.155672 0.691402 0.242361
O O17 0.500000 0.000000 0.000000
#
# Coordination Sequence:
#
# PCOD8029331 Si02
#       8
#     2   2   2   2   2   2   2   2
#     4  11  22  43  70  93 137 173 215 270 321 394
#     4  11  26  46  66  92 134 181 227 256 324 396
#     4  12  23  41  71  97 129 180 212 269 329 392
#     4  11  20  40  67 101 134 165 211 275 337 384
#     4  11  23  41  70 104 131 170 214 275 341 389
#     4  11  25  44  65  95 135 172 222 276 315 387
#     4  11  24  42  69  99 133 172 219 275 336 380
#     4  12  22  41  69  98 136 165 215 279 335 381
#
# _framework density 23.373522000000001
#
# number of rings (size 3 to 8) (size 9 to 14) (size 15 to 20)
#    0.000    0.750    5.000    4.125    0.000    5.500 
#    0.000    6.250    0.000    0.000    0.000    0.000 
#    0.000    0.000    0.000    0.000    0.000    0.000 
#
# Total GULP energy -198242.119264 kJ/mol
# GULP energy per Si atom -12390.132454 kJ/mol
# Density = 2.332032 g / cm^3
# Si number density = 23.373522 Si / 1000 Ang^3
#
#
#
# Elastic Constant Matrix: (Units=GPa)
#
#
# Indices 1 2 3 4 5 6 
#
# 1 94.6760 55.0923 40.0693 -1.8169 34.7067 2.2630
# 2 55.0923 114.7539 29.9658 -19.8269 13.8542 5.8434
# 3 40.0693 29.9658 89.8299 -6.8284 23.7143 2.7461
# 4 -1.8169 -19.8269 -6.8284 49.3595 0.2521 3.9231
# 5 34.7067 13.8542 23.7143 0.2521 51.5552 -3.9831
# 6 2.2630 5.8434 2.7461 3.9231 -3.9831 38.3162
#
#
#
# Elastic Compliance Matrix: (Units=1/GPa)
#
#
# Indices 1 2 3 4 5 6 
#
# 1 0.020559 -0.008115 -0.004093 -0.002988 -0.009792 -0.000395
# 2 -0.008115 0.013609 -0.001029 0.005160 0.002113 -0.001831
# 3 -0.004093 -0.001029 0.014433 0.001545 -0.003705 -0.001179
# 4 -0.002988 0.005160 0.001545 0.022684 -0.000436 -0.003089
# 5 -0.009792 0.002113 -0.003705 -0.000436 0.027391 0.003414
# 6 -0.000395 -0.001831 -0.001179 -0.003089 0.003414 0.027157
#
#
# Mechanical properties :
#
#
# Convention : Reuss Voigt Hill
#
# Bulk Modulus (GPa) = 45.19746 61.05719 53.12732
# Shear Modulus (GPa) = 31.31204 39.45502 35.38353
#
# Velocity S-wave (km/s) = 3.66408 4.11301 3.89502
# Velocity P-wave (km/s) = 6.10570 6.98104 6.55799
#
# Compressibility (1/GPa) = 0.02212514
#
# Stress axis : x y z
#
# Youngs Moduli (GPa) = 48.64114 73.48207 69.28540
#
# Poissons Ratio (x) = 0.59631 0.28360
# Poissons Ratio (y) = 0.39472 0.07133
# Poissons Ratio (z) = 0.19910 0.07565
#
# Static dielectric constant tensor:
#      x y z
#    x 4.282160 0.410770 0.086980 
#    y 0.410770 4.620500 -0.153420 
#    z 0.086980 -0.153420 4.449070 
# 
# 
# High freq. dielectric constant tensor:
#      x y z
#    x 1.907680 0.017160 0.009900 
#    y 0.017160 1.921430 -0.019340 
#    z 0.009900 -0.019340 1.941590 
# 
# From -- ./inp_files/208274.got.cif
#   From: 2010.06.25/outbox.cif.g09.slc.cpg/sg2_105_cif.got.tgz:208274.got - 2010.06.27 13:26:56.
