data_PCOD8029648
_publ_section_title
;
Structure prediction by ZEFSAII (Michael W. Deem and Ramdas Pophale) SiO2 
 PCOD8029648
Probable space group: P -1
;
_chemical_formula_sum "Si O2"
_cell_formula_units_Z 14
_cell_length_a 9.598322
_cell_length_b 13.414515
_cell_length_c 9.627244
_cell_angle_alpha 118.252749
_cell_angle_beta 39.489952
_cell_angle_gamma 121.217697
_cell_volume 667.991538
_symmetry_space_group_name_H-M "P -1"
_symmetry_group_IT_number 2
_symmetry_cell_setting 'triclinic'
loop_
_space_group_symop_operation_xyz
x,y,z
-x,-y,-z
loop_
_atom_site_type_symbol
_atom_site_label
_atom_site_fract_x
_atom_site_fract_y
_atom_site_fract_z
Si Si1 0.668831 0.907355 0.041774
Si Si2 0.879725 0.555211 0.251338
Si Si3 0.232823 0.174925 0.791907
Si Si4 0.260530 0.839546 0.899943
Si Si5 0.483912 0.651548 0.495391
Si Si6 0.768449 0.217544 0.806157
Si Si7 0.088737 0.977511 0.567673
O O1 0.699581 0.883003 0.162273
O O2 0.499239 0.794772 0.020673
O O3 0.588748 0.028673 0.169158
O O4 0.901709 0.933082 0.799429
O O5 0.700900 0.620972 0.375494
O O6 0.741114 0.459289 0.405901
O O7 0.079230 0.648900 0.241822
O O8 0.000000 0.500000 0.000000
O O9 0.428898 0.297651 0.691003
O O10 0.249563 0.095796 0.590789
O O11 0.981309 0.194683 0.019176
O O12 0.409619 0.749117 0.707231
O O13 0.187460 0.834822 0.114301
O O14 0.805017 0.132068 0.598402
O O15 0.000000 0.000000 0.500000
#
# Coordination Sequence:
#
# PCOD8029648 Si02
#       7
#     2   2   2   2   2   2   2
#     4  11  26  38  63  97 143 168 200 259 327 383
#     4  11  23  42  64  99 122 161 223 280 313 364
#     4  11  23  43  61  98 136 173 205 255 322 390
#     4  11  21  39  65  96 128 166 214 256 309 384
#     4  11  22  38  71  89 123 169 216 264 320 365
#     4  12  23  37  63  98 126 165 217 268 311 378
#     4  11  21  37  64  93 127 168 213 256 310 375
#
# _framework density 20.958348000000001
#
# number of rings (size 3 to 8) (size 9 to 14) (size 15 to 20)
#    0.000    0.857    5.714    3.000    4.000    3.429 
#    0.000    0.714    0.000    4.286    0.000    0.000 
#    0.000    0.000    0.000    0.000    0.000    0.000 
#
# Total GULP energy -173468.698203 kJ/mol
# GULP energy per Si atom -12390.621300 kJ/mol
# Density = 2.091065 g / cm^3
# Si number density = 20.958348 Si / 1000 Ang^3
#
#
#
# Elastic Constant Matrix: (Units=GPa)
#
#
# Indices 1 2 3 4 5 6 
#
# 1 79.0862 55.0100 12.1893 -12.9810 8.3922 6.1872
# 2 55.0100 155.6333 57.6872 -26.4958 -1.4085 17.2653
# 3 12.1893 57.6872 73.4393 4.0815 -2.8770 -9.0012
# 4 -12.9810 -26.4958 4.0815 45.6603 -12.5046 -8.6047
# 5 8.3922 -1.4085 -2.8770 -12.5046 27.6685 -8.0218
# 6 6.1872 17.2653 -9.0012 -8.6047 -8.0218 30.0846
#
#
#
# Elastic Compliance Matrix: (Units=1/GPa)
#
#
# Indices 1 2 3 4 5 6 
#
# 1 0.018010 -0.007610 0.002740 -0.001404 -0.006379 -0.000620
# 2 -0.007610 0.016079 -0.012735 0.007396 0.002636 -0.008655
# 3 0.002740 -0.012735 0.025208 -0.005692 0.002427 0.013307
# 4 -0.001404 0.007396 -0.005692 0.032620 0.017359 0.008300
# 5 -0.006379 0.002636 0.002427 0.017359 0.051914 0.019333
# 6 -0.000620 -0.008655 0.013307 0.008300 0.019333 0.049844
#
#
# Mechanical properties :
#
#
# Convention : Reuss Voigt Hill
#
# Bulk Modulus (GPa) = 41.51576 61.99240 51.75408
# Shear Modulus (GPa) = 21.10470 32.90085 27.00277
#
# Velocity S-wave (km/s) = 3.17674 3.96639 3.59333
# Velocity P-wave (km/s) = 5.77125 7.11473 6.47791
#
# Compressibility (1/GPa) = 0.02408724
#
# Stress axis : x y z
#
# Youngs Moduli (GPa) = 55.52466 62.19410 39.66989
#
# Poissons Ratio (x) = 0.47327 -0.10871
# Poissons Ratio (y) = 0.42252 0.50522
# Poissons Ratio (z) = -0.15216 0.79207
#
# Static dielectric constant tensor:
#      x y z
#    x 3.509000 0.097990 -0.257440 
#    y 0.097990 4.254940 -0.169730 
#    z -0.257440 -0.169730 4.024120 
# 
# 
# High freq. dielectric constant tensor:
#      x y z
#    x 1.790260 0.006660 -0.026460 
#    y 0.006660 1.825620 -0.015690 
#    z -0.026460 -0.015690 1.833040 
# 
# From -- ./inp_files/181077.got.cif
#   From: 2010.06.25/outbox.cif.g09.slc.cpg/sg2_91_cif.got.tgz:181077.got - 2010.06.27 13:26:56.
