data_PCOD8029993
_publ_section_title
;
Structure prediction by ZEFSAII (Michael W. Deem and Ramdas Pophale) SiO2 
 PCOD8029993
Probable space group: P -1
;
_chemical_formula_sum "Si O2"
_cell_formula_units_Z 16
_cell_length_a 9.874470
_cell_length_b 11.162724
_cell_length_c 9.938282
_cell_angle_alpha 89.508824
_cell_angle_beta 139.492566
_cell_angle_gamma 91.807200
_cell_volume 710.996252
_symmetry_space_group_name_H-M "P -1"
_symmetry_group_IT_number 2
_symmetry_cell_setting 'triclinic'
loop_
_space_group_symop_operation_xyz
x,y,z
-x,-y,-z
loop_
_atom_site_type_symbol
_atom_site_label
_atom_site_fract_x
_atom_site_fract_y
_atom_site_fract_z
Si Si1 0.766166 0.848474 0.758719
Si Si2 0.479872 0.746248 0.779793
Si Si3 0.520589 0.754475 0.347303
Si Si4 0.151369 0.440426 0.721505
Si Si5 0.463331 0.527623 0.154171
Si Si6 0.606451 0.879000 0.132273
Si Si7 0.824246 0.113343 0.792213
Si Si8 0.030413 0.814425 0.377045
O O1 0.637770 0.784868 0.781600
O O2 0.735076 0.779676 0.592032
O O3 0.699764 0.985878 0.706563
O O4 0.015439 0.856713 0.966200
O O5 0.452454 0.602666 0.745987
O O6 0.262334 0.815169 0.614736
O O7 0.576551 0.777199 0.997163
O O8 0.464243 0.613800 0.283689
O O9 0.511147 0.835324 0.203827
O O10 0.352675 0.790907 0.331809
O O11 0.364573 0.404185 0.810367
O O12 0.000000 0.500000 0.500000
O O13 0.036903 0.323896 0.696246
O O14 0.233769 0.524153 0.908680
O O15 0.862153 0.887058 0.338566
O O16 0.500000 0.000000 0.000000
O O17 0.957141 0.121146 0.756879
#
# Coordination Sequence:
#
# PCOD8029993 Si02
#       8
#     2   2   2   2   2   2   2   2
#     4  11  25  47  72  96 142 190 236 284 355 421
#     4  12  24  47  74 100 144 196 229 282 361 430
#     4  12  26  43  69 112 140 175 240 301 343 406
#     4  11  21  41  69 100 139 194 231 278 355 425
#     4  11  23  42  69 102 146 181 232 298 348 408
#     4  12  27  45  69 107 144 174 238 302 338 415
#     4  11  25  47  73  96 139 197 232 282 358 428
#     4  12  24  44  74 101 134 193 237 271 363 424
#
# _framework density 22.503634999999999
#
# number of rings (size 3 to 8) (size 9 to 14) (size 15 to 20)
#    0.000    0.500    6.250    1.875    3.500    3.000 
#    0.000    1.250    0.000    0.000    0.000    0.000 
#    0.000    0.000    0.000    0.000    0.000    0.000 
#
# Total GULP energy -198281.169782 kJ/mol
# GULP energy per Si atom -12392.573111 kJ/mol
# Density = 2.245242 g / cm^3
# Si number density = 22.503635 Si / 1000 Ang^3
#
#
#
# Elastic Constant Matrix: (Units=GPa)
#
#
# Indices 1 2 3 4 5 6 
#
# 1 61.8288 13.7615 -3.9493 -6.1532 -11.5387 10.4327
# 2 13.7615 90.0250 23.1315 -2.6995 -6.7406 0.4492
# 3 -3.9493 23.1315 121.4826 2.9115 -4.3689 0.0258
# 4 -6.1532 -2.6995 2.9115 38.7327 -6.9056 1.1871
# 5 -11.5387 -6.7406 -4.3689 -6.9056 27.3511 -4.4938
# 6 10.4327 0.4492 0.0258 1.1871 -4.4938 34.5624
#
#
#
# Elastic Compliance Matrix: (Units=1/GPa)
#
#
# Indices 1 2 3 4 5 6 
#
# 1 0.019638 -0.002570 0.001316 0.004450 0.008166 -0.004987
# 2 -0.002570 0.012281 -0.002375 0.000946 0.001939 0.000838
# 3 0.001316 -0.002375 0.008781 -0.000389 0.001242 -0.000198
# 4 0.004450 0.000946 -0.000389 0.028259 0.008993 -0.001157
# 5 0.008166 0.001939 0.001242 0.008993 0.043421 0.002846
# 6 -0.004987 0.000838 -0.000198 -0.001157 0.002846 0.030837
#
#
# Mechanical properties :
#
#
# Convention : Reuss Voigt Hill
#
# Bulk Modulus (GPa) = 29.90388 37.69154 33.79771
# Shear Modulus (GPa) = 30.93629 36.15541 33.54585
#
# Velocity S-wave (km/s) = 3.71175 4.01265 3.86513
# Velocity P-wave (km/s) = 5.62910 6.18498 5.91357
#
# Compressibility (1/GPa) = 0.03344048
#
# Stress axis : x y z
#
# Youngs Moduli (GPa) = 50.92151 81.42938 113.88669
#
# Poissons Ratio (x) = 0.20930 -0.14986
# Poissons Ratio (y) = 0.13088 0.27048
# Poissons Ratio (z) = -0.06701 0.19340
#
# Static dielectric constant tensor:
#      x y z
#    x 3.839120 0.065230 0.155930 
#    y 0.065230 4.088400 0.078060 
#    z 0.155930 0.078060 4.433710 
# 
# 
# High freq. dielectric constant tensor:
#      x y z
#    x 1.873030 0.016780 0.010270 
#    y 0.016780 1.885500 -0.000640 
#    z 0.010270 -0.000640 1.905320 
# 
# From -- ./inp_files/188003.got.cif
#   From: 2010.06.25/outbox.cif.g09.slc.cpg/sg2_95_cif.got.tgz:188003.got - 2010.06.27 13:26:56.
