data_PCOD8029137
_publ_section_title
;
Structure prediction by ZEFSAII (Michael W. Deem and Ramdas Pophale) SiO2 
 PCOD8029137
Probable space group: P -1
;
_chemical_formula_sum "Si O2"
_cell_formula_units_Z 16
_cell_length_a 9.263799
_cell_length_b 11.646339
_cell_length_c 14.882190
_cell_angle_alpha 70.831194
_cell_angle_beta 52.103087
_cell_angle_gamma 37.069412
_cell_volume 718.226484
_symmetry_space_group_name_H-M "P -1"
_symmetry_group_IT_number 2
_symmetry_cell_setting 'triclinic'
loop_
_space_group_symop_operation_xyz
x,y,z
-x,-y,-z
loop_
_atom_site_type_symbol
_atom_site_label
_atom_site_fract_x
_atom_site_fract_y
_atom_site_fract_z
Si Si1 0.670520 0.633091 0.123114
Si Si2 0.068896 0.962331 0.190905
Si Si3 0.331379 0.333417 0.219083
Si Si4 0.753431 0.007260 0.459129
Si Si5 0.143380 0.100663 0.864148
Si Si6 0.321258 0.271935 0.709321
Si Si7 0.221988 0.270491 0.456799
Si Si8 0.699636 0.350812 0.129552
O O1 0.420165 0.819993 0.101524
O O2 0.600881 0.712598 0.229278
O O3 0.616279 0.517769 0.168991
O O4 0.000000 0.500000 0.000000
O O5 0.034204 0.872087 0.155805
O O6 0.980492 0.970199 0.324893
O O7 0.868650 0.182350 0.182988
O O8 0.378876 0.220526 0.316316
O O9 0.394790 0.441180 0.190113
O O10 0.001268 0.496595 0.259016
O O11 0.624945 0.115192 0.112960
O O12 0.608808 0.150666 0.565845
O O13 0.457161 0.138853 0.480322
O O14 0.922245 0.789169 0.476662
O O15 0.300997 0.137306 0.755239
O O16 0.901240 0.274301 0.985366
O O17 0.000000 0.500000 0.500000
#
# Coordination Sequence:
#
# PCOD8029137 Si02
#       8
#     2   2   2   2   2   2   2   2
#     4  12  29  46  63  95 137 182 223 268 330 397
#     4  11  25  44  70  98 132 173 220 277 334 389
#     4  11  22  38  70 103 130 163 223 275 331 383
#     4  11  22  41  66  99 139 168 218 269 330 395
#     4  11  22  42  69 102 129 168 223 280 333 384
#     4  12  25  42  66 100 135 179 219 265 328 398
#     4  11  20  35  66 105 132 164 207 278 333 381
#     4  11  25  43  69  98 133 171 225 278 332 388
#
# _framework density 22.277093000000001
#
# number of rings (size 3 to 8) (size 9 to 14) (size 15 to 20)
#    0.000    0.750    6.250    3.000    5.250    3.000 
#    0.000    0.625    0.000    0.000    0.000    0.000 
#    0.000    0.000    0.000    0.000    0.000    0.000 
#
# Total GULP energy -198303.956996 kJ/mol
# GULP energy per Si atom -12393.997312 kJ/mol
# Density = 2.222639 g / cm^3
# Si number density = 22.277093 Si / 1000 Ang^3
#
#
#
# Elastic Constant Matrix: (Units=GPa)
#
#
# Indices 1 2 3 4 5 6 
#
# 1 82.5798 20.3073 21.9647 16.3952 24.9036 1.7682
# 2 20.3073 71.9524 14.2736 16.3003 16.6995 1.5690
# 3 21.9647 14.2736 54.5482 -14.1307 -4.9054 -13.0922
# 4 16.3952 16.3003 -14.1307 24.7066 -7.0913 -12.9079
# 5 24.9036 16.6995 -4.9054 -7.0913 22.8475 0.1437
# 6 1.7682 1.5690 -13.0922 -12.9079 0.1437 17.5899
#
#
#
# Elastic Compliance Matrix: (Units=1/GPa)
#
#
# Indices 1 2 3 4 5 6 
#
# 1 0.007356 -0.008523 0.007750 0.015380 0.004542 0.017038
# 2 -0.008523 0.011057 0.006665 0.010253 0.005745 0.012308
# 3 0.007750 0.006665 0.002948 -0.020775 -0.019045 -0.014269
# 4 0.015380 0.010253 -0.020775 -0.010996 -0.031969 -0.025732
# 5 0.004542 0.005745 -0.019045 -0.031969 0.020851 -0.038774
# 6 0.017038 0.012308 -0.014269 -0.025732 -0.038774 0.024854
#
#
# Mechanical properties :
#
#
# Convention : Reuss Voigt Hill
#
# Bulk Modulus (GPa) = 30.16951 35.79685 32.98318
# Shear Modulus (GPa) = 90.35810 23.19778 56.77794
#
# Velocity S-wave (km/s) = 6.37566 3.23046 5.05396
# Velocity P-wave (km/s) = 8.23231 5.47890 6.99247
#
# Compressibility (1/GPa) = 0.03314605
#
# Stress axis : x y z
#
# Youngs Moduli (GPa) = 135.94116 90.43982 339.15849
#
# Poissons Ratio (x) = 0.77086 -2.62852
# Poissons Ratio (y) = 1.15868 -2.26065
# Poissons Ratio (z) = -1.05356 -0.60282
#
# Static dielectric constant tensor:
#      x y z
#    x 3.778410 0.013970 0.191670 
#    y 0.013970 3.952090 0.235270 
#    z 0.191670 0.235270 4.227120 
# 
# 
# High freq. dielectric constant tensor:
#      x y z
#    x 1.847350 0.003400 0.008070 
#    y 0.003400 1.891720 0.004400 
#    z 0.008070 0.004400 1.888430 
# 
# From -- ./inp_files/271742.got.cif
#   From: 2010.06.25/outbox.cif.g09.slc.cpg/sg2_136_cif.got.tgz:271742.got - 2010.06.27 13:26:56.
