data_PCOD8029250
_publ_section_title
;
Structure prediction by ZEFSAII (Michael W. Deem and Ramdas Pophale) SiO2 
 PCOD8029250
Probable space group: P -1
;
_chemical_formula_sum "Si O2"
_cell_formula_units_Z 12
_cell_length_a 11.055804
_cell_length_b 13.659362
_cell_length_c 17.214014
_cell_angle_alpha 25.537872
_cell_angle_beta 38.782100
_cell_angle_gamma 30.598134
_cell_volume 570.401442
_symmetry_space_group_name_H-M "P -1"
_symmetry_group_IT_number 2
_symmetry_cell_setting 'triclinic'
loop_
_space_group_symop_operation_xyz
x,y,z
-x,-y,-z
loop_
_atom_site_type_symbol
_atom_site_label
_atom_site_fract_x
_atom_site_fract_y
_atom_site_fract_z
Si Si1 0.354172 0.985534 0.650309
Si Si2 0.587226 0.866160 0.773595
Si Si3 0.665717 0.389221 0.876950
Si Si4 0.596885 0.599278 0.445075
Si Si5 0.822923 0.245104 0.735306
Si Si6 0.020887 0.323066 0.870718
O O1 0.435558 0.045311 0.646178
O O2 0.441111 0.663855 0.834615
O O3 0.500000 0.000000 0.500000
O O4 0.075008 0.190336 0.630975
O O5 0.839459 0.583770 0.830299
O O6 0.614288 0.078753 0.657467
O O7 0.409933 0.820875 0.941810
O O8 0.718030 0.437570 0.728046
O O9 0.895497 0.268241 0.903063
O O10 0.500000 0.500000 0.500000
O O11 0.662516 0.401373 0.628731
O O12 0.816039 0.593830 0.306665
O O13 0.844752 0.957576 0.943274
#
# Coordination Sequence:
#
# PCOD8029250 Si02
#       6
#     2   2   2   2   2   2
#     4  11  21  35  63 104 132 157 198 256 331 395
#     4  11  21  42  65  95 135 159 198 269 322 379
#     4  11  20  38  68 103 130 155 196 261 336 392
#     4  12  29  45  60  90 128 175 228 264 295 359
#     4  12  22  40  68  93 127 169 210 254 322 380
#     4  11  22  43  69  95 130 164 202 261 327 385
#
# _framework density 21.037817
#
# number of rings (size 3 to 8) (size 9 to 14) (size 15 to 20)
#    0.000    0.667    5.000    5.500    0.000    3.333 
#    0.000    0.833    0.000    0.000    0.000    0.000 
#    0.000    0.000    0.000    0.000    0.000    0.000 
#
# Total GULP energy -148789.544165 kJ/mol
# GULP energy per Si atom -12399.128680 kJ/mol
# Density = 2.098993 g / cm^3
# Si number density = 21.037817 Si / 1000 Ang^3
#
#
#
# Elastic Constant Matrix: (Units=GPa)
#
#
# Indices 1 2 3 4 5 6 
#
# 1 105.2620 42.1912 44.5833 -10.6742 -7.6114 29.6404
# 2 42.1912 96.3528 26.2127 2.8355 -4.6700 19.8711
# 3 44.5833 26.2127 94.7026 7.1304 0.3493 14.5663
# 4 -10.6742 2.8355 7.1304 38.0951 8.4543 -2.1546
# 5 -7.6114 -4.6700 0.3493 8.4543 27.6966 -4.6187
# 6 29.6404 19.8711 14.5663 -2.1546 -4.6187 25.9237
#
#
#
# Elastic Compliance Matrix: (Units=1/GPa)
#
#
# Indices 1 2 3 4 5 6 
#
# 1 0.017835 -0.003523 -0.005683 0.005447 0.000385 -0.013977
# 2 -0.003523 0.013508 -0.001021 -0.002368 0.001085 -0.005756
# 3 -0.005683 -0.001021 0.013986 -0.004002 -0.000866 -0.001065
# 4 0.005447 -0.002368 -0.004002 0.030491 -0.008345 -0.001117
# 5 0.000385 0.001085 -0.000866 -0.008345 0.039891 0.005628
# 6 -0.013977 -0.005756 -0.001065 -0.001117 0.005628 0.060477
#
#
# Mechanical properties :
#
#
# Convention : Reuss Voigt Hill
#
# Bulk Modulus (GPa) = 40.19931 58.03243 49.11587
# Shear Modulus (GPa) = 24.39825 30.56508 27.48166
#
# Velocity S-wave (km/s) = 3.40918 3.81578 3.61820
# Velocity P-wave (km/s) = 5.88611 6.85990 6.39158
#
# Compressibility (1/GPa) = 0.02487605
#
# Stress axis : x y z
#
# Youngs Moduli (GPa) = 56.06911 74.02890 71.50180
#
# Poissons Ratio (x) = 0.26078 0.40634
# Poissons Ratio (y) = 0.19751 0.07299
# Poissons Ratio (z) = 0.31864 0.07557
#
# Static dielectric constant tensor:
#      x y z
#    x 3.361930 0.308600 -0.077550 
#    y 0.308600 4.617380 -0.605140 
#    z -0.077550 -0.605140 4.512100 
# 
# 
# High freq. dielectric constant tensor:
#      x y z
#    x 1.770000 0.021510 0.000180 
#    y 0.021510 1.848380 0.000500 
#    z 0.000180 0.000500 1.849160 
# 
# From -- ./inp_files/195131.got.cif
#   From: 2010.06.25/outbox.cif.g09.slc.cpg/sg2_98_cif.got.tgz:195131.got - 2010.06.27 13:26:56.
