data_PCOD8029080
_publ_section_title
;
Structure prediction by ZEFSAII (Michael W. Deem and Ramdas Pophale) SiO2 
 PCOD8029080
Probable space group: P -1
;
_chemical_formula_sum "Si O2"
_cell_formula_units_Z 16
_cell_length_a 22.690628
_cell_length_b 15.171654
_cell_length_c 9.251492
_cell_angle_alpha 32.632520
_cell_angle_beta 126.458559
_cell_angle_gamma 150.322671
_cell_volume 729.009772
_symmetry_space_group_name_H-M "P -1"
_symmetry_group_IT_number 2
_symmetry_cell_setting 'triclinic'
loop_
_space_group_symop_operation_xyz
x,y,z
-x,-y,-z
loop_
_atom_site_type_symbol
_atom_site_label
_atom_site_fract_x
_atom_site_fract_y
_atom_site_fract_z
Si Si1 0.694450 0.097708 0.314850
Si Si2 0.713524 0.778090 0.796147
Si Si3 0.006524 0.191221 0.677007
Si Si4 0.985162 0.657787 0.822496
Si Si5 0.478595 0.125798 0.879557
Si Si6 0.719585 0.792444 0.438062
Si Si7 0.458866 0.088110 0.394735
Si Si8 0.294543 0.887535 0.174281
O O1 0.687941 0.909071 0.642247
O O2 0.598259 0.899098 0.308404
O O3 0.634993 0.119802 0.311194
O O4 0.852219 0.435236 0.035452
O O5 0.702738 0.759880 0.631465
O O6 0.599591 0.442435 0.160450
O O7 0.862532 0.006584 0.758650
O O8 0.135269 0.535843 0.455715
O O9 0.025512 0.230176 0.477170
O O10 0.000000 0.000000 0.000000
O O11 0.119502 0.947901 0.717078
O O12 0.000000 0.500000 0.000000
O O13 0.623946 0.475553 0.662037
O O14 0.500000 0.000000 0.000000
O O15 0.374996 0.904220 0.170858
O O16 0.684925 0.902060 0.167642
O O17 0.500000 0.000000 0.500000
O O18 0.370600 0.038441 0.230037
#
# Coordination Sequence:
#
# PCOD8029080 Si02
#       8
#     2   2   2   2   2   2   2   2
#     4  12  23  44  70 101 135 189 239 283 351 433
#     4  11  21  43  69  98 136 181 235 282 354 426
#     4  11  22  39  71 106 141 180 227 292 364 411
#     4  11  19  44  76 103 137 183 237 291 352 429
#     4  12  24  40  66 101 138 175 241 297 344 415
#     4  11  21  41  76 102 127 186 236 288 353 425
#     4  12  27  42  62  98 146 185 226 295 359 405
#     4  12  21  44  69  97 134 184 237 281 352 426
#
# _framework density 21.947579000000001
#
# number of rings (size 3 to 8) (size 9 to 14) (size 15 to 20)
#    0.000    0.500    7.500    3.000    0.000    0.000 
#    0.000    6.875    0.000    0.000    0.000    0.000 
#    0.000    0.000    0.000    0.000    0.000    0.000 
#
# Total GULP energy -198364.199461 kJ/mol
# GULP energy per Si atom -12397.762466 kJ/mol
# Density = 2.189763 g / cm^3
# Si number density = 21.947579 Si / 1000 Ang^3
#
#
#
# Elastic Constant Matrix: (Units=GPa)
#
#
# Indices 1 2 3 4 5 6 
#
# 1 114.0512 42.6749 41.0429 -21.7749 -20.0977 5.7638
# 2 42.6749 131.9317 39.5246 -28.2779 -10.7645 18.5082
# 3 41.0429 39.5246 107.8742 -10.2595 -5.4635 9.0884
# 4 -21.7749 -28.2779 -10.2595 40.5735 2.3971 -9.8405
# 5 -20.0977 -10.7645 -5.4635 2.3971 36.9363 -4.6794
# 6 5.7638 18.5082 9.0884 -9.8405 -4.6794 28.9759
#
#
#
# Elastic Compliance Matrix: (Units=1/GPa)
#
#
# Indices 1 2 3 4 5 6 
#
# 1 0.012538 -0.001824 -0.003553 0.004787 0.005751 0.002340
# 2 -0.001824 0.010505 -0.002330 0.004765 0.000927 -0.003848
# 3 -0.003553 -0.002330 0.011485 -0.001031 -0.001091 -0.001934
# 4 0.004787 0.004765 -0.001031 0.031964 0.002732 0.007624
# 5 0.005751 0.000927 -0.001091 0.002732 0.030703 0.004492
# 6 0.002340 -0.003848 -0.001934 0.007624 0.004492 0.040425
#
#
# Mechanical properties :
#
#
# Convention : Reuss Voigt Hill
#
# Bulk Modulus (GPa) = 52.31963 66.70462 59.51212
# Shear Modulus (GPa) = 31.36652 36.67146 34.01899
#
# Velocity S-wave (km/s) = 3.78452 4.09206 3.94129
# Velocity P-wave (km/s) = 6.55645 7.26535 6.91998
#
# Compressibility (1/GPa) = 0.01911329
#
# Stress axis : x y z
#
# Youngs Moduli (GPa) = 79.75683 95.19517 87.06916
#
# Poissons Ratio (x) = 0.17367 0.30932
# Poissons Ratio (y) = 0.14550 0.20291
# Poissons Ratio (z) = 0.28334 0.22185
#
# Static dielectric constant tensor:
#      x y z
#    x 3.829080 0.322940 -0.174690 
#    y 0.322940 4.432130 0.013200 
#    z -0.174690 0.013200 4.045630 
# 
# 
# High freq. dielectric constant tensor:
#      x y z
#    x 1.843500 0.026200 -0.007460 
#    y 0.026200 1.878380 0.002630 
#    z -0.007460 0.002630 1.864920 
# 
# From -- ./inp_files/354493.got.cif
#   From: 2010.06.25/outbox.cif.g09.slc.cpg/sg2_178_cif.got.tgz:354493.got - 2010.06.27 13:26:56.
