data_PCOD8029157
_publ_section_title
;
Structure prediction by ZEFSAII (Michael W. Deem and Ramdas Pophale) SiO2 
 PCOD8029157
Probable space group: P -1
;
_chemical_formula_sum "Si O2"
_cell_formula_units_Z 16
_cell_length_a 14.199892
_cell_length_b 24.285116
_cell_length_c 17.737171
_cell_angle_alpha 158.746042
_cell_angle_beta 159.106078
_cell_angle_gamma 29.799955
_cell_volume 790.564816
_symmetry_space_group_name_H-M "P -1"
_symmetry_group_IT_number 2
_symmetry_cell_setting 'triclinic'
loop_
_space_group_symop_operation_xyz
x,y,z
-x,-y,-z
loop_
_atom_site_type_symbol
_atom_site_label
_atom_site_fract_x
_atom_site_fract_y
_atom_site_fract_z
Si Si1 0.998626 0.849859 0.354218
Si Si2 0.724300 0.959449 0.781338
Si Si3 0.522980 0.172368 0.704977
Si Si4 0.529877 0.680450 0.538363
Si Si5 0.762987 0.593899 0.104020
Si Si6 0.720851 0.579171 0.714660
Si Si7 0.212075 0.129016 0.614963
Si Si8 0.924152 0.871070 0.975774
O O1 0.875771 0.902249 0.406802
O O2 0.292990 0.794860 0.517312
O O3 0.816020 0.726185 0.018869
O O4 0.000000 0.000000 0.500000
O O5 0.596364 0.821101 0.460638
O O6 0.739634 0.913606 0.821740
O O7 0.525239 0.099553 0.803936
O O8 0.000000 0.000000 0.000000
O O9 0.365056 0.292602 0.787895
O O10 0.500000 0.000000 0.500000
O O11 0.830710 0.222445 0.993891
O O12 0.607545 0.623601 0.606062
O O13 0.772043 0.767780 0.790843
O O14 0.443501 0.539642 0.241520
O O15 0.834027 0.693865 0.210946
O O16 0.034636 0.530021 0.257784
O O17 0.500000 0.500000 0.500000
O O18 0.036621 0.024325 0.294158
#
# Coordination Sequence:
#
# PCOD8029157 Si02
#       8
#     2   2   2   2   2   2   2   2
#     4  11  24  42  64  93 127 164 214 264 316 376
#     4  11  20  36  64  94 125 158 210 262 313 372
#     4  11  21  42  63  96 127 159 212 266 305 373
#     4  11  26  43  61  93 134 166 208 264 321 380
#     4  11  23  42  64  92 129 165 210 263 318 372
#     4  11  25  44  65  94 128 171 217 256 317 381
#     4  11  22  38  64  93 123 164 214 265 308 371
#     4  11  23  40  63  94 127 165 211 260 318 373
#
# _framework density 20.238696000000001
#
# number of rings (size 3 to 8) (size 9 to 14) (size 15 to 20)
#    0.000    1.000    3.750    3.000    0.000   14.500 
#    0.000    1.250    0.000    0.000    0.000    0.000 
#    0.000    0.000    0.000    0.000    0.000    0.000 
#
# Total GULP energy -198399.120770 kJ/mol
# GULP energy per Si atom -12399.945048 kJ/mol
# Density = 2.019263 g / cm^3
# Si number density = 20.238696 Si / 1000 Ang^3
#
#
#
# Elastic Constant Matrix: (Units=GPa)
#
#
# Indices 1 2 3 4 5 6 
#
# 1 114.3642 77.0863 47.3250 -2.8302 5.1546 -9.6023
# 2 77.0863 140.1046 69.1651 -9.3946 -5.0754 15.0418
# 3 47.3250 69.1651 98.8719 -10.9111 15.3936 -2.9570
# 4 -2.8302 -9.3946 -10.9111 31.6834 4.1522 -2.0162
# 5 5.1546 -5.0754 15.3936 4.1522 42.0983 3.4269
# 6 -9.6023 15.0418 -2.9570 -2.0162 3.4269 28.6342
#
#
#
# Elastic Compliance Matrix: (Units=1/GPa)
#
#
# Indices 1 2 3 4 5 6 
#
# 1 0.017457 -0.011559 0.000846 -0.000140 -0.004851 0.012584
# 2 -0.011559 0.021386 -0.011593 -0.001081 0.009768 -0.017553
# 3 0.000846 -0.011593 0.020351 0.005643 -0.010322 0.010108
# 4 -0.000140 -0.001081 0.005643 0.034213 -0.005894 0.004218
# 5 -0.004851 0.009768 -0.010322 -0.005894 0.030852 -0.011931
# 6 0.012584 -0.017553 0.010108 0.004218 -0.011931 0.051133
#
#
# Mechanical properties :
#
#
# Convention : Reuss Voigt Hill
#
# Bulk Modulus (GPa) = 68.57334 82.27706 75.42520
# Shear Modulus (GPa) = 22.23575 31.13414 26.68494
#
# Velocity S-wave (km/s) = 3.31822 3.92643 3.63507
# Velocity P-wave (km/s) = 6.97400 7.82927 7.41398
#
# Compressibility (1/GPa) = 0.01458293
#
# Stress axis : x y z
#
# Youngs Moduli (GPa) = 57.28520 46.75938 49.13811
#
# Poissons Ratio (x) = 0.54047 -0.04159
# Poissons Ratio (y) = 0.66214 0.56966
# Poissons Ratio (z) = -0.04848 0.54208
#
# Static dielectric constant tensor:
#      x y z
#    x 3.899590 -0.031360 -0.090280 
#    y -0.031360 3.980830 -0.111270 
#    z -0.090280 -0.111270 3.847290 
# 
# 
# High freq. dielectric constant tensor:
#      x y z
#    x 1.808630 -0.001880 -0.003230 
#    y -0.001880 1.797270 -0.015680 
#    z -0.003230 -0.015680 1.790800 
# 
# From -- ./inp_files/77731.got.cif
#   From: 2010.06.25/outbox.cif.g09.slc.cpg/sg2_39_cif.got.tgz:77731.got - 2010.06.27 13:26:56.
