data_PCOD8029539
_publ_section_title
;
Structure prediction by ZEFSAII (Michael W. Deem and Ramdas Pophale) SiO2 
 PCOD8029539
Probable space group: P -1
;
_chemical_formula_sum "Si O2"
_cell_formula_units_Z 16
_cell_length_a 9.790639
_cell_length_b 9.577822
_cell_length_c 11.705850
_cell_angle_alpha 75.983068
_cell_angle_beta 91.668069
_cell_angle_gamma 135.385840
_cell_volume 731.257339
_symmetry_space_group_name_H-M "P -1"
_symmetry_group_IT_number 2
_symmetry_cell_setting 'triclinic'
loop_
_space_group_symop_operation_xyz
x,y,z
-x,-y,-z
loop_
_atom_site_type_symbol
_atom_site_label
_atom_site_fract_x
_atom_site_fract_y
_atom_site_fract_z
Si Si1 0.532532 0.694697 0.957858
Si Si2 0.771945 0.922459 0.694429
Si Si3 0.793822 0.619846 0.699589
Si Si4 0.143177 0.015093 0.922646
Si Si5 0.506198 0.175511 0.485815
Si Si6 0.151284 0.366140 0.551677
Si Si7 0.364717 0.260800 0.664259
Si Si8 0.891789 0.558720 0.949526
O O1 0.673041 0.850409 0.828783
O O2 0.500000 0.500000 0.000000
O O3 0.638995 0.831182 0.047611
O O4 0.319512 0.605792 0.958959
O O5 0.862682 0.834261 0.690120
O O6 0.604703 0.831682 0.617593
O O7 0.947377 0.176280 0.650203
O O8 0.904796 0.657363 0.578760
O O9 0.556859 0.437655 0.711901
O O10 0.858152 0.559301 0.813263
O O11 0.177010 0.096769 0.777678
O O12 0.036993 0.783644 0.963227
O O13 0.000000 0.000000 0.000000
O O14 0.738024 0.405598 0.444772
O O15 0.403300 0.148957 0.607895
O O16 0.500000 0.000000 0.500000
O O17 0.311557 0.358257 0.565619
O O18 0.000000 0.500000 0.000000
#
# Coordination Sequence:
#
# PCOD8029539 Si02
#       8
#     2   2   2   2   2   2   2   2
#     4  12  24  46  72 106 145 188 249 304 355 434
#     4  12  23  42  75 102 140 191 240 301 353 436
#     4  11  20  44  72 101 142 183 243 302 352 434
#     4  12  24  43  75 107 140 189 249 298 365 439
#     4  11  26  45  66 107 150 186 231 302 372 431
#     4  11  23  41  75 109 134 181 248 292 363 436
#     4  11  21  43  77 103 138 185 242 302 358 432
#     4  12  28  46  70 106 148 194 242 310 370 424
#
# _framework density 21.880122
#
# number of rings (size 3 to 8) (size 9 to 14) (size 15 to 20)
#    0.000    0.500    6.250    2.625    1.750    3.000 
#    4.500    0.000    0.000    0.000    0.000    0.000 
#    0.000    0.000    0.000    0.000    0.000    0.000 
#
# Total GULP energy -198379.748302 kJ/mol
# GULP energy per Si atom -12398.734269 kJ/mol
# Density = 2.183032 g / cm^3
# Si number density = 21.880122 Si / 1000 Ang^3
#
#
#
# Elastic Constant Matrix: (Units=GPa)
#
#
# Indices 1 2 3 4 5 6 
#
# 1 93.6307 46.1539 46.2561 -0.3789 12.8774 -9.8084
# 2 46.1539 159.3028 61.8052 -2.0227 -2.3157 -2.1361
# 3 46.2561 61.8052 138.5960 -9.9512 1.0165 -1.0974
# 4 -0.3789 -2.0227 -9.9512 36.1296 12.2122 -0.9869
# 5 12.8774 -2.3157 1.0165 12.2122 38.7501 -1.2605
# 6 -9.8084 -2.1361 -1.0974 -0.9869 -1.2605 34.3130
#
#
#
# Elastic Compliance Matrix: (Units=1/GPa)
#
#
# Indices 1 2 3 4 5 6 
#
# 1 0.015034 -0.002992 -0.003551 0.000887 -0.005237 0.003831
# 2 -0.002992 0.008222 -0.002754 -0.000965 0.001849 -0.000391
# 3 -0.003551 -0.002754 0.009803 0.002506 -0.000057 -0.000803
# 4 0.000887 -0.000965 0.002506 0.031873 -0.010437 0.000807
# 5 -0.005237 0.001849 -0.000057 -0.010437 0.030930 -0.000548
# 6 0.003831 -0.000391 -0.000803 0.000807 -0.000548 0.030192
#
#
# Mechanical properties :
#
#
# Convention : Reuss Voigt Hill
#
# Bulk Modulus (GPa) = 69.13106 77.77334 73.45220
# Shear Modulus (GPa) = 33.45165 37.65948 35.55557
#
# Velocity S-wave (km/s) = 3.91431 4.15320 4.03552
# Velocity P-wave (km/s) = 7.21755 7.65645 7.44023
#
# Compressibility (1/GPa) = 0.01446528
#
# Stress axis : x y z
#
# Youngs Moduli (GPa) = 66.51402 121.62572 102.01428
#
# Poissons Ratio (x) = 0.36385 0.36228
# Poissons Ratio (y) = 0.19898 0.28095
# Poissons Ratio (z) = 0.23621 0.33496
#
# Static dielectric constant tensor:
#      x y z
#    x 3.827960 0.230280 -0.089350 
#    y 0.230280 4.162800 0.093560 
#    z -0.089350 0.093560 4.259660 
# 
# 
# High freq. dielectric constant tensor:
#      x y z
#    x 1.831790 0.026930 0.002850 
#    y 0.026930 1.878820 0.001230 
#    z 0.002850 0.001230 1.873820 
# 
# From -- ./inp_files/188157.got.cif
#   From: 2010.06.25/outbox.cif.g09.slc.cpg/sg2_95_cif.got.tgz:188157.got - 2010.06.27 13:26:56.
