data_PCOD8029735
_publ_section_title
;
Structure prediction by ZEFSAII (Michael W. Deem and Ramdas Pophale) SiO2 
 PCOD8029735
Probable space group: P -1
;
_chemical_formula_sum "Si O2"
_cell_formula_units_Z 16
_cell_length_a 19.035283
_cell_length_b 7.615934
_cell_length_c 7.840025
_cell_angle_alpha 119.235137
_cell_angle_beta 96.591907
_cell_angle_gamma 58.477292
_cell_volume 830.217759
_symmetry_space_group_name_H-M "P -1"
_symmetry_group_IT_number 2
_symmetry_cell_setting 'triclinic'
loop_
_space_group_symop_operation_xyz
x,y,z
-x,-y,-z
loop_
_atom_site_type_symbol
_atom_site_label
_atom_site_fract_x
_atom_site_fract_y
_atom_site_fract_z
Si Si1 0.989865 0.348582 0.716997
Si Si2 0.607466 0.361048 0.631402
Si Si3 0.022684 0.887621 0.705187
Si Si4 0.131990 0.359927 0.910264
Si Si5 0.680838 0.465949 0.024010
Si Si6 0.682101 0.941606 0.229061
Si Si7 0.580906 0.418438 0.275472
Si Si8 0.133781 0.795607 0.989261
O O1 0.963455 0.329967 0.510576
O O2 0.075811 0.345578 0.738837
O O3 0.006080 0.117326 0.710710
O O4 0.916418 0.595682 0.901176
O O5 0.596222 0.492838 0.505736
O O6 0.517433 0.446416 0.727152
O O7 0.657893 0.075731 0.470672
O O8 0.657675 0.415888 0.808079
O O9 0.109316 0.784812 0.782701
O O10 0.942255 0.956265 0.834571
O O11 0.224418 0.124439 0.825343
O O12 0.142027 0.579806 0.993974
O O13 0.673006 0.717650 0.130014
O O14 0.619976 0.489115 0.168852
O O15 0.774577 0.243255 0.991719
O O16 0.621169 0.130742 0.156272
#
# Coordination Sequence:
#
# PCOD8029735 Si02
#       8
#     2   2   2   2   2   2   2   2
#     4   9  18  31  55  74 101 150 177 224 285 324
#     4   9  21  42  60  90 120 148 199 241 288 355
#     4   9  18  33  51  75 106 141 183 228 271 339
#     4   9  18  34  50  76 110 136 185 234 272 337
#     4  11  21  39  62  85 121 159 185 249 292 340
#     4   9  21  39  57  89 121 146 199 245 276 359
#     4   9  21  42  59  92 118 149 201 237 287 365
#     4   9  20  34  48  79 107 137 191 225 279 341
#
# _framework density 19.272051999999999
#
# number of rings (size 3 to 8) (size 9 to 14) (size 15 to 20)
#    0.750    2.000    0.000    0.375    3.500    1.500 
#    9.000    1.250    0.000    0.000    0.000    0.000 
#    0.000    0.000    0.000    0.000    0.000    0.000 
#
# Total GULP energy -198233.828550 kJ/mol
# GULP energy per Si atom -12389.614284 kJ/mol
# Density = 1.922819 g / cm^3
# Si number density = 19.272052 Si / 1000 Ang^3
#
#
#
# Elastic Constant Matrix: (Units=GPa)
#
#
# Indices 1 2 3 4 5 6 
#
# 1 105.3616 38.1544 59.2786 4.5188 -1.3717 -25.2624
# 2 38.1544 54.2818 40.2289 3.8225 -2.2220 -20.0418
# 3 59.2786 40.2289 120.7127 -7.5168 14.0011 -23.0066
# 4 4.5188 3.8225 -7.5168 27.0488 -7.4311 -2.1478
# 5 -1.3717 -2.2220 14.0011 -7.4311 25.0651 -1.2399
# 6 -25.2624 -20.0418 -23.0066 -2.1478 -1.2399 38.2575
#
#
#
# Elastic Compliance Matrix: (Units=1/GPa)
#
#
# Indices 1 2 3 4 5 6 
#
# 1 0.015668 -0.004855 -0.005768 -0.002320 0.003174 0.004307
# 2 -0.004855 0.030759 -0.007103 -0.003200 0.005908 0.008648
# 3 -0.005768 -0.007103 0.014935 0.004026 -0.008024 0.001418
# 4 -0.002320 -0.003200 0.004026 0.041775 0.009818 0.001876
# 5 0.003174 0.005908 -0.008024 0.009818 0.048109 0.002476
# 6 0.004307 0.008648 0.001418 0.001876 0.002476 0.034551
#
#
# Mechanical properties :
#
#
# Convention : Reuss Voigt Hill
#
# Bulk Modulus (GPa) = 38.59376 61.74218 50.16797
# Shear Modulus (GPa) = 21.74987 27.58722 24.66855
#
# Velocity S-wave (km/s) = 3.36306 3.78757 3.58161
# Velocity P-wave (km/s) = 5.92870 7.15781 6.57206
#
# Compressibility (1/GPa) = 0.02591093
#
# Stress axis : x y z
#
# Youngs Moduli (GPa) = 63.82540 32.51064 66.95485
#
# Poissons Ratio (x) = 0.15783 0.38619
# Poissons Ratio (y) = 0.30985 0.47559
# Poissons Ratio (z) = 0.36814 0.23093
#
# Static dielectric constant tensor:
#      x y z
#    x 3.562780 -0.244280 -0.195840 
#    y -0.244280 3.324910 0.070970 
#    z -0.195840 0.070970 3.677490 
# 
# 
# High freq. dielectric constant tensor:
#      x y z
#    x 1.748290 -0.011810 -0.008300 
#    y -0.011810 1.732870 0.001790 
#    z -0.008300 0.001790 1.745020 
# 
# From -- ./inp_files/220724.got.cif
#   From: 2010.06.25/outbox.cif.g09.slc.cpg/sg2_111_cif.got.tgz:220724.got - 2010.06.27 13:26:56.
