data_PCOD8029092
_publ_section_title
;
Structure prediction by ZEFSAII (Michael W. Deem and Ramdas Pophale) SiO2 
 PCOD8029092
Probable space group: P -1
;
_chemical_formula_sum "Si O2"
_cell_formula_units_Z 16
_cell_length_a 16.960169
_cell_length_b 10.062727
_cell_length_c 21.585078
_cell_angle_alpha 132.195290
_cell_angle_beta 160.875992
_cell_angle_gamma 46.819448
_cell_volume 875.172395
_symmetry_space_group_name_H-M "P -1"
_symmetry_group_IT_number 2
_symmetry_cell_setting 'triclinic'
loop_
_space_group_symop_operation_xyz
x,y,z
-x,-y,-z
loop_
_atom_site_type_symbol
_atom_site_label
_atom_site_fract_x
_atom_site_fract_y
_atom_site_fract_z
Si Si1 0.202652 0.395971 0.921466
Si Si2 0.301697 0.638234 0.784870
Si Si3 0.603142 0.029038 0.282605
Si Si4 0.720169 0.453149 0.843867
Si Si5 0.918219 0.643204 0.399411
Si Si6 0.248783 0.035827 0.916728
Si Si7 0.102112 0.210276 0.978719
Si Si8 0.187183 0.617358 0.465228
O O1 0.409352 0.410086 0.028824
O O2 0.222560 0.529632 0.035689
O O3 0.937084 0.457710 0.710535
O O4 0.241174 0.183800 0.903398
O O5 0.244540 0.509290 0.757620
O O6 0.203780 0.848185 0.796962
O O7 0.165476 0.597267 0.608637
O O8 0.760931 0.839841 0.365098
O O9 0.350859 0.085093 0.154515
O O10 0.762770 0.184379 0.452818
O O11 0.516688 0.011062 0.141186
O O12 0.811819 0.606988 0.921474
O O13 0.430685 0.470932 0.620799
O O14 0.873487 0.256082 0.870803
O O15 0.987281 0.643205 0.379211
O O16 0.038230 0.109460 0.836329
#
# Coordination Sequence:
#
# PCOD8029092 Si02
#       8
#     2   2   2   2   2   2   2   2
#     4  11  20  33  56  82 110 144 177 219 269 320
#     4  11  22  35  51  79 112 144 177 225 270 322
#     4   9  18  34  54  78 109 141 174 220 266 316
#     4   9  16  36  53  80 112 134 183 220 266 311
#     4  11  22  35  51  79 112 144 177 225 270 322
#     4   9  18  34  54  78 109 141 174 220 266 316
#     4   7  16  32  57  74 108 146 163 230 272 293
#     4  11  20  33  56  82 110 144 177 219 269 320
#
# _framework density 18.282112999999999
#
# number of rings (size 3 to 8) (size 9 to 14) (size 15 to 20)
#    0.750    1.500    2.500    2.250    0.000    2.000 
#    0.000   11.250    0.000    1.500    0.000    0.000 
#    0.000    0.000    0.000    0.000    0.000    0.000 
#
# Total GULP energy -198254.803748 kJ/mol
# GULP energy per Si atom -12390.925234 kJ/mol
# Density = 1.824050 g / cm^3
# Si number density = 18.282113 Si / 1000 Ang^3
#
#
#
# Elastic Constant Matrix: (Units=GPa)
#
#
# Indices 1 2 3 4 5 6 
#
# 1 70.5684 42.1159 44.6126 1.5403 16.6754 -22.2067
# 2 42.1159 43.5666 26.1115 -3.1873 18.5425 -5.8689
# 3 44.6126 26.1115 109.3288 -7.3235 -5.5011 -3.0490
# 4 1.5403 -3.1873 -7.3235 24.2526 -0.0374 2.7685
# 5 16.6754 18.5425 -5.5011 -0.0374 21.5417 -3.5305
# 6 -22.2067 -5.8689 -3.0490 2.7685 -3.5305 19.5349
#
#
#
# Elastic Compliance Matrix: (Units=1/GPa)
#
#
# Indices 1 2 3 4 5 6 
#
# 1 0.119964 -0.080291 -0.030030 -0.039909 -0.013330 0.110810
# 2 -0.080291 0.107484 0.005035 0.028623 -0.040431 -0.069558
# 3 -0.030030 0.005035 0.021246 0.012148 0.019861 -0.027441
# 4 -0.039909 0.028623 0.012148 0.056036 0.002512 -0.042359
# 5 -0.013330 -0.040431 0.019861 0.002512 0.095420 -0.007311
# 6 0.110810 -0.069558 -0.027441 -0.042359 -0.007311 0.156657
#
#
# Mechanical properties :
#
#
# Convention : Reuss Voigt Hill
#
# Bulk Modulus (GPa) = 26.23000 49.90488 38.06744
# Shear Modulus (GPa) = 6.40954 20.44075 13.42514
#
# Velocity S-wave (km/s) = 1.87444 3.34739 2.71280
# Velocity P-wave (km/s) = 4.36614 6.50357 5.53893
#
# Compressibility (1/GPa) = 0.03812429
#
# Stress axis : x y z
#
# Youngs Moduli (GPa) = 8.33580 9.30368 47.06774
#
# Poissons Ratio (x) = 0.74700 1.41345
# Poissons Ratio (y) = 0.66929 -0.23700
# Poissons Ratio (z) = 0.25033 -0.04685
#
# Static dielectric constant tensor:
#      x y z
#    x 3.384200 -0.288820 0.054850 
#    y -0.288820 3.306130 -0.098210 
#    z 0.054850 -0.098210 3.317130 
# 
# 
# High freq. dielectric constant tensor:
#      x y z
#    x 1.691970 -0.011310 -0.002740 
#    y -0.011310 1.682140 -0.008060 
#    z -0.002740 -0.008060 1.705410 
# 
# From -- ./inp_files/599748.got.cif
#   From: 2010.06.25/outbox.cif.g09.slc.cpg/sg2_300_cif.got.tgz:599748.got - 2010.06.27 13:26:56.
