data_PCOD8029142
_publ_section_title
;
Structure prediction by ZEFSAII (Michael W. Deem and Ramdas Pophale) SiO2 
 PCOD8029142
Probable space group: P -1
;
_chemical_formula_sum "Si O2"
_cell_formula_units_Z 14
_cell_length_a 22.688196
_cell_length_b 18.432159
_cell_length_c 7.609481
_cell_angle_alpha 130.804493
_cell_angle_beta 37.412140
_cell_angle_gamma 157.233477
_cell_volume 704.745412
_symmetry_space_group_name_H-M "P -1"
_symmetry_group_IT_number 2
_symmetry_cell_setting 'triclinic'
loop_
_space_group_symop_operation_xyz
x,y,z
-x,-y,-z
loop_
_atom_site_type_symbol
_atom_site_label
_atom_site_fract_x
_atom_site_fract_y
_atom_site_fract_z
Si Si1 0.289509 0.396940 0.735359
Si Si2 0.218628 0.842695 0.378296
Si Si3 0.350866 0.246661 0.310130
Si Si4 0.318392 0.593280 0.337589
Si Si5 0.782242 0.460132 0.902140
Si Si6 0.600376 0.187537 0.213143
Si Si7 0.972551 0.163797 0.401425
O O1 0.286189 0.296414 0.467744
O O2 0.515586 0.613989 0.613495
O O3 0.224580 0.435728 0.841466
O O4 0.129096 0.242931 0.030667
O O5 0.188425 0.914679 0.455402
O O6 0.010447 0.623049 0.600540
O O7 0.359175 0.979356 0.433444
O O8 0.313611 0.845351 0.026268
O O9 0.149108 0.013587 0.467221
O O10 0.484446 0.304253 0.941923
O O11 0.322986 0.633200 0.188119
O O12 0.329098 0.693144 0.596572
O O13 0.110676 0.356478 0.494974
O O14 0.672950 0.294170 0.026325
#
# Coordination Sequence:
#
# PCOD8029142 Si02
#       7
#     2   2   2   2   2   2   2
#     4   8  16  28  51  77  99 132 172 202 248 304
#     4   9  20  34  53  77  99 133 176 203 251 311
#     4   9  15  30  50  75 105 131 164 211 249 293
#     4   9  21  33  51  79 102 131 175 204 247 310
#     4   9  19  36  52  75 104 133 167 211 251 294
#     4  11  20  36  54  73 105 136 165 213 254 294
#     4   9  17  32  52  77 103 133 169 210 251 295
#
# _framework density 19.865328000000002
#
# number of rings (size 3 to 8) (size 9 to 14) (size 15 to 20)
#    0.000    3.429    0.000    2.571    0.000    3.429 
#    0.000    7.143    0.000    4.286    0.000    0.000 
#    0.000    0.000    0.000    0.000    0.000    0.000 
#
# Total GULP energy -173468.471969 kJ/mol
# GULP energy per Si atom -12390.605141 kJ/mol
# Density = 1.982011 g / cm^3
# Si number density = 19.865328 Si / 1000 Ang^3
#
#
#
# Elastic Constant Matrix: (Units=GPa)
#
#
# Indices 1 2 3 4 5 6 
#
# 1 38.6323 23.2313 25.0330 10.2757 -4.7095 3.2353
# 2 23.2313 75.3507 34.8626 3.4238 1.8255 1.3974
# 3 25.0330 34.8626 73.2539 3.4882 -15.7268 13.4100
# 4 10.2757 3.4238 3.4882 26.5938 1.0865 -2.0765
# 5 -4.7095 1.8255 -15.7268 1.0865 23.4102 -3.3333
# 6 3.2353 1.3974 13.4100 -2.0765 -3.3333 20.1865
#
#
#
# Elastic Compliance Matrix: (Units=1/GPa)
#
#
# Indices 1 2 3 4 5 6 
#
# 1 0.040262 -0.008019 -0.008296 -0.013678 0.003616 -0.001197
# 2 -0.008019 0.020413 -0.010070 0.002585 -0.009337 0.005286
# 3 -0.008296 -0.010070 0.027099 -0.000737 0.015433 -0.013503
# 4 -0.013678 0.002585 -0.000737 0.043323 -0.004576 0.006204
# 5 0.003616 -0.009337 0.015433 -0.004576 0.054516 -0.001654
# 6 -0.001197 0.005286 -0.013503 0.006204 -0.001654 0.058699
#
#
# Mechanical properties :
#
#
# Convention : Reuss Voigt Hill
#
# Bulk Modulus (GPa) = 28.56765 39.27674 33.92220
# Shear Modulus (GPa) = 16.19438 20.97878 18.58658
#
# Velocity S-wave (km/s) = 2.85828 3.25322 3.06212
# Velocity P-wave (km/s) = 5.03040 5.82457 5.44199
#
# Compressibility (1/GPa) = 0.03500462
#
# Stress axis : x y z
#
# Youngs Moduli (GPa) = 24.83754 48.98738 36.90216
#
# Poissons Ratio (x) = 0.39282 0.30613
# Poissons Ratio (y) = 0.19917 0.37161
# Poissons Ratio (z) = 0.20604 0.49331
#
# Static dielectric constant tensor:
#      x y z
#    x 3.182600 -0.099320 -0.452890 
#    y -0.099320 3.615310 -0.031620 
#    z -0.452890 -0.031620 3.756210 
# 
# 
# High freq. dielectric constant tensor:
#      x y z
#    x 1.726680 -0.011740 -0.037760 
#    y -0.011740 1.780450 -0.008380 
#    z -0.037760 -0.008380 1.777480 
# 
# From -- ./inp_files/215070.got.cif
#   From: 2010.06.25/outbox.cif.g09.slc.cpg/sg2_108_cif.got.tgz:215070.got - 2010.06.27 13:26:56.
