data_PCOD8029954
_publ_section_title
;
Structure prediction by ZEFSAII (Michael W. Deem and Ramdas Pophale) SiO2 
 PCOD8029954
Probable space group: P -1
;
_chemical_formula_sum "Si O2"
_cell_formula_units_Z 14
_cell_length_a 12.033477
_cell_length_b 9.952745
_cell_length_c 9.461456
_cell_angle_alpha 43.142340
_cell_angle_beta 106.874176
_cell_angle_gamma 114.987474
_cell_volume 702.048618
_symmetry_space_group_name_H-M "P -1"
_symmetry_group_IT_number 2
_symmetry_cell_setting 'triclinic'
loop_
_space_group_symop_operation_xyz
x,y,z
-x,-y,-z
loop_
_atom_site_type_symbol
_atom_site_label
_atom_site_fract_x
_atom_site_fract_y
_atom_site_fract_z
Si Si1 0.461880 0.795476 0.549226
Si Si2 0.268043 0.478485 0.895850
Si Si3 0.859243 0.636060 0.551146
Si Si4 0.866654 0.214011 0.411855
Si Si5 0.715062 0.758277 0.636638
Si Si6 0.769143 0.206363 0.692828
Si Si7 0.136101 0.127924 0.906826
O O1 0.396445 0.600176 0.775066
O O2 0.580510 0.765440 0.542995
O O3 0.371670 0.817035 0.374416
O O4 0.500000 0.000000 0.500000
O O5 0.200418 0.639251 0.801427
O O6 0.179849 0.333284 0.859250
O O7 0.293341 0.346679 0.133682
O O8 0.753866 0.624097 0.635346
O O9 0.834235 0.411749 0.646970
O O10 0.860355 0.809172 0.303243
O O11 0.988930 0.699797 0.631175
O O12 0.843980 0.211405 0.572997
O O13 0.813511 0.986414 0.500970
O O14 0.773608 0.009022 0.936516
O O15 0.000000 0.000000 0.000000
#
# Coordination Sequence:
#
# PCOD8029954 Si02
#       7
#     2   2   2   2   2   2   2
#     4  11  21  44  69  87 126 169 223 255 298 391
#     4  11  22  40  70  92 117 175 220 248 312 380
#     4  12  25  40  62 100 135 157 206 278 321 359
#     4  11  21  41  66  92 129 167 216 256 309 386
#     4  12  25  41  64  97 129 167 207 269 322 363
#     4  11  22  40  65  93 124 168 218 251 308 374
#     4  12  21  39  69  97 124 170 214 252 315 386
#
# _framework density 19.94164
#
# number of rings (size 3 to 8) (size 9 to 14) (size 15 to 20)
#    0.000    0.571    8.571    2.143    0.000    2.286 
#    0.000    0.714    0.000    0.000    0.000    0.000 
#    0.000    0.000    0.000    0.000    0.000    0.000 
#
# Total GULP energy -173682.944550 kJ/mol
# GULP energy per Si atom -12405.924611 kJ/mol
# Density = 1.989625 g / cm^3
# Si number density = 19.941640 Si / 1000 Ang^3
#
#
#
# Elastic Constant Matrix: (Units=GPa)
#
#
# Indices 1 2 3 4 5 6 
#
# 1 100.1221 13.6694 16.4409 7.9408 5.0491 4.1110
# 2 13.6694 73.2463 15.0737 -14.8347 -7.7351 12.6559
# 3 16.4409 15.0737 56.6917 -10.5478 17.2274 10.3211
# 4 7.9408 -14.8347 -10.5478 28.8449 0.2264 1.1214
# 5 5.0491 -7.7351 17.2274 0.2264 32.2720 0.3130
# 6 4.1110 12.6559 10.3211 1.1214 0.3130 32.7832
#
#
#
# Elastic Compliance Matrix: (Units=1/GPa)
#
#
# Indices 1 2 3 4 5 6 
#
# 1 0.011441 -0.002803 -0.003747 -0.005998 -0.000430 0.001036
# 2 -0.002803 0.018483 -0.003268 0.009269 0.006608 -0.006135
# 3 -0.003747 -0.003268 0.027126 0.009657 -0.014677 -0.006999
# 4 -0.005998 0.009269 0.009657 0.044922 -0.002239 -0.007382
# 5 -0.000430 0.006608 -0.014677 -0.002239 0.040471 0.001814
# 6 0.001036 -0.006135 -0.006999 -0.007382 0.001814 0.035181
#
#
# Mechanical properties :
#
#
# Convention : Reuss Voigt Hill
#
# Bulk Modulus (GPa) = 26.72786 35.60313 31.16550
# Shear Modulus (GPa) = 23.84011 31.10510 27.47260
#
# Velocity S-wave (km/s) = 3.46134 3.95372 3.71570
# Velocity P-wave (km/s) = 5.42279 6.22374 5.83702
#
# Compressibility (1/GPa) = 0.03741414
#
# Stress axis : x y z
#
# Youngs Moduli (GPa) = 87.40813 54.10239 36.86538
#
# Poissons Ratio (x) = 0.15167 0.13812
# Poissons Ratio (y) = 0.24503 0.12048
# Poissons Ratio (z) = 0.32747 0.17681
#
# Static dielectric constant tensor:
#      x y z
#    x 3.685840 0.146190 0.264240 
#    y 0.146190 3.588120 -0.080930 
#    z 0.264240 -0.080930 3.704350 
# 
# 
# High freq. dielectric constant tensor:
#      x y z
#    x 1.775390 0.011750 0.019370 
#    y 0.011750 1.781600 -0.015680 
#    z 0.019370 -0.015680 1.777910 
# 
# From -- ./inp_files/71215.got.cif
#   From: 2010.06.25/outbox.cif.g09.slc.cpg/sg2_36_cif.got.tgz:71215.got - 2010.06.27 13:26:56.
