data_PCOD8029646
_publ_section_title
;
Structure prediction by ZEFSAII (Michael W. Deem and Ramdas Pophale) SiO2 
 PCOD8029646
Probable space group: P -1
;
_chemical_formula_sum "Si O2"
_cell_formula_units_Z 16
_cell_length_a 11.168347
_cell_length_b 16.719136
_cell_length_c 11.360443
_cell_angle_alpha 64.218192
_cell_angle_beta 119.658033
_cell_angle_gamma 156.865009
_cell_volume 723.007574
_symmetry_space_group_name_H-M "P -1"
_symmetry_group_IT_number 2
_symmetry_cell_setting 'triclinic'
loop_
_space_group_symop_operation_xyz
x,y,z
-x,-y,-z
loop_
_atom_site_type_symbol
_atom_site_label
_atom_site_fract_x
_atom_site_fract_y
_atom_site_fract_z
Si Si1 0.657007 0.274850 0.155739
Si Si2 0.182862 0.363197 0.970464
Si Si3 0.561047 0.940905 0.018053
Si Si4 0.515728 0.224709 0.486243
Si Si5 0.873420 0.086011 0.692107
Si Si6 0.377333 0.687666 0.261398
Si Si7 0.496560 0.345962 0.877621
Si Si8 0.033610 0.374176 0.658355
O O1 0.009569 0.497298 0.232436
O O2 0.448402 0.116024 0.261808
O O3 0.701231 0.229270 0.100905
O O4 0.480767 0.253567 0.017846
O O5 0.085941 0.380461 0.816123
O O6 0.500000 0.500000 0.000000
O O7 0.226318 0.432069 0.076180
O O8 0.901044 0.129118 0.997752
O O9 0.549685 0.868491 0.167172
O O10 0.500000 0.000000 0.000000
O O11 0.445959 0.220440 0.586780
O O12 0.743309 0.271798 0.568622
O O13 0.652033 0.390503 0.379384
O O14 0.196604 0.000659 0.413396
O O15 0.961454 0.242451 0.630874
O O16 0.164974 0.204457 0.817019
O O17 0.419055 0.627099 0.234413
#
# Coordination Sequence:
#
# PCOD8029646 Si02
#       8
#     2   2   2   2   2   2   2   2
#     4  11  21  40  68  98 134 171 222 284 339 399
#     4  12  22  42  70 101 133 164 220 291 344 394
#     4  11  21  37  63  97 133 169 214 272 341 405
#     4  11  25  44  68  93 141 187 231 276 321 407
#     4  12  24  43  71  99 134 179 234 283 333 396
#     4  11  25  43  64  97 139 183 218 272 342 412
#     4  11  23  42  64 102 137 171 219 281 355 402
#     4  11  23  45  68 105 129 178 238 282 333 395
#
# _framework density 22.129781999999999
#
# number of rings (size 3 to 8) (size 9 to 14) (size 15 to 20)
#    0.000    0.750    2.500    7.500    0.000    3.500 
#    2.250    0.625    0.000    0.000    0.000    0.000 
#    0.000    0.000    0.000    0.000    0.000    0.000 
#
# Total GULP energy -198327.069987 kJ/mol
# GULP energy per Si atom -12395.441874 kJ/mol
# Density = 2.207941 g / cm^3
# Si number density = 22.129782 Si / 1000 Ang^3
#
#
#
# Elastic Constant Matrix: (Units=GPa)
#
#
# Indices 1 2 3 4 5 6 
#
# 1 83.6417 31.3757 25.4235 -2.5486 -4.7604 -25.1712
# 2 31.3757 102.3974 49.7433 -2.6836 4.3567 -13.9017
# 3 25.4235 49.7433 100.3905 4.0730 -13.7532 -16.3013
# 4 -2.5486 -2.6836 4.0730 34.8949 -9.6118 -11.4091
# 5 -4.7604 4.3567 -13.7532 -9.6118 38.2483 11.1921
# 6 -25.1712 -13.9017 -16.3013 -11.4091 11.1921 39.2803
#
#
#
# Elastic Compliance Matrix: (Units=1/GPa)
#
#
# Indices 1 2 3 4 5 6 
#
# 1 0.016749 -0.002994 -0.001234 0.004580 0.000068 0.010472
# 2 -0.002994 0.014493 -0.006789 0.001039 -0.004808 0.002065
# 3 -0.001234 -0.006789 0.014590 -0.000435 0.005407 0.001194
# 4 0.004580 0.001039 -0.000435 0.034429 0.005572 0.011534
# 5 0.000068 -0.004808 0.005407 0.005572 0.032075 -0.006934
# 6 0.010472 0.002065 0.001194 0.011534 -0.006934 0.038721
#
#
# Mechanical properties :
#
#
# Convention : Reuss Voigt Hill
#
# Bulk Modulus (GPa) = 42.01933 55.50163 48.76048
# Shear Modulus (GPa) = 27.62098 34.47717 31.04908
#
# Velocity S-wave (km/s) = 3.53673 3.95137 3.74979
# Velocity P-wave (km/s) = 5.97552 6.77881 6.38980
#
# Compressibility (1/GPa) = 0.02379857
#
# Stress axis : x y z
#
# Youngs Moduli (GPa) = 59.70611 68.99806 68.54133
#
# Poissons Ratio (x) = 0.20655 0.08460
# Poissons Ratio (y) = 0.17874 0.46530
# Poissons Ratio (z) = 0.07369 0.46840
#
# Static dielectric constant tensor:
#      x y z
#    x 4.247680 -0.603580 -0.337560 
#    y -0.603580 4.957650 0.317250 
#    z -0.337560 0.317250 4.104470 
# 
# 
# High freq. dielectric constant tensor:
#      x y z
#    x 1.877340 -0.022500 -0.014950 
#    y -0.022500 1.874700 0.010320 
#    z -0.014950 0.010320 1.863460 
# 
# From -- ./inp_files/436311.got.cif
#   From: 2010.06.25/outbox.cif.g09.slc.cpg/sg2_219_cif.got.tgz:436311.got - 2010.06.27 13:26:56.
