data_PCOD8029994
_publ_section_title
;
Structure prediction by ZEFSAII (Michael W. Deem and Ramdas Pophale) SiO2 
 PCOD8029994
Probable space group: P -1
;
_chemical_formula_sum "Si O2"
_cell_formula_units_Z 16
_cell_length_a 8.538394
_cell_length_b 12.297668
_cell_length_c 9.462901
_cell_angle_alpha 121.364786
_cell_angle_beta 108.150540
_cell_angle_gamma 62.448841
_cell_volume 748.921547
_symmetry_space_group_name_H-M "P -1"
_symmetry_group_IT_number 2
_symmetry_cell_setting 'triclinic'
loop_
_space_group_symop_operation_xyz
x,y,z
-x,-y,-z
loop_
_atom_site_type_symbol
_atom_site_label
_atom_site_fract_x
_atom_site_fract_y
_atom_site_fract_z
Si Si1 0.305071 0.201392 0.210914
Si Si2 0.532303 0.226407 0.541224
Si Si3 0.181581 0.966853 0.114486
Si Si4 0.626426 0.468617 0.646300
Si Si5 0.042245 0.485733 0.336690
Si Si6 0.847744 0.974131 0.525261
Si Si7 0.251059 0.280152 0.724545
Si Si8 0.527937 0.742938 0.964828
O O1 0.387312 0.260312 0.400724
O O2 0.118365 0.324938 0.206104
O O3 0.443001 0.169017 0.098578
O O4 0.275889 0.067450 0.158451
O O5 0.637172 0.329607 0.633009
O O6 0.438259 0.237525 0.671266
O O7 0.666990 0.070195 0.464458
O O8 0.138537 0.985397 0.280673
O O9 0.328702 0.816105 0.021015
O O10 0.000000 0.000000 0.000000
O O11 0.500000 0.500000 0.500000
O O12 0.819156 0.445719 0.624426
O O13 0.549374 0.591305 0.819835
O O14 0.000000 0.500000 0.500000
O O15 0.866397 0.564885 0.250173
O O16 0.854762 0.819391 0.410024
O O17 0.000000 0.000000 0.500000
O O18 0.306639 0.271786 0.896894
#
# Coordination Sequence:
#
# PCOD8029994 Si02
#       8
#     2   2   2   2   2   2   2   2
#     4  11  24  44  71  98 134 185 221 274 346 405
#     4  12  22  45  72  96 135 184 227 274 340 412
#     4  12  27  46  67 103 138 173 229 285 340 407
#     4  11  23  43  69 102 137 179 227 273 339 409
#     4  11  21  41  69 102 132 180 227 273 335 404
#     4  12  27  45  70 101 136 183 227 283 343 402
#     4  12  24  45  71  98 139 177 230 283 338 404
#     4  11  26  45  69 102 134 180 225 280 344 398
#
# _framework density 21.364053999999999
#
# number of rings (size 3 to 8) (size 9 to 14) (size 15 to 20)
#    0.000    0.500    6.250    2.250    3.500    5.500 
#    2.250    0.000    0.000    0.000    0.000    0.000 
#    0.000    0.000    0.000    0.000    0.000    0.000 
#
# Total GULP energy -198418.730505 kJ/mol
# GULP energy per Si atom -12401.170657 kJ/mol
# Density = 2.131543 g / cm^3
# Si number density = 21.364054 Si / 1000 Ang^3
#
#
#
# Elastic Constant Matrix: (Units=GPa)
#
#
# Indices 1 2 3 4 5 6 
#
# 1 80.3056 22.6529 26.1748 3.2652 1.3842 2.8575
# 2 22.6529 99.9155 28.2172 1.9576 2.0461 -8.4587
# 3 26.1748 28.2172 117.0193 -0.8236 -2.7460 -1.3561
# 4 3.2652 1.9576 -0.8236 26.1753 -0.3055 -1.3130
# 5 1.3842 2.0461 -2.7460 -0.3055 23.8377 -1.5855
# 6 2.8575 -8.4587 -1.3561 -1.3130 -1.5855 50.4483
#
#
#
# Elastic Compliance Matrix: (Units=1/GPa)
#
#
# Indices 1 2 3 4 5 6 
#
# 1 0.014154 -0.002534 -0.002607 -0.001739 -0.001018 -0.001374
# 2 -0.002534 0.011395 -0.002184 -0.000518 -0.000959 0.001952
# 3 -0.002607 -0.002184 0.009697 0.000816 0.001474 0.000110
# 4 -0.001739 -0.000518 0.000816 0.038548 0.000804 0.001062
# 5 -0.001018 -0.000959 0.001474 0.000804 0.042358 0.001289
# 6 -0.001374 0.001952 0.000110 0.001062 0.001289 0.020298
#
#
# Mechanical properties :
#
#
# Convention : Reuss Voigt Hill
#
# Bulk Modulus (GPa) = 48.55538 50.14778 49.35158
# Shear Modulus (GPa) = 31.65229 34.77193 33.21211
#
# Velocity S-wave (km/s) = 3.85329 4.03872 3.94709
# Velocity P-wave (km/s) = 6.52488 6.72847 6.62745
#
# Compressibility (1/GPa) = 0.02059504
#
# Stress axis : x y z
#
# Youngs Moduli (GPa) = 70.65063 87.75824 103.12411
#
# Poissons Ratio (x) = 0.22240 0.26884
# Poissons Ratio (y) = 0.17904 0.22526
# Poissons Ratio (z) = 0.18418 0.19170
#
# Static dielectric constant tensor:
#      x y z
#    x 4.029190 0.228590 0.129990 
#    y 0.228590 3.960200 0.003390 
#    z 0.129990 0.003390 3.875340 
# 
# 
# High freq. dielectric constant tensor:
#      x y z
#    x 1.844750 0.000020 -0.012720 
#    y 0.000020 1.854200 -0.005150 
#    z -0.012720 -0.005150 1.831770 
# 
# From -- ./inp_files/190252.got.cif
#   From: 2010.06.25/outbox.cif.g09.slc.cpg/sg2_96_cif.got.tgz:190252.got - 2010.06.27 13:26:56.
