data_PCOD8029851
_publ_section_title
;
Structure prediction by ZEFSAII (Michael W. Deem and Ramdas Pophale) SiO2 
 PCOD8029851
Probable space group: P -1
;
_chemical_formula_sum "Si O2"
_cell_formula_units_Z 16
_cell_length_a 19.361248
_cell_length_b 13.296536
_cell_length_c 16.102765
_cell_angle_alpha 156.130734
_cell_angle_beta 151.803106
_cell_angle_gamma 42.211391
_cell_volume 744.979643
_symmetry_space_group_name_H-M "P -1"
_symmetry_group_IT_number 2
_symmetry_cell_setting 'triclinic'
loop_
_space_group_symop_operation_xyz
x,y,z
-x,-y,-z
loop_
_atom_site_type_symbol
_atom_site_label
_atom_site_fract_x
_atom_site_fract_y
_atom_site_fract_z
Si Si1 0.985898 0.270861 0.497525
Si Si2 0.046353 0.809427 0.120425
Si Si3 0.343618 0.497525 0.076542
Si Si4 0.073293 0.772550 0.418293
Si Si5 0.392375 0.918448 0.578193
Si Si6 0.542510 0.493960 0.136257
Si Si7 0.369576 0.963664 0.767324
Si Si8 0.894207 0.727446 0.720976
O O1 0.877731 0.202115 0.413567
O O2 0.927614 0.465234 0.523446
O O3 0.976617 0.995254 0.239776
O O4 0.161001 0.448972 0.844026
O O5 0.229516 0.966716 0.419764
O O6 0.036569 0.532669 0.946037
O O7 0.937421 0.743090 0.874966
O O8 0.425049 0.718700 0.397749
O O9 0.424114 0.583697 0.136902
O O10 0.374162 0.241337 0.946847
O O11 0.210181 0.810482 0.527601
O O12 0.000000 0.000000 0.500000
O O13 0.391051 0.810994 0.590796
O O14 0.530715 0.196515 0.922499
O O15 0.715805 0.692956 0.488611
O O16 0.500000 0.500000 0.000000
O O17 0.500000 0.000000 0.000000
O O18 0.000000 0.000000 0.000000
#
# Coordination Sequence:
#
# PCOD8029851 Si02
#       8
#     2   2   2   2   2   2   2   2
#     4  11  23  43  70  99 136 179 231 287 338 410
#     4  11  22  42  71 100 138 181 225 295 336 403
#     4  11  23  46  70  97 137 184 231 278 349 410
#     4  11  21  40  67 100 133 180 238 269 338 404
#     4  11  22  45  70  95 139 184 223 284 347 400
#     4  11  26  46  71 101 137 175 223 284 351 421
#     4  11  25  41  64  98 143 181 231 283 331 412
#     4  11  26  46  70 103 134 170 237 290 346 417
#
# _framework density 21.477096
#
# number of rings (size 3 to 8) (size 9 to 14) (size 15 to 20)
#    0.000    1.000    6.250    0.750    7.000    5.500 
#    0.000    0.000    0.000    0.000    0.000    0.000 
#    0.000    0.000    0.000    0.000    0.000    0.000 
#
# Total GULP energy -198287.651512 kJ/mol
# GULP energy per Si atom -12392.978219 kJ/mol
# Density = 2.142821 g / cm^3
# Si number density = 21.477096 Si / 1000 Ang^3
#
#
#
# Elastic Constant Matrix: (Units=GPa)
#
#
# Indices 1 2 3 4 5 6 
#
# 1 148.3274 34.9133 51.0035 7.7804 -3.9281 16.2817
# 2 34.9133 87.6619 30.1760 8.4352 4.1532 12.7648
# 3 51.0035 30.1760 110.0158 3.2073 3.2648 13.0985
# 4 7.7804 8.4352 3.2073 50.7498 0.4796 -12.9424
# 5 -3.9281 4.1532 3.2648 0.4796 37.4270 6.3187
# 6 16.2817 12.7648 13.0985 -12.9424 6.3187 28.5474
#
#
#
# Elastic Compliance Matrix: (Units=1/GPa)
#
#
# Indices 1 2 3 4 5 6 
#
# 1 0.008848 -0.001750 -0.003130 -0.001955 0.002128 -0.004185
# 2 -0.001750 0.014054 -0.002256 -0.003362 -0.000549 -0.005653
# 3 -0.003130 -0.002256 0.011501 -0.000524 -0.000639 -0.002579
# 4 -0.001955 -0.003362 -0.000524 0.024302 -0.002535 0.014437
# 5 0.002128 -0.000549 -0.000639 -0.002535 0.028463 -0.008124
# 6 -0.004185 -0.005653 -0.002579 0.014437 -0.008124 0.049471
#
#
# Mechanical properties :
#
#
# Convention : Reuss Voigt Hill
#
# Bulk Modulus (GPa) = 49.67481 64.24342 56.95911
# Shear Modulus (GPa) = 31.72167 38.67230 35.19698
#
# Velocity S-wave (km/s) = 3.84734 4.24799 4.05262
# Velocity P-wave (km/s) = 6.55099 7.35105 6.96252
#
# Compressibility (1/GPa) = 0.02013093
#
# Stress axis : x y z
#
# Youngs Moduli (GPa) = 113.01598 71.15566 86.95062
#
# Poissons Ratio (x) = 0.12451 0.27215
# Poissons Ratio (y) = 0.19776 0.19618
# Poissons Ratio (z) = 0.35374 0.16054
#
# Static dielectric constant tensor:
#      x y z
#    x 4.266360 0.131670 -0.115760 
#    y 0.131670 4.104450 0.175380 
#    z -0.115760 0.175380 4.046220 
# 
# 
# High freq. dielectric constant tensor:
#      x y z
#    x 1.854260 0.002340 -0.006570 
#    y 0.002340 1.829330 0.012790 
#    z -0.006570 0.012790 1.844780 
# 
# From -- ./inp_files/538492.got.cif
#   From: 2010.06.25/outbox.cif.g09.slc.cpg/sg2_270_cif.got.tgz:538492.got - 2010.06.27 13:26:56.
