data_PCOD8029854
_publ_section_title
;
Structure prediction by ZEFSAII (Michael W. Deem and Ramdas Pophale) SiO2 
 PCOD8029854
Probable space group: P -1
;
_chemical_formula_sum "Si O2"
_cell_formula_units_Z 16
_cell_length_a 6.807008
_cell_length_b 15.800381
_cell_length_c 22.889538
_cell_angle_alpha 155.986378
_cell_angle_beta 87.734902
_cell_angle_gamma 107.114645
_cell_volume 773.406134
_symmetry_space_group_name_H-M "P -1"
_symmetry_group_IT_number 2
_symmetry_cell_setting 'triclinic'
loop_
_space_group_symop_operation_xyz
x,y,z
-x,-y,-z
loop_
_atom_site_type_symbol
_atom_site_label
_atom_site_fract_x
_atom_site_fract_y
_atom_site_fract_z
Si Si1 0.455218 0.591614 0.698722
Si Si2 0.557322 0.361002 0.643236
Si Si3 0.630913 0.387447 0.483730
Si Si4 0.882356 0.300912 0.520421
Si Si5 0.390796 0.294459 0.818788
Si Si6 0.971583 0.146941 0.644704
Si Si7 0.795153 0.476918 0.835346
Si Si8 0.751612 0.909434 0.793481
O O1 0.562360 0.599237 0.766424
O O2 0.439795 0.361836 0.518008
O O3 0.650267 0.875869 0.840579
O O4 0.184002 0.516359 0.659805
O O5 0.773525 0.367362 0.615450
O O6 0.604880 0.396439 0.733891
O O7 0.278307 0.077580 0.456508
O O8 0.812580 0.341189 0.482643
O O9 0.796182 0.689782 0.644422
O O10 0.467791 0.162129 0.293848
O O11 0.780347 0.000459 0.337698
O O12 0.629611 0.359915 0.822267
O O13 0.214994 0.313064 0.789349
O O14 0.500000 0.500000 0.000000
O O15 0.940847 0.356244 0.749592
O O16 0.000000 0.000000 0.500000
O O17 0.994111 0.797578 0.037718
#
# Coordination Sequence:
#
# PCOD8029854 Si02
#       8
#     2   2   2   2   2   2   2   2
#     4   9  20  39  64  91 121 170 216 263 305 391
#     4  11  22  41  67  91 125 176 224 265 318 390
#     4   8  20  41  64  88 126 176 210 261 327 392
#     4  11  21  40  67  92 123 175 220 260 329 383
#     4  12  28  40  66 106 133 167 218 279 329 391
#     4  12  24  46  68  93 130 180 225 260 329 402
#     4  12  26  42  66  97 136 171 215 278 327 382
#     4   9  21  43  60  95 133 167 212 268 326 387
#
# _framework density 20.687708000000001
#
# number of rings (size 3 to 8) (size 9 to 14) (size 15 to 20)
#    0.750    0.750    3.750    1.125    3.500    1.500 
#    2.250    0.625    0.000    0.000    0.000    0.000 
#    0.000    0.000    0.000    0.000    0.000    0.000 
#
# Total GULP energy -198340.215673 kJ/mol
# GULP energy per Si atom -12396.263480 kJ/mol
# Density = 2.064062 g / cm^3
# Si number density = 20.687708 Si / 1000 Ang^3
#
#
#
# Elastic Constant Matrix: (Units=GPa)
#
#
# Indices 1 2 3 4 5 6 
#
# 1 107.4096 32.6176 21.2529 -5.2681 3.1495 -14.9897
# 2 32.6176 77.1615 19.8923 -8.9929 -6.3498 -28.6458
# 3 21.2529 19.8923 66.2965 -0.1366 12.9186 -7.5533
# 4 -5.2681 -8.9929 -0.1366 34.5558 -0.2589 5.8536
# 5 3.1495 -6.3498 12.9186 -0.2589 17.2091 -0.2004
# 6 -14.9897 -28.6458 -7.5533 5.8536 -0.2004 37.7324
#
#
#
# Elastic Compliance Matrix: (Units=1/GPa)
#
#
# Indices 1 2 3 4 5 6 
#
# 1 0.011101 -0.003991 -0.001845 0.000474 -0.002101 0.000926
# 2 -0.003991 0.023347 -0.006968 0.003122 0.014790 0.014339
# 3 -0.001845 -0.006968 0.021112 -0.001876 -0.018129 -0.001602
# 4 0.000474 0.003122 -0.001876 0.030261 0.002899 -0.002496
# 5 -0.002101 0.014790 -0.018129 0.002899 0.077681 0.006727
# 6 0.000926 0.014339 -0.001602 -0.002496 0.006727 0.037859
#
#
# Mechanical properties :
#
#
# Convention : Reuss Voigt Hill
#
# Bulk Modulus (GPa) = 33.38590 44.26590 38.82590
# Shear Modulus (GPa) = 21.10117 29.70645 25.40381
#
# Velocity S-wave (km/s) = 3.19719 3.79350 3.50804
# Velocity P-wave (km/s) = 5.45916 6.37426 5.93437
#
# Compressibility (1/GPa) = 0.02995276
#
# Stress axis : x y z
#
# Youngs Moduli (GPa) = 90.07935 42.83153 47.36587
#
# Poissons Ratio (x) = 0.17093 0.08741
# Poissons Ratio (y) = 0.35948 0.33004
# Poissons Ratio (z) = 0.16624 0.29844
#
# Static dielectric constant tensor:
#      x y z
#    x 3.703510 -0.180060 0.056130 
#    y -0.180060 3.968760 0.131340 
#    z 0.056130 0.131340 3.381790 
# 
# 
# High freq. dielectric constant tensor:
#      x y z
#    x 1.809680 -0.011330 0.007990 
#    y -0.011330 1.826300 0.007780 
#    z 0.007990 0.007780 1.774870 
# 
# From -- ./inp_files/615846.got.cif
#   From: 2010.06.25/outbox.cif.g09.slc.cpg/sg2_308_cif.got.tgz:615846.got - 2010.06.27 13:26:56.
