data_PCOD8029062
_publ_section_title
;
Structure prediction by ZEFSAII (Michael W. Deem and Ramdas Pophale) SiO2 
 PCOD8029062
Probable space group: P -1
;
_chemical_formula_sum "Si O2"
_cell_formula_units_Z 14
_cell_length_a 12.298175
_cell_length_b 9.365046
_cell_length_c 10.395774
_cell_angle_alpha 52.093866
_cell_angle_beta 110.942245
_cell_angle_gamma 67.565044
_cell_volume 510.149790
_symmetry_space_group_name_H-M "P -1"
_symmetry_group_IT_number 2
_symmetry_cell_setting 'triclinic'
loop_
_space_group_symop_operation_xyz
x,y,z
-x,-y,-z
loop_
_atom_site_type_symbol
_atom_site_label
_atom_site_fract_x
_atom_site_fract_y
_atom_site_fract_z
Si Si1 0.162334 0.779666 0.079846
Si Si2 0.687223 0.812674 0.491327
Si Si3 0.609379 0.193532 0.935512
Si Si4 0.820288 0.167086 0.536458
Si Si5 0.692757 0.754668 0.046060
Si Si6 0.779381 0.831078 0.772623
Si Si7 0.886248 0.894993 0.448841
O O1 0.271147 0.451608 0.331123
O O2 0.333291 0.719771 0.190874
O O3 0.040239 0.954369 0.795752
O O4 0.000000 0.000000 0.000000
O O5 0.620847 0.972513 0.514920
O O6 0.883632 0.684654 0.605900
O O7 0.525897 0.060525 0.170501
O O8 0.371110 0.460305 0.716075
O O9 0.695671 0.893737 0.086158
O O10 0.714851 0.136760 0.138330
O O11 0.766186 0.061574 0.658850
O O12 0.839763 0.089866 0.437239
O O13 0.717457 0.813843 0.885324
O O14 0.879836 0.373045 0.356793
O O15 0.000000 0.500000 0.000000
#
# Coordination Sequence:
#
# PCOD8029062 Si02
#       7
#     2   2   2   2   2   2   2
#     4  12  24  41  67 100 135 169 212 278 342 384
#     4  11  23  40  70  97 125 171 227 264 326 391
#     4  12  28  42  65 100 137 173 219 271 331 389
#     4  11  23  43  67  95 135 174 216 273 329 389
#     4  12  23  41  67  97 131 175 221 271 326 388
#     4  11  19  41  68  95 129 166 215 274 322 382
#     4  11  25  47  66  93 134 179 224 269 318 393
#
# _framework density 27.442921999999999
#
# number of rings (size 3 to 8) (size 9 to 14) (size 15 to 20)
#    0.000    0.571    4.286    4.714    0.000    7.429 
#    0.000    0.000    0.000    0.000    0.000    0.000 
#    0.000    0.000    0.000    0.000    0.000    0.000 
#
# Total GULP energy -173562.139165 kJ/mol
# GULP energy per Si atom -12397.295655 kJ/mol
# Density = 2.738046 g / cm^3
# Si number density = 27.442922 Si / 1000 Ang^3
#
#
#
# Elastic Constant Matrix: (Units=GPa)
#
#
# Indices 1 2 3 4 5 6 
#
# 1 96.4366 12.4431 0.2736 -11.4219 33.3982 -0.4960
# 2 12.4431 123.9659 25.2545 -5.0607 15.6010 -2.5293
# 3 0.2736 25.2545 129.2664 -9.5965 13.6400 4.5047
# 4 -11.4219 -5.0607 -9.5965 53.1395 0.9788 -2.6148
# 5 33.3982 15.6010 13.6400 0.9788 41.3842 -5.2163
# 6 -0.4960 -2.5293 4.5047 -2.6148 -5.2163 39.8621
#
#
#
# Elastic Compliance Matrix: (Units=1/GPa)
#
#
# Indices 1 2 3 4 5 6 
#
# 1 0.015401 -0.000107 0.001717 0.003781 -0.013233 -0.001493
# 2 -0.000107 0.008735 -0.001387 0.000628 -0.002715 0.000396
# 3 0.001717 -0.001387 0.008600 0.001792 -0.003921 -0.001434
# 4 0.003781 0.000628 0.001792 0.020125 -0.004273 0.000645
# 5 -0.013233 -0.002715 -0.003921 -0.004273 0.037862 0.004780
# 6 -0.001493 0.000396 -0.001434 0.000645 0.004780 0.025923
#
#
# Mechanical properties :
#
#
# Convention : Reuss Voigt Hill
#
# Bulk Modulus (GPa) = 30.13523 47.29013 38.71268
# Shear Modulus (GPa) = 39.28943 47.65700 43.47321
#
# Velocity S-wave (km/s) = 3.78786 4.17176 3.98443
# Velocity P-wave (km/s) = 5.48957 6.36194 5.94179
#
# Compressibility (1/GPa) = 0.03318376
#
# Stress axis : x y z
#
# Youngs Moduli (GPa) = 64.92983 114.47694 116.27914
#
# Poissons Ratio (x) = 0.01220 -0.19967
# Poissons Ratio (y) = 0.00692 0.16129
# Poissons Ratio (z) = -0.11150 0.15879
#
# Static dielectric constant tensor:
#      x y z
#    x 5.822290 -0.077970 0.061460 
#    y -0.077970 4.933970 0.380200 
#    z 0.061460 0.380200 4.990460 
# 
# 
# High freq. dielectric constant tensor:
#      x y z
#    x 2.162060 -0.002700 -0.007280 
#    y -0.002700 2.096660 0.014780 
#    z -0.007280 0.014780 2.110790 
# 
# From -- ./inp_files/446966.got.cif
#   From: 2010.06.25/outbox.cif.g09.slc.cpg/sg2_224_cif.got.tgz:446966.got - 2010.06.27 13:26:56.
