data_PCOD8029459
_publ_section_title
;
Structure prediction by ZEFSAII (Michael W. Deem and Ramdas Pophale) SiO2 
 PCOD8029459
Probable space group: P -1
;
_chemical_formula_sum "Si O2"
_cell_formula_units_Z 16
_cell_length_a 9.242212
_cell_length_b 11.952355
_cell_length_c 16.780612
_cell_angle_alpha 142.375670
_cell_angle_beta 135.603820
_cell_angle_gamma 40.355619
_cell_volume 703.313338
_symmetry_space_group_name_H-M "P -1"
_symmetry_group_IT_number 2
_symmetry_cell_setting 'triclinic'
loop_
_space_group_symop_operation_xyz
x,y,z
-x,-y,-z
loop_
_atom_site_type_symbol
_atom_site_label
_atom_site_fract_x
_atom_site_fract_y
_atom_site_fract_z
Si Si1 0.819713 0.487864 0.729703
Si Si2 0.380219 0.816642 0.026586
Si Si3 0.844079 0.741396 0.562665
Si Si4 0.990145 0.164385 0.479772
Si Si5 0.052180 0.946863 0.118771
Si Si6 0.462107 0.854328 0.710860
Si Si7 0.404338 0.771166 0.470494
Si Si8 0.863477 0.459680 0.996748
O O1 0.651988 0.725813 0.779442
O O2 0.673593 0.404670 0.680449
O O3 0.881337 0.370785 0.604245
O O4 0.051607 0.467010 0.850098
O O5 0.228995 0.816150 0.043483
O O6 0.581003 0.587998 0.951860
O O7 0.531610 0.931421 0.174625
O O8 0.209236 0.925087 0.946117
O O9 0.879358 0.808895 0.528705
O O10 0.579486 0.776797 0.477232
O O11 0.000000 0.500000 0.500000
O O12 0.880690 0.881717 0.723200
O O13 0.792499 0.105368 0.337563
O O14 0.172006 0.985800 0.506462
O O15 0.067222 0.783679 0.101366
O O16 0.524978 0.730347 0.581814
O O17 0.000000 0.500000 0.000000
#
# Coordination Sequence:
#
# PCOD8029459 Si02
#       8
#     2   2   2   2   2   2   2   2
#     4  11  23  43  71 101 136 185 237 282 359 424
#     4  11  24  48  77 101 147 192 238 299 350 436
#     4  12  26  45  67 103 144 183 230 296 357 417
#     4  11  24  39  70 100 139 185 234 292 352 417
#     4  11  27  49  72 107 143 197 244 284 367 428
#     4  11  20  42  69 100 136 183 234 285 348 425
#     4  11  22  42  63 102 138 182 234 288 347 420
#     4  12  28  48  75 109 145 186 242 304 358 424
#
# _framework density 22.749464
#
# number of rings (size 3 to 8) (size 9 to 14) (size 15 to 20)
#    0.000    0.750    2.500    6.750    3.500    2.500 
#    2.250    0.000    0.000    0.000    0.000    0.000 
#    0.000    0.000    0.000    0.000    0.000    0.000 
#
# Total GULP energy -198400.968831 kJ/mol
# GULP energy per Si atom -12400.060552 kJ/mol
# Density = 2.269768 g / cm^3
# Si number density = 22.749464 Si / 1000 Ang^3
#
#
#
# Elastic Constant Matrix: (Units=GPa)
#
#
# Indices 1 2 3 4 5 6 
#
# 1 125.7493 39.0143 12.0818 -7.2072 17.2025 -4.8597
# 2 39.0143 145.8806 29.6869 -9.2672 8.6018 -4.2725
# 3 12.0818 29.6869 69.6539 4.5399 11.4865 -6.0938
# 4 -7.2072 -9.2672 4.5399 31.9009 1.0846 10.0042
# 5 17.2025 8.6018 11.4865 1.0846 27.6712 -0.3304
# 6 -4.8597 -4.2725 -6.0938 10.0042 -0.3304 34.8209
#
#
#
# Elastic Compliance Matrix: (Units=1/GPa)
#
#
# Indices 1 2 3 4 5 6 
#
# 1 0.009434 -0.002117 0.000094 0.001497 -0.005297 0.000593
# 2 -0.002117 0.008253 -0.003381 0.002593 0.000045 -0.000619
# 3 0.000094 -0.003381 0.017400 -0.004444 -0.006010 0.003863
# 4 0.001497 0.002593 -0.004444 0.036491 -0.001450 -0.010749
# 5 -0.005297 0.000045 -0.006010 -0.001450 0.041958 -0.000971
# 6 0.000593 -0.000619 0.003863 -0.010749 -0.000971 0.032480
#
#
# Mechanical properties :
#
#
# Convention : Reuss Voigt Hill
#
# Bulk Modulus (GPa) = 41.18891 55.87220 48.53056
# Shear Modulus (GPa) = 30.31830 36.24532 33.28181
#
# Velocity S-wave (km/s) = 3.65458 3.99587 3.82903
# Velocity P-wave (km/s) = 5.99606 6.77513 6.39746
#
# Compressibility (1/GPa) = 0.02427838
#
# Stress axis : x y z
#
# Youngs Moduli (GPa) = 106.00488 121.16675 57.47086
#
# Poissons Ratio (x) = 0.25654 -0.00540
# Poissons Ratio (y) = 0.22443 0.19430
# Poissons Ratio (z) = -0.00995 0.40965
#
# Static dielectric constant tensor:
#      x y z
#    x 3.847980 -0.214370 0.246350 
#    y -0.214370 3.952810 -0.066500 
#    z 0.246350 -0.066500 3.973710 
# 
# 
# High freq. dielectric constant tensor:
#      x y z
#    x 1.898260 0.004160 0.019250 
#    y 0.004160 1.909180 -0.004520 
#    z 0.019250 -0.004520 1.891130 
# 
# From -- ./inp_files/307948.got.cif
#   From: 2010.06.25/outbox.cif.g09.slc.cpg/sg2_154_cif.got.tgz:307948.got - 2010.06.27 13:26:56.
