data_PCOD8029946
_publ_section_title
;
Structure prediction by ZEFSAII (Michael W. Deem and Ramdas Pophale) SiO2 
 PCOD8029946
Probable space group: P -1
;
_chemical_formula_sum "Si O2"
_cell_formula_units_Z 16
_cell_length_a 14.056239
_cell_length_b 11.872768
_cell_length_c 15.474099
_cell_angle_alpha 153.210108
_cell_angle_beta 41.191921
_cell_angle_gamma 138.553775
_cell_volume 739.730972
_symmetry_space_group_name_H-M "P -1"
_symmetry_group_IT_number 2
_symmetry_cell_setting 'triclinic'
loop_
_space_group_symop_operation_xyz
x,y,z
-x,-y,-z
loop_
_atom_site_type_symbol
_atom_site_label
_atom_site_fract_x
_atom_site_fract_y
_atom_site_fract_z
Si Si1 0.722158 0.898960 0.924320
Si Si2 0.025686 0.702722 0.873496
Si Si3 0.878238 0.802272 0.279975
Si Si4 0.772256 0.917147 0.249762
Si Si5 0.189754 0.799889 0.275619
Si Si6 0.787757 0.219608 0.945673
Si Si7 0.871477 0.447718 0.482195
Si Si8 0.554752 0.426860 0.004131
O O1 0.802131 0.688571 0.690150
O O2 0.577828 0.760961 0.982146
O O3 0.675129 0.039063 0.967698
O O4 0.824967 0.117921 0.064736
O O5 0.059047 0.589317 0.682419
O O6 0.953154 0.450834 0.810816
O O7 0.899370 0.860903 0.059623
O O8 0.832312 0.941173 0.322851
O O9 0.048866 0.799582 0.149668
O O10 0.858556 0.961401 0.486960
O O11 0.773088 0.512181 0.162776
O O12 0.618038 0.694261 0.196231
O O13 0.746405 0.188689 0.420802
O O14 0.253139 0.884210 0.194447
O O15 0.314635 0.721320 0.196193
O O16 0.000000 0.500000 0.500000
O O17 0.500000 0.500000 0.000000
#
# Coordination Sequence:
#
# PCOD8029946 Si02
#       8
#     2   2   2   2   2   2   2   2
#     4  12  26  43  66  99 136 178 221 281 334 390
#     4  11  21  41  65  99 130 166 227 278 335 385
#     4  11  21  42  73 104 132 172 225 282 337 391
#     4  11  22  44  66  97 134 179 222 274 337 396
#     4  11  24  43  72  99 134 183 221 272 340 401
#     4  11  21  43  69 104 135 167 228 283 332 392
#     4  12  24  37  69 102 132 173 224 283 337 397
#     4  11  27  47  65  96 140 184 221 274 334 403
#
# _framework density 21.629484000000001
#
# number of rings (size 3 to 8) (size 9 to 14) (size 15 to 20)
#    0.000    0.750    5.000    3.750    5.250    2.000 
#    2.250    0.625    0.000    0.000    0.000    0.000 
#    0.000    0.000    0.000    0.000    0.000    0.000 
#
# Total GULP energy -198435.800335 kJ/mol
# GULP energy per Si atom -12402.237521 kJ/mol
# Density = 2.158025 g / cm^3
# Si number density = 21.629484 Si / 1000 Ang^3
#
#
#
# Elastic Constant Matrix: (Units=GPa)
#
#
# Indices 1 2 3 4 5 6 
#
# 1 80.2472 34.6022 12.8881 -3.5694 17.0721 -7.6382
# 2 34.6022 141.2229 38.5643 -4.1665 6.8399 -10.3355
# 3 12.8881 38.5643 100.4163 9.8127 21.7862 0.3749
# 4 -3.5694 -4.1665 9.8127 19.6851 -6.1549 0.1503
# 5 17.0721 6.8399 21.7862 -6.1549 27.6877 2.8727
# 6 -7.6382 -10.3355 0.3749 0.1503 2.8727 37.9121
#
#
#
# Elastic Compliance Matrix: (Units=1/GPa)
#
#
# Indices 1 2 3 4 5 6 
#
# 1 0.016502 -0.003922 0.002213 -0.002676 -0.011869 0.003144
# 2 -0.003922 0.009319 -0.004588 0.005004 0.004691 0.001421
# 3 0.002213 -0.004588 0.016274 -0.013724 -0.016119 0.000310
# 4 -0.002676 0.005004 -0.013724 0.066386 0.026103 -0.001280
# 5 -0.011869 0.004691 -0.016119 0.026103 0.061355 -0.005705
# 6 0.003144 0.001421 0.000310 -0.001280 -0.005705 0.027832
#
#
# Mechanical properties :
#
#
# Convention : Reuss Voigt Hill
#
# Bulk Modulus (GPa) = 33.89598 54.88840 44.39219
# Shear Modulus (GPa) = 22.71753 32.77909 27.74831
#
# Velocity S-wave (km/s) = 3.24435 3.89714 3.58563
# Velocity P-wave (km/s) = 5.45341 6.75885 6.14092
#
# Compressibility (1/GPa) = 0.02950202
#
# Stress axis : x y z
#
# Youngs Moduli (GPa) = 60.59757 107.30714 61.44959
#
# Poissons Ratio (x) = 0.42082 -0.13598
# Poissons Ratio (y) = 0.23764 0.28190
# Poissons Ratio (z) = -0.13409 0.49228
#
# Static dielectric constant tensor:
#      x y z
#    x 3.856100 -0.188580 -0.010870 
#    y -0.188580 4.149780 0.289130 
#    z -0.010870 0.289130 4.128630 
# 
# 
# High freq. dielectric constant tensor:
#      x y z
#    x 1.839490 -0.020490 0.014180 
#    y -0.020490 1.855740 0.016950 
#    z 0.014180 0.016950 1.848260 
# 
# From -- ./inp_files/452130.got.cif
#   From: 2010.06.25/outbox.cif.g09.slc.cpg/sg2_227_cif.got.tgz:452130.got - 2010.06.27 13:26:56.
