data_PCOD8029962
_publ_section_title
;
Structure prediction by ZEFSAII (Michael W. Deem and Ramdas Pophale) SiO2 
 PCOD8029962
Probable space group: P -1
;
_chemical_formula_sum "Si O2"
_cell_formula_units_Z 16
_cell_length_a 10.441889
_cell_length_b 22.809853
_cell_length_c 12.002680
_cell_angle_alpha 21.494205
_cell_angle_beta 41.379992
_cell_angle_gamma 42.169361
_cell_volume 681.431962
_symmetry_space_group_name_H-M "P -1"
_symmetry_group_IT_number 2
_symmetry_cell_setting 'triclinic'
loop_
_space_group_symop_operation_xyz
x,y,z
-x,-y,-z
loop_
_atom_site_type_symbol
_atom_site_label
_atom_site_fract_x
_atom_site_fract_y
_atom_site_fract_z
Si Si1 0.179663 0.946823 0.397378
Si Si2 0.458353 0.078164 0.270736
Si Si3 0.243654 0.264635 0.696587
Si Si4 0.052078 0.088537 0.592253
Si Si5 0.219781 0.724915 0.380863
Si Si6 0.525148 0.782201 0.583388
Si Si7 0.507396 0.505468 0.743735
Si Si8 0.863279 0.295551 0.766446
O O1 0.321183 0.793692 0.628818
O O2 0.128653 0.879459 0.431001
O O3 0.000000 0.000000 0.500000
O O4 0.272979 0.109586 0.033204
O O5 0.228661 0.167284 0.279082
O O6 0.500000 0.000000 0.500000
O O7 0.490284 0.933649 0.418658
O O8 0.605492 0.194684 0.929516
O O9 0.310122 0.199000 0.646619
O O10 0.371757 0.382926 0.460713
O O11 0.017639 0.344821 0.670347
O O12 0.964850 0.161489 0.638053
O O13 0.133564 0.897187 0.890934
O O14 0.325289 0.595386 0.630367
O O15 0.114920 0.654057 0.467723
O O16 0.585035 0.607998 0.909960
O O17 0.650748 0.388840 0.775410
#
# Coordination Sequence:
#
# PCOD8029962 Si02
#       8
#     2   2   2   2   2   2   2   2
#     4  11  21  41  67 100 134 172 229 287 341 406
#     4  12  23  41  73 104 134 185 231 286 350 409
#     4  11  25  41  70 103 132 185 230 287 348 409
#     4  11  23  43  71 104 133 175 233 286 345 406
#     4  12  26  45  72 104 143 178 234 288 347 416
#     4  12  23  44  68  99 144 175 234 287 344 413
#     4  12  25  47  67 100 143 188 225 282 351 413
#     4  11  23  46  69  99 139 179 226 289 343 411
#
# _framework density 23.479968
#
# number of rings (size 3 to 8) (size 9 to 14) (size 15 to 20)
#    0.000    0.500    3.750    5.625    1.750    0.000 
#    2.250    0.625    0.000    0.000    0.000    0.000 
#    0.000    0.000    0.000    0.000    0.000    0.000 
#
# Total GULP energy -198244.365079 kJ/mol
# GULP energy per Si atom -12390.272817 kJ/mol
# Density = 2.342653 g / cm^3
# Si number density = 23.479968 Si / 1000 Ang^3
#
#
#
# Elastic Constant Matrix: (Units=GPa)
#
#
# Indices 1 2 3 4 5 6 
#
# 1 87.9527 -6.5337 21.7694 -17.0109 24.2590 11.9726
# 2 -6.5337 110.7274 24.5241 11.7773 4.5112 12.1168
# 3 21.7694 24.5241 99.7260 16.6151 22.8985 0.7108
# 4 -17.0109 11.7773 16.6151 29.1672 -4.8657 8.3706
# 5 24.2590 4.5112 22.8985 -4.8657 33.3720 5.3016
# 6 11.9726 12.1168 0.7108 8.3706 5.3016 35.7545
#
#
#
# Elastic Compliance Matrix: (Units=1/GPa)
#
#
# Indices 1 2 3 4 5 6 
#
# 1 0.018872 0.002051 -0.005559 0.014972 -0.006498 -0.009445
# 2 0.002051 0.010255 -0.002821 -0.000248 -0.000342 -0.003997
# 3 -0.005559 -0.002821 0.016987 -0.015809 -0.010774 0.007778
# 4 0.014972 -0.000248 -0.015809 0.059988 0.011991 -0.020437
# 5 -0.006498 -0.000342 -0.010774 0.011991 0.044984 -0.006971
# 6 -0.009445 -0.003997 0.007778 -0.020437 -0.006971 0.038149
#
#
# Mechanical properties :
#
#
# Convention : Reuss Voigt Hill
#
# Bulk Modulus (GPa) = 29.89099 41.99174 35.94137
# Shear Modulus (GPa) = 23.46924 36.90181 30.18553
#
# Velocity S-wave (km/s) = 3.16499 3.96868 3.58940
# Velocity P-wave (km/s) = 5.11021 6.23887 5.70253
#
# Compressibility (1/GPa) = 0.03345490
#
# Stress axis : x y z
#
# Youngs Moduli (GPa) = 52.98974 97.51636 58.86819
#
# Poissons Ratio (x) = -0.19997 0.32724
# Poissons Ratio (y) = -0.10866 0.16607
# Poissons Ratio (z) = 0.29456 0.27510
#
# Static dielectric constant tensor:
#      x y z
#    x 4.641340 0.013610 -0.151090 
#    y 0.013610 4.336620 0.400410 
#    z -0.151090 0.400410 3.908600 
# 
# 
# High freq. dielectric constant tensor:
#      x y z
#    x 1.949740 0.003350 0.017180 
#    y 0.003350 1.942260 0.019130 
#    z 0.017180 0.019130 1.908340 
# 
# From -- ./inp_files/294737.got.cif
#   From: 2010.06.25/outbox.cif.g09.slc.cpg/sg2_148_cif.got.tgz:294737.got - 2010.06.27 13:26:56.
