data_PCOD8029556
_publ_section_title
;
Structure prediction by ZEFSAII (Michael W. Deem and Ramdas Pophale) SiO2 
 PCOD8029556
Probable space group: P -1
;
_chemical_formula_sum "Si O2"
_cell_formula_units_Z 16
_cell_length_a 21.685553
_cell_length_b 18.226202
_cell_length_c 11.496267
_cell_angle_alpha 149.184534
_cell_angle_beta 40.399200
_cell_angle_gamma 161.404734
_cell_volume 702.973643
_symmetry_space_group_name_H-M "P -1"
_symmetry_group_IT_number 2
_symmetry_cell_setting 'triclinic'
loop_
_space_group_symop_operation_xyz
x,y,z
-x,-y,-z
loop_
_atom_site_type_symbol
_atom_site_label
_atom_site_fract_x
_atom_site_fract_y
_atom_site_fract_z
Si Si1 0.784664 0.185205 0.576434
Si Si2 0.770992 0.493873 0.078682
Si Si3 0.177234 0.198492 0.768531
Si Si4 0.686964 0.154092 0.089901
Si Si5 0.545475 0.262554 0.745378
Si Si6 0.332598 0.103110 0.412075
Si Si7 0.205534 0.683549 0.589388
Si Si8 0.764264 0.558433 0.426331
O O1 0.964200 0.379010 0.490125
O O2 0.562377 0.869864 0.405307
O O3 0.775442 0.071689 0.547546
O O4 0.831692 0.413234 0.849121
O O5 0.828814 0.678216 0.144031
O O6 0.869505 0.675421 0.307172
O O7 0.531350 0.186704 0.018295
O O8 0.277867 0.187738 0.559352
O O9 0.306578 0.408316 0.985044
O O10 0.937805 0.845678 0.657316
O O11 0.823064 0.345467 0.269621
O O12 0.667731 0.280754 0.227647
O O13 0.768682 0.144302 0.869311
O O14 0.702216 0.338971 0.624972
O O15 0.362587 0.011640 0.761952
O O16 0.577632 0.420715 0.501249
#
# Coordination Sequence:
#
# PCOD8029556 Si02
#       8
#     2   2   2   2   2   2   2   2
#     4  12  23  43  76 101 125 188 237 276 327 409
#     4  11  21  44  69  99 139 174 228 285 331 396
#     4  12  27  42  65 103 145 180 216 283 350 401
#     4  11  20  45  74  99 137 179 226 286 337 395
#     4  11  24  47  61  99 146 175 229 283 331 403
#     4  11  25  43  70 104 140 173 228 281 342 410
#     4  11  23  41  75  98 129 183 237 282 329 394
#     4  11  23  42  68 101 141 180 216 279 347 402
#
# _framework density 22.760455
#
# number of rings (size 3 to 8) (size 9 to 14) (size 15 to 20)
#    0.000    0.750    5.000    3.000    1.750    5.500 
#    0.000    4.375    0.000    0.000    0.000    0.000 
#    0.000    0.000    0.000    0.000    0.000    0.000 
#
# Total GULP energy -198318.250345 kJ/mol
# GULP energy per Si atom -12394.890647 kJ/mol
# Density = 2.270865 g / cm^3
# Si number density = 22.760455 Si / 1000 Ang^3
#
#
#
# Elastic Constant Matrix: (Units=GPa)
#
#
# Indices 1 2 3 4 5 6 
#
# 1 51.8166 6.8709 20.4950 -5.7581 -6.3046 -4.8526
# 2 6.8709 102.0141 47.0264 3.3130 9.2199 15.4383
# 3 20.4950 47.0264 86.0753 16.3560 -0.6790 9.8701
# 4 -5.7581 3.3130 16.3560 28.1735 2.1523 6.4803
# 5 -6.3046 9.2199 -0.6790 2.1523 28.0895 -3.8268
# 6 -4.8526 15.4383 9.8701 6.4803 -3.8268 32.6981
#
#
#
# Elastic Compliance Matrix: (Units=1/GPa)
#
#
# Indices 1 2 3 4 5 6 
#
# 1 0.024461 0.000734 -0.008297 0.008252 0.005063 0.004745
# 2 0.000734 0.015143 -0.008812 0.005386 -0.006274 -0.006183
# 3 -0.008297 -0.008812 0.020937 -0.012874 0.002447 -0.000553
# 4 0.008252 0.005386 -0.012874 0.046016 -0.004721 -0.007105
# 5 0.005063 -0.006274 0.002447 -0.004721 0.040394 0.008638
# 6 0.004745 -0.006183 -0.000553 -0.007105 0.008638 0.036792
#
#
# Mechanical properties :
#
#
# Convention : Reuss Voigt Hill
#
# Bulk Modulus (GPa) = 35.98500 43.18782 39.58641
# Shear Modulus (GPa) = 22.14771 28.82646 25.48709
#
# Velocity S-wave (km/s) = 3.12281 3.56267 3.34997
# Velocity P-wave (km/s) = 5.37096 5.99497 5.69152
#
# Compressibility (1/GPa) = 0.02778935
#
# Stress axis : x y z
#
# Youngs Moduli (GPa) = 40.88180 66.03695 47.76299
#
# Poissons Ratio (x) = -0.04845 0.39630
# Poissons Ratio (y) = -0.02999 0.42089
# Poissons Ratio (z) = 0.33921 0.58192
#
# Static dielectric constant tensor:
#      x y z
#    x 4.231070 0.058950 0.350510 
#    y 0.058950 4.031160 0.052610 
#    z 0.350510 0.052610 4.217630 
# 
# 
# High freq. dielectric constant tensor:
#      x y z
#    x 1.899360 0.009160 0.010680 
#    y 0.009160 1.900960 0.004670 
#    z 0.010680 0.004670 1.887460 
# 
# From -- ./inp_files/333329.got.cif
#   From: 2010.06.25/outbox.cif.g09.slc.cpg/sg2_167_cif.got.tgz:333329.got - 2010.06.27 13:26:56.
