data_PCOD8029799
_publ_section_title
;
Structure prediction by ZEFSAII (Michael W. Deem and Ramdas Pophale) SiO2 
 PCOD8029799
Probable space group: P -1
;
_chemical_formula_sum "Si O2"
_cell_formula_units_Z 16
_cell_length_a 9.097402
_cell_length_b 8.716501
_cell_length_c 12.682115
_cell_angle_alpha 58.165304
_cell_angle_beta 123.248244
_cell_angle_gamma 109.728808
_cell_volume 712.864366
_symmetry_space_group_name_H-M "P -1"
_symmetry_group_IT_number 2
_symmetry_cell_setting 'triclinic'
loop_
_space_group_symop_operation_xyz
x,y,z
-x,-y,-z
loop_
_atom_site_type_symbol
_atom_site_label
_atom_site_fract_x
_atom_site_fract_y
_atom_site_fract_z
Si Si1 0.452228 0.792747 0.531088
Si Si2 0.694931 0.520393 0.019499
Si Si3 0.879119 0.858169 0.439064
Si Si4 0.511501 0.170002 0.707516
Si Si5 0.820657 0.936793 0.894117
Si Si6 0.333725 0.522961 0.210691
Si Si7 0.913288 0.190716 0.661518
Si Si8 0.965595 0.513701 0.723873
O O1 0.453989 0.747004 0.424491
O O2 0.584186 0.672526 0.688934
O O3 0.247016 0.744670 0.498445
O O4 0.500000 0.000000 0.500000
O O5 0.775172 0.724870 0.961429
O O6 0.697113 0.422904 0.942095
O O7 0.500000 0.500000 0.000000
O O8 0.834378 0.425152 0.183741
O O9 0.683563 0.927480 0.334093
O O10 0.880764 0.665118 0.566314
O O11 0.928739 0.843163 0.341893
O O12 0.000000 0.000000 0.500000
O O13 0.521161 0.333969 0.734801
O O14 0.654803 0.029988 0.846559
O O15 0.845322 0.000731 0.759059
O O16 0.000000 0.000000 0.000000
O O17 0.153443 0.524682 0.205153
O O18 0.973777 0.333034 0.723693
#
# Coordination Sequence:
#
# PCOD8029799 Si02
#       8
#     2   2   2   2   2   2   2   2
#     4  11  21  39  70 103 137 179 234 288 356 430
#     4  12  30  46  72 107 146 193 240 299 364 437
#     4  12  28  43  70 109 150 180 242 312 361 420
#     4  11  23  43  72 108 136 185 240 297 360 422
#     4  11  23  49  76 103 147 190 245 289 363 445
#     4  12  23  45  73 102 141 186 244 294 360 438
#     4  11  24  44  74 102 140 192 234 294 363 428
#     4  12  25  49  70 103 145 190 242 291 370 434
#
# _framework density 22.444659999999999
#
# number of rings (size 3 to 8) (size 9 to 14) (size 15 to 20)
#    0.000    0.500    5.000    4.125    7.000    0.000 
#    0.000    1.250    0.000    0.000    0.000    0.000 
#    0.000    0.000    0.000    0.000    0.000    0.000 
#
# Total GULP energy -198425.056783 kJ/mol
# GULP energy per Si atom -12401.566049 kJ/mol
# Density = 2.239357 g / cm^3
# Si number density = 22.444660 Si / 1000 Ang^3
#
#
#
# Elastic Constant Matrix: (Units=GPa)
#
#
# Indices 1 2 3 4 5 6 
#
# 1 141.5494 23.2266 47.8573 17.1129 13.9638 9.0439
# 2 23.2266 98.0874 26.9738 17.1657 -3.2549 3.8787
# 3 47.8573 26.9738 88.0642 19.0165 13.1563 -1.7240
# 4 17.1129 17.1657 19.0165 35.5239 3.0084 4.4909
# 5 13.9638 -3.2549 13.1563 3.0084 49.9659 9.1174
# 6 9.0439 3.8787 -1.7240 4.4909 9.1174 34.4062
#
#
#
# Elastic Compliance Matrix: (Units=1/GPa)
#
#
# Indices 1 2 3 4 5 6 
#
# 1 0.009022 -0.000663 -0.004297 -0.001381 -0.000971 -0.002074
# 2 -0.000663 0.011942 -0.002795 -0.003967 0.002189 -0.001374
# 3 -0.004297 -0.002795 0.016368 -0.005531 -0.003681 0.003962
# 4 -0.001381 -0.003967 -0.005531 0.034176 0.000255 -0.003996
# 5 -0.000971 0.002189 -0.003681 0.000255 0.022508 -0.006174
# 6 -0.002074 -0.001374 0.003962 -0.003996 -0.006174 0.032121
#
#
# Mechanical properties :
#
#
# Convention : Reuss Voigt Hill
#
# Bulk Modulus (GPa) = 45.82497 58.20182 52.01339
# Shear Modulus (GPa) = 33.57512 39.28877 36.43194
#
# Velocity S-wave (km/s) = 3.87189 4.18840 4.03325
# Velocity P-wave (km/s) = 6.36002 7.02694 6.70178
#
# Compressibility (1/GPa) = 0.02182216
#
# Stress axis : x y z
#
# Youngs Moduli (GPa) = 110.84602 83.74035 61.09394
#
# Poissons Ratio (x) = 0.05554 0.26251
# Poissons Ratio (y) = 0.07351 0.17073
# Poissons Ratio (z) = 0.47628 0.23402
#
# Static dielectric constant tensor:
#      x y z
#    x 4.260970 0.020910 0.192850 
#    y 0.020910 4.001460 0.090180 
#    z 0.192850 0.090180 4.367870 
# 
# 
# High freq. dielectric constant tensor:
#      x y z
#    x 1.889910 0.000270 0.016460 
#    y 0.000270 1.886200 0.016430 
#    z 0.016460 0.016430 1.883370 
# 
# From -- ./inp_files/381482.got.cif
#   From: 2010.06.25/outbox.cif.g09.slc.cpg/sg2_191_cif.got.tgz:381482.got - 2010.06.27 13:26:56.
