data_PCOD8029170
_publ_section_title
;
Structure prediction by ZEFSAII (Michael W. Deem and Ramdas Pophale) SiO2 
 PCOD8029170
Probable space group: P -1
;
_chemical_formula_sum "Si O2"
_cell_formula_units_Z 14
_cell_length_a 12.195082
_cell_length_b 18.895988
_cell_length_c 9.853126
_cell_angle_alpha 145.616051
_cell_angle_beta 131.577513
_cell_angle_gamma 29.053469
_cell_volume 608.711920
_symmetry_space_group_name_H-M "P -1"
_symmetry_group_IT_number 2
_symmetry_cell_setting 'triclinic'
loop_
_space_group_symop_operation_xyz
x,y,z
-x,-y,-z
loop_
_atom_site_type_symbol
_atom_site_label
_atom_site_fract_x
_atom_site_fract_y
_atom_site_fract_z
Si Si1 0.838596 0.570433 0.179457
Si Si2 0.901878 0.817191 0.103012
Si Si3 0.347350 0.932708 0.457641
Si Si4 0.223302 0.492483 0.264407
Si Si5 0.348136 0.841622 0.739722
Si Si6 0.945974 0.134431 0.283635
Si Si7 0.325323 0.711590 0.254425
O O1 0.610625 0.781552 0.391756
O O2 0.996561 0.580614 0.281274
O O3 0.772987 0.527295 0.927334
O O4 0.964249 0.403993 0.137268
O O5 0.086418 0.807280 0.258378
O O6 0.725870 0.924867 0.256472
O O7 0.756759 0.950753 0.059146
O O8 0.289809 0.829289 0.288406
O O9 0.175782 0.063102 0.395730
O O10 0.446905 0.276858 0.171106
O O11 0.232610 0.634810 0.535875
O O12 0.150677 0.882728 0.699854
O O13 0.440236 0.713138 0.475263
O O14 0.000000 0.000000 0.000000
O O15 0.500000 0.500000 0.000000
#
# Coordination Sequence:
#
# PCOD8029170 Si02
#       7
#     2   2   2   2   2   2   2
#     4  11  24  46  69  92 137 185 221 267 329 406
#     4  11  21  43  68  99 132 168 225 273 333 396
#     4  11  21  39  67 100 123 177 219 271 332 389
#     4  11  26  45  63  97 140 180 222 271 329 401
#     4  11  23  41  66  99 134 166 223 287 328 386
#     4  12  24  40  67 101 134 170 223 280 334 391
#     4  11  20  36  70  97 130 169 216 282 337 379
#
# _framework density 22.999386000000001
#
# number of rings (size 3 to 8) (size 9 to 14) (size 15 to 20)
#    0.000    0.857    5.714    2.143    2.000    1.143 
#    2.571    2.857    0.000    0.000    0.000    0.000 
#    0.000    0.000    0.000    0.000    0.000    0.000 
#
# Total GULP energy -173524.764042 kJ/mol
# GULP energy per Si atom -12394.626003 kJ/mol
# Density = 2.294704 g / cm^3
# Si number density = 22.999386 Si / 1000 Ang^3
#
#
#
# Elastic Constant Matrix: (Units=GPa)
#
#
# Indices 1 2 3 4 5 6 
#
# 1 88.3168 34.1934 11.5412 3.7660 -13.6289 -5.5787
# 2 34.1934 138.9808 18.9102 8.1618 -11.3495 8.2316
# 3 11.5412 18.9102 39.5066 1.7835 -4.6566 0.6902
# 4 3.7660 8.1618 1.7835 20.8056 -4.1760 -6.6792
# 5 -13.6289 -11.3495 -4.6566 -4.1760 22.0090 10.6575
# 6 -5.5787 8.2316 0.6902 -6.6792 10.6575 42.1625
#
#
#
# Elastic Compliance Matrix: (Units=1/GPa)
#
#
# Indices 1 2 3 4 5 6 
#
# 1 0.013614 -0.002623 -0.002002 0.000258 0.006321 0.000789
# 2 -0.002623 0.008899 -0.002890 -0.003178 0.003396 -0.003399
# 3 -0.002002 -0.002890 0.027748 -0.000529 0.003596 -0.001148
# 4 0.000258 -0.003178 -0.000529 0.052757 0.004616 0.007854
# 5 0.006321 0.003396 0.003596 0.004616 0.059628 -0.014226
# 6 0.000789 -0.003399 -0.001148 0.007854 -0.014226 0.029345
#
#
# Mechanical properties :
#
#
# Convention : Reuss Voigt Hill
#
# Bulk Modulus (GPa) = 28.38379 44.01041 36.19710
# Shear Modulus (GPa) = 22.85550 30.47271 26.66411
#
# Velocity S-wave (km/s) = 3.15579 3.64392 3.40860
# Velocity P-wave (km/s) = 5.06425 6.07299 5.59141
#
# Compressibility (1/GPa) = 0.03523138
#
# Stress axis : x y z
#
# Youngs Moduli (GPa) = 73.45210 112.37094 36.03814
#
# Poissons Ratio (x) = 0.29473 0.07215
# Poissons Ratio (y) = 0.19265 0.10416
# Poissons Ratio (z) = 0.14706 0.32478
#
# Static dielectric constant tensor:
#      x y z
#    x 4.328940 0.099890 -0.376070 
#    y 0.099890 4.132180 -0.073960 
#    z -0.376070 -0.073960 3.667730 
# 
# 
# High freq. dielectric constant tensor:
#      x y z
#    x 1.912820 0.008820 -0.005760 
#    y 0.008820 1.917800 0.021580 
#    z -0.005760 0.021580 1.877830 
# 
# From -- ./inp_files/280153.got.cif
#   From: 2010.06.25/outbox.cif.g09.slc.cpg/sg2_141_cif.got.tgz:280153.got - 2010.06.27 13:26:56.
