data_PCOD8029718
_publ_section_title
;
Structure prediction by ZEFSAII (Michael W. Deem and Ramdas Pophale) SiO2 
 PCOD8029718
Probable space group: P -1
;
_chemical_formula_sum "Si O2"
_cell_formula_units_Z 16
_cell_length_a 13.867230
_cell_length_b 9.603633
_cell_length_c 11.619532
_cell_angle_alpha 69.276705
_cell_angle_beta 30.856849
_cell_angle_gamma 68.166774
_cell_volume 734.797057
_symmetry_space_group_name_H-M "P -1"
_symmetry_group_IT_number 2
_symmetry_cell_setting 'triclinic'
loop_
_space_group_symop_operation_xyz
x,y,z
-x,-y,-z
loop_
_atom_site_type_symbol
_atom_site_label
_atom_site_fract_x
_atom_site_fract_y
_atom_site_fract_z
Si Si1 0.149674 0.789504 0.131926
Si Si2 0.661029 0.384944 0.809496
Si Si3 0.886261 0.080127 0.300989
Si Si4 0.652710 0.590766 0.424300
Si Si5 0.439940 0.717514 0.303648
Si Si6 0.635695 0.125315 0.329975
Si Si7 0.069863 0.463081 0.653471
Si Si8 0.160804 0.307517 0.008893
O O1 0.266832 0.752585 0.139503
O O2 0.089226 0.635890 0.189767
O O3 0.287582 0.853257 0.881841
O O4 0.964390 0.910605 0.310662
O O5 0.575169 0.316965 0.804968
O O6 0.838791 0.471543 0.571652
O O7 0.500000 0.500000 0.000000
O O8 0.719119 0.144527 0.540324
O O9 0.812234 0.075479 0.247825
O O10 0.062074 0.173849 0.096115
O O11 0.580151 0.429785 0.555797
O O12 0.476007 0.720748 0.549434
O O13 0.762119 0.630625 0.416277
O O14 0.793861 0.583813 0.173063
O O15 0.646418 0.763870 0.102894
O O16 0.500000 0.000000 0.500000
O O17 0.980796 0.601930 0.782615
#
# Coordination Sequence:
#
# PCOD8029718 Si02
#       8
#     2   2   2   2   2   2   2   2
#     4  12  26  43  72 100 144 194 227 286 360 409
#     4  11  24  48  72 103 141 180 242 293 340 422
#     4  12  26  45  67 103 145 176 238 285 351 421
#     4  11  21  38  70 100 139 182 230 291 356 404
#     4  11  25  43  68 106 138 184 237 295 341 416
#     4  12  25  45  69 106 148 184 234 288 356 422
#     4  11  23  42  70 106 135 179 243 289 342 421
#     4  12  22  42  70 101 141 178 232 294 353 405
#
# _framework density 21.774722000000001
#
# number of rings (size 3 to 8) (size 9 to 14) (size 15 to 20)
#    0.000    0.500    3.750    6.750    1.750    0.500 
#    0.000    0.625    0.000    0.000    0.000    0.000 
#    0.000    0.000    0.000    0.000    0.000    0.000 
#
# Total GULP energy -198525.941471 kJ/mol
# GULP energy per Si atom -12407.871342 kJ/mol
# Density = 2.172516 g / cm^3
# Si number density = 21.774722 Si / 1000 Ang^3
#
#
#
# Elastic Constant Matrix: (Units=GPa)
#
#
# Indices 1 2 3 4 5 6 
#
# 1 140.9669 50.6448 61.5624 -18.2388 -6.3623 -5.9492
# 2 50.6448 105.0403 49.3251 10.3795 3.5339 -10.8939
# 3 61.5624 49.3251 130.2659 4.5110 9.3740 -3.6795
# 4 -18.2388 10.3795 4.5110 34.4315 6.3177 -11.7752
# 5 -6.3623 3.5339 9.3740 6.3177 43.0691 -4.1713
# 6 -5.9492 -10.8939 -3.6795 -11.7752 -4.1713 41.8591
#
#
#
# Elastic Compliance Matrix: (Units=1/GPa)
#
#
# Indices 1 2 3 4 5 6 
#
# 1 0.011902 -0.004334 -0.004355 0.008782 0.002050 0.002856
# 2 -0.004334 0.013634 -0.002874 -0.005623 -0.000204 0.001077
# 3 -0.004355 -0.002874 0.011065 -0.002929 -0.002528 -0.001470
# 4 0.008782 -0.005623 -0.002929 0.039804 -0.002427 0.010483
# 5 0.002050 -0.000204 -0.002528 -0.002427 0.024617 0.001786
# 6 0.002856 0.001077 -0.001470 0.010483 0.001786 0.027573
#
#
# Mechanical properties :
#
#
# Convention : Reuss Voigt Hill
#
# Bulk Modulus (GPa) = 74.21502 77.70418 75.95960
# Shear Modulus (GPa) = 32.00741 38.18800 35.09771
#
# Velocity S-wave (km/s) = 3.83813 4.19236 4.01915
# Velocity P-wave (km/s) = 7.33476 7.69399 7.51652
#
# Compressibility (1/GPa) = 0.01347436
#
# Stress axis : x y z
#
# Youngs Moduli (GPa) = 84.01907 73.34651 90.37742
#
# Poissons Ratio (x) = 0.31791 0.39356
# Poissons Ratio (y) = 0.36417 0.25977
# Poissons Ratio (z) = 0.36587 0.21082
#
# Static dielectric constant tensor:
#      x y z
#    x 4.174580 -0.042390 -0.126450 
#    y -0.042390 3.802100 0.097500 
#    z -0.126450 0.097500 3.956120 
# 
# 
# High freq. dielectric constant tensor:
#      x y z
#    x 1.871580 0.004570 -0.009590 
#    y 0.004570 1.845470 0.012900 
#    z -0.009590 0.012900 1.861220 
# 
# From -- ./inp_files/447038.got.cif
#   From: 2010.06.25/outbox.cif.g09.slc.cpg/sg2_224_cif.got.tgz:447038.got - 2010.06.27 13:26:56.
