data_PCOD8029383
_publ_section_title
;
Structure prediction by ZEFSAII (Michael W. Deem and Ramdas Pophale) SiO2 
 PCOD8029383
Probable space group: P -1
;
_chemical_formula_sum "Si O2"
_cell_formula_units_Z 16
_cell_length_a 14.127160
_cell_length_b 11.253223
_cell_length_c 14.657270
_cell_angle_alpha 41.007150
_cell_angle_beta 29.540645
_cell_angle_gamma 41.877721
_cell_volume 725.377860
_symmetry_space_group_name_H-M "P -1"
_symmetry_group_IT_number 2
_symmetry_cell_setting 'triclinic'
loop_
_space_group_symop_operation_xyz
x,y,z
-x,-y,-z
loop_
_atom_site_type_symbol
_atom_site_label
_atom_site_fract_x
_atom_site_fract_y
_atom_site_fract_z
Si Si1 0.401070 0.858849 0.614661
Si Si2 0.777679 0.575594 0.180319
Si Si3 0.211653 0.103659 0.473198
Si Si4 0.618840 0.996173 0.116495
Si Si5 0.813936 0.153594 0.027241
Si Si6 0.224135 0.743986 0.287028
Si Si7 0.725147 0.490056 0.789829
Si Si8 0.593590 0.494364 0.562151
O O1 0.313752 0.756857 0.828238
O O2 0.558954 0.700867 0.516099
O O3 0.500000 0.000000 0.500000
O O4 0.226952 0.985191 0.622676
O O5 0.740147 0.477431 0.362856
O O6 0.622182 0.534982 0.261627
O O7 0.749322 0.794728 0.092759
O O8 0.000000 0.500000 0.000000
O O9 0.388284 0.993555 0.321423
O O10 0.229456 0.313461 0.350116
O O11 0.998217 0.115097 0.601542
O O12 0.690313 0.054221 0.120829
O O13 0.629419 0.144560 0.943399
O O14 0.867852 0.326083 0.828993
O O15 0.000000 0.000000 0.000000
O O16 0.227151 0.566841 0.322186
O O17 0.295768 0.673203 0.367601
O O18 0.500000 0.500000 0.000000
#
# Coordination Sequence:
#
# PCOD8029383 Si02
#       8
#     2   2   2   2   2   2   2   2
#     4  12  21  40  69  99 141 178 222 280 336 404
#     4  11  27  49  76  94 135 181 232 291 348 401
#     4  12  23  40  66  96 142 183 220 276 342 407
#     4  11  24  46  65 100 140 177 226 283 341 404
#     4  11  23  37  66 101 138 176 225 272 334 412
#     4  11  25  40  69  99 139 179 225 275 346 409
#     4  11  20  41  60  98 146 184 213 270 340 407
#     4  11  26  47  69 106 132 174 237 285 334 415
#
# _framework density 22.057468
#
# number of rings (size 3 to 8) (size 9 to 14) (size 15 to 20)
#    0.000    0.750    5.000    3.375    3.500    3.500 
#    0.000    1.250    0.000    0.000    0.000    0.000 
#    0.000    0.000    0.000    0.000    0.000    0.000 
#
# Total GULP energy -198414.598988 kJ/mol
# GULP energy per Si atom -12400.912437 kJ/mol
# Density = 2.200726 g / cm^3
# Si number density = 22.057468 Si / 1000 Ang^3
#
#
#
# Elastic Constant Matrix: (Units=GPa)
#
#
# Indices 1 2 3 4 5 6 
#
# 1 125.5371 49.5748 58.9186 4.8006 22.3260 -28.1222
# 2 49.5748 106.8699 33.9910 10.5508 12.6581 -7.3545
# 3 58.9186 33.9910 101.9692 14.3684 13.4726 -4.7926
# 4 4.8006 10.5508 14.3684 46.8446 -7.8557 1.0872
# 5 22.3260 12.6581 13.4726 -7.8557 29.4480 -3.4923
# 6 -28.1222 -7.3545 -4.7926 1.0872 -3.4923 35.5351
#
#
#
# Elastic Compliance Matrix: (Units=1/GPa)
#
#
# Indices 1 2 3 4 5 6 
#
# 1 0.016070 -0.003875 -0.006680 -0.000012 -0.006231 0.010403
# 2 -0.003875 0.011973 -0.001148 -0.002331 -0.002414 -0.000909
# 3 -0.006680 -0.001148 0.014792 -0.003962 -0.002702 -0.003673
# 4 -0.000012 -0.002331 -0.003962 0.024669 0.009301 -0.000867
# 5 -0.006231 -0.002414 -0.002702 0.009301 0.043220 -0.001832
# 6 0.010403 -0.000909 -0.003673 -0.000867 -0.001832 0.035537
#
#
# Mechanical properties :
#
#
# Convention : Reuss Voigt Hill
#
# Bulk Modulus (GPa) = 51.46612 68.81608 60.14110
# Shear Modulus (GPa) = 28.38623 35.15834 31.77229
#
# Velocity S-wave (km/s) = 3.59126 3.99675 3.79942
# Velocity P-wave (km/s) = 6.37021 7.25017 6.82439
#
# Compressibility (1/GPa) = 0.01943026
#
# Stress axis : x y z
#
# Youngs Moduli (GPa) = 62.22757 83.52048 67.60530
#
# Poissons Ratio (x) = 0.32363 0.45159
# Poissons Ratio (y) = 0.24112 0.07758
# Poissons Ratio (z) = 0.41567 0.09585
#
# Static dielectric constant tensor:
#      x y z
#    x 4.059370 -0.125760 0.314380 
#    y -0.125760 4.173040 0.048960 
#    z 0.314380 0.048960 4.499080 
# 
# 
# High freq. dielectric constant tensor:
#      x y z
#    x 1.848470 -0.012690 0.015130 
#    y -0.012690 1.876150 -0.000020 
#    z 0.015130 -0.000020 1.878770 
# 
# From -- ./inp_files/531614.got.cif
#   From: 2010.06.25/outbox.cif.g09.slc.cpg/sg2_266_cif.got.tgz:531614.got - 2010.06.27 13:26:56.
