data_PCOD8029692
_publ_section_title
;
Structure prediction by ZEFSAII (Michael W. Deem and Ramdas Pophale) SiO2 
 PCOD8029692
Probable space group: P -1
;
_chemical_formula_sum "Si O2"
_cell_formula_units_Z 16
_cell_length_a 12.182742
_cell_length_b 11.551139
_cell_length_c 15.367451
_cell_angle_alpha 119.932152
_cell_angle_beta 152.883097
_cell_angle_gamma 50.754218
_cell_volume 750.675030
_symmetry_space_group_name_H-M "P -1"
_symmetry_group_IT_number 2
_symmetry_cell_setting 'triclinic'
loop_
_space_group_symop_operation_xyz
x,y,z
-x,-y,-z
loop_
_atom_site_type_symbol
_atom_site_label
_atom_site_fract_x
_atom_site_fract_y
_atom_site_fract_z
Si Si1 0.023314 0.796484 0.465574
Si Si2 0.218272 0.646732 0.880311
Si Si3 0.429438 0.265772 0.079196
Si Si4 0.223201 0.905712 0.501849
Si Si5 0.229096 0.183588 0.077939
Si Si6 0.899390 0.501988 0.527399
Si Si7 0.282998 0.596093 0.097254
Si Si8 0.213007 0.921717 0.882645
O O1 0.278812 0.761218 0.693258
O O2 0.099894 0.803143 0.420742
O O3 0.937934 0.666213 0.376128
O O4 0.793888 0.963473 0.394467
O O5 0.170049 0.787447 0.840301
O O6 0.965207 0.614909 0.672297
O O7 0.500000 0.500000 0.000000
O O8 0.219629 0.690144 0.998235
O O9 0.268985 0.225645 0.023440
O O10 0.258919 0.443989 0.002231
O O11 0.507591 0.153074 0.007841
O O12 0.555793 0.810439 0.697336
O O13 0.069757 0.968006 0.326534
O O14 0.929454 0.306719 0.942233
O O15 0.247992 0.017809 0.021457
O O16 0.577353 0.561224 0.328100
O O17 0.000000 0.500000 0.500000
#
# Coordination Sequence:
#
# PCOD8029692 Si02
#       8
#     2   2   2   2   2   2   2   2
#     4   8  17  33  60  91 118 158 204 250 304 356
#     4  12  24  41  64  92 115 159 214 256 299 362
#     4   9  18  40  65  92 123 160 207 255 297 364
#     4   9  19  37  57  88 128 156 194 252 309 361
#     4  11  24  38  64  93 129 165 194 250 321 367
#     4  11  21  38  65  89 120 162 210 261 297 352
#     4  11  24  42  61  95 128 159 205 252 311 367
#     4  11  23  40  64  93 120 160 218 252 297 368
#
# _framework density 21.314149
#
# number of rings (size 3 to 8) (size 9 to 14) (size 15 to 20)
#    0.000    1.750    2.500    3.000    1.750    3.500 
#    0.000    1.250    0.000    6.000    0.000    0.000 
#    0.000    0.000    0.000    0.000    0.000    0.000 
#
# Total GULP energy -198364.706825 kJ/mol
# GULP energy per Si atom -12397.794177 kJ/mol
# Density = 2.126564 g / cm^3
# Si number density = 21.314149 Si / 1000 Ang^3
#
#
#
# Elastic Constant Matrix: (Units=GPa)
#
#
# Indices 1 2 3 4 5 6 
#
# 1 84.9034 49.7640 26.3705 -10.3317 7.6944 9.2934
# 2 49.7640 97.3316 21.2106 -1.9322 8.8012 13.0976
# 3 26.3705 21.2106 65.7664 -4.7317 6.8425 4.0174
# 4 -10.3317 -1.9322 -4.7317 27.1865 1.3297 -0.1839
# 5 7.6944 8.8012 6.8425 1.3297 34.0130 -7.0953
# 6 9.2934 13.0976 4.0174 -0.1839 -7.0953 49.1694
#
#
#
# Elastic Compliance Matrix: (Units=1/GPa)
#
#
# Indices 1 2 3 4 5 6 
#
# 1 0.019015 -0.008349 -0.004239 0.005974 -0.001784 -0.001259
# 2 -0.008349 0.015373 -0.001363 -0.002223 -0.002301 -0.002746
# 3 -0.004239 -0.001363 0.017746 0.001496 -0.002449 -0.000633
# 4 0.005974 -0.002223 0.001496 0.039286 -0.002804 -0.000917
# 5 -0.001784 -0.002301 -0.002449 -0.002804 0.032209 0.005788
# 6 -0.001259 -0.002746 -0.000633 -0.000917 0.005788 0.022191
#
#
# Mechanical properties :
#
#
# Convention : Reuss Voigt Hill
#
# Bulk Modulus (GPa) = 41.26936 49.18795 45.22865
# Shear Modulus (GPa) = 27.50275 32.11756 29.81015
#
# Velocity S-wave (km/s) = 3.59604 3.88605 3.74385
# Velocity P-wave (km/s) = 6.05364 6.57745 6.32097
#
# Compressibility (1/GPa) = 0.02423105
#
# Stress axis : x y z
#
# Youngs Moduli (GPa) = 52.59122 65.04818 56.35070
#
# Poissons Ratio (x) = 0.54306 0.23889
# Poissons Ratio (y) = 0.43906 0.07682
# Poissons Ratio (z) = 0.22296 0.08868
#
# Static dielectric constant tensor:
#      x y z
#    x 3.746240 0.244530 -0.008860 
#    y 0.244530 4.020800 -0.054560 
#    z -0.008860 -0.054560 3.804750 
# 
# 
# High freq. dielectric constant tensor:
#      x y z
#    x 1.819890 0.024830 -0.001610 
#    y 0.024830 1.827550 -0.003660 
#    z -0.001610 -0.003660 1.839460 
# 
# From -- ./inp_files/436915.got.cif
#   From: 2010.06.25/outbox.cif.g09.slc.cpg/sg2_219_cif.got.tgz:436915.got - 2010.06.27 13:26:56.
