data_PCOD8029075
_publ_section_title
;
Structure prediction by ZEFSAII (Michael W. Deem and Ramdas Pophale) SiO2 
 PCOD8029075
Probable space group: P -1
;
_chemical_formula_sum "Si O2"
_cell_formula_units_Z 16
_cell_length_a 18.510576
_cell_length_b 20.589713
_cell_length_c 11.264669
_cell_angle_alpha 28.391369
_cell_angle_beta 38.170321
_cell_angle_gamma 20.878282
_cell_volume 711.125359
_symmetry_space_group_name_H-M "P -1"
_symmetry_group_IT_number 2
_symmetry_cell_setting 'triclinic'
loop_
_space_group_symop_operation_xyz
x,y,z
-x,-y,-z
loop_
_atom_site_type_symbol
_atom_site_label
_atom_site_fract_x
_atom_site_fract_y
_atom_site_fract_z
Si Si1 0.427198 0.538900 0.269193
Si Si2 0.828834 0.287828 0.116021
Si Si3 0.406538 0.068333 0.883616
Si Si4 0.912633 0.178962 0.574184
Si Si5 0.745986 0.486174 0.658022
Si Si6 0.996861 0.317321 0.047742
Si Si7 0.150064 0.035711 0.720972
Si Si8 0.185741 0.298733 0.177603
O O1 0.668737 0.336919 0.306725
O O2 0.325188 0.591419 0.442092
O O3 0.410030 0.434523 0.361861
O O4 0.326358 0.777766 0.970442
O O5 0.882554 0.360739 0.014606
O O6 0.715567 0.449252 0.884991
O O7 0.038588 0.001560 0.277318
O O8 0.297807 0.312449 0.591792
O O9 0.599067 0.838773 0.920507
O O10 0.237838 0.109102 0.038471
O O11 0.500000 0.000000 0.000000
O O12 0.967916 0.259088 0.299145
O O13 0.051016 0.038294 0.741298
O O14 0.980556 0.240786 0.707127
O O15 0.884958 0.568883 0.818211
O O16 0.239752 0.087089 0.464596
O O17 0.000000 0.500000 0.000000
#
# Coordination Sequence:
#
# PCOD8029075 Si02
#       8
#     2   2   2   2   2   2   2   2
#     4  11  24  40  73 100 127 175 226 279 328 379
#     4  12  26  43  66 100 139 176 219 267 337 400
#     4  12  25  43  72  99 127 175 222 274 330 387
#     4  11  23  43  67  96 135 173 222 281 321 391
#     4  11  22  43  71  99 134 172 224 276 323 392
#     4  12  28  44  64 100 140 179 214 271 334 398
#     4  11  19  43  71  99 130 164 227 286 324 375
#     4  12  23  43  69  98 134 168 223 277 322 394
#
# _framework density 22.499551
#
# number of rings (size 3 to 8) (size 9 to 14) (size 15 to 20)
#    0.000    0.500    6.250    2.250    5.250    2.000 
#    0.000    1.250    0.000    0.000    0.000    0.000 
#    0.000    0.000    0.000    0.000    0.000    0.000 
#
# Total GULP energy -198446.347897 kJ/mol
# GULP energy per Si atom -12402.896744 kJ/mol
# Density = 2.244834 g / cm^3
# Si number density = 22.499551 Si / 1000 Ang^3
#
#
#
# Elastic Constant Matrix: (Units=GPa)
#
#
# Indices 1 2 3 4 5 6 
#
# 1 111.1685 61.7055 0.7170 2.8040 -20.6228 0.9102
# 2 61.7055 158.1013 14.8351 30.3651 5.2694 -0.8442
# 3 0.7170 14.8351 71.1701 14.1899 -9.6828 1.9115
# 4 2.8040 30.3651 14.1899 31.4187 -1.5033 -9.3032
# 5 -20.6228 5.2694 -9.6828 -1.5033 17.7667 -0.2732
# 6 0.9102 -0.8442 1.9115 -9.3032 -0.2732 29.3099
#
#
#
# Elastic Compliance Matrix: (Units=1/GPa)
#
#
# Indices 1 2 3 4 5 6 
#
# 1 0.020550 -0.011158 0.004410 0.008968 0.030354 0.001882
# 2 -0.011158 0.014162 -0.002768 -0.013431 -0.019851 -0.003513
# 3 0.004410 -0.002768 0.017932 -0.006027 0.015154 -0.003158
# 4 0.008968 -0.013431 -0.006027 0.052372 0.015794 0.016498
# 5 0.030354 -0.019851 0.015154 0.015794 0.107055 0.003508
# 6 0.001882 -0.003513 -0.003158 0.016498 0.003508 0.039434
#
#
# Mechanical properties :
#
#
# Convention : Reuss Voigt Hill
#
# Bulk Modulus (GPa) = 29.75239 54.99500 42.37370
# Shear Modulus (GPa) = 17.74684 33.24455 25.49569
#
# Velocity S-wave (km/s) = 2.81154 3.84808 3.36990
# Velocity P-wave (km/s) = 4.87770 6.65127 5.83230
#
# Compressibility (1/GPa) = 0.03361074
#
# Stress axis : x y z
#
# Youngs Moduli (GPa) = 48.66264 70.61028 55.76754
#
# Poissons Ratio (x) = 0.78788 -0.24593
# Poissons Ratio (y) = 0.54298 0.15437
# Poissons Ratio (z) = -0.21460 0.19546
#
# Static dielectric constant tensor:
#      x y z
#    x 3.775690 0.152820 -0.238080 
#    y 0.152820 4.139410 0.368810 
#    z -0.238080 0.368810 4.105530 
# 
# 
# High freq. dielectric constant tensor:
#      x y z
#    x 1.856620 0.016620 -0.017940 
#    y 0.016620 1.903590 0.011440 
#    z -0.017940 0.011440 1.888900 
# 
# From -- ./inp_files/427594.got.cif
#   From: 2010.06.25/outbox.cif.g09.slc.cpg/sg2_214_cif.got.tgz:427594.got - 2010.06.27 13:26:56.
