data_PCOD8029966
_publ_section_title
;
Structure prediction by ZEFSAII (Michael W. Deem and Ramdas Pophale) SiO2 
 PCOD8029966
Probable space group: P -1
;
_chemical_formula_sum "Si O2"
_cell_formula_units_Z 16
_cell_length_a 12.917464
_cell_length_b 9.150843
_cell_length_c 9.506330
_cell_angle_alpha 45.580863
_cell_angle_beta 106.782175
_cell_angle_gamma 101.317001
_cell_volume 768.380917
_symmetry_space_group_name_H-M "P -1"
_symmetry_group_IT_number 2
_symmetry_cell_setting 'triclinic'
loop_
_space_group_symop_operation_xyz
x,y,z
-x,-y,-z
loop_
_atom_site_type_symbol
_atom_site_label
_atom_site_fract_x
_atom_site_fract_y
_atom_site_fract_z
Si Si1 0.576170 0.504089 0.658945
Si Si2 0.781334 0.295388 0.757510
Si Si3 0.579973 0.552613 0.116922
Si Si4 0.880462 0.453925 0.937309
Si Si5 0.243180 0.158878 0.050582
Si Si6 0.737644 0.812216 0.628070
Si Si7 0.121229 0.504349 0.598840
Si Si8 0.225868 0.729326 0.707708
O O1 0.500000 0.500000 0.500000
O O2 0.674159 0.349076 0.768616
O O3 0.492309 0.424491 0.791591
O O4 0.622593 0.721365 0.590076
O O5 0.878992 0.296139 0.911130
O O6 0.800275 0.458205 0.529586
O O7 0.775526 0.072941 0.839801
O O8 0.635223 0.774393 0.983152
O O9 0.673687 0.379044 0.261365
O O10 0.500000 0.500000 0.000000
O O11 0.831300 0.661582 0.709513
O O12 0.802516 0.375323 0.084707
O O13 0.000000 0.500000 0.000000
O O14 0.156082 0.299628 0.836627
O O15 0.238648 0.183411 0.199661
O O16 0.749777 0.034399 0.414395
O O17 0.127234 0.695333 0.582469
O O18 0.000000 0.500000 0.500000
#
# Coordination Sequence:
#
# PCOD8029966 Si02
#       8
#     2   2   2   2   2   2   2   2
#     4  11  24  41  63  97 133 167 212 272 325 374
#     4  11  25  42  64  99 134 164 216 278 321 372
#     4  11  21  41  67  92 127 174 219 261 321 389
#     4  11  24  44  66  95 135 169 209 273 331 379
#     4  11  23  42  68  95 130 169 221 268 314 388
#     4  11  23  43  68  94 131 173 216 264 322 388
#     4  11  23  41  68  97 127 169 217 266 321 388
#     4  11  23  41  68  96 128 173 222 259 317 396
#
# _framework density 20.823007
#
# number of rings (size 3 to 8) (size 9 to 14) (size 15 to 20)
#    0.000    1.000    5.000    3.000    0.000    7.000 
#    0.000    0.000    0.000    0.000    0.000    0.000 
#    0.000    0.000    0.000    0.000    0.000    0.000 
#
# Total GULP energy -198210.576720 kJ/mol
# GULP energy per Si atom -12388.161045 kJ/mol
# Density = 2.077561 g / cm^3
# Si number density = 20.823007 Si / 1000 Ang^3
#
#
#
# Elastic Constant Matrix: (Units=GPa)
#
#
# Indices 1 2 3 4 5 6 
#
# 1 86.1971 38.9648 38.4904 -2.2489 3.4043 11.5636
# 2 38.9648 136.6540 52.8896 14.2438 4.2274 25.1903
# 3 38.4904 52.8896 97.2762 7.2936 -2.6787 7.0286
# 4 -2.2489 14.2438 7.2936 44.5690 7.7780 2.0547
# 5 3.4043 4.2274 -2.6787 7.7780 30.8688 15.2867
# 6 11.5636 25.1903 7.0286 2.0547 15.2867 38.8175
#
#
#
# Elastic Compliance Matrix: (Units=1/GPa)
#
#
# Indices 1 2 3 4 5 6 
#
# 1 0.015195 -0.002395 -0.004843 0.002688 -0.001661 -0.001583
# 2 -0.002395 0.011121 -0.004335 -0.003077 0.002350 -0.006481
# 3 -0.004843 -0.004335 0.014701 -0.001732 0.002491 0.000705
# 4 0.002688 -0.003077 -0.001732 0.025081 -0.007994 0.003330
# 5 -0.001661 0.002350 0.002491 -0.007994 0.043493 -0.018186
# 6 -0.001583 -0.006481 0.000705 0.003330 -0.018186 0.037297
#
#
# Mechanical properties :
#
#
# Convention : Reuss Voigt Hill
#
# Bulk Modulus (GPa) = 55.95871 64.53521 60.24696
# Shear Modulus (GPa) = 28.41054 35.50322 31.95688
#
# Velocity S-wave (km/s) = 3.69776 4.13364 3.92176
# Velocity P-wave (km/s) = 6.72035 7.33773 7.03581
#
# Compressibility (1/GPa) = 0.01787032
#
# Stress axis : x y z
#
# Youngs Moduli (GPa) = 65.81257 89.91752 68.02305
#
# Poissons Ratio (x) = 0.21536 0.32943
# Poissons Ratio (y) = 0.15762 0.29490
# Poissons Ratio (z) = 0.31872 0.38982
#
# Static dielectric constant tensor:
#      x y z
#    x 3.887420 0.306850 0.064820 
#    y 0.306850 4.367700 0.405380 
#    z 0.064820 0.405380 3.863570 
# 
# 
# High freq. dielectric constant tensor:
#      x y z
#    x 1.816700 0.016420 -0.004460 
#    y 0.016420 1.833360 0.026060 
#    z -0.004460 0.026060 1.808820 
# 
# From -- ./inp_files/217747.got.cif
#   From: 2010.06.25/outbox.cif.g09.slc.cpg/sg2_109_cif.got.tgz:217747.got - 2010.06.27 13:26:56.
