data_PCOD8029963
_publ_section_title
;
Structure prediction by ZEFSAII (Michael W. Deem and Ramdas Pophale) SiO2 
 PCOD8029963
Probable space group: P -1
;
_chemical_formula_sum "Si O2"
_cell_formula_units_Z 16
_cell_length_a 8.983068
_cell_length_b 11.738300
_cell_length_c 9.587986
_cell_angle_alpha 49.387185
_cell_angle_beta 92.543950
_cell_angle_gamma 83.604399
_cell_volume 753.498438
_symmetry_space_group_name_H-M "P -1"
_symmetry_group_IT_number 2
_symmetry_cell_setting 'triclinic'
loop_
_space_group_symop_operation_xyz
x,y,z
-x,-y,-z
loop_
_atom_site_type_symbol
_atom_site_label
_atom_site_fract_x
_atom_site_fract_y
_atom_site_fract_z
Si Si1 0.964282 0.649503 0.624063
Si Si2 0.733335 0.833607 0.673046
Si Si3 0.441910 0.868964 0.480084
Si Si4 0.223776 0.363821 0.634127
Si Si5 0.071628 0.317532 0.947243
Si Si6 0.249000 0.687168 0.452197
Si Si7 0.605941 0.951071 0.172779
Si Si8 0.868544 0.119177 0.971474
O O1 0.851348 0.782206 0.593313
O O2 0.899240 0.586508 0.531185
O O3 0.011211 0.495902 0.841686
O O4 0.106558 0.722245 0.523673
O O5 0.569856 0.791612 0.658084
O O6 0.700996 0.018191 0.544163
O O7 0.800605 0.749764 0.882392
O O8 0.388607 0.734119 0.501680
O O9 0.515142 0.982012 0.289466
O O10 0.147246 0.297441 0.815022
O O11 0.296874 0.507728 0.566235
O O12 0.351453 0.231995 0.685207
O O13 0.935889 0.220244 0.011136
O O14 0.220835 0.776721 0.235267
O O15 0.500000 0.000000 0.000000
O O16 0.752397 0.031286 0.116619
O O17 0.000000 0.000000 0.000000
#
# Coordination Sequence:
#
# PCOD8029963 Si02
#       8
#     2   2   2   2   2   2   2   2
#     4  11  21  42  71  98 130 170 220 273 331 380
#     4  11  25  45  65  88 139 183 215 262 328 393
#     4  11  25  45  62  91 139 181 216 260 328 400
#     4  11  21  41  70  99 133 164 217 281 330 379
#     4  11  21  41  67 101 130 166 222 279 322 382
#     4  11  22  42  69 102 127 168 220 276 331 385
#     4  12  23  40  66  98 132 171 214 271 331 383
#     4  12  21  37  68 102 128 161 220 277 324 378
#
# _framework density 21.234283000000001
#
# number of rings (size 3 to 8) (size 9 to 14) (size 15 to 20)
#    0.000    0.750    6.250    2.625    0.000    1.000 
#    6.750    2.500    0.000    0.000    0.000    0.000 
#    0.000    0.000    0.000    0.000    0.000    0.000 
#
# Total GULP energy -198385.617786 kJ/mol
# GULP energy per Si atom -12399.101112 kJ/mol
# Density = 2.118595 g / cm^3
# Si number density = 21.234283 Si / 1000 Ang^3
#
#
#
# Elastic Constant Matrix: (Units=GPa)
#
#
# Indices 1 2 3 4 5 6 
#
# 1 109.0726 54.1779 53.4255 -3.1858 6.7334 20.9828
# 2 54.1779 96.0308 51.8461 -0.7113 -6.7516 6.9550
# 3 53.4255 51.8461 96.5922 3.5493 23.6800 16.3103
# 4 -3.1858 -0.7113 3.5493 30.8815 6.7197 1.8666
# 5 6.7334 -6.7516 23.6800 6.7197 41.6558 6.0821
# 6 20.9828 6.9550 16.3103 1.8666 6.0821 44.3868
#
#
#
# Elastic Compliance Matrix: (Units=1/GPa)
#
#
# Indices 1 2 3 4 5 6 
#
# 1 0.015284 -0.005923 -0.004418 0.002365 -0.000616 -0.004688
# 2 -0.005923 0.019652 -0.009959 -0.001251 0.009699 0.002104
# 3 -0.004418 -0.009959 0.021732 -0.000234 -0.012842 -0.002567
# 4 0.002365 -0.001251 -0.000234 0.033957 -0.005714 -0.001481
# 5 -0.000616 0.009699 -0.012842 -0.005714 0.034036 -0.000933
# 6 -0.004688 0.002104 -0.002567 -0.001481 -0.000933 0.025549
#
#
# Mechanical properties :
#
#
# Convention : Reuss Voigt Hill
#
# Bulk Modulus (GPa) = 62.24082 68.95494 65.59788
# Shear Modulus (GPa) = 25.48844 32.86791 29.17817
#
# Velocity S-wave (km/s) = 3.46836 3.93857 3.71092
# Velocity P-wave (km/s) = 6.73902 7.29568 7.02287
#
# Compressibility (1/GPa) = 0.01606663
#
# Stress axis : x y z
#
# Youngs Moduli (GPa) = 65.42937 50.88479 46.01428
#
# Poissons Ratio (x) = 0.30141 0.20330
# Poissons Ratio (y) = 0.38757 0.45826
# Poissons Ratio (z) = 0.28908 0.50677
#
# Static dielectric constant tensor:
#      x y z
#    x 3.911160 -0.015010 0.184080 
#    y -0.015010 3.940080 -0.102640 
#    z 0.184080 -0.102640 4.121860 
# 
# 
# High freq. dielectric constant tensor:
#      x y z
#    x 1.829410 -0.002210 0.014680 
#    y -0.002210 1.838110 0.001830 
#    z 0.014680 0.001830 1.829300 
# 
# From -- ./inp_files/184203.got.cif
#   From: 2010.06.25/outbox.cif.g09.slc.cpg/sg2_93_cif.got.tgz:184203.got - 2010.06.27 13:26:56.
