data_PCOD8029681
_publ_section_title
;
Structure prediction by ZEFSAII (Michael W. Deem and Ramdas Pophale) SiO2 
 PCOD8029681
Probable space group: P -1
;
_chemical_formula_sum "Si O2"
_cell_formula_units_Z 16
_cell_length_a 18.351783
_cell_length_b 6.770598
_cell_length_c 9.694000
_cell_angle_alpha 128.599872
_cell_angle_beta 118.613766
_cell_angle_gamma 50.939929
_cell_volume 723.603343
_symmetry_space_group_name_H-M "P -1"
_symmetry_group_IT_number 2
_symmetry_cell_setting 'triclinic'
loop_
_space_group_symop_operation_xyz
x,y,z
-x,-y,-z
loop_
_atom_site_type_symbol
_atom_site_label
_atom_site_fract_x
_atom_site_fract_y
_atom_site_fract_z
Si Si1 0.103970 0.753249 0.872128
Si Si2 0.719545 0.229603 0.857679
Si Si3 0.893472 0.607679 0.503614
Si Si4 0.797471 0.593054 0.678845
Si Si5 0.545269 0.225129 0.315067
Si Si6 0.941012 0.359948 0.942500
Si Si7 0.728765 0.205904 0.549845
Si Si8 0.537253 0.667900 0.014725
O O1 0.152264 0.548555 0.697169
O O2 0.172000 0.862931 0.046768
O O3 0.084721 0.564003 0.886928
O O4 0.003742 0.013159 0.842402
O O5 0.688871 0.355569 0.729262
O O6 0.649454 0.470553 0.004316
O O7 0.717554 0.928246 0.742958
O O8 0.880764 0.523924 0.612053
O O9 0.000000 0.500000 0.500000
O O10 0.832089 0.945641 0.567807
O O11 0.844352 0.489357 0.826055
O O12 0.739568 0.414286 0.537010
O O13 0.500000 0.500000 0.500000
O O14 0.658462 0.101678 0.375343
O O15 0.516373 0.301977 0.164354
O O16 0.520848 0.962857 0.205851
O O17 0.000000 0.500000 0.000000
O O18 0.500000 0.500000 0.000000
#
# Coordination Sequence:
#
# PCOD8029681 Si02
#       8
#     2   2   2   2   2   2   2   2
#     4  11  23  38  64  89 134 170 220 288 335 389
#     4  11  23  43  66  99 137 175 224 291 337 410
#     4  11  25  42  62  96 138 176 226 292 339 397
#     4  11  24  41  67  96 131 186 230 269 350 413
#     4  11  25  48  76 104 143 186 223 293 357 411
#     4  11  21  38  62  95 125 176 230 272 337 405
#     4  11  24  45  68  97 139 182 229 277 349 414
#     4  11  27  47  75 110 139 176 236 284 353 430
#
# _framework density 22.111561999999999
#
# number of rings (size 3 to 8) (size 9 to 14) (size 15 to 20)
#    0.000    1.000    3.750    2.250    5.250    6.500 
#    2.250    0.000    0.000    0.000    0.000    0.000 
#    0.000    0.000    0.000    0.000    0.000    0.000 
#
# Total GULP energy -198264.925920 kJ/mol
# GULP energy per Si atom -12391.557870 kJ/mol
# Density = 2.206123 g / cm^3
# Si number density = 22.111562 Si / 1000 Ang^3
#
#
#
# Elastic Constant Matrix: (Units=GPa)
#
#
# Indices 1 2 3 4 5 6 
#
# 1 107.6558 59.6330 35.6984 5.1530 5.0407 13.4523
# 2 59.6330 114.0157 42.9173 0.6499 -5.1472 26.5193
# 3 35.6984 42.9173 111.8623 12.5390 0.5025 6.8644
# 4 5.1530 0.6499 12.5390 29.3396 -4.1129 4.2959
# 5 5.0407 -5.1472 0.5025 -4.1129 37.4102 1.0792
# 6 13.4523 26.5193 6.8644 4.2959 1.0792 41.3803
#
#
#
# Elastic Compliance Matrix: (Units=1/GPa)
#
#
# Indices 1 2 3 4 5 6 
#
# 1 0.013786 -0.006862 -0.001546 -0.002101 -0.003026 0.000470
# 2 -0.006862 0.015773 -0.003871 0.004185 0.003831 -0.007770
# 3 -0.001546 -0.003871 0.011371 -0.004890 -0.001062 0.001633
# 4 -0.002101 0.004185 -0.004890 0.037957 0.005250 -0.005265
# 5 -0.003026 0.003831 -0.001062 0.005250 0.028331 -0.002579
# 6 0.000470 -0.007770 0.001633 -0.005265 -0.002579 0.029336
#
#
# Mechanical properties :
#
#
# Convention : Reuss Voigt Hill
#
# Bulk Modulus (GPa) = 61.08439 67.78126 64.43282
# Shear Modulus (GPa) = 30.01702 34.64504 32.33103
#
# Velocity S-wave (km/s) = 3.68846 3.96261 3.82799
# Velocity P-wave (km/s) = 6.76943 7.18729 6.98149
#
# Compressibility (1/GPa) = 0.01637079
#
# Stress axis : x y z
#
# Youngs Moduli (GPa) = 72.53488 63.39763 87.94251
#
# Poissons Ratio (x) = 0.43506 0.13600
# Poissons Ratio (y) = 0.49776 0.34044
# Poissons Ratio (z) = 0.11217 0.24543
#
# Static dielectric constant tensor:
#      x y z
#    x 4.106060 0.009680 0.048140 
#    y 0.009680 3.988270 0.072660 
#    z 0.048140 0.072660 4.213470 
# 
# 
# High freq. dielectric constant tensor:
#      x y z
#    x 1.869050 0.004610 0.007730 
#    y 0.004610 1.872650 -0.003560 
#    z 0.007730 -0.003560 1.871020 
# 
# From -- ./inp_files/324141.got.cif
#   From: 2010.06.25/outbox.cif.g09.slc.cpg/sg2_163_cif.got.tgz:324141.got - 2010.06.27 13:26:56.
