data_PCOD8029893
_publ_section_title
;
Structure prediction by ZEFSAII (Michael W. Deem and Ramdas Pophale) SiO2 
 PCOD8029893
Probable space group: P -1
;
_chemical_formula_sum "Si O2"
_cell_formula_units_Z 14
_cell_length_a 14.010138
_cell_length_b 11.784132
_cell_length_c 20.636914
_cell_angle_alpha 23.356666
_cell_angle_beta 151.260840
_cell_angle_gamma 147.742758
_cell_volume 634.503314
_symmetry_space_group_name_H-M "P -1"
_symmetry_group_IT_number 2
_symmetry_cell_setting 'triclinic'
loop_
_space_group_symop_operation_xyz
x,y,z
-x,-y,-z
loop_
_atom_site_type_symbol
_atom_site_label
_atom_site_fract_x
_atom_site_fract_y
_atom_site_fract_z
Si Si1 0.080494 0.307165 0.420669
Si Si2 0.728796 0.597026 0.112531
Si Si3 0.415503 0.554520 0.159324
Si Si4 0.004327 0.728712 0.939596
Si Si5 0.581570 0.869681 0.216740
Si Si6 0.260666 0.762835 0.190087
Si Si7 0.189101 0.395189 0.695232
O O1 0.207250 0.243980 0.592647
O O2 0.250592 0.522593 0.365817
O O3 0.888620 0.452467 0.244197
O O4 0.000000 0.000000 0.500000
O O5 0.749898 0.502919 0.249021
O O6 0.500000 0.500000 0.000000
O O7 0.792174 0.947259 0.961123
O O8 0.234108 0.266938 0.194985
O O9 0.427026 0.669300 0.180018
O O10 0.622916 0.460909 0.313424
O O11 0.369857 0.798657 0.953997
O O12 0.146925 0.044289 0.844979
O O13 0.000000 0.500000 0.000000
O O14 0.085322 0.612901 0.114302
O O15 0.477089 0.850334 0.235870
O O16 0.000000 0.500000 0.500000
#
# Coordination Sequence:
#
# PCOD8029893 Si02
#       7
#     2   2   2   2   2   2   2
#     4  12  26  42  69 100 134 178 238 282 338 408
#     4  11  25  47  65  97 139 187 225 280 356 400
#     4  11  21  41  71  95 140 177 222 275 352 398
#     4  11  21  40  70 100 130 178 228 273 346 405
#     4  11  21  41  66 103 133 175 224 286 330 407
#     4  11  23  44  68  99 139 179 229 279 345 416
#     4  11  25  45  68 101 140 175 232 289 332 414
#
# _framework density 22.064503999999999
#
# number of rings (size 3 to 8) (size 9 to 14) (size 15 to 20)
#    0.000    0.857    4.286    4.286    2.000    1.714 
#    2.571    0.000    0.000    0.000    0.000    0.000 
#    0.000    0.000    0.000    0.000    0.000    0.000 
#
# Total GULP energy -173556.710416 kJ/mol
# GULP energy per Si atom -12396.907887 kJ/mol
# Density = 2.201428 g / cm^3
# Si number density = 22.064504 Si / 1000 Ang^3
#
#
#
# Elastic Constant Matrix: (Units=GPa)
#
#
# Indices 1 2 3 4 5 6 
#
# 1 103.4409 34.8958 38.0092 -2.1791 12.1637 2.3475
# 2 34.8958 118.3614 29.7831 19.3112 5.6181 -3.0015
# 3 38.0092 29.7831 101.7340 24.0450 9.7028 -7.5811
# 4 -2.1791 19.3112 24.0450 41.0660 1.2462 5.2498
# 5 12.1637 5.6181 9.7028 1.2462 27.9022 6.0137
# 6 2.3475 -3.0015 -7.5811 5.2498 6.0137 38.4618
#
#
#
# Elastic Compliance Matrix: (Units=1/GPa)
#
#
# Indices 1 2 3 4 5 6 
#
# 1 0.013283 -0.003468 -0.005208 0.005787 -0.003017 -0.002426
# 2 -0.003468 0.010470 -0.000378 -0.005091 -0.000614 0.001745
# 3 -0.005208 -0.000378 0.014786 -0.009292 -0.003460 0.005012
# 4 0.005787 -0.005091 -0.009292 0.033386 0.001843 -0.007427
# 5 -0.003017 -0.000614 -0.003460 0.001843 0.039916 -0.007039
# 6 -0.002426 0.001745 0.005012 -0.007427 -0.007039 0.029386
#
#
# Mechanical properties :
#
#
# Convention : Reuss Voigt Hill
#
# Bulk Modulus (GPa) = 48.94552 58.76804 53.85678
# Shear Modulus (GPa) = 30.09420 36.20921 33.15171
#
# Velocity S-wave (km/s) = 3.69713 4.05540 3.88040
# Velocity P-wave (km/s) = 6.36052 6.97286 6.67372
#
# Compressibility (1/GPa) = 0.02043088
#
# Stress axis : x y z
#
# Youngs Moduli (GPa) = 75.28587 95.50926 67.63340
#
# Poissons Ratio (x) = 0.33123 0.35224
# Poissons Ratio (y) = 0.26109 0.02554
# Poissons Ratio (z) = 0.39210 0.03607
#
# Static dielectric constant tensor:
#      x y z
#    x 4.125440 0.166260 -0.080170 
#    y 0.166260 4.227960 0.234620 
#    z -0.080170 0.234620 4.276570 
# 
# 
# High freq. dielectric constant tensor:
#      x y z
#    x 1.870990 0.005590 0.003180 
#    y 0.005590 1.878630 0.019760 
#    z 0.003180 0.019760 1.859910 
# 
# From -- ./inp_files/597912.got.cif
#   From: 2010.06.25/outbox.cif.g09.slc.cpg/sg2_299_cif.got.tgz:597912.got - 2010.06.27 13:26:56.
