data_PCOD8029669
_publ_section_title
;
Structure prediction by ZEFSAII (Michael W. Deem and Ramdas Pophale) SiO2 
 PCOD8029669
Probable space group: P -1
;
_chemical_formula_sum "Si O2"
_cell_formula_units_Z 16
_cell_length_a 17.320108
_cell_length_b 12.947375
_cell_length_c 8.101426
_cell_angle_alpha 122.801387
_cell_angle_beta 145.678013
_cell_angle_gamma 46.004724
_cell_volume 734.634092
_symmetry_space_group_name_H-M "P -1"
_symmetry_group_IT_number 2
_symmetry_cell_setting 'triclinic'
loop_
_space_group_symop_operation_xyz
x,y,z
-x,-y,-z
loop_
_atom_site_type_symbol
_atom_site_label
_atom_site_fract_x
_atom_site_fract_y
_atom_site_fract_z
Si Si1 0.413243 0.279753 0.354916
Si Si2 0.656177 0.583489 0.976421
Si Si3 0.526245 0.347608 0.950881
Si Si4 0.855624 0.708543 0.545995
Si Si5 0.047040 0.435350 0.849183
Si Si6 0.844844 0.094738 0.200503
Si Si7 0.366769 0.016637 0.407667
Si Si8 0.086758 0.712508 0.722474
O O1 0.437697 0.367002 0.323185
O O2 0.449263 0.313932 0.630406
O O3 0.537747 0.109387 0.396752
O O4 0.233216 0.313713 0.067974
O O5 0.545495 0.657259 0.004224
O O6 0.778039 0.642018 0.233360
O O7 0.749783 0.410488 0.006769
O O8 0.500000 0.500000 0.000000
O O9 0.714563 0.229694 0.194902
O O10 0.003790 0.573820 0.782172
O O11 0.934179 0.778222 0.632684
O O12 0.719120 0.827087 0.526036
O O13 0.943773 0.363946 0.553559
O O14 0.000000 0.500000 0.000000
O O15 0.890708 0.157280 0.177909
O O16 0.773974 0.997044 0.936842
O O17 0.000000 0.000000 0.500000
O O18 0.500000 0.000000 0.500000
#
# Coordination Sequence:
#
# PCOD8029669 Si02
#       8
#     2   2   2   2   2   2   2   2
#     4  11  23  41  68 103 130 177 233 279 348 404
#     4  11  21  44  70 102 138 175 234 291 342 403
#     4  11  24  44  67  97 136 183 230 287 340 407
#     4  11  22  40  68  98 137 177 223 286 339 409
#     4  11  21  37  70 101 126 177 229 277 340 400
#     4  11  27  45  67  99 141 184 224 280 355 413
#     4  11  26  46  67 100 144 181 232 283 341 427
#     4  11  22  43  66 101 144 165 229 294 332 413
#
# _framework density 21.77955
#
# number of rings (size 3 to 8) (size 9 to 14) (size 15 to 20)
#    0.000    1.000    3.750    4.500    3.500    2.500 
#    0.000    0.000    0.000    0.000    0.000    0.000 
#    0.000    0.000    0.000    0.000    0.000    0.000 
#
# Total GULP energy -198365.554740 kJ/mol
# GULP energy per Si atom -12397.847171 kJ/mol
# Density = 2.172998 g / cm^3
# Si number density = 21.779550 Si / 1000 Ang^3
#
#
#
# Elastic Constant Matrix: (Units=GPa)
#
#
# Indices 1 2 3 4 5 6 
#
# 1 133.0000 15.5566 36.1127 -5.3382 -0.4155 8.5678
# 2 15.5566 101.2066 41.6577 -18.5487 2.5502 1.0862
# 3 36.1127 41.6577 96.3614 -25.2623 0.8529 8.3696
# 4 -5.3382 -18.5487 -25.2623 42.4071 2.2224 5.2514
# 5 -0.4155 2.5502 0.8529 2.2224 34.3977 1.1345
# 6 8.5678 1.0862 8.3696 5.2514 1.1345 41.9835
#
#
#
# Elastic Compliance Matrix: (Units=1/GPa)
#
#
# Indices 1 2 3 4 5 6 
#
# 1 0.008445 -0.000106 -0.003249 -0.000812 0.000275 -0.000979
# 2 -0.000106 0.012296 -0.004605 0.002634 -0.000979 0.000318
# 3 -0.003249 -0.004605 0.015825 0.007436 -0.000462 -0.003290
# 4 -0.000812 0.002634 0.007436 0.029799 -0.002148 -0.005054
# 5 0.000275 -0.000979 -0.000462 -0.002148 0.029313 -0.000462
# 6 -0.000979 0.000318 -0.003290 -0.005054 -0.000462 0.025311
#
#
# Mechanical properties :
#
#
# Convention : Reuss Voigt Hill
#
# Bulk Modulus (GPa) = 48.43399 57.46911 52.95155
# Shear Modulus (GPa) = 34.77266 39.57372 37.17319
#
# Velocity S-wave (km/s) = 4.00005 4.26727 4.13582
# Velocity P-wave (km/s) = 6.60458 7.12204 6.86818
#
# Compressibility (1/GPa) = 0.02064666
#
# Stress axis : x y z
#
# Youngs Moduli (GPa) = 118.41646 81.32486 63.19036
#
# Poissons Ratio (x) = 0.00861 0.20533
# Poissons Ratio (y) = 0.01254 0.29097
# Poissons Ratio (z) = 0.38478 0.37447
#
# Static dielectric constant tensor:
#      x y z
#    x 5.184160 -0.297270 0.706490 
#    y -0.297270 4.272860 -0.368550 
#    z 0.706490 -0.368550 4.611500 
# 
# 
# High freq. dielectric constant tensor:
#      x y z
#    x 1.866650 0.002610 0.006250 
#    y 0.002610 1.852760 -0.014410 
#    z 0.006250 -0.014410 1.850410 
# 
# From -- ./inp_files/333658.got.cif
#   From: 2010.06.25/outbox.cif.g09.slc.cpg/sg2_167_cif.got.tgz:333658.got - 2010.06.27 13:26:56.
