data_PCOD8029778
_publ_section_title
;
Structure prediction by ZEFSAII (Michael W. Deem and Ramdas Pophale) SiO2 
 PCOD8029778
Probable space group: P -1
;
_chemical_formula_sum "Si O2"
_cell_formula_units_Z 14
_cell_length_a 9.497628
_cell_length_b 9.410474
_cell_length_c 16.992546
_cell_angle_alpha 107.959023
_cell_angle_beta 118.477866
_cell_angle_gamma 30.655328
_cell_volume 662.861073
_symmetry_space_group_name_H-M "P -1"
_symmetry_group_IT_number 2
_symmetry_cell_setting 'triclinic'
loop_
_space_group_symop_operation_xyz
x,y,z
-x,-y,-z
loop_
_atom_site_type_symbol
_atom_site_label
_atom_site_fract_x
_atom_site_fract_y
_atom_site_fract_z
Si Si1 0.991874 0.071190 0.424651
Si Si2 0.615817 0.618667 0.149488
Si Si3 0.265532 0.173152 0.534453
Si Si4 0.257742 0.614661 0.109825
Si Si5 0.440690 0.874820 0.984795
Si Si6 0.662817 0.312516 0.693365
Si Si7 0.686502 0.984189 0.729171
O O1 0.155191 0.095210 0.485645
O O2 0.657050 0.360650 0.353689
O O3 0.144238 0.838731 0.361600
O O4 0.000000 0.000000 0.500000
O O5 0.438138 0.601808 0.108539
O O6 0.415562 0.900811 0.189754
O O7 0.649094 0.647430 0.073587
O O8 0.954344 0.343774 0.231708
O O9 0.452163 0.045720 0.644443
O O10 0.000000 0.500000 0.500000
O O11 0.500000 0.000000 0.500000
O O12 0.455489 0.307083 0.093995
O O13 0.209913 0.685806 0.201918
O O14 0.905866 0.874719 0.033483
O O15 0.500000 0.000000 0.000000
O O16 0.635103 0.165495 0.689593
#
# Coordination Sequence:
#
# PCOD8029778 Si02
#       7
#     2   2   2   2   2   2   2
#     4  12  24  42  63  96 132 173 214 264 316 385
#     4  11  23  41  69  96 127 163 222 262 310 384
#     4  12  22  40  67  93 130 172 216 260 323 373
#     4  11  23  43  72  93 123 175 217 262 315 387
#     4  12  25  45  66  98 136 165 205 263 336 389
#     4  11  22  42  67  93 127 166 223 263 313 374
#     4  11  21  39  67  98 124 164 221 274 304 364
#
# _framework density 21.120564000000002
#
# number of rings (size 3 to 8) (size 9 to 14) (size 15 to 20)
#    0.000    0.571    2.857    7.714    0.000    0.000 
#    7.714    0.000    0.000    0.000    0.000    0.000 
#    0.000    0.000    0.000    0.000    0.000    0.000 
#
# Total GULP energy -173526.929739 kJ/mol
# GULP energy per Si atom -12394.780696 kJ/mol
# Density = 2.107249 g / cm^3
# Si number density = 21.120564 Si / 1000 Ang^3
#
#
#
# Elastic Constant Matrix: (Units=GPa)
#
#
# Indices 1 2 3 4 5 6 
#
# 1 69.5472 52.9765 42.2375 11.5287 -17.1319 7.1012
# 2 52.9765 170.0036 51.2134 -7.6698 -17.3099 -12.5537
# 3 42.2375 51.2134 105.5811 6.4008 -10.6996 5.7152
# 4 11.5287 -7.6698 6.4008 60.0712 4.2320 1.2359
# 5 -17.1319 -17.3099 -10.6996 4.2320 51.9795 0.7500
# 6 7.1012 -12.5537 5.7152 1.2359 0.7500 29.5517
#
#
#
# Elastic Compliance Matrix: (Units=1/GPa)
#
#
# Indices 1 2 3 4 5 6 
#
# 1 0.026121 -0.006601 -0.005908 -0.005470 0.005754 -0.007856
# 2 -0.006601 0.009180 -0.002269 0.002552 0.000123 0.005815
# 3 -0.005908 -0.002269 0.013084 -0.000512 0.000062 -0.002055
# 4 -0.005470 0.002552 -0.000512 0.018221 -0.002568 0.001801
# 5 0.005754 0.000123 0.000062 -0.002568 0.021423 -0.001779
# 6 -0.007856 0.005815 -0.002055 0.001801 -0.001779 0.038564
#
#
# Mechanical properties :
#
#
# Convention : Reuss Voigt Hill
#
# Bulk Modulus (GPa) = 53.10991 70.88740 61.99866
# Shear Modulus (GPa) = 30.78329 41.56748 36.17539
#
# Velocity S-wave (km/s) = 3.82187 4.44115 4.14309
# Velocity P-wave (km/s) = 6.68403 7.74173 7.23224
#
# Compressibility (1/GPa) = 0.01882888
#
# Stress axis : x y z
#
# Youngs Moduli (GPa) = 38.28301 108.93363 76.42933
#
# Poissons Ratio (x) = 0.71910 0.45153
# Poissons Ratio (y) = 0.25272 0.17343
# Poissons Ratio (z) = 0.22617 0.24718
#
# Static dielectric constant tensor:
#      x y z
#    x 3.534210 -0.151300 0.091840 
#    y -0.151300 4.087200 0.186010 
#    z 0.091840 0.186010 4.045650 
# 
# 
# High freq. dielectric constant tensor:
#      x y z
#    x 1.803320 -0.014000 0.002190 
#    y -0.014000 1.849170 0.004150 
#    z 0.002190 0.004150 1.846910 
# 
# From -- ./inp_files/90951.got.cif
#   From: 2010.06.25/outbox.cif.g09.slc.cpg/sg2_46_cif.got.tgz:90951.got - 2010.06.27 13:26:56.
