data_PCOD8029682
_publ_section_title
;
Structure prediction by ZEFSAII (Michael W. Deem and Ramdas Pophale) SiO2 
 PCOD8029682
Probable space group: P -1
;
_chemical_formula_sum "Si O2"
_cell_formula_units_Z 12
_cell_length_a 9.589237
_cell_length_b 12.458514
_cell_length_c 7.663194
_cell_angle_alpha 87.873652
_cell_angle_beta 98.585528
_cell_angle_gamma 145.113059
_cell_volume 511.832279
_symmetry_space_group_name_H-M "P -1"
_symmetry_group_IT_number 2
_symmetry_cell_setting 'triclinic'
loop_
_space_group_symop_operation_xyz
x,y,z
-x,-y,-z
loop_
_atom_site_type_symbol
_atom_site_label
_atom_site_fract_x
_atom_site_fract_y
_atom_site_fract_z
Si Si1 0.268532 0.436099 0.963430
Si Si2 0.682002 0.485498 0.405105
Si Si3 0.114192 0.959630 0.969262
Si Si4 0.870107 0.818327 0.578763
Si Si5 0.152313 0.524971 0.232942
Si Si6 0.376177 0.806722 0.990788
O O1 0.009263 0.208587 0.923463
O O2 0.279273 0.512650 0.136793
O O3 0.500000 0.500000 0.000000
O O4 0.262281 0.508414 0.786666
O O5 0.816439 0.684690 0.450061
O O6 0.386578 0.304585 0.377692
O O7 0.781875 0.455411 0.554457
O O8 0.052047 0.892637 0.760904
O O9 0.413454 0.146619 0.035497
O O10 0.000000 0.000000 0.000000
O O11 0.000000 0.000000 0.500000
O O12 0.270372 0.710547 0.170875
O O13 0.853892 0.340031 0.176590
O O14 0.500000 0.000000 0.000000
#
# Coordination Sequence:
#
# PCOD8029682 Si02
#       6
#     2   2   2   2   2   2
#     4  12  21  40  67 101 139 173 223 281 335 398
#     4  11  22  40  65 100 136 174 226 278 338 404
#     4  12  23  40  70 102 134 178 230 279 338 404
#     4  11  21  38  62  98 140 172 219 281 339 394
#     4  11  24  44  69  93 136 184 221 280 343 402
#     4  11  23  45  71  93 137 183 224 278 344 405
#
# _framework density 23.445180000000001
#
# number of rings (size 3 to 8) (size 9 to 14) (size 15 to 20)
#    0.000    0.667    5.000    4.000    0.000    0.000 
#    0.000    4.167    3.667    0.000    0.000    0.000 
#    0.000    0.000    0.000    0.000    0.000    0.000 
#
# Total GULP energy -148796.832310 kJ/mol
# GULP energy per Si atom -12399.736026 kJ/mol
# Density = 2.339182 g / cm^3
# Si number density = 23.445180 Si / 1000 Ang^3
#
#
#
# Elastic Constant Matrix: (Units=GPa)
#
#
# Indices 1 2 3 4 5 6 
#
# 1 106.7506 34.3553 29.4521 -0.6988 15.4590 22.6520
# 2 34.3553 151.5934 24.2392 -19.1337 10.5505 -2.0425
# 3 29.4521 24.2392 110.7049 -22.7906 30.8771 6.4389
# 4 -0.6988 -19.1337 -22.7906 29.4200 -9.9660 8.9624
# 5 15.4590 10.5505 30.8771 -9.9660 40.4116 -2.4813
# 6 22.6520 -2.0425 6.4389 8.9624 -2.4813 51.0242
#
#
#
# Elastic Compliance Matrix: (Units=1/GPa)
#
#
# Indices 1 2 3 4 5 6 
#
# 1 0.012311 -0.002627 -0.001973 -0.002584 -0.003462 -0.005036
# 2 -0.002627 0.007809 -0.000146 0.004803 0.000303 0.000669
# 3 -0.001973 -0.000146 0.013685 0.008695 -0.007688 -0.002758
# 4 -0.002584 0.004803 0.008695 0.047679 0.004363 -0.007921
# 5 -0.003462 0.000303 -0.007688 0.004363 0.033147 0.003365
# 6 -0.005036 0.000669 -0.002758 -0.007921 0.003365 0.023764
#
#
# Mechanical properties :
#
#
# Convention : Reuss Voigt Hill
#
# Bulk Modulus (GPa) = 41.13126 60.57134 50.85130
# Shear Modulus (GPa) = 32.05294 42.90466 37.47880
#
# Velocity S-wave (km/s) = 3.70150 4.28249 4.00255
# Velocity P-wave (km/s) = 5.98747 7.09538 6.56484
#
# Compressibility (1/GPa) = 0.02431241
#
# Stress axis : x y z
#
# Youngs Moduli (GPa) = 81.23034 128.05026 73.07455
#
# Poissons Ratio (x) = 0.33644 0.14419
# Poissons Ratio (y) = 0.21343 0.01063
# Poissons Ratio (z) = 0.16029 0.01863
#
# Static dielectric constant tensor:
#      x y z
#    x 4.498280 0.124230 0.231730 
#    y 0.124230 4.742650 -0.178100 
#    z 0.231730 -0.178100 4.155010 
# 
# 
# High freq. dielectric constant tensor:
#      x y z
#    x 1.925740 0.002040 0.013780 
#    y 0.002040 1.953010 -0.012810 
#    z 0.013780 -0.012810 1.909210 
# 
# From -- ./inp_files/164820.got.cif
#   From: 2010.06.25/outbox.cif.g09.slc.cpg/sg2_83_cif.got.tgz:164820.got - 2010.06.27 13:26:56.
