data_PCOD8029907
_publ_section_title
;
Structure prediction by ZEFSAII (Michael W. Deem and Ramdas Pophale) SiO2 
 PCOD8029907
Probable space group: P -1
;
_chemical_formula_sum "Si O2"
_cell_formula_units_Z 16
_cell_length_a 8.995631
_cell_length_b 17.085105
_cell_length_c 8.737635
_cell_angle_alpha 116.210297
_cell_angle_beta 132.769246
_cell_angle_gamma 93.051955
_cell_volume 746.553222
_symmetry_space_group_name_H-M "P -1"
_symmetry_group_IT_number 2
_symmetry_cell_setting 'triclinic'
loop_
_space_group_symop_operation_xyz
x,y,z
-x,-y,-z
loop_
_atom_site_type_symbol
_atom_site_label
_atom_site_fract_x
_atom_site_fract_y
_atom_site_fract_z
Si Si1 0.583902 0.203182 0.075674
Si Si2 0.098499 0.116694 0.131917
Si Si3 0.587187 0.303274 0.681878
Si Si4 0.690416 0.162572 0.443329
Si Si5 0.162364 0.202184 0.927937
Si Si6 0.066678 0.606643 0.713909
Si Si7 0.358675 0.400316 0.418405
Si Si8 0.594521 0.041435 0.768675
O O1 0.678360 0.175341 0.266839
O O2 0.808953 0.305696 0.251499
O O3 0.369998 0.221316 0.973526
O O4 0.478193 0.103525 0.804624
O O5 0.329753 0.201784 0.464043
O O6 0.161605 0.134622 0.010848
O O7 0.878075 0.129530 0.030891
O O8 0.000000 0.000000 0.000000
O O9 0.720807 0.262542 0.635190
O O10 0.545618 0.382676 0.626664
O O11 0.746889 0.363604 0.991174
O O12 0.910427 0.147671 0.617329
O O13 0.455183 0.055787 0.245834
O O14 0.206429 0.308441 0.114643
O O15 0.000000 0.500000 0.500000
O O16 0.819723 0.593393 0.584003
O O17 0.500000 0.500000 0.500000
O O18 0.500000 0.000000 0.500000
#
# Coordination Sequence:
#
# PCOD8029907 Si02
#       8
#     2   2   2   2   2   2   2   2
#     4  12  26  44  66 104 146 177 240 298 340 425
#     4  11  21  40  71 101 138 186 241 280 349 424
#     4  11  24  45  74 102 143 187 232 291 355 421
#     4  12  23  43  71 103 142 188 234 288 359 408
#     4  11  23  42  67 100 137 182 235 291 349 413
#     4  12  28  47  73 106 143 185 236 294 360 423
#     4  11  24  46  76 103 134 179 237 291 357 424
#     4  12  24  43  69 100 146 194 231 288 353 417
#
# _framework density 21.431826000000001
#
# number of rings (size 3 to 8) (size 9 to 14) (size 15 to 20)
#    0.000    0.500    6.250    3.375    0.000    4.500 
#    0.000    0.000    0.000    0.000    0.000    0.000 
#    0.000    0.000    0.000    0.000    0.000    0.000 
#
# Total GULP energy -198423.349838 kJ/mol
# GULP energy per Si atom -12401.459365 kJ/mol
# Density = 2.138305 g / cm^3
# Si number density = 21.431826 Si / 1000 Ang^3
#
#
#
# Elastic Constant Matrix: (Units=GPa)
#
#
# Indices 1 2 3 4 5 6 
#
# 1 153.8326 57.8488 43.0034 9.3760 -3.9581 -0.8979
# 2 57.8488 148.5922 45.9679 17.9290 -3.7667 17.4749
# 3 43.0034 45.9679 115.9417 0.7668 -11.2338 0.5288
# 4 9.3760 17.9290 0.7668 33.7124 -8.4924 1.1758
# 5 -3.9581 -3.7667 -11.2338 -8.4924 38.9370 6.5107
# 6 -0.8979 17.4749 0.5288 1.1758 6.5107 45.1055
#
#
#
# Elastic Compliance Matrix: (Units=1/GPa)
#
#
# Indices 1 2 3 4 5 6 
#
# 1 0.008087 -0.002562 -0.002026 -0.000995 -0.000439 0.001267
# 2 -0.002562 0.009522 -0.002829 -0.004291 -0.000502 -0.003522
# 3 -0.002026 -0.002829 0.010782 0.002597 0.003129 0.000410
# 4 -0.000995 -0.004291 0.002597 0.034126 0.007742 -0.000395
# 5 -0.000439 -0.000502 0.003129 0.007742 0.028887 -0.004222
# 6 0.001267 -0.003522 0.000410 -0.000395 -0.004222 0.024175
#
#
# Mechanical properties :
#
#
# Convention : Reuss Voigt Hill
#
# Bulk Modulus (GPa) = 73.75829 79.11184 76.43507
# Shear Modulus (GPa) = 37.05609 41.65408 39.35508
#
# Velocity S-wave (km/s) = 4.16266 4.41337 4.28985
# Velocity P-wave (km/s) = 7.58905 7.93497 7.76394
#
# Compressibility (1/GPa) = 0.01355780
#
# Stress axis : x y z
#
# Youngs Moduli (GPa) = 123.65677 105.02505 92.74604
#
# Poissons Ratio (x) = 0.26904 0.18786
# Poissons Ratio (y) = 0.31677 0.26239
# Poissons Ratio (z) = 0.25048 0.29713
#
# Static dielectric constant tensor:
#      x y z
#    x 3.909840 -0.085710 -0.121390 
#    y -0.085710 3.925750 -0.019870 
#    z -0.121390 -0.019870 3.543670 
# 
# 
# High freq. dielectric constant tensor:
#      x y z
#    x 1.852660 -0.005100 0.008200 
#    y -0.005100 1.851720 -0.000250 
#    z 0.008200 -0.000250 1.833710 
# 
# From -- ./inp_files/218415.got.cif
#   From: 2010.06.25/outbox.cif.g09.slc.cpg/sg2_110_cif.got.tgz:218415.got - 2010.06.27 13:26:56.
