data_PCOD8029360
_publ_section_title
;
Structure prediction by ZEFSAII (Michael W. Deem and Ramdas Pophale) SiO2 
 PCOD8029360
Probable space group: P -1
;
_chemical_formula_sum "Si O2"
_cell_formula_units_Z 14
_cell_length_a 9.376931
_cell_length_b 8.140361
_cell_length_c 9.056505
_cell_angle_alpha 85.280991
_cell_angle_beta 101.644309
_cell_angle_gamma 120.360429
_cell_volume 584.059356
_symmetry_space_group_name_H-M "P -1"
_symmetry_group_IT_number 2
_symmetry_cell_setting 'triclinic'
loop_
_space_group_symop_operation_xyz
x,y,z
-x,-y,-z
loop_
_atom_site_type_symbol
_atom_site_label
_atom_site_fract_x
_atom_site_fract_y
_atom_site_fract_z
Si Si1 0.354475 0.068674 0.554412
Si Si2 0.464476 0.347459 0.288418
Si Si3 0.744446 0.760382 0.247347
Si Si4 0.499768 0.192722 0.013042
Si Si5 0.291457 0.814649 0.304109
Si Si6 0.784696 0.522432 0.861363
Si Si7 0.979679 0.164284 0.912847
O O1 0.442759 0.244136 0.446365
O O2 0.217583 0.080876 0.628979
O O3 0.508771 0.097165 0.691365
O O4 0.269257 0.866903 0.464648
O O5 0.621932 0.559893 0.313600
O O6 0.294534 0.350989 0.217804
O O7 0.502162 0.229187 0.184726
O O8 0.661558 0.804394 0.087030
O O9 0.912939 0.769213 0.222530
O O10 0.666947 0.365382 0.966121
O O11 0.500000 0.000000 0.000000
O O12 0.190861 0.586760 0.266667
O O13 0.213790 0.907861 0.168074
O O14 0.960275 0.663549 0.969336
O O15 0.000000 0.000000 0.000000
#
# Coordination Sequence:
#
# PCOD8029360 Si02
#       7
#     2   2   2   2   2   2   2
#     4  11  24  43  70  97 137 179 221 273 340 405
#     4  11  20  40  70 101 127 174 228 273 336 391
#     4  11  23  42  67  98 131 173 226 277 327 402
#     4  11  21  36  71 104 129 168 233 282 328 386
#     4  11  25  42  65 101 138 177 223 276 332 405
#     4  11  21  43  69 101 131 172 232 285 323 396
#     4  12  26  45  68  96 139 179 226 280 340 385
#
# _framework density 23.970165000000001
#
# number of rings (size 3 to 8) (size 9 to 14) (size 15 to 20)
#    0.000    0.857    5.714    3.429    4.000    0.571 
#    0.000    0.714    0.000    0.000    0.000    0.000 
#    0.000    0.000    0.000    0.000    0.000    0.000 
#
# Total GULP energy -173573.806991 kJ/mol
# GULP energy per Si atom -12398.129071 kJ/mol
# Density = 2.391561 g / cm^3
# Si number density = 23.970165 Si / 1000 Ang^3
#
#
#
# Elastic Constant Matrix: (Units=GPa)
#
#
# Indices 1 2 3 4 5 6 
#
# 1 76.5469 32.6870 50.2391 13.0950 3.0621 -19.6727
# 2 32.6870 92.4532 51.9023 20.5488 1.2426 -27.8728
# 3 50.2391 51.9023 114.6379 26.7675 0.1252 -9.5766
# 4 13.0950 20.5488 26.7675 58.5722 -13.1896 -11.0135
# 5 3.0621 1.2426 0.1252 -13.1896 46.7308 9.7415
# 6 -19.6727 -27.8728 -9.5766 -11.0135 9.7415 35.0918
#
#
#
# Elastic Compliance Matrix: (Units=1/GPa)
#
#
# Indices 1 2 3 4 5 6 
#
# 1 0.021640 0.000822 -0.008961 0.000285 -0.003725 0.011463
# 2 0.000822 0.019642 -0.007617 -0.001777 -0.004093 0.014562
# 3 -0.008961 -0.007617 0.016354 -0.004052 0.001322 -0.008249
# 4 0.000285 -0.001777 -0.004052 0.021237 0.005451 0.002795
# 5 -0.003725 -0.004093 0.001322 0.005451 0.025440 -0.010330
# 6 0.011463 0.014562 -0.008249 0.002795 -0.010330 0.047982
#
#
# Mechanical properties :
#
#
# Convention : Reuss Voigt Hill
#
# Bulk Modulus (GPa) = 38.27830 61.47720 49.87775
# Shear Modulus (GPa) = 25.97181 37.99959 31.98570
#
# Velocity S-wave (km/s) = 3.29524 3.98589 3.65690
# Velocity P-wave (km/s) = 5.52104 6.84734 6.21965
#
# Compressibility (1/GPa) = 0.02612446
#
# Stress axis : x y z
#
# Youngs Moduli (GPa) = 46.21052 50.91127 61.14618
#
# Poissons Ratio (x) = -0.04185 0.54791
# Poissons Ratio (y) = -0.03798 0.46576
# Poissons Ratio (z) = 0.41408 0.38780
#
# Static dielectric constant tensor:
#      x y z
#    x 4.590400 -0.690060 -0.090190 
#    y -0.690060 5.044620 0.254650 
#    z -0.090190 0.254650 4.391180 
# 
# 
# High freq. dielectric constant tensor:
#      x y z
#    x 1.935190 -0.034160 -0.004730 
#    y -0.034160 1.951440 0.016470 
#    z -0.004730 0.016470 1.953360 
# 
# From -- ./inp_files/158883.got.cif
#   From: 2010.06.25/outbox.cif.g09.slc.cpg/sg2_80_cif.got.tgz:158883.got - 2010.06.27 13:26:56.
