data_PCOD8029915
_publ_section_title
;
Structure prediction by ZEFSAII (Michael W. Deem and Ramdas Pophale) SiO2 
 PCOD8029915
Probable space group: P -1
;
_chemical_formula_sum "Si O2"
_cell_formula_units_Z 14
_cell_length_a 10.059769
_cell_length_b 9.227824
_cell_length_c 12.137123
_cell_angle_alpha 126.022026
_cell_angle_beta 108.117387
_cell_angle_gamma 43.064656
_cell_volume 607.685739
_symmetry_space_group_name_H-M "P -1"
_symmetry_group_IT_number 2
_symmetry_cell_setting 'triclinic'
loop_
_space_group_symop_operation_xyz
x,y,z
-x,-y,-z
loop_
_atom_site_type_symbol
_atom_site_label
_atom_site_fract_x
_atom_site_fract_y
_atom_site_fract_z
Si Si1 0.076950 0.717448 0.778527
Si Si2 0.516036 0.201997 0.610079
Si Si3 0.962761 0.214974 0.950232
Si Si4 0.367963 0.958226 0.904673
Si Si5 0.203137 0.286723 0.394461
Si Si6 0.566760 0.492421 0.892117
Si Si7 0.496536 0.290392 0.406377
O O1 0.270986 0.440812 0.650975
O O2 0.864122 0.807552 0.750210
O O3 0.050831 0.938277 0.819225
O O4 0.122499 0.695088 0.908637
O O5 0.609606 0.275383 0.737728
O O6 0.605018 0.136996 0.479993
O O7 0.608609 0.939416 0.576642
O O8 0.770173 0.423560 0.917055
O O9 0.131039 0.211553 0.968339
O O10 0.403569 0.755836 0.902922
O O11 0.398859 0.886686 0.752607
O O12 0.500000 0.000000 0.000000
O O13 0.274729 0.400959 0.400294
O O14 0.000000 0.500000 0.500000
O O15 0.500000 0.500000 0.000000
O O16 0.500000 0.500000 0.500000
#
# Coordination Sequence:
#
# PCOD8029915 Si02
#       7
#     2   2   2   2   2   2   2
#     4  11  21  40  72 107 139 178 249 304 352 425
#     4  12  24  46  75 107 142 192 251 307 364 433
#     4  11  22  41  71 104 142 192 239 295 366 441
#     4  12  28  48  68 106 158 194 240 308 379 441
#     4  12  27  45  75 107 137 192 259 300 357 448
#     4  12  23  43  76 107 141 193 251 300 359 441
#     4  12  26  49  72 104 158 193 234 313 382 436
#
# _framework density 23.038222999999999
#
# number of rings (size 3 to 8) (size 9 to 14) (size 15 to 20)
#    0.000    0.286    7.143    2.143    2.000    0.571 
#    2.571    1.429    0.000    0.000    0.000    0.000 
#    0.000    0.000    0.000    0.000    0.000    0.000 
#
# Total GULP energy -173519.543911 kJ/mol
# GULP energy per Si atom -12394.253137 kJ/mol
# Density = 2.298579 g / cm^3
# Si number density = 23.038223 Si / 1000 Ang^3
#
#
#
# Elastic Constant Matrix: (Units=GPa)
#
#
# Indices 1 2 3 4 5 6 
#
# 1 141.3439 34.7323 22.3492 -16.8659 9.7288 -19.0190
# 2 34.7323 91.1964 30.0422 -15.0961 0.3094 -16.0562
# 3 22.3492 30.0422 119.6245 -22.0671 -7.2987 9.1743
# 4 -16.8659 -15.0961 -22.0671 36.1278 -2.1313 6.2863
# 5 9.7288 0.3094 -7.2987 -2.1313 40.9487 -3.3926
# 6 -19.0190 -16.0562 9.1743 6.2863 -3.3926 48.6336
#
#
#
# Elastic Compliance Matrix: (Units=1/GPa)
#
#
# Indices 1 2 3 4 5 6 
#
# 1 0.008437 -0.002144 -0.000982 0.001915 -0.001865 0.002399
# 2 -0.002144 0.013836 -0.002935 0.002310 0.000334 0.004008
# 3 -0.000982 -0.002935 0.010769 0.005711 0.002143 -0.003973
# 4 0.001915 0.002310 0.005711 0.033805 0.001990 -0.003796
# 5 -0.001865 0.000334 0.002143 0.001990 0.025388 0.000490
# 6 0.002399 0.004008 -0.003973 -0.003796 0.000490 0.024098
#
#
# Mechanical properties :
#
#
# Convention : Reuss Voigt Hill
#
# Bulk Modulus (GPa) = 47.80289 58.49026 53.14657
# Shear Modulus (GPa) = 36.92031 42.81141 39.86586
#
# Velocity S-wave (km/s) = 4.00755 4.31545 4.16435
# Velocity P-wave (km/s) = 6.49680 7.09044 6.80010
#
# Compressibility (1/GPa) = 0.02091924
#
# Stress axis : x y z
#
# Youngs Moduli (GPa) = 118.52835 72.27766 92.85919
#
# Poissons Ratio (x) = 0.15495 0.09122
# Poissons Ratio (y) = 0.25410 0.27254
# Poissons Ratio (z) = 0.11643 0.21213
#
# Static dielectric constant tensor:
#      x y z
#    x 4.424960 -0.364300 1.045190 
#    y -0.364300 4.197910 -0.320200 
#    z 1.045190 -0.320200 4.667120 
# 
# 
# High freq. dielectric constant tensor:
#      x y z
#    x 1.926110 -0.017290 0.028980 
#    y -0.017290 1.891880 -0.013740 
#    z 0.028980 -0.013740 1.932820 
# 
# From -- ./inp_files/383263.got.cif
#   From: 2010.06.25/outbox.cif.g09.slc.cpg/sg2_192_cif.got.tgz:383263.got - 2010.06.27 13:26:56.
