data_PCOD8029637
_publ_section_title
;
Structure prediction by ZEFSAII (Michael W. Deem and Ramdas Pophale) SiO2 
 PCOD8029637
Probable space group: P -1
;
_chemical_formula_sum "Si O2"
_cell_formula_units_Z 14
_cell_length_a 8.936458
_cell_length_b 14.640852
_cell_length_c 16.070445
_cell_angle_alpha 29.111994
_cell_angle_beta 46.684601
_cell_angle_gamma 65.673464
_cell_volume 631.420278
_symmetry_space_group_name_H-M "P -1"
_symmetry_group_IT_number 2
_symmetry_cell_setting 'triclinic'
loop_
_space_group_symop_operation_xyz
x,y,z
-x,-y,-z
loop_
_atom_site_type_symbol
_atom_site_label
_atom_site_fract_x
_atom_site_fract_y
_atom_site_fract_z
Si Si1 0.309579 0.613978 0.350674
Si Si2 0.183372 0.269353 0.911965
Si Si3 0.615554 0.015201 0.703721
Si Si4 0.224283 0.583116 0.788419
Si Si5 0.429759 0.553847 0.171608
Si Si6 0.909558 0.177716 0.627748
Si Si7 0.931813 0.170616 0.916803
O O1 0.393808 0.655662 0.189697
O O2 0.262850 0.797526 0.260140
O O3 0.061173 0.375580 0.640458
O O4 0.534373 0.625061 0.305222
O O5 0.071702 0.026831 0.186869
O O6 0.148561 0.421520 0.868024
O O7 0.029390 0.263239 0.897329
O O8 0.689969 0.169592 0.471014
O O9 0.808000 0.145780 0.599134
O O10 0.595525 0.781788 0.874010
O O11 0.353571 0.955754 0.881125
O O12 0.440484 0.582613 0.755897
O O13 0.000000 0.500000 0.000000
O O14 0.175776 0.398000 0.347320
O O15 0.000000 0.000000 0.000000
#
# Coordination Sequence:
#
# PCOD8029637 Si02
#       7
#     2   2   2   2   2   2   2
#     4  11  21  37  63 100 143 184 221 261 334 412
#     4  11  23  41  65 102 139 180 234 277 330 406
#     4  12  25  44  70  97 139 176 227 285 337 405
#     4  11  26  51  74  95 130 178 235 299 349 390
#     4  11  25  45  66 105 137 180 230 276 333 415
#     4  12  22  41  68  98 147 177 220 274 337 414
#     4  12  23  37  64 103 146 185 222 263 334 415
#
# _framework density 22.172236999999999
#
# number of rings (size 3 to 8) (size 9 to 14) (size 15 to 20)
#    0.000    0.571    4.286    6.429    2.000    0.571 
#    0.000    3.571    0.000    0.000    0.000    0.000 
#    0.000    0.000    0.000    0.000    0.000    0.000 
#
# Total GULP energy -173615.202794 kJ/mol
# GULP energy per Si atom -12401.085914 kJ/mol
# Density = 2.212177 g / cm^3
# Si number density = 22.172237 Si / 1000 Ang^3
#
#
#
# Elastic Constant Matrix: (Units=GPa)
#
#
# Indices 1 2 3 4 5 6 
#
# 1 108.8164 23.7317 41.6220 2.4787 -20.7037 -2.7962
# 2 23.7317 45.8253 33.2179 1.2264 -8.1968 -3.5395
# 3 41.6220 33.2179 153.1613 -12.2307 11.6498 -7.7580
# 4 2.4787 1.2264 -12.2307 30.9429 -4.3293 -5.2458
# 5 -20.7037 -8.1968 11.6498 -4.3293 38.5331 -12.5644
# 6 -2.7962 -3.5395 -7.7580 -5.2458 -12.5644 19.1444
#
#
#
# Elastic Compliance Matrix: (Units=1/GPa)
#
#
# Indices 1 2 3 4 5 6 
#
# 1 0.012980 -0.001922 -0.003511 0.000133 0.009786 0.006576
# 2 -0.001922 0.029957 -0.006326 -0.000538 0.010206 0.009245
# 3 -0.003511 -0.006326 0.009534 0.003311 -0.006025 -0.000866
# 4 0.000133 -0.000538 0.003311 0.037846 0.008907 0.017477
# 5 0.009786 0.010206 -0.006025 0.008907 0.047435 0.034446
# 6 0.006576 0.009245 -0.000866 0.017477 0.034446 0.081949
#
#
# Mechanical properties :
#
#
# Convention : Reuss Voigt Hill
#
# Bulk Modulus (GPa) = 34.53883 56.10513 45.32198
# Shear Modulus (GPa) = 19.77304 31.67285 25.72295
#
# Velocity S-wave (km/s) = 2.98953 3.78364 3.40978
# Velocity P-wave (km/s) = 5.24669 6.66686 5.99895
#
# Compressibility (1/GPa) = 0.02895292
#
# Stress axis : x y z
#
# Youngs Moduli (GPa) = 77.04279 33.38128 104.88812
#
# Poissons Ratio (x) = 0.06416 0.36827
# Poissons Ratio (y) = 0.14807 0.66351
# Poissons Ratio (z) = 0.27050 0.21116
#
# Static dielectric constant tensor:
#      x y z
#    x 8.375510 0.378090 1.001490 
#    y 0.378090 3.809030 -0.243560 
#    z 1.001490 -0.243560 4.385080 
# 
# 
# High freq. dielectric constant tensor:
#      x y z
#    x 1.894180 -0.008600 -0.000910 
#    y -0.008600 1.840470 -0.031550 
#    z -0.000910 -0.031550 1.877840 
# 
# From -- ./inp_files/307505.got.cif
#   From: 2010.06.25/outbox.cif.g09.slc.cpg/sg2_154_cif.got.tgz:307505.got - 2010.06.27 13:26:56.
