data_PCOD8029524
_publ_section_title
;
Structure prediction by ZEFSAII (Michael W. Deem and Ramdas Pophale) SiO2 
 PCOD8029524
Probable space group: P -1
;
_chemical_formula_sum "Si O2"
_cell_formula_units_Z 12
_cell_length_a 12.357080
_cell_length_b 8.951663
_cell_length_c 9.707663
_cell_angle_alpha 119.442247
_cell_angle_beta 46.201303
_cell_angle_gamma 130.422141
_cell_volume 588.256157
_symmetry_space_group_name_H-M "P -1"
_symmetry_group_IT_number 2
_symmetry_cell_setting 'triclinic'
loop_
_space_group_symop_operation_xyz
x,y,z
-x,-y,-z
loop_
_atom_site_type_symbol
_atom_site_label
_atom_site_fract_x
_atom_site_fract_y
_atom_site_fract_z
Si Si1 0.350986 0.362795 0.671271
Si Si2 0.115364 0.065571 0.293274
Si Si3 0.970705 0.644736 0.181936
Si Si4 0.904371 0.056596 0.230385
Si Si5 0.418816 0.475559 0.207362
Si Si6 0.125758 0.572026 0.552265
O O1 0.500000 0.500000 0.500000
O O2 0.195742 0.382903 0.760506
O O3 0.417283 0.443166 0.800979
O O4 0.277169 0.127142 0.641660
O O5 0.302225 0.244810 0.243512
O O6 0.033851 0.142921 0.284366
O O7 0.000000 0.000000 0.500000
O O8 0.121430 0.873065 0.142957
O O9 0.949544 0.592021 0.337296
O O10 0.000000 0.500000 0.000000
O O11 0.859260 0.227300 0.306474
O O12 0.000000 0.000000 0.000000
O O13 0.313261 0.596331 0.362699
O O14 0.500000 0.500000 0.000000
O O15 0.000000 0.500000 0.500000
#
# Coordination Sequence:
#
# PCOD8029524 Si02
#       6
#     2   2   2   2   2   2
#     4  11  23  45  64  93 135 168 210 274 334 371
#     4  11  20  44  67  91 125 177 216 257 325 392
#     4  11  24  42  71  94 126 173 227 262 316 400
#     4  11  23  41  70  95 126 173 222 264 323 394
#     4  12  25  41  66  99 138 169 212 278 333 373
#     4  12  23  42  69  99 128 172 226 267 315 399
#
# _framework density 20.399277000000001
#
# number of rings (size 3 to 8) (size 9 to 14) (size 15 to 20)
#    0.000    0.667    5.000    4.000    2.333    0.667 
#    3.000    0.833    0.000    0.000    0.000    0.000 
#    0.000    0.000    0.000    0.000    0.000    0.000 
#
# Total GULP energy -148665.554380 kJ/mol
# GULP energy per Si atom -12388.796198 kJ/mol
# Density = 2.035285 g / cm^3
# Si number density = 20.399277 Si / 1000 Ang^3
#
#
#
# Elastic Constant Matrix: (Units=GPa)
#
#
# Indices 1 2 3 4 5 6 
#
# 1 131.6366 44.4939 24.2962 10.1928 23.1628 -1.4775
# 2 44.4939 138.9164 33.6228 10.2561 -24.6076 -7.7678
# 3 24.2962 33.6228 98.6964 10.1091 2.5103 -15.8301
# 4 10.1928 10.2561 10.1091 39.1921 -8.2280 -0.9599
# 5 23.1628 -24.6076 2.5103 -8.2280 31.6459 5.4369
# 6 -1.4775 -7.7678 -15.8301 -0.9599 5.4369 35.6193
#
#
#
# Elastic Compliance Matrix: (Units=1/GPa)
#
#
# Indices 1 2 3 4 5 6 
#
# 1 0.013132 -0.006715 0.000251 -0.005140 -0.016458 0.001566
# 2 -0.006715 0.012801 -0.003630 0.002678 0.016109 -0.001487
# 3 0.000251 -0.003630 0.012727 -0.003498 -0.005902 0.005681
# 4 -0.005140 0.002678 -0.003498 0.030006 0.014365 -0.002568
# 5 -0.016458 0.016109 -0.005902 0.014365 0.061896 -0.008853
# 6 0.001566 -0.001487 0.005681 -0.002568 -0.008853 0.031622
#
#
# Mechanical properties :
#
#
# Convention : Reuss Voigt Hill
#
# Bulk Modulus (GPa) = 54.14093 63.78611 58.96352
# Shear Modulus (GPa) = 26.52108 39.08057 32.80083
#
# Velocity S-wave (km/s) = 3.60960 4.38171 4.01426
# Velocity P-wave (km/s) = 6.63103 7.54559 7.10304
#
# Compressibility (1/GPa) = 0.01847032
#
# Stress axis : x y z
#
# Youngs Moduli (GPa) = 76.15182 78.12100 78.57561
#
# Poissons Ratio (x) = 0.52460 -0.01974
# Poissons Ratio (y) = 0.51138 0.28525
# Poissons Ratio (z) = -0.01913 0.28360
#
# Static dielectric constant tensor:
#      x y z
#    x 5.241870 -0.943320 0.353040 
#    y -0.943320 4.168260 0.241030 
#    z 0.353040 0.241030 3.393360 
# 
# 
# High freq. dielectric constant tensor:
#      x y z
#    x 1.805060 -0.004870 0.025240 
#    y -0.004870 1.815680 0.004820 
#    z 0.025240 0.004820 1.791400 
# 
# From -- ./inp_files/146116.got.cif
#   From: 2010.06.25/outbox.cif.g09.slc.cpg/sg2_74_cif.got.tgz:146116.got - 2010.06.27 13:26:56.
