data_PCOD8029172
_publ_section_title
;
Structure prediction by ZEFSAII (Michael W. Deem and Ramdas Pophale) SiO2 
 PCOD8029172
Probable space group: P -1
;
_chemical_formula_sum "Si O2"
_cell_formula_units_Z 16
_cell_length_a 8.447404
_cell_length_b 7.796026
_cell_length_c 19.153895
_cell_angle_alpha 57.920015
_cell_angle_beta 53.521168
_cell_angle_gamma 87.976204
_cell_volume 783.211478
_symmetry_space_group_name_H-M "P -1"
_symmetry_group_IT_number 2
_symmetry_cell_setting 'triclinic'
loop_
_space_group_symop_operation_xyz
x,y,z
-x,-y,-z
loop_
_atom_site_type_symbol
_atom_site_label
_atom_site_fract_x
_atom_site_fract_y
_atom_site_fract_z
Si Si1 0.085448 0.456352 0.739645
Si Si2 0.861088 0.054799 0.800936
Si Si3 0.073465 0.222890 0.572182
Si Si4 0.357200 0.956293 0.352654
Si Si5 0.506571 0.588554 0.400567
Si Si6 0.516830 0.735810 0.873030
Si Si7 0.846137 0.605449 0.879983
Si Si8 0.274612 0.920983 0.535532
O O1 0.296225 0.403513 0.701030
O O2 0.150592 0.653229 0.622433
O O3 0.883705 0.221174 0.823644
O O4 0.031066 0.548697 0.806585
O O5 0.026813 0.225965 0.665780
O O6 0.618939 0.946948 0.854607
O O7 0.935019 0.850764 0.840395
O O8 0.289495 0.433105 0.450047
O O9 0.872565 0.214750 0.580981
O O10 0.107464 0.997824 0.600798
O O11 0.518885 0.835962 0.344624
O O12 0.318148 0.028885 0.424002
O O13 0.470326 0.175464 0.228173
O O14 0.500000 0.500000 0.500000
O O15 0.664247 0.594289 0.872199
O O16 0.269383 0.582860 0.990279
O O17 0.500000 0.000000 0.500000
#
# Coordination Sequence:
#
# PCOD8029172 Si02
#       8
#     2   2   2   2   2   2   2   2
#     4  12  21  34  62  93 115 166 211 243 303 376
#     4   9  18  33  62  91 117 156 205 249 302 360
#     4  11  20  37  56  89 126 162 202 257 305 360
#     4  11  22  37  61  86 123 162 209 256 309 366
#     4  12  22  36  54  88 125 168 204 242 314 371
#     4   8  19  42  61  88 123 161 200 267 310 348
#     4   9  19  39  64  90 124 157 213 257 302 369
#     4  12  22  37  61  89 128 159 202 253 313 387
#
# _framework density 20.428709999999999
#
# number of rings (size 3 to 8) (size 9 to 14) (size 15 to 20)
#    0.750    0.750    5.000    0.750    0.000    1.500 
#    0.000    0.625    0.000    3.000    0.000    0.000 
#    0.000    0.000    0.000    0.000    0.000    0.000 
#
# Total GULP energy -198241.798063 kJ/mol
# GULP energy per Si atom -12390.112379 kJ/mol
# Density = 2.038221 g / cm^3
# Si number density = 20.428710 Si / 1000 Ang^3
#
#
#
# Elastic Constant Matrix: (Units=GPa)
#
#
# Indices 1 2 3 4 5 6 
#
# 1 54.7592 8.5248 30.6574 2.1790 7.5065 -7.8309
# 2 8.5248 89.7384 16.5728 -6.4250 0.8167 -1.9327
# 3 30.6574 16.5728 96.6384 -5.5156 7.0841 6.7502
# 4 2.1790 -6.4250 -5.5156 27.7738 -2.5630 -10.6446
# 5 7.5065 0.8167 7.0841 -2.5630 25.9092 1.8257
# 6 -7.8309 -1.9327 6.7502 -10.6446 1.8257 30.0159
#
#
#
# Elastic Compliance Matrix: (Units=1/GPa)
#
#
# Indices 1 2 3 4 5 6 
#
# 1 0.024829 -0.000737 -0.007968 -0.001089 -0.005676 0.008181
# 2 -0.000737 0.011821 -0.001790 0.003291 0.000507 0.002108
# 3 -0.007968 -0.001790 0.013645 0.000972 -0.000927 -0.004861
# 4 -0.001089 0.003291 0.000972 0.042995 0.003159 0.014765
# 5 -0.005676 0.000507 -0.000927 0.003159 0.040975 -0.002612
# 6 0.008181 0.002108 -0.004861 0.014765 -0.002612 0.042074
#
#
# Mechanical properties :
#
#
# Convention : Reuss Voigt Hill
#
# Bulk Modulus (GPa) = 34.12373 39.18289 36.65331
# Shear Modulus (GPa) = 24.14332 29.09851 26.62092
#
# Velocity S-wave (km/s) = 3.44151 3.77821 3.61378
# Velocity P-wave (km/s) = 5.70369 6.18507 5.94925
#
# Compressibility (1/GPa) = 0.02930512
#
# Stress axis : x y z
#
# Youngs Moduli (GPa) = 40.27602 84.59865 73.28437
#
# Poissons Ratio (x) = 0.06237 0.58391
# Poissons Ratio (y) = 0.02970 0.13116
# Poissons Ratio (z) = 0.32091 0.15141
#
# Static dielectric constant tensor:
#      x y z
#    x 3.433140 -0.131440 -0.105680 
#    y -0.131440 3.651870 -0.102700 
#    z -0.105680 -0.102700 3.605030 
# 
# 
# High freq. dielectric constant tensor:
#      x y z
#    x 1.764910 -0.009510 -0.012090 
#    y -0.009510 1.793940 -0.010600 
#    z -0.012090 -0.010600 1.786960 
# 
# From -- ./inp_files/587307.got.cif
#   From: 2010.06.25/outbox.cif.g09.slc.cpg/sg2_294_cif.got.tgz:587307.got - 2010.06.27 13:26:56.
