data_PCOD8029122
_publ_section_title
;
Structure prediction by ZEFSAII (Michael W. Deem and Ramdas Pophale) SiO2 
 PCOD8029122
Probable space group: P -1
;
_chemical_formula_sum "Si O2"
_cell_formula_units_Z 16
_cell_length_a 15.651622
_cell_length_b 21.288616
_cell_length_c 24.374634
_cell_angle_alpha 163.417890
_cell_angle_beta 19.744875
_cell_angle_gamma 153.219874
_cell_volume 779.371814
_symmetry_space_group_name_H-M "P -1"
_symmetry_group_IT_number 2
_symmetry_cell_setting 'triclinic'
loop_
_space_group_symop_operation_xyz
x,y,z
-x,-y,-z
loop_
_atom_site_type_symbol
_atom_site_label
_atom_site_fract_x
_atom_site_fract_y
_atom_site_fract_z
Si Si1 0.084572 0.546671 0.605895
Si Si2 0.860246 0.135408 0.367356
Si Si3 0.643459 0.629347 0.343976
Si Si4 0.621416 0.135902 0.768688
Si Si5 0.332989 0.156800 0.677054
Si Si6 0.883365 0.466817 0.955566
Si Si7 0.057550 0.156257 0.147325
Si Si8 0.561033 0.713964 0.109380
O O1 0.048180 0.286498 0.412142
O O2 0.353711 0.603805 0.515620
O O3 0.068979 0.605831 0.599211
O O4 0.862465 0.691772 0.894873
O O5 0.574535 0.270364 0.651652
O O6 0.939038 0.078886 0.210139
O O7 0.857809 0.909143 0.214825
O O8 0.714469 0.474426 0.119060
O O9 0.700283 0.874945 0.497191
O O10 0.818677 0.551348 0.224611
O O11 0.604446 0.257129 0.821872
O O12 0.830570 0.248586 0.771554
O O13 0.354275 0.164736 0.985846
O O14 0.177071 0.311322 0.857540
O O15 0.480131 0.933047 0.376272
O O16 0.000000 0.000000 0.000000
O O17 0.500000 0.500000 0.000000
#
# Coordination Sequence:
#
# PCOD8029122 Si02
#       8
#     2   2   2   2   2   2   2   2
#     4  11  21  37  59  93 121 157 206 253 313 369
#     4  11  22  35  61  90 123 161 198 256 316 378
#     4  11  23  42  65  88 125 166 214 266 302 359
#     4  11  22  40  65  93 123 160 210 257 314 370
#     4  11  22  39  59  92 129 162 205 251 312 380
#     4  11  24  42  63  90 124 169 215 256 306 369
#     4  11  20  35  58  92 126 150 193 267 316 362
#     4  11  22  39  63  94 129 165 196 258 320 375
#
# _framework density 20.529353
#
# number of rings (size 3 to 8) (size 9 to 14) (size 15 to 20)
#    0.000    1.000    3.750    5.250    1.750    0.000 
#    0.000    0.625    0.000    1.500    0.000    0.000 
#    0.000    0.000    0.000    0.000    0.000    0.000 
#
# Total GULP energy -198329.547551 kJ/mol
# GULP energy per Si atom -12395.596722 kJ/mol
# Density = 2.048263 g / cm^3
# Si number density = 20.529353 Si / 1000 Ang^3
#
#
#
# Elastic Constant Matrix: (Units=GPa)
#
#
# Indices 1 2 3 4 5 6 
#
# 1 109.4535 63.7065 38.8482 -11.2511 -15.6611 -1.9062
# 2 63.7065 121.7145 38.4496 -1.7088 -6.6158 -4.8907
# 3 38.8482 38.4496 70.0772 -4.6864 -14.8485 3.8564
# 4 -11.2511 -1.7088 -4.6864 30.4113 -0.2759 3.4134
# 5 -15.6611 -6.6158 -14.8485 -0.2759 40.0281 -0.0024
# 6 -1.9062 -4.8907 3.8564 3.4134 -0.0024 37.0504
#
#
#
# Elastic Compliance Matrix: (Units=1/GPa)
#
#
# Indices 1 2 3 4 5 6 
#
# 1 0.015288 -0.006543 -0.003816 0.004745 0.003517 -0.000117
# 2 -0.006543 0.012889 -0.004150 -0.002583 -0.001987 0.002035
# 3 -0.003816 -0.004150 0.020069 0.001832 0.005278 -0.003002
# 4 0.004745 -0.002583 0.001832 0.035193 0.002352 -0.003530
# 5 0.003517 -0.001987 0.005278 0.002352 0.028004 -0.000846
# 6 -0.000117 0.002035 -0.003002 -0.003530 -0.000846 0.027890
#
#
# Mechanical properties :
#
#
# Convention : Reuss Voigt Hill
#
# Bulk Modulus (GPa) = 52.01072 64.80597 58.40834
# Shear Modulus (GPa) = 28.61027 32.18069 30.39548
#
# Velocity S-wave (km/s) = 3.73718 3.96352 3.85201
# Velocity P-wave (km/s) = 6.63414 7.25134 6.94960
#
# Compressibility (1/GPa) = 0.01922681
#
# Stress axis : x y z
#
# Youngs Moduli (GPa) = 65.40954 77.58289 49.82893
#
# Poissons Ratio (x) = 0.50766 0.19015
# Poissons Ratio (y) = 0.42801 0.20681
# Poissons Ratio (z) = 0.24960 0.32200
#
# Static dielectric constant tensor:
#      x y z
#    x 3.765480 -0.120700 0.053960 
#    y -0.120700 4.112120 0.103500 
#    z 0.053960 0.103500 3.596080 
# 
# 
# High freq. dielectric constant tensor:
#      x y z
#    x 1.799610 0.003580 0.014300 
#    y 0.003580 1.813660 0.013100 
#    z 0.014300 0.013100 1.781160 
# 
# From -- ./inp_files/612267.got.cif
#   From: 2010.06.25/outbox.cif.g09.slc.cpg/sg2_307_cif.got.tgz:612267.got - 2010.06.27 13:26:56.
