data_PCOD8029000
_publ_section_title
;
Structure prediction by ZEFSAII (Michael W. Deem and Ramdas Pophale) SiO2 
 PCOD8029000
Probable space group: P -1
;
_chemical_formula_sum "Si O2"
_cell_formula_units_Z 16
_cell_length_a 8.852937
_cell_length_b 9.619485
_cell_length_c 18.894020
_cell_angle_alpha 129.848579
_cell_angle_beta 141.706086
_cell_angle_gamma 69.996744
_cell_volume 720.458055
_symmetry_space_group_name_H-M "P -1"
_symmetry_group_IT_number 2
_symmetry_cell_setting 'triclinic'
loop_
_space_group_symop_operation_xyz
x,y,z
-x,-y,-z
loop_
_atom_site_type_symbol
_atom_site_label
_atom_site_fract_x
_atom_site_fract_y
_atom_site_fract_z
Si Si1 0.401105 0.662589 0.108536
Si Si2 0.845894 0.036119 0.377509
Si Si3 0.989254 0.876673 0.026726
Si Si4 0.901946 0.672638 0.535769
Si Si5 0.134382 0.046625 0.281682
Si Si6 0.377545 0.528431 0.213529
Si Si7 0.278917 0.882190 0.500428
Si Si8 0.006762 0.314533 0.798947
O O1 0.227896 0.799243 0.092709
O O2 0.427661 0.565196 0.160843
O O3 0.679472 0.808522 0.232761
O O4 0.285536 0.485492 0.953153
O O5 0.744626 0.162472 0.438547
O O6 0.859007 0.147289 0.346142
O O7 0.146170 0.049615 0.506732
O O8 0.011431 0.013462 0.147777
O O9 0.720052 0.699113 0.876936
O O10 0.000000 0.000000 0.000000
O O11 0.866102 0.740929 0.624948
O O12 0.632724 0.635386 0.385634
O O13 0.000000 0.500000 0.500000
O O14 0.424486 0.037281 0.387286
O O15 0.978354 0.885736 0.229674
O O16 0.155240 0.613182 0.179918
O O17 0.122640 0.709610 0.334406
#
# Coordination Sequence:
#
# PCOD8029000 Si02
#       8
#     2   2   2   2   2   2   2   2
#     4  11  22  40  69 102 142 172 223 287 339 401
#     4  11  23  40  64 103 141 171 217 293 340 387
#     4  11  24  42  71 102 138 182 229 280 341 412
#     4  12  28  45  67  96 142 187 230 280 347 411
#     4  12  21  45  71  96 131 186 233 275 342 415
#     4  11  21  43  71 101 135 176 228 285 335 409
#     4  11  21  37  70 102 131 165 227 289 338 392
#     4  11  19  37  68 107 124 170 230 277 333 405
#
# _framework density 22.208095
#
# number of rings (size 3 to 8) (size 9 to 14) (size 15 to 20)
#    0.000    0.750    6.250    3.375    1.750    0.500 
#    4.500    1.875    0.000    0.000    0.000    0.000 
#    0.000    0.000    0.000    0.000    0.000    0.000 
#
# Total GULP energy -198222.591250 kJ/mol
# GULP energy per Si atom -12388.911953 kJ/mol
# Density = 2.215755 g / cm^3
# Si number density = 22.208095 Si / 1000 Ang^3
#
#
#
# Elastic Constant Matrix: (Units=GPa)
#
#
# Indices 1 2 3 4 5 6 
#
# 1 72.5180 42.2748 50.2090 21.2537 -3.8972 -0.6721
# 2 42.2748 98.1248 40.7168 17.4538 -2.8535 11.8876
# 3 50.2090 40.7168 143.0371 23.5163 -29.3292 16.2099
# 4 21.2537 17.4538 23.5163 27.6277 -0.7662 -0.8678
# 5 -3.8972 -2.8535 -29.3292 -0.7662 41.1630 5.7202
# 6 -0.6721 11.8876 16.2099 -0.8678 5.7202 35.7082
#
#
#
# Elastic Compliance Matrix: (Units=1/GPa)
#
#
# Indices 1 2 3 4 5 6 
#
# 1 0.025298 -0.007368 -0.006911 -0.008834 -0.004109 0.006510
# 2 -0.007368 0.014762 -0.000296 -0.003546 0.000762 -0.005127
# 3 -0.006911 -0.000296 0.013361 -0.005843 0.009822 -0.007812
# 4 -0.008834 -0.003546 -0.005843 0.050243 -0.005103 0.005705
# 5 -0.004109 0.000762 0.009822 -0.005103 0.032262 -0.010082
# 6 0.006510 -0.005127 -0.007812 0.005705 -0.010082 0.035134
#
#
# Mechanical properties :
#
#
# Convention : Reuss Voigt Hill
#
# Bulk Modulus (GPa) = 41.19873 64.45345 52.82609
# Shear Modulus (GPa) = 24.00377 32.93174 28.46776
#
# Velocity S-wave (km/s) = 3.29121 3.85498 3.58420
# Velocity P-wave (km/s) = 5.74754 6.99286 6.40056
#
# Compressibility (1/GPa) = 0.02427259
#
# Stress axis : x y z
#
# Youngs Moduli (GPa) = 39.52806 67.74009 74.84488
#
# Poissons Ratio (x) = 0.49914 0.51722
# Poissons Ratio (y) = 0.29126 0.02212
# Poissons Ratio (z) = 0.27316 0.02002
#
# Static dielectric constant tensor:
#      x y z
#    x 3.411790 0.631050 -2.339970 
#    y 0.631050 3.432710 1.586310 
#    z -2.339970 1.586310 -2.228690 
# 
# 
# High freq. dielectric constant tensor:
#      x y z
#    x 1.886730 0.005270 -0.007430 
#    y 0.005270 1.829490 0.017760 
#    z -0.007430 0.017760 1.891320 
# 
# From -- ./inp_files/557521.got.cif
#   From: 2010.06.25/outbox.cif.g09.slc.cpg/sg2_279_cif.got.tgz:557521.got - 2010.06.27 13:26:56.
