data_PCOD8029219
_publ_section_title
;
Structure prediction by ZEFSAII (Michael W. Deem and Ramdas Pophale) SiO2 
 PCOD8029219
Probable space group: P -1
;
_chemical_formula_sum "Si O2"
_cell_formula_units_Z 12
_cell_length_a 9.461650
_cell_length_b 20.953786
_cell_length_c 17.191929
_cell_angle_alpha 156.184640
_cell_angle_beta 28.879042
_cell_angle_gamma 151.422642
_cell_volume 610.556997
_symmetry_space_group_name_H-M "P -1"
_symmetry_group_IT_number 2
_symmetry_cell_setting 'triclinic'
loop_
_space_group_symop_operation_xyz
x,y,z
-x,-y,-z
loop_
_atom_site_type_symbol
_atom_site_label
_atom_site_fract_x
_atom_site_fract_y
_atom_site_fract_z
Si Si1 0.062287 0.189348 0.654496
Si Si2 0.186103 0.279687 0.529918
Si Si3 0.304536 0.497706 0.307212
Si Si4 0.326671 0.131071 0.152998
Si Si5 0.805316 0.243085 0.173574
Si Si6 0.387883 0.649718 0.878989
O O1 0.969422 0.183858 0.601236
O O2 0.429626 0.316121 0.634971
O O3 0.000000 0.000000 0.500000
O O4 0.840853 0.255528 0.885067
O O5 0.095405 0.173998 0.374495
O O6 0.547221 0.303677 0.407715
O O7 0.185319 0.469177 0.731447
O O8 0.460623 0.387960 0.158094
O O9 0.000000 0.500000 0.500000
O O10 0.158576 0.391235 0.178598
O O11 0.688897 0.198398 0.089943
O O12 0.337664 0.228745 0.176052
O O13 0.195877 0.928403 0.975062
#
# Coordination Sequence:
#
# PCOD8029219 Si02
#       6
#     2   2   2   2   2   2
#     4  11  23  38  59  85 121 155 192 240 303 343
#     4   9  17  35  58  80 113 152 193 224 283 347
#     4  11  20  38  60  89 118 149 198 248 279 339
#     4   9  19  35  59  87 116 157 192 230 291 354
#     4   9  18  34  59  83 118 146 194 236 283 328
#     4  11  21  34  63  89 114 153 197 241 293 344
#
# _framework density 19.654184999999998
#
# number of rings (size 3 to 8) (size 9 to 14) (size 15 to 20)
#    1.000    1.000    3.333    3.500    0.000    0.667 
#    0.000    0.833    0.000    4.000    0.000    0.000 
#    0.000    0.000    0.000    0.000    0.000    0.000 
#
# Total GULP energy -148658.599946 kJ/mol
# GULP energy per Si atom -12388.216662 kJ/mol
# Density = 1.960945 g / cm^3
# Si number density = 19.654185 Si / 1000 Ang^3
#
#
#
# Elastic Constant Matrix: (Units=GPa)
#
#
# Indices 1 2 3 4 5 6 
#
# 1 35.3063 34.2313 10.5036 5.6041 6.7566 5.5613
# 2 34.2313 109.9239 44.7509 24.7636 7.2005 -6.8776
# 3 10.5036 44.7509 134.0861 18.7696 5.4648 -9.7897
# 4 5.6041 24.7636 18.7696 31.3053 -9.7120 -2.2556
# 5 6.7566 7.2005 5.4648 -9.7120 21.3076 -1.0754
# 6 5.5613 -6.8776 -9.7897 -2.2556 -1.0754 37.1437
#
#
#
# Elastic Compliance Matrix: (Units=1/GPa)
#
#
# Indices 1 2 3 4 5 6 
#
# 1 0.045650 -0.014112 0.001167 -0.001926 -0.011368 -0.009586
# 2 -0.014112 0.017809 -0.002711 -0.011488 -0.005891 0.003828
# 3 0.001167 -0.002711 0.009181 -0.004674 -0.003871 0.001347
# 4 -0.001926 -0.011488 -0.004674 0.053618 0.030184 0.001059
# 5 -0.011368 -0.005891 -0.003871 0.030184 0.067448 0.003377
# 6 -0.009586 0.003828 0.001347 0.001059 0.003377 0.029584
#
#
# Mechanical properties :
#
#
# Convention : Reuss Voigt Hill
#
# Bulk Modulus (GPa) = 24.19641 50.92088 37.55865
# Shear Modulus (GPa) = 18.63046 30.60668 24.61857
#
# Velocity S-wave (km/s) = 3.08216 3.95049 3.54303
# Velocity P-wave (km/s) = 5.00041 6.83909 5.99071
#
# Compressibility (1/GPa) = 0.04132844
#
# Stress axis : x y z
#
# Youngs Moduli (GPa) = 21.90578 56.15252 108.91505
#
# Poissons Ratio (x) = 0.79244 -0.12709
# Poissons Ratio (y) = 0.30914 0.29522
# Poissons Ratio (z) = -0.02556 0.15220
#
# Static dielectric constant tensor:
#      x y z
#    x 3.433500 0.039440 0.162390 
#    y 0.039440 3.417850 0.186660 
#    z 0.162390 0.186660 3.588050 
# 
# 
# High freq. dielectric constant tensor:
#      x y z
#    x 1.739980 -0.011710 0.015790 
#    y -0.011710 1.741140 0.024680 
#    z 0.015790 0.024680 1.773690 
# 
# From -- ./inp_files/263855.got.cif
#   From: 2010.06.25/outbox.cif.g09.slc.cpg/sg2_132_cif.got.tgz:263855.got - 2010.06.27 13:26:56.
