data_PCOD8029068
_publ_section_title
;
Structure prediction by ZEFSAII (Michael W. Deem and Ramdas Pophale) SiO2 
 PCOD8029068
Probable space group: P -1
;
_chemical_formula_sum "Si O2"
_cell_formula_units_Z 16
_cell_length_a 8.840451
_cell_length_b 14.417611
_cell_length_c 11.405520
_cell_angle_alpha 114.130808
_cell_angle_beta 55.551647
_cell_angle_gamma 71.256063
_cell_volume 742.694836
_symmetry_space_group_name_H-M "P -1"
_symmetry_group_IT_number 2
_symmetry_cell_setting 'triclinic'
loop_
_space_group_symop_operation_xyz
x,y,z
-x,-y,-z
loop_
_atom_site_type_symbol
_atom_site_label
_atom_site_fract_x
_atom_site_fract_y
_atom_site_fract_z
Si Si1 0.875734 0.811081 0.034835
Si Si2 0.865543 0.920495 0.859975
Si Si3 0.090478 0.683467 0.457116
Si Si4 0.858386 0.206766 0.721441
Si Si5 0.677104 0.106975 0.345678
Si Si6 0.399684 0.868209 0.344401
Si Si7 0.595481 0.372775 0.165534
Si Si8 0.597808 0.753533 0.700272
O O1 0.683882 0.793770 0.134181
O O2 0.760129 0.955762 0.227448
O O3 0.887288 0.823168 0.896681
O O4 0.177082 0.665889 0.874607
O O5 0.941183 0.842473 0.661227
O O6 0.058793 0.934388 0.818015
O O7 0.568872 0.091348 0.076127
O O8 0.136778 0.692484 0.305438
O O9 0.370816 0.549499 0.331228
O O10 0.910885 0.654798 0.529506
O O11 0.674892 0.199721 0.732174
O O12 0.721171 0.282594 0.943844
O O13 0.164498 0.047018 0.526413
O O14 0.557981 0.180081 0.563460
O O15 0.459445 0.220121 0.399956
O O16 0.459199 0.334514 0.272382
#
# Coordination Sequence:
#
# PCOD8029068 Si02
#       8
#     2   2   2   2   2   2   2   2
#     4  11  22  39  66  99 125 166 208 263 318 365
#     4  11  21  42  67  93 128 157 218 268 307 364
#     4  12  27  42  63  94 131 174 205 255 321 379
#     4  11  24  43  63  94 131 165 211 262 312 371
#     4  11  19  42  66  95 125 157 213 270 310 359
#     4  11  23  39  70  98 122 163 217 267 306 367
#     4  12  25  44  63  92 136 167 206 258 320 383
#     4  11  23  42  69  94 121 169 214 263 311 369
#
# _framework density 21.543168999999999
#
# number of rings (size 3 to 8) (size 9 to 14) (size 15 to 20)
#    0.000    0.750    5.000    3.750    5.250    0.500 
#    0.000    0.625    0.000    0.000    0.000    0.000 
#    0.000    0.000    0.000    0.000    0.000    0.000 
#
# Total GULP energy -198493.540623 kJ/mol
# GULP energy per Si atom -12405.846289 kJ/mol
# Density = 2.149414 g / cm^3
# Si number density = 21.543169 Si / 1000 Ang^3
#
#
#
# Elastic Constant Matrix: (Units=GPa)
#
#
# Indices 1 2 3 4 5 6 
#
# 1 63.1699 14.2397 23.6933 -5.6453 -24.3501 1.9123
# 2 14.2397 98.7585 31.0436 -11.0009 -13.3787 -6.2026
# 3 23.6933 31.0436 50.7107 -11.6605 -27.2507 4.9199
# 4 -5.6453 -11.0009 -11.6605 32.7900 1.3926 -5.0698
# 5 -24.3501 -13.3787 -27.2507 1.3926 37.6750 -7.2678
# 6 1.9123 -6.2026 4.9199 -5.0698 -7.2678 28.4321
#
#
#
# Elastic Compliance Matrix: (Units=1/GPa)
#
#
# Indices 1 2 3 4 5 6 
#
# 1 0.021923 -0.000004 -0.003427 0.002450 0.012110 0.002650
# 2 -0.000004 0.013195 -0.008285 0.002209 -0.000508 0.004577
# 3 -0.003427 -0.008285 0.042239 0.010493 0.024881 -0.000655
# 4 0.002450 0.002209 0.010493 0.036126 0.010073 0.007518
# 5 0.012110 -0.000508 0.024881 0.010073 0.053804 0.010319
# 6 0.002650 0.004577 -0.000655 0.007518 0.010319 0.040083
#
#
# Mechanical properties :
#
#
# Convention : Reuss Voigt Hill
#
# Bulk Modulus (GPa) = 18.54378 38.95469 28.74923
# Shear Modulus (GPa) = 20.09819 29.35692 24.72755
#
# Velocity S-wave (km/s) = 3.05770 3.69548 3.39162
# Velocity P-wave (km/s) = 4.59265 6.02745 5.35829
#
# Compressibility (1/GPa) = 0.05392643
#
# Stress axis : x y z
#
# Youngs Moduli (GPa) = 45.61352 75.78478 23.67456
#
# Poissons Ratio (x) = 0.00031 0.08113
# Poissons Ratio (y) = 0.00018 0.19614
# Poissons Ratio (z) = 0.15630 0.62788
#
# Static dielectric constant tensor:
#      x y z
#    x 3.861660 -0.182160 -0.175860 
#    y -0.182160 3.903090 -0.209490 
#    z -0.175860 -0.209490 3.775460 
# 
# 
# High freq. dielectric constant tensor:
#      x y z
#    x 1.850850 -0.011870 -0.013430 
#    y -0.011870 1.845950 -0.024910 
#    z -0.013430 -0.024910 1.833060 
# 
# From -- ./inp_files/184332.got.cif
#   From: 2010.06.25/outbox.cif.g09.slc.cpg/sg2_93_cif.got.tgz:184332.got - 2010.06.27 13:26:56.
