data_PCOD8029058
_publ_section_title
;
Structure prediction by ZEFSAII (Michael W. Deem and Ramdas Pophale) SiO2 
 PCOD8029058
Probable space group: P -1
;
_chemical_formula_sum "Si O2"
_cell_formula_units_Z 16
_cell_length_a 11.170250
_cell_length_b 8.825815
_cell_length_c 15.141275
_cell_angle_alpha 38.887292
_cell_angle_beta 74.824297
_cell_angle_gamma 55.122381
_cell_volume 718.439749
_symmetry_space_group_name_H-M "P -1"
_symmetry_group_IT_number 2
_symmetry_cell_setting 'triclinic'
loop_
_space_group_symop_operation_xyz
x,y,z
-x,-y,-z
loop_
_atom_site_type_symbol
_atom_site_label
_atom_site_fract_x
_atom_site_fract_y
_atom_site_fract_z
Si Si1 0.729232 0.077789 0.356986
Si Si2 0.723215 0.897328 0.256855
Si Si3 0.930581 0.211478 0.588768
Si Si4 0.429293 0.956099 0.287116
Si Si5 0.216390 0.491413 0.351066
Si Si6 0.917602 0.660832 0.850800
Si Si7 0.503193 0.557942 0.620768
Si Si8 0.023896 0.246774 0.861505
O O1 0.615531 0.366591 0.310240
O O2 0.723052 0.105663 0.239063
O O3 0.681467 0.856813 0.481058
O O4 0.904045 0.928985 0.424020
O O5 0.798400 0.542666 0.423617
O O6 0.541498 0.053155 0.203267
O O7 0.814857 0.902070 0.154580
O O8 0.933983 0.276566 0.662467
O O9 0.891873 0.975221 0.692736
O O10 0.445579 0.839361 0.438115
O O11 0.475631 0.703002 0.321665
O O12 0.253860 0.254228 0.164268
O O13 0.334753 0.575194 0.298571
O O14 0.139718 0.505445 0.267935
O O15 0.033115 0.407808 0.871508
O O16 0.000000 0.500000 0.000000
O O17 0.000000 0.000000 0.000000
#
# Coordination Sequence:
#
# PCOD8029058 Si02
#       8
#     2   2   2   2   2   2   2   2
#     4  11  21  35  68 105 138 168 217 279 343 386
#     4  11  23  42  69 107 135 168 226 290 328 397
#     4  11  20  42  69 100 139 173 221 280 335 393
#     4  11  23  43  64 101 138 175 224 274 339 397
#     4  11  19  41  64 100 140 172 219 275 336 397
#     4  12  28  47  68  94 137 187 225 272 335 410
#     4  11  22  37  67 105 142 173 212 287 339 392
#     4  12  27  45  70  98 134 182 226 273 341 407
#
# _framework density 22.270484
#
# number of rings (size 3 to 8) (size 9 to 14) (size 15 to 20)
#    0.000    0.750    6.250    3.375    3.500    0.500 
#    0.000    2.500    0.000    0.000    0.000    0.000 
#    0.000    0.000    0.000    0.000    0.000    0.000 
#
# Total GULP energy -198252.642696 kJ/mol
# GULP energy per Si atom -12390.790168 kJ/mol
# Density = 2.221980 g / cm^3
# Si number density = 22.270484 Si / 1000 Ang^3
#
#
#
# Elastic Constant Matrix: (Units=GPa)
#
#
# Indices 1 2 3 4 5 6 
#
# 1 110.2354 34.4181 21.9859 17.4950 12.6629 -18.6819
# 2 34.4181 150.6925 29.7754 25.6304 3.0231 -8.6339
# 3 21.9859 29.7754 53.2020 11.1928 -6.5857 -6.2079
# 4 17.4950 25.6304 11.1928 22.9698 5.6107 0.7225
# 5 12.6629 3.0231 -6.5857 5.6107 32.4498 -4.3879
# 6 -18.6819 -8.6339 -6.2079 0.7225 -4.3879 41.5057
#
#
#
# Elastic Compliance Matrix: (Units=1/GPa)
#
#
# Indices 1 2 3 4 5 6 
#
# 1 0.012098 -0.000767 -0.003224 -0.006039 -0.003648 0.004523
# 2 -0.000767 0.008776 -0.002688 -0.008061 0.000502 0.001272
# 3 -0.003224 -0.002688 0.024852 -0.008805 0.008447 0.002753
# 4 -0.006039 -0.008061 -0.008805 0.064330 -0.010881 -0.007982
# 5 -0.003648 0.000502 0.008447 -0.010881 0.036297 0.003752
# 6 0.004523 0.001272 0.002753 -0.007982 0.003752 0.027341
#
#
# Mechanical properties :
#
#
# Convention : Reuss Voigt Hill
#
# Bulk Modulus (GPa) = 30.89382 54.05430 42.47406
# Shear Modulus (GPa) = 25.27281 34.58176 29.92728
#
# Velocity S-wave (km/s) = 3.37235 3.94484 3.66978
# Velocity P-wave (km/s) = 5.39128 6.71368 6.08849
#
# Compressibility (1/GPa) = 0.03236894
#
# Stress axis : x y z
#
# Youngs Moduli (GPa) = 82.65916 113.94365 40.23765
#
# Poissons Ratio (x) = 0.08736 0.12971
# Poissons Ratio (y) = 0.06337 0.10818
# Poissons Ratio (z) = 0.26646 0.30633
#
# Static dielectric constant tensor:
#      x y z
#    x 3.975370 -0.088250 -0.026700 
#    y -0.088250 4.103530 0.065040 
#    z -0.026700 0.065040 3.519980 
# 
# 
# High freq. dielectric constant tensor:
#      x y z
#    x 1.889370 -0.000700 0.002680 
#    y -0.000700 1.891890 0.006010 
#    z 0.002680 0.006010 1.824460 
# 
# From -- ./inp_files/238692.got.cif
#   From: 2010.06.25/outbox.cif.g09.slc.cpg/sg2_120_cif.got.tgz:238692.got - 2010.06.27 13:26:56.
