data_PCOD8029517
_publ_section_title
;
Structure prediction by ZEFSAII (Michael W. Deem and Ramdas Pophale) SiO2 
 PCOD8029517
Probable space group: P -1
;
_chemical_formula_sum "Si O2"
_cell_formula_units_Z 16
_cell_length_a 11.188165
_cell_length_b 6.698748
_cell_length_c 12.983721
_cell_angle_alpha 49.890394
_cell_angle_beta 91.815822
_cell_angle_gamma 93.061806
_cell_volume 743.162868
_symmetry_space_group_name_H-M "P -1"
_symmetry_group_IT_number 2
_symmetry_cell_setting 'triclinic'
loop_
_space_group_symop_operation_xyz
x,y,z
-x,-y,-z
loop_
_atom_site_type_symbol
_atom_site_label
_atom_site_fract_x
_atom_site_fract_y
_atom_site_fract_z
Si Si1 0.291012 0.262095 0.104073
Si Si2 0.852675 0.199737 0.855424
Si Si3 0.774712 0.178856 0.091401
Si Si4 0.603819 0.437379 0.600989
Si Si5 0.261601 0.261813 0.340509
Si Si6 0.165597 0.727516 0.463743
Si Si7 0.052590 0.220706 0.713477
Si Si8 0.504943 0.027224 0.112056
O O1 0.313887 0.267009 0.225263
O O2 0.423667 0.271851 0.055544
O O3 0.215181 0.004543 0.154821
O O4 0.218629 0.514142 0.983413
O O5 0.821753 0.493863 0.726838
O O6 0.994256 0.193152 0.835650
O O7 0.818972 0.127086 0.994253
O O8 0.639678 0.069782 0.140257
O O9 0.861252 0.022262 0.220895
O O10 0.500000 0.500000 0.500000
O O11 0.636286 0.699148 0.581929
O O12 0.717395 0.337003 0.576294
O O13 0.556852 0.224041 0.752549
O O14 0.191467 0.984245 0.449703
O O15 0.132650 0.487798 0.618505
O O16 0.053010 0.789788 0.368945
O O17 0.500000 0.000000 0.000000
#
# Coordination Sequence:
#
# PCOD8029517 Si02
#       8
#     2   2   2   2   2   2   2   2
#     4  11  21  43  69  99 137 177 224 280 343 410
#     4  11  21  44  66  95 138 176 223 286 334 394
#     4  11  25  38  67 103 130 178 228 275 345 398
#     4  12  25  45  70 101 141 172 230 291 337 408
#     4  11  20  43  73  98 127 186 227 264 355 404
#     4  11  24  46  68  91 137 185 223 276 345 402
#     4  11  23  46  65  96 141 175 229 286 324 405
#     4  12  21  44  71  98 141 179 218 288 348 406
#
# _framework density 21.529599000000001
#
# number of rings (size 3 to 8) (size 9 to 14) (size 15 to 20)
#    0.000    0.750    6.250    2.250    0.000    1.500 
#    2.250    1.250    0.000    0.000    0.000    0.000 
#    0.000    0.000    0.000    0.000    0.000    0.000 
#
# Total GULP energy -198338.638775 kJ/mol
# GULP energy per Si atom -12396.164923 kJ/mol
# Density = 2.148060 g / cm^3
# Si number density = 21.529599 Si / 1000 Ang^3
#
#
#
# Elastic Constant Matrix: (Units=GPa)
#
#
# Indices 1 2 3 4 5 6 
#
# 1 152.1010 67.4412 74.9404 -15.1129 -0.8084 -13.4114
# 2 67.4412 160.8040 53.8164 -18.5458 4.4349 3.5101
# 3 74.9404 53.8164 83.9899 -18.6999 5.2736 5.7329
# 4 -15.1129 -18.5458 -18.6999 28.1012 2.6493 -3.6142
# 5 -0.8084 4.4349 5.2736 2.6493 45.3963 -6.3193
# 6 -13.4114 3.5101 5.7329 -3.6142 -6.3193 30.9317
#
#
#
# Elastic Compliance Matrix: (Units=1/GPa)
#
#
# Indices 1 2 3 4 5 6 
#
# 1 0.014553 -0.002316 -0.012623 -0.001201 0.003338 0.009454
# 2 -0.002316 0.008406 -0.002622 0.002466 -0.000892 -0.001366
# 3 -0.012623 -0.002622 0.027936 0.009231 -0.005191 -0.010335
# 4 -0.001201 0.002466 0.009231 0.043283 -0.003609 0.001809
# 5 0.003338 -0.000892 -0.005191 -0.003609 0.023961 0.006984
# 6 0.009454 -0.001366 -0.010335 0.001809 0.006984 0.040137
#
#
# Mechanical properties :
#
#
# Convention : Reuss Voigt Hill
#
# Bulk Modulus (GPa) = 63.39725 87.69898 75.54811
# Shear Modulus (GPa) = 25.16923 34.26564 29.71743
#
# Velocity S-wave (km/s) = 3.42285 3.99376 3.71928
# Velocity P-wave (km/s) = 6.71801 7.87969 7.32192
#
# Compressibility (1/GPa) = 0.01577356
#
# Stress axis : x y z
#
# Youngs Moduli (GPa) = 68.71478 118.95941 35.79629
#
# Poissons Ratio (x) = 0.27548 0.45187
# Poissons Ratio (y) = 0.15913 0.09385
# Poissons Ratio (z) = 0.86741 0.31188
#
# Static dielectric constant tensor:
#      x y z
#    x 4.318740 0.023690 -0.224010 
#    y 0.023690 4.427070 -0.425200 
#    z -0.224010 -0.425200 4.105970 
# 
# 
# High freq. dielectric constant tensor:
#      x y z
#    x 1.855930 -0.006400 -0.009530 
#    y -0.006400 1.845280 -0.011800 
#    z -0.009530 -0.011800 1.840120 
# 
# From -- ./inp_files/409901.got.cif
#   From: 2010.06.25/outbox.cif.g09.slc.cpg/sg2_205_cif.got.tgz:409901.got - 2010.06.27 13:26:56.
