data_PCOD8029610
_publ_section_title
;
Structure prediction by ZEFSAII (Michael W. Deem and Ramdas Pophale) SiO2 
 PCOD8029610
Probable space group: P -1
;
_chemical_formula_sum "Si O2"
_cell_formula_units_Z 16
_cell_length_a 10.471371
_cell_length_b 25.308261
_cell_length_c 9.339630
_cell_angle_alpha 45.081412
_cell_angle_beta 28.374546
_cell_angle_gamma 43.841482
_cell_volume 795.304177
_symmetry_space_group_name_H-M "P -1"
_symmetry_group_IT_number 2
_symmetry_cell_setting 'triclinic'
loop_
_space_group_symop_operation_xyz
x,y,z
-x,-y,-z
loop_
_atom_site_type_symbol
_atom_site_label
_atom_site_fract_x
_atom_site_fract_y
_atom_site_fract_z
Si Si1 0.869302 0.047494 0.401499
Si Si2 0.035937 0.935761 0.206698
Si Si3 0.616410 0.850786 0.706152
Si Si4 0.771938 0.474303 0.683893
Si Si5 0.288756 0.141008 0.723452
Si Si6 0.715728 0.534020 0.301370
Si Si7 0.424650 0.313635 0.003737
Si Si8 0.043064 0.685557 0.333803
O O1 0.554456 0.104704 0.636185
O O2 0.871581 0.977367 0.427119
O O3 0.054378 0.098537 0.057798
O O4 0.000000 0.000000 0.500000
O O5 0.911746 0.864062 0.431509
O O6 0.372068 0.899351 0.960410
O O7 0.000000 0.000000 0.000000
O O8 0.563913 0.877793 0.541215
O O9 0.622114 0.761644 0.881410
O O10 0.732578 0.515636 0.488486
O O11 0.000000 0.500000 0.500000
O O12 0.840120 0.380461 0.775486
O O13 0.500000 0.500000 0.000000
O O14 0.140226 0.233648 0.714525
O O15 0.500000 0.500000 0.500000
O O16 0.595622 0.627274 0.220481
O O17 0.000000 0.500000 0.000000
O O18 0.713838 0.297758 0.839220
O O19 0.163218 0.348559 0.301983
#
# Coordination Sequence:
#
# PCOD8029610 Si02
#       8
#     2   2   2   2   2   2   2   2
#     4  12  25  40  60  90 125 167 210 252 314 389
#     4  12  21  38  61  90 122 154 206 261 320 363
#     4  11  21  36  63  95 119 157 208 271 318 362
#     4  12  25  42  65 101 136 175 220 269 333 398
#     4  11  21  40  63  90 120 162 216 258 312 384
#     4  12  22  42  68  97 130 171 224 271 326 386
#     4  11  21  39  65  97 126 161 220 274 320 377
#     4  11  22  40  67  93 126 168 215 269 320 391
#
# _framework density 20.118088
#
# number of rings (size 3 to 8) (size 9 to 14) (size 15 to 20)
#    0.000    0.500    5.000    6.000    0.000    0.000 
#    0.000    3.750    0.000    0.000    0.000    0.000 
#    0.000    0.000    0.000    0.000    0.000    0.000 
#
# Total GULP energy -198319.396589 kJ/mol
# GULP energy per Si atom -12394.962287 kJ/mol
# Density = 2.007230 g / cm^3
# Si number density = 20.118088 Si / 1000 Ang^3
#
#
#
# Elastic Constant Matrix: (Units=GPa)
#
#
# Indices 1 2 3 4 5 6 
#
# 1 118.1794 60.5011 45.5576 -6.3438 -4.0507 -2.6670
# 2 60.5011 146.7540 55.3316 -4.6733 -0.3168 4.4268
# 3 45.5576 55.3316 118.3497 3.1257 -19.3339 -0.2756
# 4 -6.3438 -4.6733 3.1257 44.7736 2.4654 -3.0960
# 5 -4.0507 -0.3168 -19.3339 2.4654 35.8384 1.1385
# 6 -2.6670 4.4268 -0.2756 -3.0960 1.1385 25.3224
#
#
#
# Elastic Compliance Matrix: (Units=1/GPa)
#
#
# Indices 1 2 3 4 5 6 
#
# 1 0.011572 -0.003717 -0.002824 0.001614 -0.000425 0.002054
# 2 -0.003717 0.009748 -0.003512 0.000723 -0.002217 -0.001946
# 3 -0.002824 -0.003512 0.012278 -0.001982 0.006413 -0.000080
# 4 0.001614 0.000723 -0.001982 0.023123 -0.002566 0.002964
# 5 -0.000425 -0.002217 0.006413 -0.002566 0.031513 -0.001318
# 6 0.002054 -0.001946 -0.000080 0.002964 -0.001318 0.040468
#
#
# Mechanical properties :
#
#
# Convention : Reuss Voigt Hill
#
# Bulk Modulus (GPa) = 74.12138 78.45153 76.28645
# Shear Modulus (GPa) = 32.61448 35.97974 34.29711
#
# Velocity S-wave (km/s) = 4.03072 4.23357 4.13339
# Velocity P-wave (km/s) = 7.65411 7.93585 7.79625
#
# Compressibility (1/GPa) = 0.01349138
#
# Stress axis : x y z
#
# Youngs Moduli (GPa) = 86.41700 102.58684 81.44511
#
# Poissons Ratio (x) = 0.38136 0.22997
# Poissons Ratio (y) = 0.32125 0.28604
# Poissons Ratio (z) = 0.24401 0.36030
#
# Static dielectric constant tensor:
#      x y z
#    x 3.447480 -0.186510 -0.074070 
#    y -0.186510 3.969780 0.165190 
#    z -0.074070 0.165190 4.113820 
# 
# 
# High freq. dielectric constant tensor:
#      x y z
#    x 1.757090 -0.004400 -0.017090 
#    y -0.004400 1.799190 -0.000670 
#    z -0.017090 -0.000670 1.807460 
# 
# From -- ./inp_files/226053.got.cif
#   From: 2010.06.25/outbox.cif.g09.slc.cpg/sg2_114_cif.got.tgz:226053.got - 2010.06.27 13:26:56.
