data_PCOD8029651
_publ_section_title
;
Structure prediction by ZEFSAII (Michael W. Deem and Ramdas Pophale) SiO2 
 PCOD8029651
Probable space group: P -1
;
_chemical_formula_sum "Si O2"
_cell_formula_units_Z 16
_cell_length_a 12.034693
_cell_length_b 6.549478
_cell_length_c 14.308929
_cell_angle_alpha 118.224099
_cell_angle_beta 131.832305
_cell_angle_gamma 80.331798
_cell_volume 721.518674
_symmetry_space_group_name_H-M "P -1"
_symmetry_group_IT_number 2
_symmetry_cell_setting 'triclinic'
loop_
_space_group_symop_operation_xyz
x,y,z
-x,-y,-z
loop_
_atom_site_type_symbol
_atom_site_label
_atom_site_fract_x
_atom_site_fract_y
_atom_site_fract_z
Si Si1 0.675930 0.137271 0.635779
Si Si2 0.387133 0.805921 0.776700
Si Si3 0.926020 0.144740 0.633375
Si Si4 0.814678 0.534416 0.048954
Si Si5 0.400239 0.684992 0.962822
Si Si6 0.639110 0.635035 0.801077
Si Si7 0.839719 0.051127 0.890302
Si Si8 0.052018 0.737914 0.526847
O O1 0.757131 0.124131 0.577910
O O2 0.671973 0.410446 0.715344
O O3 0.772460 0.015441 0.738541
O O4 0.500000 0.000000 0.500000
O O5 0.458227 0.634687 0.709628
O O6 0.230741 0.863300 0.665539
O O7 0.511649 0.050626 0.905707
O O8 0.348336 0.670787 0.823706
O O9 0.047456 0.241338 0.803910
O O10 0.964187 0.324508 0.605982
O O11 0.943615 0.898692 0.543311
O O12 0.748692 0.398116 0.076025
O O13 0.696478 0.637867 0.941621
O O14 0.871888 0.334234 0.980497
O O15 0.500000 0.500000 0.000000
O O16 0.714863 0.882187 0.847389
O O17 0.000000 0.000000 0.000000
O O18 0.000000 0.500000 0.500000
#
# Coordination Sequence:
#
# PCOD8029651 Si02
#       8
#     2   2   2   2   2   2   2   2
#     4  11  28  47  70 100 138 186 224 281 342 398
#     4  11  24  39  65 102 134 169 230 270 340 406
#     4  11  26  47  67  97 138 175 230 276 331 412
#     4  11  22  42  68  99 135 172 220 277 344 388
#     4  11  21  37  64  99 132 173 208 279 338 392
#     4  11  24  42  68 103 133 173 222 283 332 412
#     4  11  24  44  70 100 132 176 226 277 340 400
#     4  11  27  45  68  97 133 185 221 280 334 401
#
# _framework density 22.175450000000001
#
# number of rings (size 3 to 8) (size 9 to 14) (size 15 to 20)
#    0.000    1.000    2.500    3.000    5.250    7.500 
#    0.000    0.000    0.000    0.000    0.000    0.000 
#    0.000    0.000    0.000    0.000    0.000    0.000 
#
# Total GULP energy -198285.872691 kJ/mol
# GULP energy per Si atom -12392.867043 kJ/mol
# Density = 2.212498 g / cm^3
# Si number density = 22.175450 Si / 1000 Ang^3
#
#
#
# Elastic Constant Matrix: (Units=GPa)
#
#
# Indices 1 2 3 4 5 6 
#
# 1 154.5217 36.9162 38.0850 -2.3761 -2.9315 2.5101
# 2 36.9162 92.7407 12.3529 -10.8302 -9.5509 11.5667
# 3 38.0850 12.3529 81.1162 -6.4281 1.6894 0.9058
# 4 -2.3761 -10.8302 -6.4281 28.9363 0.2547 7.0725
# 5 -2.9315 -9.5509 1.6894 0.2547 31.0556 -2.3000
# 6 2.5101 11.5667 0.9058 7.0725 -2.3000 39.4264
#
#
#
# Elastic Compliance Matrix: (Units=1/GPa)
#
#
# Indices 1 2 3 4 5 6 
#
# 1 0.007992 -0.002964 -0.003420 -0.001383 0.000091 0.000693
# 2 -0.002964 0.013629 -0.000237 0.005913 0.003531 -0.004659
# 3 -0.003420 -0.000237 0.014238 0.002962 -0.001242 -0.000644
# 4 -0.001383 0.005913 0.002962 0.039452 0.000555 -0.008759
# 5 0.000091 0.003531 -0.001242 0.000555 0.033420 0.000837
# 6 0.000693 -0.004659 -0.000644 -0.008759 0.000837 0.028321
#
#
# Mechanical properties :
#
#
# Convention : Reuss Voigt Hill
#
# Bulk Modulus (GPa) = 44.21514 55.89854 50.05684
# Shear Modulus (GPa) = 31.67892 35.95195 33.81543
#
# Velocity S-wave (km/s) = 3.78373 4.03084 3.90924
# Velocity P-wave (km/s) = 6.25067 6.85023 6.55731
#
# Compressibility (1/GPa) = 0.02261669
#
# Stress axis : x y z
#
# Youngs Moduli (GPa) = 125.12637 73.37051 70.23660
#
# Poissons Ratio (x) = 0.21748 0.24022
# Poissons Ratio (y) = 0.37090 0.01663
# Poissons Ratio (z) = 0.42795 0.01737
#
# Static dielectric constant tensor:
#      x y z
#    x 2.098250 0.389150 -0.253150 
#    y 0.389150 4.125070 -0.216630 
#    z -0.253150 -0.216630 4.118800 
# 
# 
# High freq. dielectric constant tensor:
#      x y z
#    x 1.885930 0.005130 0.001910 
#    y 0.005130 1.885480 -0.006580 
#    z 0.001910 -0.006580 1.861430 
# 
# From -- ./inp_files/511190.got.cif
#   From: 2010.06.25/outbox.cif.g09.slc.cpg/sg2_256_cif.got.tgz:511190.got - 2010.06.27 13:26:56.
