data_PCOD8029992
_publ_section_title
;
Structure prediction by ZEFSAII (Michael W. Deem and Ramdas Pophale) SiO2 
 PCOD8029992
Probable space group: P -1
;
_chemical_formula_sum "Si O2"
_cell_formula_units_Z 16
_cell_length_a 12.255503
_cell_length_b 14.062997
_cell_length_c 8.865005
_cell_angle_alpha 151.505414
_cell_angle_beta 101.900577
_cell_angle_gamma 72.294238
_cell_volume 688.086151
_symmetry_space_group_name_H-M "P -1"
_symmetry_group_IT_number 2
_symmetry_cell_setting 'triclinic'
loop_
_space_group_symop_operation_xyz
x,y,z
-x,-y,-z
loop_
_atom_site_type_symbol
_atom_site_label
_atom_site_fract_x
_atom_site_fract_y
_atom_site_fract_z
Si Si1 0.616784 0.889886 0.673213
Si Si2 0.417960 0.783124 0.131363
Si Si3 0.347831 0.468548 0.050911
Si Si4 0.809090 0.346264 0.097955
Si Si5 0.206696 0.231027 0.188268
Si Si6 0.005068 0.040515 0.882159
Si Si7 0.899153 0.390170 0.849015
Si Si8 0.377206 0.917609 0.622987
O O1 0.717924 0.886694 0.814787
O O2 0.490182 0.925112 0.763971
O O3 0.617800 0.086391 0.845980
O O4 0.639008 0.669978 0.288809
O O5 0.416793 0.937031 0.487217
O O6 0.546591 0.624011 0.932658
O O7 0.322545 0.660600 0.971711
O O8 0.218017 0.483112 0.095920
O O9 0.343990 0.704204 0.339091
O O10 0.804805 0.527200 0.470072
O O11 0.869309 0.383418 0.009380
O O12 0.880360 0.135602 0.904293
O O13 0.078401 0.206427 0.115961
O O14 0.271963 0.118505 0.901749
O O15 0.064125 0.836927 0.523512
O O16 0.000000 0.000000 0.000000
O O17 0.000000 0.500000 0.000000
#
# Coordination Sequence:
#
# PCOD8029992 Si02
#       8
#     2   2   2   2   2   2   2   2
#     4  11  23  41  68 101 142 177 226 281 338 415
#     4  11  23  43  70 104 136 175 231 284 335 412
#     4  11  21  44  71 101 133 177 229 277 342 402
#     4  12  25  48  71 100 137 187 229 281 341 412
#     4  12  23  44  65  98 137 184 223 278 344 404
#     4  12  27  48  68 102 138 178 231 288 342 404
#     4  12  26  47  76  98 135 184 235 281 338 413
#     4  11  21  41  68  99 135 178 223 279 345 398
#
# _framework density 23.252901999999999
#
# number of rings (size 3 to 8) (size 9 to 14) (size 15 to 20)
#    0.000    0.500    3.750    6.375    1.750    0.000 
#    6.750    1.250    0.000    0.000    0.000    0.000 
#    0.000    0.000    0.000    0.000    0.000    0.000 
#
# Total GULP energy -198338.924410 kJ/mol
# GULP energy per Si atom -12396.182776 kJ/mol
# Density = 2.319998 g / cm^3
# Si number density = 23.252902 Si / 1000 Ang^3
#
#
#
# Elastic Constant Matrix: (Units=GPa)
#
#
# Indices 1 2 3 4 5 6 
#
# 1 156.9489 35.1733 28.9685 10.1878 -5.3160 -19.9039
# 2 35.1733 81.3817 9.2654 9.9949 -12.0649 -15.3994
# 3 28.9685 9.2654 105.7191 10.3938 -12.6752 -2.3174
# 4 10.1878 9.9949 10.3938 18.7245 -11.6815 -1.0415
# 5 -5.3160 -12.0649 -12.6752 -11.6815 36.8575 4.4145
# 6 -19.9039 -15.3994 -2.3174 -1.0415 4.4145 37.2409
#
#
#
# Elastic Compliance Matrix: (Units=1/GPa)
#
#
# Indices 1 2 3 4 5 6 
#
# 1 0.007769 -0.002457 -0.001761 -0.002715 -0.001525 0.003131
# 2 -0.002457 0.015180 0.000246 -0.005057 0.002553 0.004535
# 3 -0.001761 0.000246 0.010545 -0.003567 0.002390 -0.000566
# 4 -0.002715 -0.005057 -0.003567 0.071795 0.019975 -0.004124
# 5 -0.001525 0.002553 0.002390 0.019975 0.035287 -0.003235
# 6 0.003131 0.004535 -0.000566 -0.004124 -0.003235 0.030634
#
#
# Mechanical properties :
#
#
# Convention : Reuss Voigt Hill
#
# Bulk Modulus (GPa) = 39.14130 54.54046 46.84088
# Shear Modulus (GPa) = 26.64251 36.60740 31.62496
#
# Velocity S-wave (km/s) = 3.38860 3.97207 3.69188
# Velocity P-wave (km/s) = 5.67270 6.67403 6.19363
#
# Compressibility (1/GPa) = 0.02554846
#
# Stress axis : x y z
#
# Youngs Moduli (GPa) = 128.71861 65.87823 94.83371
#
# Poissons Ratio (x) = 0.16189 0.16697
# Poissons Ratio (y) = 0.31631 -0.02330
# Poissons Ratio (z) = 0.22663 -0.01618
#
# Static dielectric constant tensor:
#      x y z
#    x 4.622380 -0.374920 -0.095780 
#    y -0.374920 4.017020 -0.003610 
#    z -0.095780 -0.003610 4.259520 
# 
# 
# High freq. dielectric constant tensor:
#      x y z
#    x 1.940300 -0.019470 0.002160 
#    y -0.019470 1.902470 0.009240 
#    z 0.002160 0.009240 1.923880 
# 
# From -- ./inp_files/271325.got.cif
#   From: 2010.06.25/outbox.cif.g09.slc.cpg/sg2_136_cif.got.tgz:271325.got - 2010.06.27 13:26:56.
