data_PCOD8029825
_publ_section_title
;
Structure prediction by ZEFSAII (Michael W. Deem and Ramdas Pophale) SiO2 
 PCOD8029825
Probable space group: P -1
;
_chemical_formula_sum "Si O2"
_cell_formula_units_Z 16
_cell_length_a 14.130377
_cell_length_b 12.497438
_cell_length_c 13.647532
_cell_angle_alpha 66.903995
_cell_angle_beta 134.662104
_cell_angle_gamma 148.301135
_cell_volume 751.886382
_symmetry_space_group_name_H-M "P -1"
_symmetry_group_IT_number 2
_symmetry_cell_setting 'triclinic'
loop_
_space_group_symop_operation_xyz
x,y,z
-x,-y,-z
loop_
_atom_site_type_symbol
_atom_site_label
_atom_site_fract_x
_atom_site_fract_y
_atom_site_fract_z
Si Si1 0.196702 0.360815 0.401893
Si Si2 0.916772 0.150915 0.680768
Si Si3 0.383437 0.039294 0.913662
Si Si4 0.216820 0.219565 0.277623
Si Si5 0.302300 0.677010 0.421862
Si Si6 0.799828 0.455367 0.387934
Si Si7 0.777785 0.045024 0.952758
Si Si8 0.924732 0.590110 0.119402
O O1 0.197978 0.271424 0.347583
O O2 0.451989 0.522334 0.604844
O O3 0.270220 0.552867 0.358639
O O4 0.873017 0.123643 0.288869
O O5 0.058551 0.317020 0.629194
O O6 0.085048 0.311760 0.845055
O O7 0.900383 0.000039 0.712672
O O8 0.607122 0.969133 0.531111
O O9 0.260129 0.946705 0.966420
O O10 0.500000 0.000000 0.000000
O O11 0.613124 0.314386 0.962115
O O12 0.017084 0.128966 0.086277
O O13 0.267854 0.582461 0.533853
O O14 0.062216 0.586973 0.275095
O O15 0.000000 0.500000 0.500000
O O16 0.512968 0.221774 0.204491
O O17 0.893422 0.242558 0.904155
#
# Coordination Sequence:
#
# PCOD8029825 Si02
#       8
#     2   2   2   2   2   2   2   2
#     4   9  20  44  65  85 129 172 204 264 313 366
#     4  11  22  39  64  93 125 171 207 261 318 370
#     4  11  22  42  64  95 132 161 211 271 315 379
#     4   9  22  44  65  88 131 174 217 254 306 385
#     4  11  21  40  64  95 131 160 207 268 319 381
#     4  12  22  38  64  98 130 159 209 265 333 373
#     4  11  24  41  63  96 129 170 213 259 317 382
#     4  12  22  39  65  99 129 165 210 261 333 370
#
# _framework density 21.279810999999999
#
# number of rings (size 3 to 8) (size 9 to 14) (size 15 to 20)
#    0.000    1.250    5.000    1.125    0.000    1.500 
#    0.000    5.000    0.000    0.000    0.000    0.000 
#    0.000    0.000    0.000    0.000    0.000    0.000 
#
# Total GULP energy -198231.569021 kJ/mol
# GULP energy per Si atom -12389.473064 kJ/mol
# Density = 2.123138 g / cm^3
# Si number density = 21.279811 Si / 1000 Ang^3
#
#
#
# Elastic Constant Matrix: (Units=GPa)
#
#
# Indices 1 2 3 4 5 6 
#
# 1 80.4290 44.4945 33.7073 1.5877 9.7264 -12.1186
# 2 44.4945 124.9490 51.9453 24.7894 -6.1773 6.2398
# 3 33.7073 51.9453 156.0832 28.4119 30.7585 -5.6671
# 4 1.5877 24.7894 28.4119 39.0325 6.9229 -1.5110
# 5 9.7264 -6.1773 30.7585 6.9229 28.9688 0.7145
# 6 -12.1186 6.2398 -5.6671 -1.5110 0.7145 43.4565
#
#
#
# Elastic Compliance Matrix: (Units=1/GPa)
#
#
# Indices 1 2 3 4 5 6 
#
# 1 0.019905 -0.009342 -0.000228 0.007413 -0.010385 0.007291
# 2 -0.009342 0.016031 -0.004585 -0.009138 0.013756 -0.006049
# 3 -0.000228 -0.004585 0.010913 -0.002836 -0.011862 0.002114
# 4 0.007413 -0.009138 -0.002836 0.035117 -0.009926 0.004394
# 5 -0.010385 0.013756 -0.011862 -0.009926 0.056097 -0.007686
# 6 0.007291 -0.006049 0.002114 0.004394 -0.007686 0.026468
#
#
# Mechanical properties :
#
#
# Convention : Reuss Voigt Hill
#
# Bulk Modulus (GPa) = 53.93858 69.08394 61.51126
# Shear Modulus (GPa) = 25.12326 37.71251 31.41789
#
# Velocity S-wave (km/s) = 3.43974 4.21434 3.84659
# Velocity P-wave (km/s) = 6.41701 7.49773 6.97832
#
# Compressibility (1/GPa) = 0.01853961
#
# Stress axis : x y z
#
# Youngs Moduli (GPa) = 50.23917 62.37931 91.63670
#
# Poissons Ratio (x) = 0.58272 0.02089
# Poissons Ratio (y) = 0.46931 0.42014
# Poissons Ratio (z) = 0.01145 0.28600
#
# Static dielectric constant tensor:
#      x y z
#    x 3.915160 -0.098160 0.223550 
#    y -0.098160 3.826820 0.378460 
#    z 0.223550 0.378460 4.511160 
# 
# 
# High freq. dielectric constant tensor:
#      x y z
#    x 1.830140 -0.018600 0.015140 
#    y -0.018600 1.824460 0.029620 
#    z 0.015140 0.029620 1.846860 
# 
# From -- ./inp_files/452213.got.cif
#   From: 2010.06.25/outbox.cif.g09.slc.cpg/sg2_227_cif.got.tgz:452213.got - 2010.06.27 13:26:56.
