data_PCOD8029792
_publ_section_title
;
Structure prediction by ZEFSAII (Michael W. Deem and Ramdas Pophale) SiO2 
 PCOD8029792
Probable space group: P -1
;
_chemical_formula_sum "Si O2"
_cell_formula_units_Z 16
_cell_length_a 9.462682
_cell_length_b 11.360503
_cell_length_c 12.333895
_cell_angle_alpha 129.864924
_cell_angle_beta 48.321334
_cell_angle_gamma 105.972349
_cell_volume 733.252733
_symmetry_space_group_name_H-M "P -1"
_symmetry_group_IT_number 2
_symmetry_cell_setting 'triclinic'
loop_
_space_group_symop_operation_xyz
x,y,z
-x,-y,-z
loop_
_atom_site_type_symbol
_atom_site_label
_atom_site_fract_x
_atom_site_fract_y
_atom_site_fract_z
Si Si1 0.580241 0.150456 0.070411
Si Si2 0.004823 0.027948 0.886673
Si Si3 0.673989 0.840247 0.307438
Si Si4 0.201442 0.387183 0.470410
Si Si5 0.151949 0.196253 0.574260
Si Si6 0.116363 0.677332 0.553617
Si Si7 0.746246 0.133278 0.757713
Si Si8 0.433643 0.643295 0.201459
O O1 0.430731 0.292157 0.294585
O O2 0.610191 0.218426 0.975855
O O3 0.500000 0.000000 0.000000
O O4 0.783919 0.100825 0.002283
O O5 0.109071 0.859209 0.680922
O O6 0.143999 0.138506 0.845137
O O7 0.000000 0.000000 0.000000
O O8 0.729259 0.782488 0.367590
O O9 0.612514 0.692504 0.196971
O O10 0.500000 0.000000 0.500000
O O11 0.114407 0.355239 0.613098
O O12 0.165378 0.576981 0.582189
O O13 0.093098 0.327595 0.390284
O O14 0.958680 0.153503 0.690070
O O15 0.261313 0.050775 0.353719
O O16 0.289613 0.597768 0.335108
O O17 0.683419 0.203328 0.713924
O O18 0.500000 0.500000 0.000000
#
# Coordination Sequence:
#
# PCOD8029792 Si02
#       8
#     2   2   2   2   2   2   2   2
#     4  12  23  40  66 108 141 185 244 293 343 437
#     4  12  27  45  70 107 146 186 241 302 359 423
#     4  12  25  45  74 102 139 186 241 302 355 420
#     4  11  24  40  74 101 145 191 231 292 361 425
#     4  11  21  41  68 102 131 186 235 288 351 416
#     4  11  23  47  68 107 146 186 241 294 359 429
#     4  11  21  39  69  97 137 178 238 289 342 415
#     4  12  26  45  74 104 139 186 239 294 364 427
#
# _framework density 21.820578999999999
#
# number of rings (size 3 to 8) (size 9 to 14) (size 15 to 20)
#    0.000    0.500    7.500    0.750    3.500    2.000 
#    0.000    4.375    0.000    0.000    0.000    0.000 
#    0.000    0.000    0.000    0.000    0.000    0.000 
#
# Total GULP energy -198407.141558 kJ/mol
# GULP energy per Si atom -12400.446347 kJ/mol
# Density = 2.177091 g / cm^3
# Si number density = 21.820579 Si / 1000 Ang^3
#
#
#
# Elastic Constant Matrix: (Units=GPa)
#
#
# Indices 1 2 3 4 5 6 
#
# 1 142.2747 50.4763 34.8725 -2.8022 1.1241 -1.6168
# 2 50.4763 103.0599 25.2355 -6.8277 1.9417 -12.9980
# 3 34.8725 25.2355 82.9560 -4.4633 -1.2194 9.5490
# 4 -2.8022 -6.8277 -4.4633 28.4467 -4.9106 5.1627
# 5 1.1241 1.9417 -1.2194 -4.9106 31.9161 -5.1588
# 6 -1.6168 -12.9980 9.5490 5.1627 -5.1588 42.0521
#
#
#
# Elastic Compliance Matrix: (Units=1/GPa)
#
#
# Indices 1 2 3 4 5 6 
#
# 1 0.009022 -0.003826 -0.002632 -0.000453 -0.000291 -0.000218
# 2 -0.003826 0.012882 -0.002718 0.001542 0.000177 0.004284
# 3 -0.002632 -0.002718 0.014634 0.002275 0.000442 -0.004489
# 4 -0.000453 0.001542 0.002275 0.037451 0.005120 -0.004027
# 5 -0.000291 0.000177 0.000442 0.005120 0.032673 0.003323
# 6 -0.000218 0.004284 -0.004489 -0.004027 0.003323 0.027017
#
#
# Mechanical properties :
#
#
# Convention : Reuss Voigt Hill
#
# Bulk Modulus (GPa) = 54.99124 61.05102 58.02113
# Shear Modulus (GPa) = 31.62690 34.99674 33.31182
#
# Velocity S-wave (km/s) = 3.81124 4.00914 3.91144
# Velocity P-wave (km/s) = 6.68009 7.03352 6.85908
#
# Compressibility (1/GPa) = 0.01818471
#
# Stress axis : x y z
#
# Youngs Moduli (GPa) = 110.83679 77.62905 68.33611
#
# Poissons Ratio (x) = 0.29704 0.17988
# Poissons Ratio (y) = 0.42411 0.18572
# Poissons Ratio (z) = 0.29175 0.21098
#
# Static dielectric constant tensor:
#      x y z
#    x 4.012090 -0.082030 -0.109730 
#    y -0.082030 4.096590 -0.157320 
#    z -0.109730 -0.157320 3.784030 
# 
# 
# High freq. dielectric constant tensor:
#      x y z
#    x 1.861190 -0.008470 -0.005940 
#    y -0.008470 1.865950 -0.019820 
#    z -0.005940 -0.019820 1.844810 
# 
# From -- ./inp_files/299083.got.cif
#   From: 2010.06.25/outbox.cif.g09.slc.cpg/sg2_150_cif.got.tgz:299083.got - 2010.06.27 13:26:56.
