data_PCOD8029618
_publ_section_title
;
Structure prediction by ZEFSAII (Michael W. Deem and Ramdas Pophale) SiO2 
 PCOD8029618
Probable space group: P -1
;
_chemical_formula_sum "Si O2"
_cell_formula_units_Z 12
_cell_length_a 8.398650
_cell_length_b 11.501588
_cell_length_c 9.619687
_cell_angle_alpha 109.506978
_cell_angle_beta 57.268099
_cell_angle_gamma 76.953114
_cell_volume 632.736069
_symmetry_space_group_name_H-M "P -1"
_symmetry_group_IT_number 2
_symmetry_cell_setting 'triclinic'
loop_
_space_group_symop_operation_xyz
x,y,z
-x,-y,-z
loop_
_atom_site_type_symbol
_atom_site_label
_atom_site_fract_x
_atom_site_fract_y
_atom_site_fract_z
Si Si1 0.326120 0.202560 0.808597
Si Si2 0.029485 0.433851 0.253666
Si Si3 0.203105 0.966481 0.796085
Si Si4 0.814634 0.109104 0.529604
Si Si5 0.028088 0.678235 0.490260
Si Si6 0.326418 0.269827 0.518042
O O1 0.575675 0.149239 0.713012
O O2 0.292064 0.223778 0.668320
O O3 0.271441 0.084022 0.836639
O O4 0.167322 0.350792 0.020871
O O5 0.017715 0.325408 0.325269
O O6 0.782471 0.556844 0.369459
O O7 0.143016 0.515517 0.308233
O O8 0.129074 0.971042 0.675615
O O9 0.414017 0.809873 0.671133
O O10 0.000000 0.000000 0.000000
O O11 0.814406 0.257682 0.577580
O O12 0.000000 0.000000 0.500000
O O13 0.797654 0.776808 0.554496
#
# Coordination Sequence:
#
# PCOD8029618 Si02
#       6
#     2   2   2   2   2   2
#     4  11  21  37  59  85 114 147 192 232 280 334
#     4   9  20  37  62  83 115 149 185 232 283 331
#     4  11  23  38  58  83 113 152 192 232 278 335
#     4  11  22  38  58  87 115 151 186 235 280 333
#     4   9  19  38  60  81 119 145 188 226 286 331
#     4   9  19  39  58  82 113 149 185 231 281 328
#
# _framework density 18.965254000000002
#
# number of rings (size 3 to 8) (size 9 to 14) (size 15 to 20)
#    1.000    1.000    0.000    5.500    0.000    2.000 
#    0.000   12.500    0.000    0.000    0.000    0.000 
#    0.000    0.000    0.000    0.000    0.000    0.000 
#
# Total GULP energy -148746.531901 kJ/mol
# GULP energy per Si atom -12395.544325 kJ/mol
# Density = 1.892209 g / cm^3
# Si number density = 18.965254 Si / 1000 Ang^3
#
#
#
# Elastic Constant Matrix: (Units=GPa)
#
#
# Indices 1 2 3 4 5 6 
#
# 1 109.7736 57.5441 56.8344 -4.7294 -20.7432 -6.1052
# 2 57.5441 102.5762 54.6607 -5.3413 -18.9792 4.0849
# 3 56.8344 54.6607 140.4551 9.3979 -25.6537 -5.0683
# 4 -4.7294 -5.3413 9.3979 28.1280 3.6527 -3.0611
# 5 -20.7432 -18.9792 -25.6537 3.6527 23.9932 -1.1516
# 6 -6.1052 4.0849 -5.0683 -3.0611 -1.1516 41.3536
#
#
#
# Elastic Compliance Matrix: (Units=1/GPa)
#
#
# Indices 1 2 3 4 5 6 
#
# 1 0.014847 -0.005904 -0.002839 0.001975 0.004961 0.002712
# 2 -0.005904 0.015684 -0.003387 0.002424 0.003188 -0.002568
# 3 -0.002839 -0.003387 0.011504 -0.005897 0.008118 0.001115
# 4 0.001975 0.002424 -0.005897 0.039654 -0.008620 0.002025
# 5 0.004961 0.003188 0.008118 -0.008620 0.058597 0.002406
# 6 0.002712 -0.002568 0.001115 0.002025 0.002406 0.025189
#
#
# Mechanical properties :
#
#
# Convention : Reuss Voigt Hill
#
# Bulk Modulus (GPa) = 56.25491 76.76479 66.50985
# Shear Modulus (GPa) = 25.55437 30.94601 28.25019
#
# Velocity S-wave (km/s) = 3.67472 4.04384 3.86369
# Velocity P-wave (km/s) = 6.90878 7.89734 7.41954
#
# Compressibility (1/GPa) = 0.01777623
#
# Stress axis : x y z
#
# Youngs Moduli (GPa) = 67.35166 63.75769 86.92563
#
# Poissons Ratio (x) = 0.37642 0.24674
# Poissons Ratio (y) = 0.39764 0.29445
# Poissons Ratio (z) = 0.19118 0.21597
#
# Static dielectric constant tensor:
#      x y z
#    x 3.471800 -0.030490 0.075010 
#    y -0.030490 3.440140 0.037220 
#    z 0.075010 0.037220 3.382600 
# 
# 
# High freq. dielectric constant tensor:
#      x y z
#    x 1.734640 -0.004310 0.011060 
#    y -0.004310 1.739610 -0.001500 
#    z 0.011060 -0.001500 1.726940 
# 
# From -- ./inp_files/148102.got.cif
#   From: 2010.06.25/outbox.cif.g09.slc.cpg/sg2_75_cif.got.tgz:148102.got - 2010.06.27 13:26:56.
