data_PCOD8029634
_publ_section_title
;
Structure prediction by ZEFSAII (Michael W. Deem and Ramdas Pophale) SiO2 
 PCOD8029634
Probable space group: P -1
;
_chemical_formula_sum "Si O2"
_cell_formula_units_Z 12
_cell_length_a 12.265432
_cell_length_b 27.112100
_cell_length_c 9.926907
_cell_angle_alpha 31.508636
_cell_angle_beta 130.597179
_cell_angle_gamma 155.142469
_cell_volume 601.269171
_symmetry_space_group_name_H-M "P -1"
_symmetry_group_IT_number 2
_symmetry_cell_setting 'triclinic'
loop_
_space_group_symop_operation_xyz
x,y,z
-x,-y,-z
loop_
_atom_site_type_symbol
_atom_site_label
_atom_site_fract_x
_atom_site_fract_y
_atom_site_fract_z
Si Si1 0.105799 0.036744 0.220252
Si Si2 0.766564 0.667216 0.934949
Si Si3 0.781480 0.209849 0.071379
Si Si4 0.114169 0.776649 0.581568
Si Si5 0.331623 0.102068 0.979467
Si Si6 0.494208 0.415168 0.801705
O O1 0.344436 0.161942 0.994999
O O2 0.272017 0.200545 0.080353
O O3 0.019164 0.890674 0.566864
O O4 0.782716 0.895084 0.236499
O O5 0.958794 0.679844 0.078820
O O6 0.500000 0.500000 0.000000
O O7 0.625360 0.611260 0.093741
O O8 0.939053 0.296320 0.143590
O O9 0.469597 0.960500 0.392173
O O10 0.669532 0.253525 0.855554
O O11 0.846532 0.580484 0.723581
O O12 0.076785 0.869286 0.337033
O O13 0.500000 0.500000 0.500000
#
# Coordination Sequence:
#
# PCOD8029634 Si02
#       6
#     2   2   2   2   2   2
#     4  11  21  37  62  95 123 155 205 251 298 361
#     4  12  23  40  65  88 122 163 208 244 302 362
#     4   9  17  38  63  87 116 164 203 244 295 364
#     4   9  16  36  63  85 114 160 199 236 305 353
#     4   9  18  36  66  84 120 159 201 240 304 356
#     4  12  23  38  61  95 123 160 198 256 304 358
#
# _framework density 19.957782999999999
#
# number of rings (size 3 to 8) (size 9 to 14) (size 15 to 20)
#    1.000    0.667    5.000    0.500    2.333    0.000 
#    0.000    7.500    0.000    0.000    0.000    0.000 
#    0.000    0.000    0.000    0.000    0.000    0.000 
#
# Total GULP energy -148677.934184 kJ/mol
# GULP energy per Si atom -12389.827849 kJ/mol
# Density = 1.991236 g / cm^3
# Si number density = 19.957783 Si / 1000 Ang^3
#
#
#
# Elastic Constant Matrix: (Units=GPa)
#
#
# Indices 1 2 3 4 5 6 
#
# 1 123.9619 58.5723 18.1399 -4.2937 -1.8790 6.7592
# 2 58.5723 125.4769 25.7661 -3.6799 -8.8341 -2.2578
# 3 18.1399 25.7661 29.2894 -1.7250 0.1430 -3.2761
# 4 -4.2937 -3.6799 -1.7250 24.5176 3.5972 5.8490
# 5 -1.8790 -8.8341 0.1430 3.5972 23.6289 5.2531
# 6 6.7592 -2.2578 -3.2761 5.8490 5.2531 38.3574
#
#
#
# Elastic Compliance Matrix: (Units=1/GPa)
#
#
# Indices 1 2 3 4 5 6 
#
# 1 0.010804 -0.004468 -0.002951 0.001707 -0.000472 -0.002615
# 2 -0.004468 0.011931 -0.007728 -0.000211 0.004118 0.000298
# 3 -0.002951 -0.007728 0.043323 0.001021 -0.004480 0.004223
# 4 0.001707 -0.000211 0.001021 0.043348 -0.005187 -0.006126
# 5 -0.000472 0.004118 -0.004480 -0.005187 0.045873 -0.005549
# 6 -0.002615 0.000298 0.004223 -0.006126 -0.005549 0.028603
#
#
# Mechanical properties :
#
#
# Convention : Reuss Voigt Hill
#
# Bulk Modulus (GPa) = 27.96058 53.74278 40.85168
# Shear Modulus (GPa) = 22.11426 29.05078 25.58252
#
# Velocity S-wave (km/s) = 3.33235 3.81939 3.58415
# Velocity P-wave (km/s) = 5.37088 6.81447 6.13528
#
# Compressibility (1/GPa) = 0.03576463
#
# Stress axis : x y z
#
# Youngs Moduli (GPa) = 92.55536 83.81410 23.08267
#
# Poissons Ratio (x) = 0.37446 0.06811
# Poissons Ratio (y) = 0.41351 0.17839
# Poissons Ratio (z) = 0.27312 0.64773
#
# Static dielectric constant tensor:
#      x y z
#    x 3.688950 0.105590 0.071500 
#    y 0.105590 3.751660 0.022280 
#    z 0.071500 0.022280 3.327640 
# 
# 
# High freq. dielectric constant tensor:
#      x y z
#    x 1.768800 0.014390 0.004020 
#    y 0.014390 1.779260 0.001940 
#    z 0.004020 0.001940 1.751910 
# 
# From -- ./inp_files/266309.got.cif
#   From: 2010.06.25/outbox.cif.g09.slc.cpg/sg2_134_cif.got.tgz:266309.got - 2010.06.27 13:26:56.
