data_PCOD8029198
_publ_section_title
;
Structure prediction by ZEFSAII (Michael W. Deem and Ramdas Pophale) SiO2 
 PCOD8029198
Probable space group: P -1
;
_chemical_formula_sum "Si O2"
_cell_formula_units_Z 14
_cell_length_a 7.516797
_cell_length_b 16.336639
_cell_length_c 9.776094
_cell_angle_alpha 30.827549
_cell_angle_beta 79.260716
_cell_angle_gamma 80.922389
_cell_volume 604.420340
_symmetry_space_group_name_H-M "P -1"
_symmetry_group_IT_number 2
_symmetry_cell_setting 'triclinic'
loop_
_space_group_symop_operation_xyz
x,y,z
-x,-y,-z
loop_
_atom_site_type_symbol
_atom_site_label
_atom_site_fract_x
_atom_site_fract_y
_atom_site_fract_z
Si Si1 0.133430 0.315368 0.222259
Si Si2 0.687104 0.087983 0.657892
Si Si3 0.018156 0.861903 0.959899
Si Si4 0.619066 0.961920 0.406600
Si Si5 0.896587 0.244230 0.613359
Si Si6 0.684051 0.415536 0.055375
Si Si7 0.981678 0.418364 0.826532
O O1 0.024400 0.224581 0.489847
O O2 0.325879 0.224554 0.321453
O O3 0.166762 0.504344 0.977187
O O4 0.036573 0.298072 0.115016
O O5 0.703879 0.172326 0.685825
O O6 0.689631 0.226954 0.343253
O O7 0.492945 0.006356 0.765825
O O8 0.844666 0.959993 0.794295
O O9 0.028344 0.865691 0.117583
O O10 0.993096 0.676689 0.181669
O O11 0.202462 0.928199 0.773092
O O12 0.500000 0.000000 0.500000
O O13 0.888626 0.425243 0.412383
O O14 0.500000 0.500000 0.000000
O O15 0.767161 0.459721 0.828644
#
# Coordination Sequence:
#
# PCOD8029198 Si02
#       7
#     2   2   2   2   2   2   2
#     4  11  21  40  71  98 126 172 234 268 327 402
#     4  12  23  43  71  96 134 179 218 272 333 394
#     4  12  27  45  66  99 144 173 217 278 342 396
#     4  12  26  40  67 105 135 172 223 278 337 393
#     4  11  23  45  69  98 129 182 226 267 334 402
#     4  11  20  37  66 100 127 167 225 280 318 387
#     4  11  22  43  72  95 129 180 221 277 335 387
#
# _framework density 23.162689
#
# number of rings (size 3 to 8) (size 9 to 14) (size 15 to 20)
#    0.000    0.571    5.714    3.429    0.000    2.286 
#    0.000    0.000    0.000    3.429    0.000    0.000 
#    0.000    0.000    0.000    0.000    0.000    0.000 
#
# Total GULP energy -173467.613604 kJ/mol
# GULP energy per Si atom -12390.543829 kJ/mol
# Density = 2.310997 g / cm^3
# Si number density = 23.162689 Si / 1000 Ang^3
#
#
#
# Elastic Constant Matrix: (Units=GPa)
#
#
# Indices 1 2 3 4 5 6 
#
# 1 113.0623 26.6053 10.5070 -4.1207 20.8014 1.1422
# 2 26.6053 110.7874 12.4763 -11.8944 7.1920 8.3857
# 3 10.5070 12.4763 39.3305 3.9901 11.8058 -9.9064
# 4 -4.1207 -11.8944 3.9901 39.4485 7.4847 0.8064
# 5 20.8014 7.1920 11.8058 7.4847 23.1706 -2.9182
# 6 1.1422 8.3857 -9.9064 0.8064 -2.9182 32.5550
#
#
#
# Elastic Compliance Matrix: (Units=1/GPa)
#
#
# Indices 1 2 3 4 5 6 
#
# 1 0.011301 -0.001683 0.000229 0.002705 -0.010730 -0.000922
# 2 -0.001683 0.010694 -0.003894 0.003826 -0.001579 -0.004117
# 3 0.000229 -0.003894 0.033583 -0.002060 -0.014184 0.009994
# 4 0.002705 0.003826 -0.002060 0.029443 -0.012525 -0.003559
# 5 -0.010730 -0.001579 -0.014184 -0.012525 0.064880 0.002593
# 6 -0.000922 -0.004117 0.009994 -0.003559 0.002593 0.035172
#
#
# Mechanical properties :
#
#
# Convention : Reuss Voigt Hill
#
# Bulk Modulus (GPa) = 22.28030 40.26193 31.27111
# Shear Modulus (GPa) = 23.72695 33.27427 28.50061
#
# Velocity S-wave (km/s) = 3.20404 3.79429 3.51159
# Velocity P-wave (km/s) = 4.82988 6.05107 5.47463
#
# Compressibility (1/GPa) = 0.04488269
#
# Stress axis : x y z
#
# Youngs Moduli (GPa) = 88.48430 93.51163 29.77665
#
# Poissons Ratio (x) = 0.15739 -0.00682
# Poissons Ratio (y) = 0.14893 0.11594
# Poissons Ratio (z) = -0.02025 0.36412
#
# Static dielectric constant tensor:
#      x y z
#    x 4.618340 0.248430 -0.049750 
#    y 0.248430 4.182720 -0.189250 
#    z -0.049750 -0.189250 3.957790 
# 
# 
# High freq. dielectric constant tensor:
#      x y z
#    x 1.917960 0.016640 0.001280 
#    y 0.016640 1.918770 -0.024070 
#    z 0.001280 -0.024070 1.897710 
# 
# From -- ./inp_files/205001.got.cif
#   From: 2010.06.25/outbox.cif.g09.slc.cpg/sg2_103_cif.got.tgz:205001.got - 2010.06.27 13:26:56.
