data_PCOD8029483
_publ_section_title
;
Structure prediction by ZEFSAII (Michael W. Deem and Ramdas Pophale) SiO2 
 PCOD8029483
Probable space group: P -1
;
_chemical_formula_sum "Si O2"
_cell_formula_units_Z 16
_cell_length_a 24.657099
_cell_length_b 11.895604
_cell_length_c 17.676834
_cell_angle_alpha 145.884674
_cell_angle_beta 160.550872
_cell_angle_gamma 34.071040
_cell_volume 936.176752
_symmetry_space_group_name_H-M "P -1"
_symmetry_group_IT_number 2
_symmetry_cell_setting 'triclinic'
loop_
_space_group_symop_operation_xyz
x,y,z
-x,-y,-z
loop_
_atom_site_type_symbol
_atom_site_label
_atom_site_fract_x
_atom_site_fract_y
_atom_site_fract_z
Si Si1 0.556092 0.207285 0.703984
Si Si2 0.453858 0.307909 0.794317
Si Si3 0.532801 0.545660 0.419550
Si Si4 0.078593 0.963223 0.963047
Si Si5 0.541898 0.880097 0.743995
Si Si6 0.246209 0.778584 0.376324
Si Si7 0.237097 0.445688 0.053166
Si Si8 0.085068 0.289078 0.277761
O O1 0.508059 0.298805 0.773874
O O2 0.458885 0.383592 0.616112
O O3 0.500000 0.000000 0.500000
O O4 0.756792 0.164969 0.934644
O O5 0.254308 0.337771 0.556537
O O6 0.555719 0.102118 0.857208
O O7 0.500000 0.500000 0.000000
O O8 0.526118 0.742182 0.573711
O O9 0.697293 0.356557 0.548605
O O10 0.367989 0.458483 0.165647
O O11 0.999216 0.810141 0.821680
O O12 0.941734 0.072987 0.780558
O O13 0.129962 0.131225 0.178484
O O14 0.379704 0.908612 0.601346
O O15 0.708391 0.773977 0.953524
O O16 0.250487 0.625453 0.227574
O O17 0.046401 0.493632 0.797914
#
# Coordination Sequence:
#
# PCOD8029483 Si02
#       8
#     2   2   2   2   2   2   2   2
#     4  12  21  34  54  82 113 138 174 227 274 312
#     4  12  25  38  52  76 115 151 174 212 277 332
#     4   9  15  29  52  85 108 131 169 227 274 303
#     4  10  17  30  57  86 106 133 180 230 260 304
#     4   9  15  31  52  79 108 141 174 213 265 316
#     4   8  15  26  52  85 110 128 171 227 270 302
#     4   8  15  26  54  84 105 130 179 228 257 303
#     4  10  17  32  55  84 107 136 186 219 257 314
#
# _framework density 17.090789000000001
#
# number of rings (size 3 to 8) (size 9 to 14) (size 15 to 20)
#    0.000    2.250    5.000    1.500    0.000    0.000 
#    0.000    3.125    0.000    3.000    0.000    0.000 
#    0.000    0.000    0.000    0.000    0.000    0.000 
#
# Total GULP energy -198322.102842 kJ/mol
# GULP energy per Si atom -12395.131428 kJ/mol
# Density = 1.705189 g / cm^3
# Si number density = 17.090789 Si / 1000 Ang^3
#
#
#
# Elastic Constant Matrix: (Units=GPa)
#
#
# Indices 1 2 3 4 5 6 
#
# 1 86.6999 50.6407 30.5558 -0.1905 -2.9571 20.1723
# 2 50.6407 102.1116 49.4847 -16.7472 -9.0455 31.1975
# 3 30.5558 49.4847 79.6747 -10.3679 -0.9839 3.5725
# 4 -0.1905 -16.7472 -10.3679 31.1073 0.0366 -4.8869
# 5 -2.9571 -9.0455 -0.9839 0.0366 14.0665 -3.9564
# 6 20.1723 31.1975 3.5725 -4.8869 -3.9564 31.6999
#
#
#
# Elastic Compliance Matrix: (Units=1/GPa)
#
#
# Indices 1 2 3 4 5 6 
#
# 1 0.017727 -0.006703 -0.003121 -0.005395 -0.002322 -0.005453
# 2 -0.006703 0.026581 -0.012042 0.007387 0.009707 -0.018187
# 3 -0.003121 -0.012042 0.020968 0.002275 -0.003745 0.011358
# 4 -0.005395 0.007387 0.002275 0.037186 0.004290 0.002174
# 5 -0.002322 0.009707 -0.003745 0.004290 0.077319 0.002658
# 6 -0.005453 -0.018187 0.011358 0.002174 0.002658 0.052302
#
#
# Mechanical properties :
#
#
# Convention : Reuss Voigt Hill
#
# Bulk Modulus (GPa) = 46.41814 58.87205 52.64509
# Shear Modulus (GPa) = 17.66807 24.56176 21.11491
#
# Velocity S-wave (km/s) = 3.21873 3.79507 3.51872
# Velocity P-wave (km/s) = 6.40565 7.32972 6.88321
#
# Compressibility (1/GPa) = 0.02154330
#
# Stress axis : x y z
#
# Youngs Moduli (GPa) = 56.41064 37.62064 47.69250
#
# Poissons Ratio (x) = 0.25217 0.14887
# Poissons Ratio (y) = 0.37813 0.57430
# Poissons Ratio (z) = 0.17608 0.45302
#
# Static dielectric constant tensor:
#      x y z
#    x 4.043710 1.011360 -0.787870 
#    y 1.011360 4.016240 -1.215350 
#    z -0.787870 -1.215350 3.980250 
# 
# 
# High freq. dielectric constant tensor:
#      x y z
#    x 1.637630 0.031650 0.013610 
#    y 0.031650 1.654080 -0.033760 
#    z 0.013610 -0.033760 1.630820 
# 
# From -- ./inp_files/257695.got.cif
#   From: 2010.06.25/outbox.cif.g09.slc.cpg/sg2_129_cif.got.tgz:257695.got - 2010.06.27 13:26:56.
