data_PCOD8029768
_publ_section_title
;
Structure prediction by ZEFSAII (Michael W. Deem and Ramdas Pophale) SiO2 
 PCOD8029768
Probable space group: P -1
;
_chemical_formula_sum "Si O2"
_cell_formula_units_Z 16
_cell_length_a 12.307553
_cell_length_b 14.902518
_cell_length_c 9.059346
_cell_angle_alpha 41.380858
_cell_angle_beta 73.293113
_cell_angle_gamma 50.511394
_cell_volume 786.942393
_symmetry_space_group_name_H-M "P -1"
_symmetry_group_IT_number 2
_symmetry_cell_setting 'triclinic'
loop_
_space_group_symop_operation_xyz
x,y,z
-x,-y,-z
loop_
_atom_site_type_symbol
_atom_site_label
_atom_site_fract_x
_atom_site_fract_y
_atom_site_fract_z
Si Si1 0.640317 0.554011 0.647320
Si Si2 0.880163 0.990819 0.991874
Si Si3 0.075105 0.570814 0.810716
Si Si4 0.896968 0.973364 0.491595
Si Si5 0.068673 0.575861 0.454652
Si Si6 0.357815 0.461959 0.982493
Si Si7 0.691789 0.193424 0.536057
Si Si8 0.677763 0.220793 0.030895
O O1 0.761765 0.548797 0.522067
O O2 0.471459 0.740043 0.440015
O O3 0.663906 0.538432 0.833714
O O4 0.652310 0.394006 0.772837
O O5 0.963956 0.783084 0.186602
O O6 0.733412 0.085543 0.038199
O O7 0.811704 0.110385 0.723472
O O8 0.000000 0.000000 0.000000
O O9 0.074198 0.558711 0.649868
O O10 0.245571 0.451355 0.951812
O O11 0.983410 0.774543 0.645937
O O12 0.000000 0.500000 0.000000
O O13 0.765327 0.034046 0.583041
O O14 0.821271 0.112387 0.215755
O O15 0.000000 0.000000 0.500000
O O16 0.000000 0.500000 0.500000
O O17 0.331473 0.639640 0.733173
O O18 0.526686 0.281212 0.091406
#
# Coordination Sequence:
#
# PCOD8029768 Si02
#       8
#     2   2   2   2   2   2   2   2
#     4  11  22  41  65  98 137 167 209 268 331 379
#     4  12  24  41  65 101 130 169 219 273 321 379
#     4  12  27  45  68  95 128 175 219 265 328 389
#     4  12  21  40  69 100 129 166 224 267 311 388
#     4  12  28  46  65  93 134 175 215 270 327 384
#     4  11  22  41  65  99 134 169 212 266 326 382
#     4  11  23  37  68 102 131 170 211 266 328 380
#     4  11  21  39  66  98 135 166 212 270 323 380
#
# _framework density 20.331855999999998
#
# number of rings (size 3 to 8) (size 9 to 14) (size 15 to 20)
#    0.000    0.500    6.250    3.000    5.250    1.000 
#    0.000    2.500    0.000    0.000    0.000    0.000 
#    0.000    0.000    0.000    0.000    0.000    0.000 
#
# Total GULP energy -198376.476422 kJ/mol
# GULP energy per Si atom -12398.529776 kJ/mol
# Density = 2.028558 g / cm^3
# Si number density = 20.331856 Si / 1000 Ang^3
#
#
#
# Elastic Constant Matrix: (Units=GPa)
#
#
# Indices 1 2 3 4 5 6 
#
# 1 130.1792 53.8999 48.1369 -6.8807 -3.0701 -3.3470
# 2 53.8999 137.3919 42.0004 5.4559 -7.7930 -5.8755
# 3 48.1369 42.0004 88.5299 8.9247 14.9913 -1.5969
# 4 -6.8807 5.4559 8.9247 32.7707 -0.2821 2.2874
# 5 -3.0701 -7.7930 14.9913 -0.2821 34.2799 6.2700
# 6 -3.3470 -5.8755 -1.5969 2.2874 6.2700 36.6037
#
#
#
# Elastic Compliance Matrix: (Units=1/GPa)
#
#
# Indices 1 2 3 4 5 6 
#
# 1 0.011227 -0.002645 -0.005826 0.004442 0.003072 -0.000456
# 2 -0.002645 0.009686 -0.003602 -0.001203 0.003412 0.000646
# 3 -0.005826 -0.003602 0.018448 -0.005853 -0.009774 0.001734
# 4 0.004442 -0.001203 -0.005853 0.033462 0.003458 -0.002726
# 5 0.003072 0.003412 -0.009774 0.003458 0.035607 -0.005913
# 6 -0.000456 0.000646 0.001734 -0.002726 -0.005913 0.028641
#
#
# Mechanical properties :
#
#
# Convention : Reuss Voigt Hill
#
# Bulk Modulus (GPa) = 65.72115 71.57505 68.64810
# Shear Modulus (GPa) = 30.06834 34.86847 32.46840
#
# Velocity S-wave (km/s) = 3.84979 4.14571 4.00049
# Velocity P-wave (km/s) = 7.22188 7.62861 7.42803
#
# Compressibility (1/GPa) = 0.01521580
#
# Stress axis : x y z
#
# Youngs Moduli (GPa) = 89.07422 103.23954 54.20503
#
# Poissons Ratio (x) = 0.27307 0.31578
# Poissons Ratio (y) = 0.23561 0.19525
# Poissons Ratio (z) = 0.51892 0.37187
#
# Static dielectric constant tensor:
#      x y z
#    x 3.780100 0.147530 -0.032090 
#    y 0.147530 7.625190 -2.569410 
#    z -0.032090 -2.569410 6.038720 
# 
# 
# High freq. dielectric constant tensor:
#      x y z
#    x 1.784460 -0.014430 0.029690 
#    y -0.014430 1.823060 0.007170 
#    z 0.029690 0.007170 1.779130 
# 
# From -- ./inp_files/186831.got.cif
#   From: 2010.06.25/outbox.cif.g09.slc.cpg/sg2_94_cif.got.tgz:186831.got - 2010.06.27 13:26:56.
