data_PCOD8029163
_publ_section_title
;
Structure prediction by ZEFSAII (Michael W. Deem and Ramdas Pophale) SiO2 
 PCOD8029163
Probable space group: P -1
;
_chemical_formula_sum "Si O2"
_cell_formula_units_Z 12
_cell_length_a 10.920179
_cell_length_b 11.980154
_cell_length_c 8.928264
_cell_angle_alpha 54.717217
_cell_angle_beta 142.052313
_cell_angle_gamma 131.776820
_cell_volume 532.166446
_symmetry_space_group_name_H-M "P -1"
_symmetry_group_IT_number 2
_symmetry_cell_setting 'triclinic'
loop_
_space_group_symop_operation_xyz
x,y,z
-x,-y,-z
loop_
_atom_site_type_symbol
_atom_site_label
_atom_site_fract_x
_atom_site_fract_y
_atom_site_fract_z
Si Si1 0.382956 0.025455 0.510885
Si Si2 0.721309 0.060944 0.052299
Si Si3 0.152148 0.212510 0.211593
Si Si4 0.379499 0.260688 0.702054
Si Si5 0.132169 0.510805 0.964955
Si Si6 0.947782 0.241202 0.420065
O O1 0.283754 0.146922 0.280094
O O2 0.500000 0.000000 0.500000
O O3 0.187662 0.866160 0.492711
O O4 0.554161 0.095164 0.758185
O O5 0.824191 0.183979 0.185836
O O6 0.927169 0.067894 0.147080
O O7 0.594255 0.896176 0.131459
O O8 0.298763 0.278122 0.447899
O O9 0.093249 0.346351 0.988617
O O10 0.607039 0.401023 0.835691
O O11 0.196614 0.257678 0.647818
O O12 0.047876 0.592041 0.692893
O O13 0.000000 0.500000 0.000000
#
# Coordination Sequence:
#
# PCOD8029163 Si02
#       6
#     2   2   2   2   2   2
#     4  12  25  41  64  91 124 171 214 251 301 369
#     4  11  20  39  68  90 120 161 213 265 302 357
#     4  11  23  37  61  99 125 157 208 258 310 365
#     4  11  20  36  66  95 128 156 201 263 313 363
#     4  12  23  34  61 103 131 153 196 262 326 362
#     4  11  21  39  64  96 124 161 207 256 314 362
#
# _framework density 22.549334999999999
#
# number of rings (size 3 to 8) (size 9 to 14) (size 15 to 20)
#    0.000    0.667    8.333    3.000    0.000    0.667 
#    0.000    0.833    0.000    2.000    0.000    0.000 
#    0.000    0.000    0.000    0.000    0.000    0.000 
#
# Total GULP energy -148739.737871 kJ/mol
# GULP energy per Si atom -12394.978156 kJ/mol
# Density = 2.249801 g / cm^3
# Si number density = 22.549335 Si / 1000 Ang^3
#
#
#
# Elastic Constant Matrix: (Units=GPa)
#
#
# Indices 1 2 3 4 5 6 
#
# 1 149.3206 54.5566 26.5569 -9.7190 30.2981 12.7749
# 2 54.5566 101.6081 23.6207 -24.6809 7.9295 8.5591
# 3 26.5569 23.6207 51.4385 -15.7350 16.8648 -2.1771
# 4 -9.7190 -24.6809 -15.7350 47.9203 -0.6366 22.3628
# 5 30.2981 7.9295 16.8648 -0.6366 23.6097 -1.3258
# 6 12.7749 8.5591 -2.1771 22.3628 -1.3258 35.0747
#
#
#
# Elastic Compliance Matrix: (Units=1/GPa)
#
#
# Indices 1 2 3 4 5 6 
#
# 1 0.011685 -0.004212 0.001512 0.003166 -0.014896 -0.005716
# 2 -0.004212 0.016080 -0.002860 0.010931 0.001811 -0.009468
# 3 0.001512 -0.002860 0.030770 0.011499 -0.022994 -0.006144
# 4 0.003166 0.010931 0.011499 0.046177 -0.016566 -0.033174
# 5 -0.014896 0.001811 -0.022994 -0.016566 0.077799 0.017059
# 6 -0.005716 -0.009468 -0.006144 -0.033174 0.017059 0.054318
#
#
# Mechanical properties :
#
#
# Convention : Reuss Voigt Hill
#
# Bulk Modulus (GPa) = 21.09090 56.87063 38.98076
# Shear Modulus (GPa) = 18.95720 34.49648 26.72684
#
# Velocity S-wave (km/s) = 2.90263 3.91554 3.44650
# Velocity P-wave (km/s) = 4.53951 6.76145 5.75866
#
# Compressibility (1/GPa) = 0.04741382
#
# Stress axis : x y z
#
# Youngs Moduli (GPa) = 85.58236 62.19087 32.49956
#
# Poissons Ratio (x) = 0.26197 -0.04914
# Poissons Ratio (y) = 0.36050 0.09294
# Poissons Ratio (z) = -0.12941 0.17786
#
# Static dielectric constant tensor:
#      x y z
#    x 4.042120 0.297730 0.637270 
#    y 0.297730 4.156780 -0.213160 
#    z 0.637270 -0.213160 4.107490 
# 
# 
# High freq. dielectric constant tensor:
#      x y z
#    x 1.874790 0.026670 0.057820 
#    y 0.026670 1.884460 -0.018800 
#    z 0.057820 -0.018800 1.875070 
# 
# From -- ./inp_files/175631.got.cif
#   From: 2010.06.25/outbox.cif.g09.slc.cpg/sg2_88_cif.got.tgz:175631.got - 2010.06.27 13:26:56.
