data_PCOD8029664
_publ_section_title
;
Structure prediction by ZEFSAII (Michael W. Deem and Ramdas Pophale) SiO2 
 PCOD8029664
Probable space group: P -1
;
_chemical_formula_sum "Si O2"
_cell_formula_units_Z 16
_cell_length_a 12.268226
_cell_length_b 9.414177
_cell_length_c 11.710033
_cell_angle_alpha 134.002084
_cell_angle_beta 53.525739
_cell_angle_gamma 108.799306
_cell_volume 772.604011
_symmetry_space_group_name_H-M "P -1"
_symmetry_group_IT_number 2
_symmetry_cell_setting 'triclinic'
loop_
_space_group_symop_operation_xyz
x,y,z
-x,-y,-z
loop_
_atom_site_type_symbol
_atom_site_label
_atom_site_fract_x
_atom_site_fract_y
_atom_site_fract_z
Si Si1 0.859642 0.937771 0.600458
Si Si2 0.986837 0.729449 0.616617
Si Si3 0.766407 0.932244 0.026681
Si Si4 0.379298 0.867875 0.982766
Si Si5 0.344499 0.086249 0.476883
Si Si6 0.479090 0.401795 0.675926
Si Si7 0.554806 0.699012 0.114007
Si Si8 0.247847 0.864790 0.613570
O O1 0.907932 0.765974 0.566251
O O2 0.785763 0.855323 0.492135
O O3 0.000000 0.000000 0.500000
O O4 0.745393 0.099410 0.827665
O O5 0.000000 0.500000 0.500000
O O6 0.133695 0.799874 0.565270
O O7 0.910687 0.850042 0.835842
O O8 0.691855 0.738033 0.986087
O O9 0.679479 0.088799 0.082861
O O10 0.799040 0.043597 0.183877
O O11 0.448087 0.637981 0.813034
O O12 0.500000 0.000000 0.000000
O O13 0.420406 0.281364 0.541389
O O14 0.443913 0.892781 0.259118
O O15 0.306237 0.035867 0.601825
O O16 0.409491 0.326680 0.790042
O O17 0.642334 0.334605 0.546126
O O18 0.500000 0.500000 0.000000
#
# Coordination Sequence:
#
# PCOD8029664 Si02
#       8
#     2   2   2   2   2   2   2   2
#     4  11  24  46  70  91 135 183 222 274 328 398
#     4  11  27  42  66  97 130 178 222 270 334 398
#     4  11  23  43  64  95 137 171 216 273 342 391
#     4  11  26  43  66 102 140 172 219 282 338 393
#     4  11  21  42  68  99 130 167 226 276 318 394
#     4  11  23  40  70 101 129 173 223 272 331 393
#     4  11  21  37  67  99 130 172 218 271 325 392
#     4  11  22  43  66  95 136 171 219 273 330 396
#
# _framework density 20.709187
#
# number of rings (size 3 to 8) (size 9 to 14) (size 15 to 20)
#    0.000    1.000    3.750    3.375    7.000    2.500 
#    0.000    0.625    0.000    0.000    0.000    0.000 
#    0.000    0.000    0.000    0.000    0.000    0.000 
#
# Total GULP energy -198310.018210 kJ/mol
# GULP energy per Si atom -12394.376138 kJ/mol
# Density = 2.066205 g / cm^3
# Si number density = 20.709187 Si / 1000 Ang^3
#
#
#
# Elastic Constant Matrix: (Units=GPa)
#
#
# Indices 1 2 3 4 5 6 
#
# 1 125.7596 38.9749 42.3438 22.1576 -0.5919 -0.7932
# 2 38.9749 99.7852 54.8673 21.7856 -6.9836 3.5144
# 3 42.3438 54.8673 98.9056 13.3739 -5.9877 -3.8266
# 4 22.1576 21.7856 13.3739 43.6886 0.3912 2.0211
# 5 -0.5919 -6.9836 -5.9877 0.3912 28.6468 -4.4040
# 6 -0.7932 3.5144 -3.8266 2.0211 -4.4040 39.4104
#
#
#
# Elastic Compliance Matrix: (Units=1/GPa)
#
#
# Indices 1 2 3 4 5 6 
#
# 1 0.010049 -0.001594 -0.003000 -0.003384 -0.000740 0.000144
# 2 -0.001594 0.016027 -0.007493 -0.004830 0.002112 -0.001705
# 3 -0.003000 -0.007493 0.015702 0.000329 0.001744 0.002311
# 4 -0.003384 -0.004830 0.000329 0.026983 -0.001729 -0.001182
# 5 -0.000740 0.002112 0.001744 -0.001729 0.036430 0.004126
# 6 0.000144 -0.001705 0.002311 -0.001182 0.004126 0.026275
#
#
# Mechanical properties :
#
#
# Convention : Reuss Voigt Hill
#
# Bulk Modulus (GPa) = 56.80454 66.31360 61.55907
# Shear Modulus (GPa) = 30.95814 34.90012 32.92913
#
# Velocity S-wave (km/s) = 3.87059 4.10963 3.99190
# Velocity P-wave (km/s) = 6.88944 7.38983 7.14402
#
# Compressibility (1/GPa) = 0.01760423
#
# Stress axis : x y z
#
# Youngs Moduli (GPa) = 99.50968 62.39647 63.68441
#
# Poissons Ratio (x) = 0.09944 0.19105
# Poissons Ratio (y) = 0.15859 0.47721
# Poissons Ratio (z) = 0.29852 0.46756
#
# Static dielectric constant tensor:
#      x y z
#    x 4.287400 0.103450 0.017950 
#    y 0.103450 3.857240 -0.214970 
#    z 0.017950 -0.214970 3.824250 
# 
# 
# High freq. dielectric constant tensor:
#      x y z
#    x 1.823980 -0.005530 0.003580 
#    y -0.005530 1.809170 -0.012250 
#    z 0.003580 -0.012250 1.808470 
# 
# From -- ./inp_files/243652.got.cif
#   From: 2010.06.25/outbox.cif.g09.slc.cpg/sg2_122_cif.got.tgz:243652.got - 2010.06.27 13:26:56.
