data_PCOD8029300
_publ_section_title
;
Structure prediction by ZEFSAII (Michael W. Deem and Ramdas Pophale) SiO2 
 PCOD8029300
Probable space group: P -1
;
_chemical_formula_sum "Si O2"
_cell_formula_units_Z 16
_cell_length_a 11.425243
_cell_length_b 13.655278
_cell_length_c 9.778506
_cell_angle_alpha 107.059960
_cell_angle_beta 117.099774
_cell_angle_gamma 124.653964
_cell_volume 733.401157
_symmetry_space_group_name_H-M "P -1"
_symmetry_group_IT_number 2
_symmetry_cell_setting 'triclinic'
loop_
_space_group_symop_operation_xyz
x,y,z
-x,-y,-z
loop_
_atom_site_type_symbol
_atom_site_label
_atom_site_fract_x
_atom_site_fract_y
_atom_site_fract_z
Si Si1 0.249217 0.004373 0.596833
Si Si2 0.736210 0.404113 0.956046
Si Si3 0.056580 0.134785 0.881874
Si Si4 0.982862 0.251245 0.122486
Si Si5 0.953345 0.849360 0.644345
Si Si6 0.190874 0.592707 0.309894
Si Si7 0.489933 0.965279 0.640427
Si Si8 0.448706 0.500647 0.123805
O O1 0.494443 0.221519 0.826402
O O2 0.123302 0.951095 0.367465
O O3 0.300403 0.916567 0.591457
O O4 0.090592 0.936273 0.610728
O O5 0.762827 0.366939 0.809635
O O6 0.741920 0.530441 0.993305
O O7 0.959802 0.506412 0.200538
O O8 0.026882 0.994567 0.834350
O O9 0.013664 0.173287 0.009918
O O10 0.323956 0.325702 0.059941
O O11 0.992024 0.218212 0.269452
O O12 0.180603 0.467039 0.299284
O O13 0.738788 0.148098 0.915660
O O14 0.678855 0.681269 0.400838
O O15 0.413400 0.799389 0.569815
O O16 0.500000 0.000000 0.500000
O O17 0.500000 0.500000 0.000000
#
# Coordination Sequence:
#
# PCOD8029300 Si02
#       8
#     2   2   2   2   2   2   2   2
#     4  12  22  43  71  98 131 172 225 282 329 391
#     4  11  20  39  70  97 127 165 223 284 326 374
#     4  12  23  44  72  96 130 179 231 271 327 400
#     4  12  26  45  67 100 137 179 218 277 340 394
#     4  12  29  44  63 101 143 175 222 272 336 405
#     4  11  22  40  67 101 130 163 227 280 324 391
#     4  12  22  41  73 100 127 173 227 278 330 392
#     4  12  24  41  69  98 132 175 219 276 332 389
#
# _framework density 21.816165000000002
#
# number of rings (size 3 to 8) (size 9 to 14) (size 15 to 20)
#    0.000    0.250    7.500    3.000    0.000    2.000 
#    0.000    0.625    0.000    0.000    0.000    0.000 
#    0.000    0.000    0.000    0.000    0.000    0.000 
#
# Total GULP energy -198378.770562 kJ/mol
# GULP energy per Si atom -12398.673160 kJ/mol
# Density = 2.176651 g / cm^3
# Si number density = 21.816165 Si / 1000 Ang^3
#
#
#
# Elastic Constant Matrix: (Units=GPa)
#
#
# Indices 1 2 3 4 5 6 
#
# 1 81.3110 16.4246 18.2648 6.2597 4.3755 -10.0892
# 2 16.4246 103.4558 38.0842 18.6190 1.4676 -17.1673
# 3 18.2648 38.0842 52.3349 19.5309 -3.8490 -4.0432
# 4 6.2597 18.6190 19.5309 42.2273 -5.4991 -2.5779
# 5 4.3755 1.4676 -3.8490 -5.4991 26.3780 13.2584
# 6 -10.0892 -17.1673 -4.0432 -2.5779 13.2584 36.7096
#
#
#
# Elastic Compliance Matrix: (Units=1/GPa)
#
#
# Indices 1 2 3 4 5 6 
#
# 1 0.014499 0.000934 -0.005574 -0.000448 -0.006429 0.006098
# 2 0.000934 0.015394 -0.010454 -0.002529 -0.007506 0.008838
# 3 -0.005574 -0.010454 0.032004 -0.008773 0.007468 -0.006209
# 4 -0.000448 -0.002529 -0.008773 0.029596 0.006356 -0.002489
# 5 -0.006429 -0.007506 0.007468 0.006356 0.053544 -0.023347
# 6 0.006098 0.008838 -0.006209 -0.002489 -0.023347 0.040623
#
#
# Mechanical properties :
#
#
# Convention : Reuss Voigt Hill
#
# Bulk Modulus (GPa) = 31.53699 42.51656 37.02677
# Shear Modulus (GPa) = 22.08298 32.01817 27.05058
#
# Velocity S-wave (km/s) = 3.18501 3.83513 3.52509
# Velocity P-wave (km/s) = 5.29272 6.25634 5.79460
#
# Compressibility (1/GPa) = 0.03170879
#
# Stress axis : x y z
#
# Youngs Moduli (GPa) = 68.97002 64.96009 31.24610
#
# Poissons Ratio (x) = -0.06066 0.17418
# Poissons Ratio (y) = -0.06441 0.32664
# Poissons Ratio (z) = 0.38446 0.67907
#
# Static dielectric constant tensor:
#      x y z
#    x 4.104000 -0.046080 0.111420 
#    y -0.046080 3.864180 0.404500 
#    z 0.111420 0.404500 3.937600 
# 
# 
# High freq. dielectric constant tensor:
#      x y z
#    x 1.865950 -0.006710 0.000430 
#    y -0.006710 1.850690 0.035540 
#    z 0.000430 0.035540 1.841970 
# 
# From -- ./inp_files/273835.got.cif
#   From: 2010.06.25/outbox.cif.g09.slc.cpg/sg2_137_cif.got.tgz:273835.got - 2010.06.27 13:26:56.
