data_PCOD8029471
_publ_section_title
;
Structure prediction by ZEFSAII (Michael W. Deem and Ramdas Pophale) SiO2 
 PCOD8029471
Probable space group: P -1
;
_chemical_formula_sum "Si O2"
_cell_formula_units_Z 16
_cell_length_a 18.257639
_cell_length_b 20.155446
_cell_length_c 11.524045
_cell_angle_alpha 30.079308
_cell_angle_beta 141.612213
_cell_angle_gamma 159.529321
_cell_volume 734.549910
_symmetry_space_group_name_H-M "P -1"
_symmetry_group_IT_number 2
_symmetry_cell_setting 'triclinic'
loop_
_space_group_symop_operation_xyz
x,y,z
-x,-y,-z
loop_
_atom_site_type_symbol
_atom_site_label
_atom_site_fract_x
_atom_site_fract_y
_atom_site_fract_z
Si Si1 0.436800 0.847578 0.753763
Si Si2 0.019501 0.934253 0.823960
Si Si3 0.878930 0.262187 0.343743
Si Si4 0.866967 0.995899 0.892819
Si Si5 0.344812 0.076805 0.882930
Si Si6 0.398366 0.533088 0.093964
Si Si7 0.257741 0.409669 0.348804
Si Si8 0.890726 0.268543 0.089971
O O1 0.289388 0.792175 0.737541
O O2 0.625912 0.975037 0.880473
O O3 0.500000 0.000000 0.500000
O O4 0.338573 0.631615 0.888406
O O5 0.771330 0.704205 0.834712
O O6 0.111745 0.168848 0.599438
O O7 0.044847 0.882264 0.055756
O O8 0.143279 0.983242 0.796680
O O9 0.816767 0.157306 0.295808
O O10 0.900046 0.153957 0.614151
O O11 0.088770 0.551354 0.162331
O O12 0.622104 0.724615 0.016649
O O13 0.000000 0.000000 0.000000
O O14 0.559991 0.358732 0.692320
O O15 0.290993 0.936413 0.918282
O O16 0.386420 0.464384 0.315552
O O17 0.109589 0.393291 0.145996
#
# Coordination Sequence:
#
# PCOD8029471 Si02
#       8
#     2   2   2   2   2   2   2   2
#     4  11  20  42  71  96 138 177 224 282 331 400
#     4  12  23  41  72 101 135 180 230 279 342 406
#     4  11  23  47  66  96 146 175 221 293 338 395
#     4  12  27  47  66  98 140 182 227 278 344 414
#     4  11  22  39  69 105 131 177 234 270 343 405
#     4  11  23  41  70 101 134 179 226 284 336 398
#     4  11  22  42  66 105 138 172 229 291 332 400
#     4  11  24  42  68 100 136 178 229 284 344 399
#
# _framework density 21.782045
#
# number of rings (size 3 to 8) (size 9 to 14) (size 15 to 20)
#    0.000    0.750    7.500    1.500    0.000    2.000 
#    0.000    3.750    0.000    0.000    0.000    0.000 
#    0.000    0.000    0.000    0.000    0.000    0.000 
#
# Total GULP energy -198258.100282 kJ/mol
# GULP energy per Si atom -12391.131268 kJ/mol
# Density = 2.173247 g / cm^3
# Si number density = 21.782045 Si / 1000 Ang^3
#
#
#
# Elastic Constant Matrix: (Units=GPa)
#
#
# Indices 1 2 3 4 5 6 
#
# 1 113.0865 50.1794 49.7642 -11.8148 -4.8855 -3.0751
# 2 50.1794 123.3750 49.6547 -22.4335 1.8178 -20.9022
# 3 49.7642 49.6547 139.9355 -3.5184 -13.0290 -14.1560
# 4 -11.8148 -22.4335 -3.5184 23.5097 2.6684 3.2473
# 5 -4.8855 1.8178 -13.0290 2.6684 29.7538 5.6392
# 6 -3.0751 -20.9022 -14.1560 3.2473 5.6392 51.1276
#
#
#
# Elastic Compliance Matrix: (Units=1/GPa)
#
#
# Indices 1 2 3 4 5 6 
#
# 1 0.011994 -0.003560 -0.003036 0.002316 0.000997 -0.001832
# 2 -0.003560 0.013603 -0.003292 0.010633 -0.004620 0.004270
# 3 -0.003036 -0.003292 0.009782 -0.003807 0.004144 0.000965
# 4 0.002316 0.010633 -0.003807 0.053956 -0.006921 0.000769
# 5 0.000997 -0.004620 0.004144 -0.006921 0.037316 -0.004358
# 6 -0.001832 0.004270 0.000965 0.000769 -0.004358 0.021893
#
#
# Mechanical properties :
#
#
# Convention : Reuss Voigt Hill
#
# Bulk Modulus (GPa) = 64.09247 75.06597 69.57922
# Shear Modulus (GPa) = 28.81498 35.99816 32.40657
#
# Velocity S-wave (km/s) = 3.64108 4.06969 3.86134
# Velocity P-wave (km/s) = 6.86768 7.52465 7.20366
#
# Compressibility (1/GPa) = 0.01560246
#
# Stress axis : x y z
#
# Youngs Moduli (GPa) = 83.37632 73.51266 102.23162
#
# Poissons Ratio (x) = 0.26171 0.31040
# Poissons Ratio (y) = 0.29682 0.33652
# Poissons Ratio (z) = 0.25315 0.24198
#
# Static dielectric constant tensor:
#      x y z
#    x 3.983210 0.102410 -0.009820 
#    y 0.102410 3.798370 -0.080740 
#    z -0.009820 -0.080740 4.140230 
# 
# 
# High freq. dielectric constant tensor:
#      x y z
#    x 1.859340 0.003670 -0.000840 
#    y 0.003670 1.840320 0.000460 
#    z -0.000840 0.000460 1.863810 
# 
# From -- ./inp_files/467059.got.cif
#   From: 2010.06.25/outbox.cif.g09.slc.cpg/sg2_234_cif.got.tgz:467059.got - 2010.06.27 13:26:56.
