data_PCOD8029764
_publ_section_title
;
Structure prediction by ZEFSAII (Michael W. Deem and Ramdas Pophale) SiO2 
 PCOD8029764
Probable space group: P -1
;
_chemical_formula_sum "Si O2"
_cell_formula_units_Z 16
_cell_length_a 9.485976
_cell_length_b 14.658867
_cell_length_c 11.514740
_cell_angle_alpha 30.443990
_cell_angle_beta 78.173210
_cell_angle_gamma 89.670952
_cell_volume 745.413471
_symmetry_space_group_name_H-M "P -1"
_symmetry_group_IT_number 2
_symmetry_cell_setting 'triclinic'
loop_
_space_group_symop_operation_xyz
x,y,z
-x,-y,-z
loop_
_atom_site_type_symbol
_atom_site_label
_atom_site_fract_x
_atom_site_fract_y
_atom_site_fract_z
Si Si1 0.550845 0.674812 0.631326
Si Si2 0.664453 0.704834 0.821903
Si Si3 0.852248 0.820806 0.297366
Si Si4 0.395905 0.884649 0.250578
Si Si5 0.956160 0.627970 0.776512
Si Si6 0.929428 0.397682 0.453664
Si Si7 0.065316 0.202627 0.926208
Si Si8 0.794991 0.956352 0.733135
O O1 0.572752 0.754624 0.673842
O O2 0.712381 0.676465 0.549821
O O3 0.489963 0.799885 0.417043
O O4 0.442564 0.454314 0.897626
O O5 0.785357 0.620957 0.836352
O O6 0.739976 0.890222 0.684825
O O7 0.816099 0.828003 0.158047
O O8 0.998104 0.747662 0.340060
O O9 0.903747 0.026583 0.128119
O O10 0.252089 0.711082 0.415296
O O11 0.341717 0.028276 0.180574
O O12 0.500000 0.000000 0.000000
O O13 0.972467 0.534942 0.753856
O O14 0.070705 0.843806 0.523300
O O15 0.000000 0.500000 0.000000
O O16 0.955631 0.591572 0.309292
O O17 0.135442 0.190381 0.054663
#
# Coordination Sequence:
#
# PCOD8029764 Si02
#       8
#     2   2   2   2   2   2   2   2
#     4  11  24  43  63  95 137 173 210 280 338 378
#     4  11  23  41  66  90 135 175 216 275 333 385
#     4  11  23  44  66  99 136 167 218 276 326 392
#     4  11  24  43  67  95 138 174 216 276 330 395
#     4  11  21  39  66  93 131 170 221 274 314 393
#     4  11  23  44  67  99 126 176 227 259 332 394
#     4  11  22  40  74  95 131 169 222 275 323 387
#     4  11  22  42  65 100 125 175 230 261 328 400
#
# _framework density 21.464597999999999
#
# number of rings (size 3 to 8) (size 9 to 14) (size 15 to 20)
#    0.000    1.000    3.750    4.500    1.750    2.500 
#    2.250    2.500    0.000    0.000    0.000    0.000 
#    0.000    0.000    0.000    0.000    0.000    0.000 
#
# Total GULP energy -198315.345087 kJ/mol
# GULP energy per Si atom -12394.709068 kJ/mol
# Density = 2.141574 g / cm^3
# Si number density = 21.464598 Si / 1000 Ang^3
#
#
#
# Elastic Constant Matrix: (Units=GPa)
#
#
# Indices 1 2 3 4 5 6 
#
# 1 89.8196 31.1133 46.5443 2.1495 -5.2391 -1.4701
# 2 31.1133 97.9865 32.2319 -4.0525 -10.8486 3.0305
# 3 46.5443 32.2319 111.4609 16.9056 -3.1278 -6.9978
# 4 2.1495 -4.0525 16.9056 41.7371 -5.4036 2.0767
# 5 -5.2391 -10.8486 -3.1278 -5.4036 40.2063 13.1332
# 6 -1.4701 3.0305 -6.9978 2.0767 13.1332 31.4245
#
#
#
# Elastic Compliance Matrix: (Units=1/GPa)
#
#
# Indices 1 2 3 4 5 6 
#
# 1 0.015072 -0.002641 -0.005787 0.001533 0.001329 -0.000986
# 2 -0.002641 0.012951 -0.003323 0.003577 0.004794 -0.004353
# 3 -0.005787 -0.003323 0.013487 -0.006103 -0.002954 0.004691
# 4 0.001533 0.003577 -0.006103 0.027841 0.006446 -0.006166
# 5 0.001329 0.004794 -0.002954 0.006446 0.031801 -0.014775
# 6 -0.000986 -0.004353 0.004691 -0.006166 -0.014775 0.039823
#
#
# Mechanical properties :
#
#
# Convention : Reuss Voigt Hill
#
# Bulk Modulus (GPa) = 55.53662 57.67176 56.60419
# Shear Modulus (GPa) = 29.32902 35.29875 32.31388
#
# Velocity S-wave (km/s) = 3.70048 4.05966 3.88422
# Velocity P-wave (km/s) = 6.64739 6.99293 6.82235
#
# Compressibility (1/GPa) = 0.01800614
#
# Stress axis : x y z
#
# Youngs Moduli (GPa) = 66.34885 77.21619 74.14707
#
# Poissons Ratio (x) = 0.20394 0.42909
# Poissons Ratio (y) = 0.17523 0.24642
# Poissons Ratio (z) = 0.38396 0.25662
#
# Static dielectric constant tensor:
#      x y z
#    x 3.928450 0.070670 0.052760 
#    y 0.070670 3.970650 0.316630 
#    z 0.052760 0.316630 3.853810 
# 
# 
# High freq. dielectric constant tensor:
#      x y z
#    x 1.837500 0.010450 0.003830 
#    y 0.010450 1.847390 0.022860 
#    z 0.003830 0.022860 1.851960 
# 
# From -- ./inp_files/398129.got.cif
#   From: 2010.06.25/outbox.cif.g09.slc.cpg/sg2_200_cif.got.tgz:398129.got - 2010.06.27 13:26:56.
