data_PCOD8029074
_publ_section_title
;
Structure prediction by ZEFSAII (Michael W. Deem and Ramdas Pophale) SiO2 
 PCOD8029074
Probable space group: P -1
;
_chemical_formula_sum "Si O2"
_cell_formula_units_Z 16
_cell_length_a 14.052052
_cell_length_b 14.182054
_cell_length_c 16.338947
_cell_angle_alpha 42.318465
_cell_angle_beta 27.759470
_cell_angle_gamma 32.163767
_cell_volume 806.722112
_symmetry_space_group_name_H-M "P -1"
_symmetry_group_IT_number 2
_symmetry_cell_setting 'triclinic'
loop_
_space_group_symop_operation_xyz
x,y,z
-x,-y,-z
loop_
_atom_site_type_symbol
_atom_site_label
_atom_site_fract_x
_atom_site_fract_y
_atom_site_fract_z
Si Si1 0.691854 0.974481 0.629291
Si Si2 0.421109 0.996708 0.971166
Si Si3 0.152470 0.819909 0.271955
Si Si4 0.161190 0.937731 0.792372
Si Si5 0.491412 0.443316 0.305779
Si Si6 0.267433 0.343093 0.667220
Si Si7 0.013173 0.600727 0.999411
Si Si8 0.727257 0.950156 0.208017
O O1 0.990577 0.871259 0.446398
O O2 0.544127 0.186465 0.598338
O O3 0.551901 0.923403 0.705651
O O4 0.667099 0.925066 0.771876
O O5 0.179306 0.188102 0.000517
O O6 0.348500 0.865340 0.103781
O O7 0.500000 0.000000 0.000000
O O8 0.318943 0.608209 0.268723
O O9 0.947619 0.924503 0.287750
O O10 0.379446 0.739257 0.723187
O O11 0.296422 0.985768 0.722592
O O12 0.924776 0.958427 0.000085
O O13 0.303400 0.466122 0.506386
O O14 0.700860 0.457252 0.178012
O O15 0.173713 0.252765 0.738560
O O16 0.056648 0.453385 0.828989
O O17 0.000000 0.500000 0.000000
#
# Coordination Sequence:
#
# PCOD8029074 Si02
#       8
#     2   2   2   2   2   2   2   2
#     4   9  19  40  62  87 119 166 204 247 312 364
#     4  11  22  41  63  89 123 164 207 262 314 364
#     4  12  23  38  64  92 125 166 204 256 309 367
#     4  11  19  43  67  94 127 163 214 251 315 368
#     4  12  23  38  64  92 125 166 204 256 309 367
#     4   9  19  40  62  87 119 166 204 247 312 364
#     4  11  22  41  63  89 123 164 207 262 314 364
#     4   9  19  39  75  86 123 179 196 257 319 366
#
# _framework density 19.833348999999998
#
# number of rings (size 3 to 8) (size 9 to 14) (size 15 to 20)
#    0.750    0.750    5.000    0.750    0.000    5.000 
#    0.000    5.000    0.000    0.000    0.000    0.000 
#    0.000    0.000    0.000    0.000    0.000    0.000 
#
# Total GULP energy -198346.907365 kJ/mol
# GULP energy per Si atom -12396.681710 kJ/mol
# Density = 1.978821 g / cm^3
# Si number density = 19.833349 Si / 1000 Ang^3
#
#
#
# Elastic Constant Matrix: (Units=GPa)
#
#
# Indices 1 2 3 4 5 6 
#
# 1 88.9552 32.8583 29.4125 -8.2353 26.4101 19.0288
# 2 32.8583 103.8949 38.0954 -15.7577 14.3847 1.3925
# 3 29.4125 38.0954 122.3039 -9.5942 20.0933 10.4925
# 4 -8.2353 -15.7577 -9.5942 15.8146 -1.2910 4.3500
# 5 26.4101 14.3847 20.0933 -1.2910 22.4305 0.8772
# 6 19.0288 1.3925 10.4925 4.3500 0.8772 28.0900
#
#
#
# Elastic Compliance Matrix: (Units=1/GPa)
#
#
# Indices 1 2 3 4 5 6 
#
# 1 0.025534 -0.002289 0.002199 0.015347 -0.028921 -0.019479
# 2 -0.002289 0.013158 -0.002250 0.010227 -0.003149 0.000253
# 3 0.002199 -0.002250 0.011113 0.006497 -0.010484 -0.006208
# 4 0.015347 0.010227 0.006497 0.090704 -0.024186 -0.026621
# 5 -0.028921 -0.003149 -0.010484 -0.024186 0.087688 0.024671
# 6 -0.019479 0.000253 -0.006208 -0.026621 0.024671 0.054453
#
#
# Mechanical properties :
#
#
# Convention : Reuss Voigt Hill
#
# Bulk Modulus (GPa) = 22.16097 57.32069 39.74083
# Shear Modulus (GPa) = 16.53593 27.58621 22.06107
#
# Velocity S-wave (km/s) = 2.89059 3.73352 3.33877
# Velocity P-wave (km/s) = 4.72637 6.89561 5.91135
#
# Compressibility (1/GPa) = 0.04512438
#
# Stress axis : x y z
#
# Youngs Moduli (GPa) = 39.16355 76.00131 89.98386
#
# Poissons Ratio (x) = 0.17395 -0.19785
# Poissons Ratio (y) = 0.08964 0.20247
# Poissons Ratio (z) = -0.08611 0.17101
#
# Static dielectric constant tensor:
#      x y z
#    x 3.595550 0.051530 0.135960 
#    y 0.051530 3.470880 -0.032380 
#    z 0.135960 -0.032380 3.836640 
# 
# 
# High freq. dielectric constant tensor:
#      x y z
#    x 1.754890 0.004360 0.002470 
#    y 0.004360 1.752410 -0.002490 
#    z 0.002470 -0.002490 1.794400 
# 
# From -- ./inp_files/534241.got.cif
#   From: 2010.06.25/outbox.cif.g09.slc.cpg/sg2_268_cif.got.tgz:534241.got - 2010.06.27 13:26:56.
