data_PCOD8029099
_publ_section_title
;
Structure prediction by ZEFSAII (Michael W. Deem and Ramdas Pophale) SiO2 
 PCOD8029099
Probable space group: P -1
;
_chemical_formula_sum "Si O2"
_cell_formula_units_Z 16
_cell_length_a 14.156733
_cell_length_b 8.385927
_cell_length_c 13.574850
_cell_angle_alpha 132.218815
_cell_angle_beta 138.906736
_cell_angle_gamma 66.676466
_cell_volume 763.995230
_symmetry_space_group_name_H-M "P -1"
_symmetry_group_IT_number 2
_symmetry_cell_setting 'triclinic'
loop_
_space_group_symop_operation_xyz
x,y,z
-x,-y,-z
loop_
_atom_site_type_symbol
_atom_site_label
_atom_site_fract_x
_atom_site_fract_y
_atom_site_fract_z
Si Si1 0.836174 0.986955 0.763954
Si Si2 0.752689 0.560868 0.609547
Si Si3 0.097294 0.328398 0.032511
Si Si4 0.793411 0.091252 0.420156
Si Si5 0.464611 0.646649 0.443015
Si Si6 0.871790 0.785686 0.201045
Si Si7 0.321460 0.662557 0.138517
Si Si8 0.386942 0.087078 0.616193
O O1 0.743219 0.117490 0.816349
O O2 0.997865 0.134587 0.936116
O O3 0.877272 0.764823 0.750359
O O4 0.750716 0.926411 0.568990
O O5 0.744122 0.320676 0.456818
O O6 0.613994 0.656599 0.502201
O O7 0.768565 0.545118 0.736786
O O8 0.157870 0.217849 0.940541
O O9 0.000000 0.500000 0.000000
O O10 0.953801 0.161236 0.623991
O O11 0.800010 0.971960 0.271372
O O12 0.679312 0.918619 0.327522
O O13 0.500000 0.500000 0.500000
O O14 0.338074 0.580505 0.231884
O O15 0.458176 0.877764 0.579317
O O16 0.795995 0.544010 0.087196
O O17 0.474849 0.707864 0.215520
#
# Coordination Sequence:
#
# PCOD8029099 Si02
#       8
#     2   2   2   2   2   2   2   2
#     4  11  20  36  62  98 121 155 201 264 303 355
#     4  12  21  37  63  95 124 155 205 256 306 362
#     4  12  21  38  65  94 117 158 213 259 301 352
#     4  11  24  42  65  85 121 173 205 244 306 372
#     4  11  20  33  61  95 125 156 200 252 308 361
#     4  11  24  42  63  87 124 162 212 248 304 364
#     4  11  21  38  62  93 127 155 200 259 306 356
#     4  11  20  38  64  91 124 160 201 249 312 359
#
# _framework density 20.942539
#
# number of rings (size 3 to 8) (size 9 to 14) (size 15 to 20)
#    0.000    0.750    7.500    1.875    0.000    0.500 
#    0.000    1.250    2.750    0.000    0.000    0.000 
#    0.000    0.000    0.000    0.000    0.000    0.000 
#
# Total GULP energy -198214.930688 kJ/mol
# GULP energy per Si atom -12388.433168 kJ/mol
# Density = 2.089487 g / cm^3
# Si number density = 20.942539 Si / 1000 Ang^3
#
#
#
# Elastic Constant Matrix: (Units=GPa)
#
#
# Indices 1 2 3 4 5 6 
#
# 1 104.9362 28.3445 43.8836 12.0481 -10.0764 -5.2415
# 2 28.3445 87.5770 19.9043 10.4785 -17.4865 5.6630
# 3 43.8836 19.9043 70.6908 13.4296 -3.9315 -6.0646
# 4 12.0481 10.4785 13.4296 27.4165 -3.4576 8.4075
# 5 -10.0764 -17.4865 -3.9315 -3.4576 31.7833 7.8782
# 6 -5.2415 5.6630 -6.0646 8.4075 7.8782 30.4705
#
#
#
# Elastic Compliance Matrix: (Units=1/GPa)
#
#
# Indices 1 2 3 4 5 6 
#
# 1 0.013617 -0.002317 -0.007254 -0.001773 0.001604 0.001404
# 2 -0.002317 0.014912 -0.002681 -0.000530 0.008508 -0.005757
# 3 -0.007254 -0.002681 0.021488 -0.008935 -0.003819 0.006980
# 4 -0.001773 -0.000530 -0.008935 0.048055 0.007530 -0.017191
# 5 0.001604 0.008508 -0.003819 0.007530 0.040630 -0.014648
# 6 0.001404 -0.005757 0.006980 -0.017191 -0.014648 0.044050
#
#
# Mechanical properties :
#
#
# Convention : Reuss Voigt Hill
#
# Bulk Modulus (GPa) = 39.19463 49.71875 44.45669
# Shear Modulus (GPa) = 23.17399 29.33883 26.25641
#
# Velocity S-wave (km/s) = 3.33009 3.74695 3.54465
# Velocity P-wave (km/s) = 5.79154 6.52009 6.16659
#
# Compressibility (1/GPa) = 0.02551370
#
# Stress axis : x y z
#
# Youngs Moduli (GPa) = 73.43879 67.06056 46.53709
#
# Poissons Ratio (x) = 0.15536 0.33759
# Poissons Ratio (y) = 0.17013 0.12475
# Poissons Ratio (z) = 0.53275 0.17977
#
# Static dielectric constant tensor:
#      x y z
#    x 4.190760 0.166740 0.351910 
#    y 0.166740 3.619070 0.189730 
#    z 0.351910 0.189730 3.692260 
# 
# 
# High freq. dielectric constant tensor:
#      x y z
#    x 1.825130 0.011120 0.035680 
#    y 0.011120 1.809010 0.001780 
#    z 0.035680 0.001780 1.812580 
# 
# From -- ./inp_files/314224.got.cif
#   From: 2010.06.25/outbox.cif.g09.slc.cpg/sg2_158_cif.got.tgz:314224.got - 2010.06.27 13:26:56.
