data_PCOD8029952
_publ_section_title
;
Structure prediction by ZEFSAII (Michael W. Deem and Ramdas Pophale) SiO2 
 PCOD8029952
Probable space group: P -1
;
_chemical_formula_sum "Si O2"
_cell_formula_units_Z 16
_cell_length_a 10.619726
_cell_length_b 15.266256
_cell_length_c 16.407116
_cell_angle_alpha 149.073261
_cell_angle_beta 144.817226
_cell_angle_gamma 53.938049
_cell_volume 728.680351
_symmetry_space_group_name_H-M "P -1"
_symmetry_group_IT_number 2
_symmetry_cell_setting 'triclinic'
loop_
_space_group_symop_operation_xyz
x,y,z
-x,-y,-z
loop_
_atom_site_type_symbol
_atom_site_label
_atom_site_fract_x
_atom_site_fract_y
_atom_site_fract_z
Si Si1 0.761472 0.980553 0.959357
Si Si2 0.786460 0.658549 0.151900
Si Si3 0.063959 0.295455 0.265718
Si Si4 0.346379 0.072256 0.597514
Si Si5 0.170667 0.661274 0.980341
Si Si6 0.102373 0.148660 0.912715
Si Si7 0.574473 0.538653 0.773162
Si Si8 0.693727 0.205854 0.517379
O O1 0.858195 0.850634 0.856083
O O2 0.482813 0.915205 0.742254
O O3 0.792603 0.957107 0.052920
O O4 0.899442 0.192395 0.173039
O O5 0.663398 0.788594 0.226335
O O6 0.047480 0.782084 0.358479
O O7 0.800692 0.522282 0.121202
O O8 0.630155 0.547004 0.904867
O O9 0.292029 0.465484 0.554189
O O10 0.916510 0.369489 0.184279
O O11 0.577953 0.169286 0.742698
O O12 0.376026 0.896204 0.514059
O O13 0.112304 0.012061 0.371846
O O14 0.983051 0.704570 0.971145
O O15 0.304626 0.260782 0.044558
O O16 0.683617 0.405594 0.680801
#
# Coordination Sequence:
#
# PCOD8029952 Si02
#       8
#     2   2   2   2   2   2   2   2
#     4   9  20  37  63  92 120 155 202 255 300 356
#     4  12  25  41  62  90 128 163 200 252 305 357
#     4   9  20  38  62  92 121 154 202 254 304 354
#     4  12  25  42  61  89 127 164 205 249 301 362
#     4  11  23  42  65  90 121 161 206 251 302 360
#     4  11  23  39  65  95 120 157 207 252 302 359
#     4  11  23  39  64  96 122 156 204 254 302 360
#     4  11  21  41  66  87 122 163 204 247 301 360
#
# _framework density 21.957502000000002
#
# number of rings (size 3 to 8) (size 9 to 14) (size 15 to 20)
#    0.000    1.250    3.750    2.250    5.250    1.500 
#    0.000    2.500    0.000    0.000    0.000    0.000 
#    0.000    0.000    0.000    0.000    0.000    0.000 
#
# Total GULP energy -198481.800557 kJ/mol
# GULP energy per Si atom -12405.112535 kJ/mol
# Density = 2.190753 g / cm^3
# Si number density = 21.957502 Si / 1000 Ang^3
#
#
#
# Elastic Constant Matrix: (Units=GPa)
#
#
# Indices 1 2 3 4 5 6 
#
# 1 33.3342 24.5608 22.9573 1.3722 -1.4907 15.0561
# 2 24.5608 98.5939 53.3001 -12.2180 -4.5849 42.4723
# 3 22.9573 53.3001 139.7514 -30.5332 12.3287 19.2238
# 4 1.3722 -12.2180 -30.5332 38.8344 12.8609 -1.2527
# 5 -1.4907 -4.5849 12.3287 12.8609 15.7390 1.9900
# 6 15.0561 42.4723 19.2238 -1.2527 1.9900 30.9515
#
#
#
# Elastic Compliance Matrix: (Units=1/GPa)
#
#
# Indices 1 2 3 4 5 6 
#
# 1 0.057213 0.010737 -0.022421 -0.037629 0.061169 -0.034095
# 2 0.010737 0.040554 -0.019402 -0.022066 0.052774 -0.053108
# 3 -0.022421 -0.019402 0.029963 0.041745 -0.068520 0.025016
# 4 -0.037629 -0.022066 0.041745 0.095504 -0.125102 0.034564
# 5 0.061169 0.052774 -0.068520 -0.125102 0.250819 -0.080805
# 6 -0.034095 -0.053108 0.025016 0.034564 -0.080805 0.112826
#
#
# Mechanical properties :
#
#
# Convention : Reuss Voigt Hill
#
# Bulk Modulus (GPa) = 15.25362 52.59067 33.92214
# Shear Modulus (GPa) = 7.45262 28.49572 17.97417
#
# Velocity S-wave (km/s) = 1.84431 3.60636 2.86420
# Velocity P-wave (km/s) = 3.39076 6.42995 5.14011
#
# Compressibility (1/GPa) = 0.06555821
#
# Stress axis : x y z
#
# Youngs Moduli (GPa) = 17.47841 24.65830 33.37477
#
# Poissons Ratio (x) = -0.26476 0.74830
# Poissons Ratio (y) = -0.18767 0.64754
# Poissons Ratio (z) = 0.39189 0.47843
#
# Static dielectric constant tensor:
#      x y z
#    x 3.674610 0.260930 0.209750 
#    y 0.260930 3.958460 -0.186460 
#    z 0.209750 -0.186460 4.043030 
# 
# 
# High freq. dielectric constant tensor:
#      x y z
#    x 1.840530 0.020280 0.017080 
#    y 0.020280 1.866130 -0.009400 
#    z 0.017080 -0.009400 1.871420 
# 
# From -- ./inp_files/184130.got.cif
#   From: 2010.06.25/outbox.cif.g09.slc.cpg/sg2_93_cif.got.tgz:184130.got - 2010.06.27 13:26:56.
