data_PCOD8029572
_publ_section_title
;
Structure prediction by ZEFSAII (Michael W. Deem and Ramdas Pophale) SiO2 
 PCOD8029572
Probable space group: P -1
;
_chemical_formula_sum "Si O2"
_cell_formula_units_Z 16
_cell_length_a 18.057702
_cell_length_b 9.341623
_cell_length_c 9.150724
_cell_angle_alpha 56.577527
_cell_angle_beta 36.781870
_cell_angle_gamma 68.637154
_cell_volume 762.245064
_symmetry_space_group_name_H-M "P -1"
_symmetry_group_IT_number 2
_symmetry_cell_setting 'triclinic'
loop_
_space_group_symop_operation_xyz
x,y,z
-x,-y,-z
loop_
_atom_site_type_symbol
_atom_site_label
_atom_site_fract_x
_atom_site_fract_y
_atom_site_fract_z
Si Si1 0.909910 0.491337 0.936291
Si Si2 0.993216 0.170324 0.825107
Si Si3 0.826310 0.365685 0.446112
Si Si4 0.692335 0.994412 0.910662
Si Si5 0.652767 0.397302 0.949549
Si Si6 0.236891 0.932909 0.932508
Si Si7 0.467332 0.097369 0.351953
Si Si8 0.767601 0.677283 0.813441
O O1 0.834932 0.460868 0.223522
O O2 0.933161 0.307288 0.939647
O O3 0.825764 0.581273 0.907328
O O4 0.040650 0.614551 0.691448
O O5 0.126958 0.256790 0.507595
O O6 0.907503 0.106707 0.857700
O O7 0.000000 0.000000 0.000000
O O8 0.729134 0.454609 0.648156
O O9 0.778321 0.161840 0.612333
O O10 0.746290 0.955221 0.007655
O O11 0.547438 0.029213 0.131492
O O12 0.697488 0.830928 0.892555
O O13 0.658193 0.553107 0.968580
O O14 0.718766 0.250087 0.004775
O O15 0.510191 0.307171 0.185042
O O16 0.316698 0.041350 0.611360
O O17 0.500000 0.000000 0.500000
#
# Coordination Sequence:
#
# PCOD8029572 Si02
#       8
#     2   2   2   2   2   2   2   2
#     4  11  21  34  55  81 115 159 185 228 285 347
#     4  12  24  35  56  86 122 148 187 237 287 339
#     4   9  19  35  53  76 115 154 193 221 281 343
#     4   9  19  34  57  88 112 146 189 239 276 335
#     4   9  16  34  60  82 110 150 185 234 277 339
#     4   9  18  37  59  84 111 156 192 227 281 343
#     4   7  15  34  60  84 104 154 193 228 277 337
#     4  12  21  34  57  91 120 142 188 237 293 329
#
# _framework density 20.990622999999999
#
# number of rings (size 3 to 8) (size 9 to 14) (size 15 to 20)
#    0.000    2.750    2.500    2.625    0.000    4.000 
#    0.000    5.625    0.000    7.500    0.000    0.875 
#    0.000    0.000    0.000    0.000    0.000    0.000 
#
# Total GULP energy -198272.490218 kJ/mol
# GULP energy per Si atom -12392.030639 kJ/mol
# Density = 2.094285 g / cm^3
# Si number density = 20.990623 Si / 1000 Ang^3
#
#
#
# Elastic Constant Matrix: (Units=GPa)
#
#
# Indices 1 2 3 4 5 6 
#
# 1 20.1112 14.1884 11.4436 -0.4750 8.0799 10.0643
# 2 14.1884 117.7004 19.6213 -9.1386 0.7983 27.4358
# 3 11.4436 19.6213 113.2563 -4.0982 3.3641 10.3284
# 4 -0.4750 -9.1386 -4.0982 18.7132 1.3974 4.2726
# 5 8.0799 0.7983 3.3641 1.3974 24.5572 -2.5878
# 6 10.0643 27.4358 10.3284 4.2726 -2.5878 24.1693
#
#
#
# Elastic Compliance Matrix: (Units=1/GPa)
#
#
# Indices 1 2 3 4 5 6 
#
# 1 0.084918 0.001257 -0.003572 0.013830 -0.032620 -0.041199
# 2 0.001257 0.013441 -0.000331 0.010861 -0.003311 -0.017915
# 3 -0.003572 -0.000331 0.009606 0.002521 -0.000563 -0.002749
# 4 0.013830 0.010861 0.002521 0.068010 -0.012547 -0.032531
# 5 -0.032620 -0.003311 -0.000563 -0.012547 0.055061 0.025696
# 6 -0.041199 -0.017915 -0.002749 -0.032531 0.025696 0.088543
#
#
# Mechanical properties :
#
#
# Convention : Reuss Voigt Hill
#
# Bulk Modulus (GPa) = 9.73937 37.95271 23.84604
# Shear Modulus (GPa) = 13.92390 27.20891 20.56641
#
# Velocity S-wave (km/s) = 2.57833 3.60424 3.13356
# Velocity P-wave (km/s) = 3.67609 5.95322 4.94745
#
# Compressibility (1/GPa) = 0.10267600
#
# Stress axis : x y z
#
# Youngs Moduli (GPa) = 11.77603 74.39718 104.09825
#
# Poissons Ratio (x) = -0.09353 0.37179
# Poissons Ratio (y) = -0.01480 0.03441
# Poissons Ratio (z) = 0.04206 0.02460
#
# Static dielectric constant tensor:
#      x y z
#    x 3.878110 0.378590 -0.492140 
#    y 0.378590 3.704580 -0.141070 
#    z -0.492140 -0.141070 4.651530 
# 
# 
# High freq. dielectric constant tensor:
#      x y z
#    x 1.791880 0.018830 -0.002550 
#    y 0.018830 1.807260 -0.008450 
#    z -0.002550 -0.008450 1.842370 
# 
# From -- ./inp_files/343401.got.cif
#   From: 2010.06.25/outbox.cif.g09.slc.cpg/sg2_172_cif.got.tgz:343401.got - 2010.06.27 13:26:56.
