data_PCOD8029160
_publ_section_title
;
Structure prediction by ZEFSAII (Michael W. Deem and Ramdas Pophale) SiO2 
 PCOD8029160
Probable space group: P -1
;
_chemical_formula_sum "Si O2"
_cell_formula_units_Z 16
_cell_length_a 15.079785
_cell_length_b 16.194615
_cell_length_c 14.624540
_cell_angle_alpha 140.277841
_cell_angle_beta 161.000290
_cell_angle_gamma 40.443445
_cell_volume 733.198805
_symmetry_space_group_name_H-M "P -1"
_symmetry_group_IT_number 2
_symmetry_cell_setting 'triclinic'
loop_
_space_group_symop_operation_xyz
x,y,z
-x,-y,-z
loop_
_atom_site_type_symbol
_atom_site_label
_atom_site_fract_x
_atom_site_fract_y
_atom_site_fract_z
Si Si1 0.907682 0.504207 0.019862
Si Si2 0.374647 0.152304 0.605188
Si Si3 0.149409 0.995718 0.461240
Si Si4 0.631000 0.062048 0.098378
Si Si5 0.948427 0.242074 0.946580
Si Si6 0.507981 0.850436 0.491656
Si Si7 0.662520 0.351930 0.353014
Si Si8 0.841682 0.229394 0.244092
O O1 0.050694 0.613209 0.301660
O O2 0.992847 0.365961 0.035751
O O3 0.581398 0.540725 0.752486
O O4 0.000000 0.500000 0.000000
O O5 0.361844 0.160347 0.490872
O O6 0.120038 0.254631 0.485806
O O7 0.357967 0.002076 0.492961
O O8 0.648638 0.197581 0.947225
O O9 0.198404 0.856347 0.342032
O O10 0.440569 0.040943 0.805668
O O11 0.932390 0.105809 0.291800
O O12 0.945398 0.983400 0.337125
O O13 0.615243 0.215285 0.232562
O O14 0.500000 0.000000 0.000000
O O15 0.710252 0.254078 0.803773
O O16 0.244084 0.182983 0.223754
O O17 0.692161 0.345583 0.264574
#
# Coordination Sequence:
#
# PCOD8029160 Si02
#       8
#     2   2   2   2   2   2   2   2
#     4  12  28  47  68  90 124 183 228 270 309 374
#     4  11  20  36  65 103 137 165 203 258 338 400
#     4  11  21  37  59  96 122 169 205 251 343 375
#     4  11  24  37  64  89 128 156 205 284 327 392
#     4  12  24  41  66  89 138 172 217 270 315 388
#     4  11  22  38  63 102 138 168 207 264 326 401
#     4  11  25  45  64  93 125 170 226 262 325 384
#     4  11  20  39  65  94 133 168 205 263 327 392
#
# _framework density 21.822185000000001
#
# number of rings (size 3 to 8) (size 9 to 14) (size 15 to 20)
#    0.000    0.750    2.500    6.750    3.500    2.000 
#    0.000    0.000    0.000   15.000    0.000    0.000 
#    0.000    0.000    0.000    0.000    0.000    0.000 
#
# Total GULP energy -198271.692300 kJ/mol
# GULP energy per Si atom -12391.980769 kJ/mol
# Density = 2.177252 g / cm^3
# Si number density = 21.822185 Si / 1000 Ang^3
#
#
#
# Elastic Constant Matrix: (Units=GPa)
#
#
# Indices 1 2 3 4 5 6 
#
# 1 101.2942 44.0830 23.0251 -5.0023 11.8107 -5.8803
# 2 44.0830 70.2003 21.6796 6.0476 0.6835 7.8299
# 3 23.0251 21.6796 110.1123 7.8971 7.7495 5.8034
# 4 -5.0023 6.0476 7.8971 31.3270 -10.7519 8.5270
# 5 11.8107 0.6835 7.7495 -10.7519 41.1404 -1.0964
# 6 -5.8803 7.8299 5.8034 8.5270 -1.0964 36.3437
#
#
#
# Elastic Compliance Matrix: (Units=1/GPa)
#
#
# Indices 1 2 3 4 5 6 
#
# 1 0.015151 -0.009712 -0.001425 0.002449 -0.003171 0.004101
# 2 -0.009712 0.021760 -0.001874 -0.003266 0.001789 -0.005140
# 3 -0.001425 -0.001874 0.010166 -0.002987 -0.002277 -0.000818
# 4 0.002449 -0.003266 -0.002987 0.039092 0.009936 -0.007295
# 5 -0.003171 0.001789 -0.002277 0.009936 0.028160 -0.002016
# 6 0.004101 -0.005140 -0.000818 -0.007295 -0.002016 0.031067
#
#
# Mechanical properties :
#
#
# Convention : Reuss Voigt Hill
#
# Bulk Modulus (GPa) = 47.49338 51.02022 49.25680
# Shear Modulus (GPa) = 28.02120 34.61683 31.31902
#
# Velocity S-wave (km/s) = 3.58728 3.98718 3.79250
# Velocity P-wave (km/s) = 6.24253 6.68038 6.46516
#
# Compressibility (1/GPa) = 0.02105557
#
# Stress axis : x y z
#
# Youngs Moduli (GPa) = 66.00032 45.95653 98.36537
#
# Poissons Ratio (x) = 0.44633 0.14014
# Poissons Ratio (y) = 0.64100 0.18435
# Poissons Ratio (z) = 0.09403 0.08613
#
# Static dielectric constant tensor:
#      x y z
#    x 4.320330 -0.110430 0.423400 
#    y -0.110430 3.620720 -0.094800 
#    z 0.423400 -0.094800 2.836820 
# 
# 
# High freq. dielectric constant tensor:
#      x y z
#    x 1.881660 -0.007610 0.016720 
#    y -0.007610 1.815060 -0.007650 
#    z 0.016720 -0.007650 1.878830 
# 
# From -- ./inp_files/534483.got.cif
#   From: 2010.06.25/outbox.cif.g09.slc.cpg/sg2_268_cif.got.tgz:534483.got - 2010.06.27 13:26:56.
