data_PCOD8029690
_publ_section_title
;
Structure prediction by ZEFSAII (Michael W. Deem and Ramdas Pophale) SiO2 
 PCOD8029690
Probable space group: P -1
;
_chemical_formula_sum "Si O2"
_cell_formula_units_Z 16
_cell_length_a 9.868793
_cell_length_b 12.346178
_cell_length_c 14.205572
_cell_angle_alpha 151.581888
_cell_angle_beta 98.628885
_cell_angle_gamma 89.841715
_cell_volume 783.083599
_symmetry_space_group_name_H-M "P -1"
_symmetry_group_IT_number 2
_symmetry_cell_setting 'triclinic'
loop_
_space_group_symop_operation_xyz
x,y,z
-x,-y,-z
loop_
_atom_site_type_symbol
_atom_site_label
_atom_site_fract_x
_atom_site_fract_y
_atom_site_fract_z
Si Si1 0.418019 0.263425 0.760925
Si Si2 0.168598 0.004911 0.005895
Si Si3 0.506447 0.194535 0.517492
Si Si4 0.024720 0.694067 0.022107
Si Si5 0.835506 0.427433 0.440999
Si Si6 0.784931 0.523959 0.715144
Si Si7 0.253615 0.126686 0.303200
Si Si8 0.099652 0.234065 0.738290
O O1 0.436854 0.295758 0.675238
O O2 0.253815 0.194625 0.717691
O O3 0.487380 0.066133 0.656145
O O4 0.500000 0.500000 0.000000
O O5 0.216221 0.818857 0.804888
O O6 0.256036 0.246854 0.151305
O O7 0.242243 0.980240 0.093677
O O8 0.000000 0.000000 0.000000
O O9 0.663649 0.363260 0.644968
O O10 0.410255 0.184602 0.407724
O O11 0.096767 0.479157 0.875687
O O12 0.929305 0.621473 0.863974
O O13 0.932643 0.732012 0.130286
O O14 0.139598 0.950778 0.224415
O O15 0.804330 0.382798 0.514782
O O16 0.776025 0.624097 0.533948
O O17 0.000000 0.500000 0.500000
O O18 0.000000 0.000000 0.500000
#
# Coordination Sequence:
#
# PCOD8029690 Si02
#       8
#     2   2   2   2   2   2   2   2
#     4  11  24  45  64  88 132 173 212 257 322 372
#     4  11  21  42  62  94 128 159 199 264 316 374
#     4  11  26  43  62  94 128 171 216 261 306 384
#     4  11  22  41  64  96 128 159 218 265 316 378
#     4  11  21  38  64  94 122 159 210 255 319 377
#     4  11  23  40  64  91 128 167 208 261 316 372
#     4  11  23  40  64  91 128 167 208 261 316 372
#     4  11  24  39  64  98 126 163 212 273 316 374
#
# _framework density 20.432044999999999
#
# number of rings (size 3 to 8) (size 9 to 14) (size 15 to 20)
#    0.000    1.000    3.750    3.000    0.000   15.000 
#    0.000    1.250    0.000    0.000    0.000    0.000 
#    0.000    0.000    0.000    0.000    0.000    0.000 
#
# Total GULP energy -198315.372013 kJ/mol
# GULP energy per Si atom -12394.710751 kJ/mol
# Density = 2.038554 g / cm^3
# Si number density = 20.432045 Si / 1000 Ang^3
#
#
#
# Elastic Constant Matrix: (Units=GPa)
#
#
# Indices 1 2 3 4 5 6 
#
# 1 70.0163 18.0616 31.3850 -12.1111 -5.3782 -5.3254
# 2 18.0616 92.2686 29.5392 -12.7683 -10.2567 -1.8297
# 3 31.3850 29.5392 127.3168 -20.7247 -12.1721 7.9948
# 4 -12.1111 -12.7683 -20.7247 35.2433 6.9611 10.8732
# 5 -5.3782 -10.2567 -12.1721 6.9611 37.6054 -7.0765
# 6 -5.3254 -1.8297 7.9948 10.8732 -7.0765 29.4327
#
#
#
# Elastic Compliance Matrix: (Units=1/GPa)
#
#
# Indices 1 2 3 4 5 6 
#
# 1 0.017017 -0.001730 -0.003623 0.001763 0.001136 0.003577
# 2 -0.001730 0.012347 -0.001935 0.002060 0.002256 0.000761
# 3 -0.003623 -0.001935 0.010560 0.006033 0.000157 -0.005835
# 4 0.001763 0.002060 0.006033 0.040461 -0.008128 -0.018093
# 5 0.001136 0.002256 0.000157 -0.008128 0.030947 0.010746
# 6 0.003577 0.000761 -0.005835 -0.018093 0.010746 0.045523
#
#
# Mechanical properties :
#
#
# Convention : Reuss Voigt Hill
#
# Bulk Modulus (GPa) = 39.45015 49.73037 44.59026
# Shear Modulus (GPa) = 27.79623 34.49732 31.14678
#
# Velocity S-wave (km/s) = 3.69239 4.11346 3.90860
# Velocity P-wave (km/s) = 6.12603 6.85223 6.49928
#
# Compressibility (1/GPa) = 0.02534845
#
# Stress axis : x y z
#
# Youngs Moduli (GPa) = 58.76555 80.99117 94.69850
#
# Poissons Ratio (x) = 0.14013 0.34305
# Poissons Ratio (y) = 0.10167 0.18323
# Poissons Ratio (z) = 0.21288 0.15671
#
# Static dielectric constant tensor:
#      x y z
#    x 3.447410 0.074400 -0.033380 
#    y 0.074400 3.918820 -0.007550 
#    z -0.033380 -0.007550 3.801260 
# 
# 
# High freq. dielectric constant tensor:
#      x y z
#    x 1.781890 0.001690 -0.002950 
#    y 0.001690 1.816740 -0.003100 
#    z -0.002950 -0.003100 1.817650 
# 
# From -- ./inp_files/501235.got.cif
#   From: 2010.06.25/outbox.cif.g09.slc.cpg/sg2_251_cif.got.tgz:501235.got - 2010.06.27 13:26:56.
