data_PCOD8029608
_publ_section_title
;
Structure prediction by ZEFSAII (Michael W. Deem and Ramdas Pophale) SiO2 
 PCOD8029608
Probable space group: P -1
;
_chemical_formula_sum "Si O2"
_cell_formula_units_Z 16
_cell_length_a 15.407892
_cell_length_b 18.515347
_cell_length_c 10.199842
_cell_angle_alpha 36.258997
_cell_angle_beta 54.295892
_cell_angle_gamma 28.245723
_cell_volume 726.186433
_symmetry_space_group_name_H-M "P -1"
_symmetry_group_IT_number 2
_symmetry_cell_setting 'triclinic'
loop_
_space_group_symop_operation_xyz
x,y,z
-x,-y,-z
loop_
_atom_site_type_symbol
_atom_site_label
_atom_site_fract_x
_atom_site_fract_y
_atom_site_fract_z
Si Si1 0.481595 0.126836 0.225930
Si Si2 0.722116 0.043422 0.326855
Si Si3 0.667351 0.596154 0.673883
Si Si4 0.924881 0.324384 0.266173
Si Si5 0.072722 0.186357 0.060479
Si Si6 0.412884 0.569703 0.118133
Si Si7 0.355336 0.126167 0.818548
Si Si8 0.811837 0.181620 0.500775
O O1 0.651986 0.057196 0.228537
O O2 0.500000 0.000000 0.500000
O O3 0.525147 0.039648 0.169784
O O4 0.252945 0.405608 0.006828
O O5 0.551134 0.181015 0.387347
O O6 0.751782 0.160826 0.109395
O O7 0.939752 0.774245 0.579406
O O8 0.680743 0.475450 0.728704
O O9 0.732158 0.654757 0.454718
O O10 0.831922 0.412623 0.910801
O O11 0.836984 0.272490 0.442954
O O12 0.088775 0.165208 0.234874
O O13 0.184346 0.957538 0.233029
O O14 0.169380 0.216502 0.879352
O O15 0.591377 0.414961 0.290435
O O16 0.500000 0.500000 0.000000
O O17 0.500000 0.000000 0.000000
O O18 0.000000 0.000000 0.500000
#
# Coordination Sequence:
#
# PCOD8029608 Si02
#       8
#     2   2   2   2   2   2   2   2
#     4  12  25  46  66  96 135 171 221 274 321 391
#     4  11  20  39  66  98 128 164 219 274 323 375
#     4  11  20  39  61  96 130 169 218 271 318 387
#     4  11  21  40  69  99 126 171 224 271 322 385
#     4  11  21  38  65  97 131 172 218 271 326 390
#     4  10  17  30  60  93 128 159 209 278 317 369
#     4  12  26  45  63  92 135 178 219 264 336 396
#     4  10  17  32  60  97 127 162 219 270 317 384
#
# _framework density 22.032910000000001
#
# number of rings (size 3 to 8) (size 9 to 14) (size 15 to 20)
#    0.000    1.000    3.750    7.875    0.000    0.500 
#    4.500    0.625    0.000    1.500    0.000    0.000 
#    0.000    0.000    0.000    0.000    0.000    0.000 
#
# Total GULP energy -198282.822713 kJ/mol
# GULP energy per Si atom -12392.676420 kJ/mol
# Density = 2.198276 g / cm^3
# Si number density = 22.032910 Si / 1000 Ang^3
#
#
#
# Elastic Constant Matrix: (Units=GPa)
#
#
# Indices 1 2 3 4 5 6 
#
# 1 137.0417 41.9502 61.6069 -3.4064 0.9497 -4.6155
# 2 41.9502 44.8699 31.1309 -1.1026 -0.5587 -9.9026
# 3 61.6069 31.1309 143.1810 -17.7153 -7.7816 -11.6338
# 4 -3.4064 -1.1026 -17.7153 35.9189 -17.6826 2.6841
# 5 0.9497 -0.5587 -7.7816 -17.6826 57.1634 1.2477
# 6 -4.6155 -9.9026 -11.6338 2.6841 1.2477 31.6570
#
#
#
# Elastic Compliance Matrix: (Units=1/GPa)
#
#
# Indices 1 2 3 4 5 6 
#
# 1 0.011436 -0.008879 -0.003377 -0.001212 -0.001063 -0.002206
# 2 -0.008879 0.034776 -0.003414 -0.002573 -0.000960 0.008585
# 3 -0.003377 -0.003414 0.010242 0.006123 0.003277 0.001555
# 4 -0.001212 -0.002573 0.006123 0.036893 0.012292 -0.002344
# 5 -0.001063 -0.000960 0.003277 0.012292 0.021776 -0.001152
# 6 -0.002206 0.008585 0.001555 -0.002344 -0.001152 0.034768
#
#
# Mechanical properties :
#
#
# Convention : Reuss Voigt Hill
#
# Bulk Modulus (GPa) = 39.81853 66.05206 52.93530
# Shear Modulus (GPa) = 26.37122 37.64150 32.00636
#
# Velocity S-wave (km/s) = 3.46338 4.13779 3.81551
# Velocity P-wave (km/s) = 5.83994 7.27133 6.59459
#
# Compressibility (1/GPa) = 0.02511394
#
# Stress axis : x y z
#
# Youngs Moduli (GPa) = 87.44214 28.75575 97.64111
#
# Poissons Ratio (x) = 0.25532 0.32976
# Poissons Ratio (y) = 0.77638 0.33331
# Poissons Ratio (z) = 0.29532 0.09816
#
# Static dielectric constant tensor:
#      x y z
#    x 4.831950 -0.241240 -0.464220 
#    y -0.241240 3.407080 0.010220 
#    z -0.464220 0.010220 4.450990 
# 
# 
# High freq. dielectric constant tensor:
#      x y z
#    x 1.884240 -0.024200 -0.008760 
#    y -0.024200 1.804530 -0.012500 
#    z -0.008760 -0.012500 1.887470 
# 
# From -- ./inp_files/457621.got.cif
#   From: 2010.06.25/outbox.cif.g09.slc.cpg/sg2_229_cif.got.tgz:457621.got - 2010.06.27 13:26:56.
