data_PCOD8029732
_publ_section_title
;
Structure prediction by ZEFSAII (Michael W. Deem and Ramdas Pophale) SiO2 
 PCOD8029732
Probable space group: P -1
;
_chemical_formula_sum "Si O2"
_cell_formula_units_Z 16
_cell_length_a 11.603084
_cell_length_b 12.943956
_cell_length_c 10.040780
_cell_angle_alpha 125.411094
_cell_angle_beta 48.409720
_cell_angle_gamma 95.276456
_cell_volume 806.343133
_symmetry_space_group_name_H-M "P -1"
_symmetry_group_IT_number 2
_symmetry_cell_setting 'triclinic'
loop_
_space_group_symop_operation_xyz
x,y,z
-x,-y,-z
loop_
_atom_site_type_symbol
_atom_site_label
_atom_site_fract_x
_atom_site_fract_y
_atom_site_fract_z
Si Si1 0.574970 0.941511 0.754694
Si Si2 0.014905 0.118487 0.987197
Si Si3 0.217698 0.430155 0.150970
Si Si4 0.628802 0.892586 0.213789
Si Si5 0.750093 0.615663 0.392957
Si Si6 0.847101 0.434375 0.427359
Si Si7 0.045488 0.096846 0.632282
Si Si8 0.131684 0.587935 0.076403
O O1 0.602822 0.779742 0.605894
O O2 0.755788 0.940463 0.579442
O O3 0.424359 0.041889 0.843326
O O4 0.500000 0.000000 0.000000
O O5 0.185238 0.125207 0.906016
O O6 0.021837 0.079223 0.795540
O O7 0.859620 0.280627 0.261626
O O8 0.000000 0.000000 0.000000
O O9 0.245368 0.507221 0.316403
O O10 0.228061 0.528123 0.097901
O O11 0.035424 0.427006 0.284419
O O12 0.368337 0.262389 0.899174
O O13 0.500000 0.000000 0.500000
O O14 0.721612 0.554525 0.507828
O O15 0.943617 0.596467 0.226525
O O16 0.734795 0.522111 0.215741
O O17 0.898773 0.254744 0.817839
O O18 0.000000 0.000000 0.500000
#
# Coordination Sequence:
#
# PCOD8029732 Si02
#       8
#     2   2   2   2   2   2   2   2
#     4  11  23  37  62  92 119 155 190 242 300 350
#     4  11  24  39  62  86 118 160 195 241 295 349
#     4   9  18  29  55  86 111 145 189 249 288 330
#     4  11  21  39  61  89 123 154 196 239 296 354
#     4   9  16  31  55  81 111 144 192 242 282 333
#     4   9  17  33  53  83 114 142 198 244 283 331
#     4  11  24  40  60  87 121 154 197 244 291 352
#     4   9  17  31  56  82 108 145 194 242 288 326
#
# _framework density 19.842670999999999
#
# number of rings (size 3 to 8) (size 9 to 14) (size 15 to 20)
#    0.000    2.000    2.500    1.500    7.000    2.000 
#    0.000    0.000    0.000    9.000    0.000    0.000 
#    0.000    0.000    0.000    0.000    0.000    0.000 
#
# Total GULP energy -198304.720136 kJ/mol
# GULP energy per Si atom -12394.045008 kJ/mol
# Density = 1.979751 g / cm^3
# Si number density = 19.842671 Si / 1000 Ang^3
#
#
#
# Elastic Constant Matrix: (Units=GPa)
#
#
# Indices 1 2 3 4 5 6 
#
# 1 70.6115 51.4567 42.7031 2.8795 34.0357 -22.2265
# 2 51.4567 157.1591 63.4305 12.5221 28.6361 -32.8561
# 3 42.7031 63.4305 129.0752 9.6640 41.1956 -16.0173
# 4 2.8795 12.5221 9.6640 35.7303 -8.2130 6.8213
# 5 34.0357 28.6361 41.1956 -8.2130 38.2859 -4.8442
# 6 -22.2265 -32.8561 -16.0173 6.8213 -4.8442 40.4771
#
#
#
# Elastic Compliance Matrix: (Units=1/GPa)
#
#
# Indices 1 2 3 4 5 6 
#
# 1 0.037740 -0.001963 0.003836 -0.015525 -0.037160 0.018817
# 2 -0.001963 0.010434 -0.001804 -0.005364 -0.004375 0.007058
# 3 0.003836 -0.001804 0.014994 -0.009315 -0.019456 0.005816
# 4 -0.015525 -0.005364 -0.009315 0.045524 0.035066 -0.020040
# 5 -0.037160 -0.004375 -0.019456 0.035066 0.087455 -0.027098
# 6 0.018817 0.007058 0.005816 -0.020040 -0.027098 0.043203
#
#
# Mechanical properties :
#
#
# Convention : Reuss Voigt Hill
#
# Bulk Modulus (GPa) = 15.79644 74.66959 45.23302
# Shear Modulus (GPa) = 19.20752 36.18236 27.69494
#
# Velocity S-wave (km/s) = 3.11463 4.27483 3.74000
# Velocity P-wave (km/s) = 4.57304 7.87897 6.44169
#
# Compressibility (1/GPa) = 0.06330540
#
# Stress axis : x y z
#
# Youngs Moduli (GPa) = 26.49676 95.83987 66.69406
#
# Poissons Ratio (x) = 0.18816 -0.25584
# Poissons Ratio (y) = 0.05202 0.12033
# Poissons Ratio (z) = -0.10164 0.17292
#
# Static dielectric constant tensor:
#      x y z
#    x 3.061710 -0.082270 0.379580 
#    y -0.082270 3.525640 -0.008900 
#    z 0.379580 -0.008900 3.361600 
# 
# 
# High freq. dielectric constant tensor:
#      x y z
#    x 1.744970 -0.029920 0.029070 
#    y -0.029920 1.780120 0.016500 
#    z 0.029070 0.016500 1.779260 
# 
# From -- ./inp_files/259984.got.cif
#   From: 2010.06.25/outbox.cif.g09.slc.cpg/sg2_130_cif.got.tgz:259984.got - 2010.06.27 13:26:56.
