data_PCOD8029721
_publ_section_title
;
Structure prediction by ZEFSAII (Michael W. Deem and Ramdas Pophale) SiO2 
 PCOD8029721
Probable space group: P -1
;
_chemical_formula_sum "Si O2"
_cell_formula_units_Z 12
_cell_length_a 9.851808
_cell_length_b 10.252341
_cell_length_c 8.984145
_cell_angle_alpha 116.319259
_cell_angle_beta 40.896310
_cell_angle_gamma 97.875533
_cell_volume 501.239136
_symmetry_space_group_name_H-M "P -1"
_symmetry_group_IT_number 2
_symmetry_cell_setting 'triclinic'
loop_
_space_group_symop_operation_xyz
x,y,z
-x,-y,-z
loop_
_atom_site_type_symbol
_atom_site_label
_atom_site_fract_x
_atom_site_fract_y
_atom_site_fract_z
Si Si1 0.081451 0.781728 0.851290
Si Si2 0.869845 0.239725 0.652109
Si Si3 0.933002 0.503604 0.886760
Si Si4 0.537074 0.312158 0.727699
Si Si5 0.802063 0.076905 0.900629
Si Si6 0.619423 0.949008 0.219604
O O1 0.311131 0.773345 0.580688
O O2 0.038719 0.619356 0.779927
O O3 0.085298 0.822565 0.042719
O O4 0.880180 0.915252 0.010075
O O5 0.014805 0.334739 0.655927
O O6 0.693127 0.356031 0.742200
O O7 0.739212 0.172782 0.848642
O O8 0.031785 0.096354 0.354724
O O9 0.666945 0.554753 0.109804
O O10 0.000000 0.500000 0.000000
O O11 0.443931 0.199400 0.844691
O O12 0.583637 0.064662 0.164381
O O13 0.500000 0.000000 0.500000
#
# Coordination Sequence:
#
# PCOD8029721 Si02
#       6
#     2   2   2   2   2   2
#     4  11  22  44  72  98 140 185 234 283 345 417
#     4  11  24  45  69 106 146 177 230 291 351 407
#     4  11  25  47  71  99 137 187 240 282 347 419
#     4  11  24  43  72 102 138 185 233 289 344 413
#     4  11  22  42  73 102 143 183 222 292 346 411
#     4  11  21  38  71 106 138 182 234 278 345 415
#
# _framework density 23.940666
#
# number of rings (size 3 to 8) (size 9 to 14) (size 15 to 20)
#    0.000    1.000    5.000    2.000    0.000    2.000 
#    3.000    0.000    0.000    0.000    0.000    0.000 
#    0.000    0.000    0.000    0.000    0.000    0.000 
#
# Total GULP energy -148661.870788 kJ/mol
# GULP energy per Si atom -12388.489232 kJ/mol
# Density = 2.388618 g / cm^3
# Si number density = 23.940666 Si / 1000 Ang^3
#
#
#
# Elastic Constant Matrix: (Units=GPa)
#
#
# Indices 1 2 3 4 5 6 
#
# 1 139.3488 32.4302 42.9400 10.3465 18.2462 2.0037
# 2 32.4302 88.5116 46.3626 -6.3383 12.5925 7.3683
# 3 42.9400 46.3626 101.8127 -20.3773 16.1485 -1.2946
# 4 10.3465 -6.3383 -20.3773 33.3676 -2.4597 8.6539
# 5 18.2462 12.5925 16.1485 -2.4597 38.9613 1.2043
# 6 2.0037 7.3683 -1.2946 8.6539 1.2043 45.2371
#
#
#
# Elastic Compliance Matrix: (Units=1/GPa)
#
#
# Indices 1 2 3 4 5 6 
#
# 1 0.009621 -0.001467 -0.004203 -0.006280 -0.002716 0.000966
# 2 -0.001467 0.015551 -0.006192 0.000187 -0.001679 -0.002636
# 3 -0.004203 -0.006192 0.016847 0.010302 -0.002355 -0.000231
# 4 -0.006280 0.000187 0.010302 0.040208 0.001371 -0.007186
# 5 -0.002716 -0.001679 -0.002355 0.001371 0.028565 -0.000696
# 6 0.000966 -0.002636 -0.000231 -0.007186 -0.000696 0.023879
#
#
# Mechanical properties :
#
#
# Convention : Reuss Voigt Hill
#
# Bulk Modulus (GPa) = 54.66563 63.68211 59.17387
# Shear Modulus (GPa) = 30.39623 37.37589 33.88606
#
# Velocity S-wave (km/s) = 3.56708 3.95547 3.76629
# Velocity P-wave (km/s) = 6.31259 6.89338 6.60937
#
# Compressibility (1/GPa) = 0.01829303
#
# Stress axis : x y z
#
# Youngs Moduli (GPa) = 103.94075 64.30526 59.35746
#
# Poissons Ratio (x) = 0.09434 0.24950
# Poissons Ratio (y) = 0.15249 0.36757
# Poissons Ratio (z) = 0.43691 0.39820
#
# Static dielectric constant tensor:
#      x y z
#    x 4.411290 0.197310 0.175730 
#    y 0.197310 4.660230 -0.104270 
#    z 0.175730 -0.104270 4.126660 
# 
# 
# High freq. dielectric constant tensor:
#      x y z
#    x 1.951660 0.009790 0.025080 
#    y 0.009790 1.961640 -0.009970 
#    z 0.025080 -0.009970 1.927410 
# 
# From -- ./inp_files/68042.got.cif
#   From: 2010.06.25/outbox.cif.g09.slc.cpg/sg2_35_cif.got.tgz:68042.got - 2010.06.27 13:26:56.
