data_PCOD8029434
_publ_section_title
;
Structure prediction by ZEFSAII (Michael W. Deem and Ramdas Pophale) SiO2 
 PCOD8029434
Probable space group: P -1
;
_chemical_formula_sum "Si O2"
_cell_formula_units_Z 16
_cell_length_a 11.765468
_cell_length_b 12.010464
_cell_length_c 11.152522
_cell_angle_alpha 114.946256
_cell_angle_beta 91.524279
_cell_angle_gamma 142.788575
_cell_volume 648.376254
_symmetry_space_group_name_H-M "P -1"
_symmetry_group_IT_number 2
_symmetry_cell_setting 'triclinic'
loop_
_space_group_symop_operation_xyz
x,y,z
-x,-y,-z
loop_
_atom_site_type_symbol
_atom_site_label
_atom_site_fract_x
_atom_site_fract_y
_atom_site_fract_z
Si Si1 0.177216 0.197499 0.984193
Si Si2 0.354824 0.655480 0.640904
Si Si3 0.132135 0.533537 0.817946
Si Si4 0.522266 0.961414 0.206709
Si Si5 0.866123 0.079168 0.296932
Si Si6 0.426152 0.263188 0.636852
Si Si7 0.142443 0.940920 0.257407
Si Si8 0.700632 0.290852 0.674231
O O1 0.228639 0.125055 0.877650
O O2 0.438357 0.491860 0.184533
O O3 0.069729 0.193358 0.884842
O O4 0.000000 0.000000 0.000000
O O5 0.248640 0.563405 0.730222
O O6 0.636899 0.875492 0.747758
O O7 0.167306 0.383198 0.441166
O O8 0.359148 0.793546 0.639759
O O9 0.970090 0.491980 0.742215
O O10 0.359437 0.820895 0.019428
O O11 0.967759 0.289005 0.790635
O O12 0.330535 0.720481 0.188984
O O13 0.749224 0.088784 0.241638
O O14 0.773314 0.983459 0.387976
O O15 0.267077 0.145560 0.459638
O O16 0.635888 0.362124 0.647370
O O17 0.500000 0.000000 0.500000
#
# Coordination Sequence:
#
# PCOD8029434 Si02
#       8
#     2   2   2   2   2   2   2   2
#     4  12  30  49  75 107 146 197 254 312 363 438
#     4  12  25  43  74 110 144 193 240 303 370 444
#     4  12  24  44  71 111 151 192 237 302 374 441
#     4  11  24  41  72 109 148 189 242 306 363 441
#     4  11  25  49  71 107 145 197 253 298 369 441
#     4  11  24  48  78 107 147 199 244 307 368 443
#     4  12  26  50  76 110 149 194 247 306 372 436
#     4  11  20  41  72 106 149 189 237 291 378 442
#
# _framework density 24.677029000000001
#
# number of rings (size 3 to 8) (size 9 to 14) (size 15 to 20)
#    0.000    0.500    3.750    4.500    3.500    4.500 
#    0.000    0.000    0.000    0.000    0.000    0.000 
#    0.000    0.000    0.000    0.000    0.000    0.000 
#
# Total GULP energy -198383.179856 kJ/mol
# GULP energy per Si atom -12398.948741 kJ/mol
# Density = 2.462086 g / cm^3
# Si number density = 24.677029 Si / 1000 Ang^3
#
#
#
# Elastic Constant Matrix: (Units=GPa)
#
#
# Indices 1 2 3 4 5 6 
#
# 1 68.7905 4.0159 1.9854 -0.2100 -19.6578 6.0760
# 2 4.0159 91.8835 12.6553 3.6775 4.6255 9.6214
# 3 1.9854 12.6553 93.2863 1.0291 -12.3511 -3.1869
# 4 -0.2100 3.6775 1.0291 34.0869 -5.2468 -4.1584
# 5 -19.6578 4.6255 -12.3511 -5.2468 37.9505 -0.2164
# 6 6.0760 9.6214 -3.1869 -4.1584 -0.2164 34.6310
#
#
#
# Elastic Compliance Matrix: (Units=1/GPa)
#
#
# Indices 1 2 3 4 5 6 
#
# 1 0.017585 -0.001197 0.000981 0.001413 0.009756 -0.002432
# 2 -0.001197 0.011832 -0.002082 -0.002123 -0.003053 -0.003543
# 3 0.000981 -0.002082 0.011646 0.000793 0.004671 0.001602
# 4 0.001413 -0.002123 0.000793 0.030912 0.005546 0.004161
# 5 0.009756 -0.003053 0.004671 0.005546 0.034065 0.000445
# 6 -0.002432 -0.003543 0.001602 0.004161 0.000445 0.030937
#
#
# Mechanical properties :
#
#
# Convention : Reuss Voigt Hill
#
# Bulk Modulus (GPa) = 27.42086 32.36371 29.89229
# Shear Modulus (GPa) = 32.52516 37.02059 34.77288
#
# Velocity S-wave (km/s) = 3.63441 3.87745 3.75790
# Velocity P-wave (km/s) = 5.36171 5.76104 5.56496
#
# Compressibility (1/GPa) = 0.03646858
#
# Stress axis : x y z
#
# Youngs Moduli (GPa) = 56.86558 84.51662 85.86941
#
# Poissons Ratio (x) = 0.10114 -0.08424
# Poissons Ratio (y) = 0.06805 0.17874
# Poissons Ratio (z) = -0.05579 0.17592
#
# Static dielectric constant tensor:
#      x y z
#    x 3.643120 -0.907720 0.335990 
#    y -0.907720 3.178090 0.483360 
#    z 0.335990 0.483360 4.405350 
# 
# 
# High freq. dielectric constant tensor:
#      x y z
#    x 1.961630 0.013140 -0.008700 
#    y 0.013140 1.988590 -0.001760 
#    z -0.008700 -0.001760 1.996030 
# 
# From -- ./inp_files/283213.got.cif
#   From: 2010.06.25/outbox.cif.g09.slc.cpg/sg2_142_cif.got.tgz:283213.got - 2010.06.27 13:26:56.
