data_PCOD8029855
_publ_section_title
;
Structure prediction by ZEFSAII (Michael W. Deem and Ramdas Pophale) SiO2 
 PCOD8029855
Probable space group: P -1
;
_chemical_formula_sum "Si O2"
_cell_formula_units_Z 16
_cell_length_a 10.141594
_cell_length_b 19.818488
_cell_length_c 8.478071
_cell_angle_alpha 125.586914
_cell_angle_beta 120.401457
_cell_angle_gamma 102.925555
_cell_volume 805.541520
_symmetry_space_group_name_H-M "P -1"
_symmetry_group_IT_number 2
_symmetry_cell_setting 'triclinic'
loop_
_space_group_symop_operation_xyz
x,y,z
-x,-y,-z
loop_
_atom_site_type_symbol
_atom_site_label
_atom_site_fract_x
_atom_site_fract_y
_atom_site_fract_z
Si Si1 0.718391 0.545129 0.031104
Si Si2 0.243596 0.425262 0.254304
Si Si3 0.762363 0.414606 0.323458
Si Si4 0.834386 0.270023 0.257839
Si Si5 0.414383 0.338125 0.782528
Si Si6 0.051349 0.923193 0.948418
Si Si7 0.445117 0.982504 0.124109
Si Si8 0.116654 0.826078 0.133110
O O1 0.579695 0.575277 0.993980
O O2 0.905026 0.619933 0.382973
O O3 0.832014 0.578970 0.974644
O O4 0.534586 0.399935 0.768042
O O5 0.500000 0.500000 0.500000
O O6 0.221066 0.497724 0.442222
O O7 0.096266 0.288916 0.045876
O O8 0.720675 0.314807 0.262479
O O9 0.000000 0.500000 0.500000
O O10 0.559701 0.331553 0.961592
O O11 0.690212 0.156589 0.131627
O O12 0.824211 0.225856 0.017826
O O13 0.156951 0.206943 0.435042
O O14 0.282726 0.994609 0.091341
O O15 0.068787 0.892884 0.097130
O O16 0.000000 0.000000 0.000000
O O17 0.670203 0.073013 0.488264
O O18 0.500000 0.000000 0.000000
#
# Coordination Sequence:
#
# PCOD8029855 Si02
#       8
#     2   2   2   2   2   2   2   2
#     4  11  21  40  67  94 127 170 210 268 321 391
#     4  12  24  40  66  99 131 165 215 264 330 378
#     4  12  24  41  64  98 130 171 210 268 321 393
#     4  11  22  44  65  93 128 171 217 256 330 382
#     4  11  22  40  67  90 134 169 213 260 329 385
#     4  11  25  43  67  97 124 173 223 261 316 386
#     4  11  25  46  66  94 130 172 216 268 321 379
#     4  11  23  43  71  90 131 175 214 260 324 392
#
# _framework density 19.862413
#
# number of rings (size 3 to 8) (size 9 to 14) (size 15 to 20)
#    0.000    0.750    6.250    3.000    3.500    0.500 
#    4.500    0.625    0.000    0.000    0.000    0.000 
#    0.000    0.000    0.000    0.000    0.000    0.000 
#
# Total GULP energy -198324.396360 kJ/mol
# GULP energy per Si atom -12395.274773 kJ/mol
# Density = 1.981721 g / cm^3
# Si number density = 19.862413 Si / 1000 Ang^3
#
#
#
# Elastic Constant Matrix: (Units=GPa)
#
#
# Indices 1 2 3 4 5 6 
#
# 1 105.7105 70.0734 37.7344 -2.8867 8.1146 -3.1083
# 2 70.0734 123.2341 31.1272 -0.5919 4.7424 -6.2788
# 3 37.7344 31.1272 99.0211 -12.4589 15.9603 -2.1937
# 4 -2.8867 -0.5919 -12.4589 38.9123 2.4272 0.2367
# 5 8.1146 4.7424 15.9603 2.4272 30.4013 -1.3056
# 6 -3.1083 -6.2788 -2.1937 0.2367 -1.3056 46.8717
#
#
#
# Elastic Compliance Matrix: (Units=1/GPa)
#
#
# Indices 1 2 3 4 5 6 
#
# 1 0.016318 -0.008390 -0.003366 0.000087 -0.001297 -0.000236
# 2 -0.008390 0.013206 -0.001185 -0.000866 0.000922 0.001187
# 3 -0.003366 -0.001185 0.013315 0.004385 -0.006255 0.000045
# 4 0.000087 -0.000866 0.004385 0.027371 -0.004383 -0.000165
# 5 -0.001297 0.000922 -0.006255 -0.004383 0.036763 0.000791
# 6 -0.000236 0.001187 0.000045 -0.000165 0.000791 0.021503
#
#
# Mechanical properties :
#
#
# Convention : Reuss Voigt Hill
#
# Bulk Modulus (GPa) = 58.97647 67.31506 63.14577
# Shear Modulus (GPa) = 31.24785 35.83911 33.54348
#
# Velocity S-wave (km/s) = 3.97068 4.25239 4.11395
# Velocity P-wave (km/s) = 7.12592 7.62068 7.37745
#
# Compressibility (1/GPa) = 0.01695591
#
# Stress axis : x y z
#
# Youngs Moduli (GPa) = 61.28162 75.72494 75.10275
#
# Poissons Ratio (x) = 0.63535 0.25281
# Poissons Ratio (y) = 0.51417 0.08900
# Poissons Ratio (z) = 0.20628 0.08974
#
# Static dielectric constant tensor:
#      x y z
#    x 3.004610 -0.007860 0.131660 
#    y -0.007860 4.553900 0.146800 
#    z 0.131660 0.146800 3.773120 
# 
# 
# High freq. dielectric constant tensor:
#      x y z
#    x 1.757480 0.000750 0.013100 
#    y 0.000750 1.787090 -0.002340 
#    z 0.013100 -0.002340 1.787910 
# 
# From -- ./inp_files/181478.got.cif
#   From: 2010.06.25/outbox.cif.g09.slc.cpg/sg2_91_cif.got.tgz:181478.got - 2010.06.27 13:26:56.
