data_PCOD8029437
_publ_section_title
;
Structure prediction by ZEFSAII (Michael W. Deem and Ramdas Pophale) SiO2 
 PCOD8029437
Probable space group: P -1
;
_chemical_formula_sum "Si O2"
_cell_formula_units_Z 16
_cell_length_a 15.465903
_cell_length_b 9.096472
_cell_length_c 18.168848
_cell_angle_alpha 45.841771
_cell_angle_beta 23.583913
_cell_angle_gamma 46.771007
_cell_volume 724.006967
_symmetry_space_group_name_H-M "P -1"
_symmetry_group_IT_number 2
_symmetry_cell_setting 'triclinic'
loop_
_space_group_symop_operation_xyz
x,y,z
-x,-y,-z
loop_
_atom_site_type_symbol
_atom_site_label
_atom_site_fract_x
_atom_site_fract_y
_atom_site_fract_z
Si Si1 0.913648 0.286490 0.147189
Si Si2 0.182691 0.240579 0.356875
Si Si3 0.512709 0.851799 0.971585
Si Si4 0.978844 0.060756 0.714033
Si Si5 0.831298 0.612561 0.452127
Si Si6 0.492646 0.605739 0.839748
Si Si7 0.185180 0.018758 0.906763
Si Si8 0.441699 0.202629 0.524007
O O1 0.654449 0.316174 0.322238
O O2 0.954401 0.182138 0.232658
O O3 0.000000 0.500000 0.000000
O O4 0.069655 0.138521 0.023299
O O5 0.337734 0.373786 0.233786
O O6 0.078410 0.093284 0.545125
O O7 0.994822 0.399038 0.408323
O O8 0.316621 0.091231 0.242848
O O9 0.278835 0.871359 0.109781
O O10 0.599624 0.610078 0.006074
O O11 0.500000 0.000000 0.000000
O O12 0.071563 0.192670 0.659420
O O13 0.608198 0.598381 0.673679
O O14 0.761833 0.649083 0.408096
O O15 0.291500 0.793523 0.932700
O O16 0.368540 0.139064 0.684699
O O17 0.000000 0.000000 0.000000
O O18 0.500000 0.000000 0.500000
#
# Coordination Sequence:
#
# PCOD8029437 Si02
#       8
#     2   2   2   2   2   2   2   2
#     4  12  28  48  71 107 149 183 232 302 362 413
#     4  11  23  42  74  96 128 186 232 283 348 407
#     4  12  27  41  63 104 145 180 222 287 359 422
#     4  11  22  46  69  99 138 178 234 289 343 421
#     4  11  20  41  73 103 131 177 240 293 332 406
#     4  11  21  42  70  98 135 177 245 284 333 423
#     4  12  24  42  75 106 136 193 243 290 349 415
#     4  12  22  43  72 104 143 183 245 292 336 428
#
# _framework density 22.099235
#
# number of rings (size 3 to 8) (size 9 to 14) (size 15 to 20)
#    0.000    0.500    6.250    2.625    3.500    3.000 
#    0.000    0.000    0.000    0.000    0.000    0.000 
#    0.000    0.000    0.000    0.000    0.000    0.000 
#
# Total GULP energy -198430.755678 kJ/mol
# GULP energy per Si atom -12401.922230 kJ/mol
# Density = 2.204894 g / cm^3
# Si number density = 22.099235 Si / 1000 Ang^3
#
#
#
# Elastic Constant Matrix: (Units=GPa)
#
#
# Indices 1 2 3 4 5 6 
#
# 1 97.0613 68.8968 45.6850 -0.2902 3.5499 -32.9036
# 2 68.8968 126.7568 65.8616 -3.9386 4.3247 -25.1205
# 3 45.6850 65.8616 135.3102 1.7028 0.7836 -14.6414
# 4 -0.2902 -3.9386 1.7028 38.7050 0.6868 6.0658
# 5 3.5499 4.3247 0.7836 0.6868 37.2871 4.5290
# 6 -32.9036 -25.1205 -14.6414 6.0658 4.5290 34.0802
#
#
#
# Elastic Compliance Matrix: (Units=1/GPa)
#
#
# Indices 1 2 3 4 5 6 
#
# 1 0.022330 -0.008031 -0.001869 -0.002985 -0.003015 0.015768
# 2 -0.008031 0.014859 -0.004406 0.001479 -0.001037 0.001180
# 3 -0.001869 -0.004406 0.010103 -0.000816 0.000570 -0.000642
# 4 -0.002985 0.001479 -0.000816 0.027094 0.000485 -0.007029
# 5 -0.003015 -0.001037 0.000570 0.000485 0.028086 -0.007249
# 6 0.015768 0.001180 -0.000642 -0.007029 -0.007249 0.047376
#
#
# Mechanical properties :
#
#
# Convention : Reuss Voigt Hill
#
# Bulk Modulus (GPa) = 53.53111 80.00166 66.76639
# Shear Modulus (GPa) = 27.07312 33.92681 30.49996
#
# Velocity S-wave (km/s) = 3.50390 3.92242 3.71905
# Velocity P-wave (km/s) = 6.37537 7.53615 6.97993
#
# Compressibility (1/GPa) = 0.01868072
#
# Stress axis : x y z
#
# Youngs Moduli (GPa) = 44.78314 67.30090 98.97574
#
# Poissons Ratio (x) = 0.54048 0.18499
# Poissons Ratio (y) = 0.35965 0.43607
# Poissons Ratio (z) = 0.08370 0.29651
#
# Static dielectric constant tensor:
#      x y z
#    x 4.303380 -0.506820 0.218430 
#    y -0.506820 3.991840 -0.094210 
#    z 0.218430 -0.094210 4.545830 
# 
# 
# High freq. dielectric constant tensor:
#      x y z
#    x 1.866370 -0.028670 0.010730 
#    y -0.028670 1.849290 0.010300 
#    z 0.010730 0.010300 1.890650 
# 
# From -- ./inp_files/599703.got.cif
#   From: 2010.06.25/outbox.cif.g09.slc.cpg/sg2_300_cif.got.tgz:599703.got - 2010.06.27 13:26:56.
