data_PCOD8029540
_publ_section_title
;
Structure prediction by ZEFSAII (Michael W. Deem and Ramdas Pophale) SiO2 
 PCOD8029540
Probable space group: P -1
;
_chemical_formula_sum "Si O2"
_cell_formula_units_Z 12
_cell_length_a 8.775096
_cell_length_b 12.666007
_cell_length_c 12.631437
_cell_angle_alpha 142.542132
_cell_angle_beta 140.396949
_cell_angle_gamma 59.507899
_cell_volume 524.268604
_symmetry_space_group_name_H-M "P -1"
_symmetry_group_IT_number 2
_symmetry_cell_setting 'triclinic'
loop_
_space_group_symop_operation_xyz
x,y,z
-x,-y,-z
loop_
_atom_site_type_symbol
_atom_site_label
_atom_site_fract_x
_atom_site_fract_y
_atom_site_fract_z
Si Si1 0.692424 0.876332 0.008985
Si Si2 0.839385 0.000097 0.516285
Si Si3 0.617561 0.440674 0.286478
Si Si4 0.854968 0.592137 0.745789
Si Si5 0.384567 0.652149 0.015898
Si Si6 0.753652 0.371774 0.721434
O O1 0.597849 0.739420 0.944900
O O2 0.721197 0.754535 0.823615
O O3 0.973229 0.990987 0.277216
O O4 0.500000 0.000000 0.000000
O O5 0.729081 0.167508 0.572085
O O6 0.603942 0.833363 0.275202
O O7 0.000000 0.000000 0.500000
O O8 0.809297 0.502358 0.534046
O O9 0.481817 0.596720 0.317785
O O10 0.735324 0.400533 0.207536
O O11 0.745164 0.426597 0.636320
O O12 0.154249 0.670291 0.979997
O O13 0.500000 0.500000 0.000000
O O14 0.000000 0.500000 0.000000
#
# Coordination Sequence:
#
# PCOD8029540 Si02
#       6
#     2   2   2   2   2   2
#     4  11  25  44  73 105 135 183 235 282 345 419
#     4  12  24  43  74 101 137 182 241 283 340 419
#     4  11  24  44  71  98 142 185 229 283 348 418
#     4  11  25  45  70 104 143 181 226 292 354 403
#     4  12  27  46  69 104 142 184 231 292 351 405
#     4  11  20  44  72 102 132 180 240 282 335 416
#
# _framework density 22.889030999999999
#
# number of rings (size 3 to 8) (size 9 to 14) (size 15 to 20)
#    0.000    0.667    5.000    4.500    7.000    0.667 
#    0.000    1.667    0.000    0.000    0.000    0.000 
#    0.000    0.000    0.000    0.000    0.000    0.000 
#
# Total GULP energy -148680.775205 kJ/mol
# GULP energy per Si atom -12390.064600 kJ/mol
# Density = 2.283693 g / cm^3
# Si number density = 22.889031 Si / 1000 Ang^3
#
#
#
# Elastic Constant Matrix: (Units=GPa)
#
#
# Indices 1 2 3 4 5 6 
#
# 1 99.8264 35.0356 33.9688 14.5564 14.9068 -20.7096
# 2 35.0356 147.1331 55.8588 23.6392 3.0624 -30.6638
# 3 33.9688 55.8588 123.8637 7.9581 4.0023 2.4690
# 4 14.5564 23.6392 7.9581 39.8929 8.0922 -0.2105
# 5 14.9068 3.0624 4.0023 8.0922 40.1616 -9.0713
# 6 -20.7096 -30.6638 2.4690 -0.2105 -9.0713 33.9733
#
#
#
# Elastic Compliance Matrix: (Units=1/GPa)
#
#
# Indices 1 2 3 4 5 6 
#
# 1 0.013865 0.000815 -0.004010 -0.004305 -0.001922 0.008939
# 2 0.000815 0.012731 -0.005882 -0.007373 0.003823 0.013390
# 3 -0.004010 -0.005882 0.011881 0.002914 -0.001890 -0.009103
# 4 -0.004305 -0.007373 0.002914 0.031800 -0.007063 -0.011180
# 5 -0.001922 0.003823 -0.001890 -0.007063 0.029232 0.010178
# 6 0.008939 0.013390 -0.009103 -0.011180 0.010178 0.050280
#
#
# Mechanical properties :
#
#
# Convention : Reuss Voigt Hill
#
# Bulk Modulus (GPa) = 49.20004 68.94996 59.07500
# Shear Modulus (GPa) = 28.61807 39.20291 33.91049
#
# Velocity S-wave (km/s) = 3.53979 4.14301 3.85322
# Velocity P-wave (km/s) = 6.18454 7.28526 6.75735
#
# Compressibility (1/GPa) = 0.02032519
#
# Stress axis : x y z
#
# Youngs Moduli (GPa) = 72.12444 78.54787 84.16942
#
# Poissons Ratio (x) = -0.06405 0.33748
# Poissons Ratio (y) = -0.05882 0.49506
# Poissons Ratio (z) = 0.28919 0.46200
#
# Static dielectric constant tensor:
#      x y z
#    x 4.254900 -0.105820 -0.128270 
#    y -0.105820 4.091680 0.058870 
#    z -0.128270 0.058870 4.264310 
# 
# 
# High freq. dielectric constant tensor:
#      x y z
#    x 1.905280 -0.015550 -0.001730 
#    y -0.015550 1.898430 -0.009240 
#    z -0.001730 -0.009240 1.914640 
# 
# From -- ./inp_files/156536.got.cif
#   From: 2010.06.25/outbox.cif.g09.slc.cpg/sg2_79_cif.got.tgz:156536.got - 2010.06.27 13:26:56.
