data_PCOD8029108
_publ_section_title
;
Structure prediction by ZEFSAII (Michael W. Deem and Ramdas Pophale) SiO2 
 PCOD8029108
Probable space group: P -1
;
_chemical_formula_sum "Si O2"
_cell_formula_units_Z 16
_cell_length_a 9.516377
_cell_length_b 21.271819
_cell_length_c 7.846864
_cell_angle_alpha 96.533060
_cell_angle_beta 81.511687
_cell_angle_gamma 147.512680
_cell_volume 843.656889
_symmetry_space_group_name_H-M "P -1"
_symmetry_group_IT_number 2
_symmetry_cell_setting 'triclinic'
loop_
_space_group_symop_operation_xyz
x,y,z
-x,-y,-z
loop_
_atom_site_type_symbol
_atom_site_label
_atom_site_fract_x
_atom_site_fract_y
_atom_site_fract_z
Si Si1 0.014088 0.039702 0.331467
Si Si2 0.656955 0.422400 0.106933
Si Si3 0.872904 0.047482 0.843412
Si Si4 0.470604 0.101063 0.838741
Si Si5 0.254445 0.902169 0.394401
Si Si6 0.279719 0.268585 0.425082
Si Si7 0.448145 0.309007 0.777694
Si Si8 0.234903 0.664218 0.089593
O O1 0.130921 0.030630 0.180889
O O2 0.214254 0.172662 0.351282
O O3 0.000000 0.000000 0.500000
O O4 0.725356 0.953940 0.296910
O O5 0.453764 0.365174 0.275233
O O6 0.924612 0.561383 0.134827
O O7 0.543555 0.396880 0.929283
O O8 0.716960 0.368547 0.083213
O O9 0.765695 0.039618 0.688157
O O10 0.695536 0.999840 0.021588
O O11 0.167073 0.181546 0.859709
O O12 0.704078 0.142720 0.747161
O O13 0.614952 0.214443 0.935070
O O14 0.989844 0.793143 0.519270
O O15 0.500000 0.000000 0.500000
O O16 0.441270 0.332045 0.593881
O O17 0.647004 0.323305 0.754141
#
# Coordination Sequence:
#
# PCOD8029108 Si02
#       8
#     2   2   2   2   2   2   2   2
#     4  12  18  33  55  85 115 136 187 233 280 338
#     4   9  19  37  56  83 108 146 192 237 280 320
#     4  11  21  34  56  86 110 150 182 229 293 335
#     4  12  21  35  57  81 119 148 186 230 282 339
#     4  11  23  37  51  82 121 149 183 223 283 352
#     4  11  20  34  58  80 111 155 182 228 287 332
#     4   9  18  33  53  85 109 137 185 229 275 336
#     4   9  19  36  55  84 111 142 188 243 273 323
#
# _framework density 18.965056000000001
#
# number of rings (size 3 to 8) (size 9 to 14) (size 15 to 20)
#    0.750    0.750    5.000    2.250    0.000    0.500 
#    0.000    0.625    0.000    3.000    0.000    0.000 
#    0.000    0.000    0.000    0.000    0.000    0.000 
#
# Total GULP energy -198277.116527 kJ/mol
# GULP energy per Si atom -12392.319783 kJ/mol
# Density = 1.892189 g / cm^3
# Si number density = 18.965056 Si / 1000 Ang^3
#
#
#
# Elastic Constant Matrix: (Units=GPa)
#
#
# Indices 1 2 3 4 5 6 
#
# 1 66.5687 20.4717 18.9845 1.7354 -3.8245 20.1201
# 2 20.4717 89.3097 44.4062 6.9562 12.7055 25.0168
# 3 18.9845 44.4062 85.4465 -5.4761 2.4353 19.9149
# 4 1.7354 6.9562 -5.4761 24.1892 11.0934 -0.8857
# 5 -3.8245 12.7055 2.4353 11.0934 27.7967 1.8832
# 6 20.1201 25.0168 19.9149 -0.8857 1.8832 27.0289
#
#
#
# Elastic Compliance Matrix: (Units=1/GPa)
#
#
# Indices 1 2 3 4 5 6 
#
# 1 0.020364 -0.000410 -0.001476 -0.004986 0.006076 -0.014278
# 2 -0.000410 0.019560 -0.007430 -0.005227 -0.005439 -0.012116
# 3 -0.001476 -0.007430 0.017376 0.006242 -0.000510 -0.004587
# 4 -0.004986 -0.005227 0.006242 0.054558 -0.021106 0.007209
# 5 0.006076 -0.005439 -0.000510 -0.021106 0.047979 -0.003148
# 6 -0.014278 -0.012116 -0.004587 0.007209 -0.003148 0.062675
#
#
# Mechanical properties :
#
#
# Convention : Reuss Voigt Hill
#
# Bulk Modulus (GPa) = 25.86205 45.45000 35.65602
# Shear Modulus (GPa) = 19.68228 26.30044 22.99136
#
# Velocity S-wave (km/s) = 3.22501 3.72800 3.48559
# Velocity P-wave (km/s) = 5.24728 6.52286 5.91953
#
# Compressibility (1/GPa) = 0.03866669
#
# Stress axis : x y z
#
# Youngs Moduli (GPa) = 49.10686 51.12361 57.54951
#
# Poissons Ratio (x) = 0.02099 0.08495
# Poissons Ratio (y) = 0.02016 0.42761
# Poissons Ratio (z) = 0.07249 0.37986
#
# Static dielectric constant tensor:
#      x y z
#    x 4.008740 0.005430 -0.307190 
#    y 0.005430 3.461340 0.213130 
#    z -0.307190 0.213130 3.588800 
# 
# 
# High freq. dielectric constant tensor:
#      x y z
#    x 1.712920 0.024310 -0.003510 
#    y 0.024310 1.723320 0.009150 
#    z -0.003510 0.009150 1.736260 
# 
# From -- ./inp_files/222206.got.cif
#   From: 2010.06.25/outbox.cif.g09.slc.cpg/sg2_112_cif.got.tgz:222206.got - 2010.06.27 13:26:56.
