data_PCOD8029942
_publ_section_title
;
Structure prediction by ZEFSAII (Michael W. Deem and Ramdas Pophale) SiO2 
 PCOD8029942
Probable space group: P -1
;
_chemical_formula_sum "Si O2"
_cell_formula_units_Z 16
_cell_length_a 22.196066
_cell_length_b 15.646247
_cell_length_c 9.783370
_cell_angle_alpha 43.228829
_cell_angle_beta 134.548317
_cell_angle_gamma 160.445382
_cell_volume 777.235242
_symmetry_space_group_name_H-M "P -1"
_symmetry_group_IT_number 2
_symmetry_cell_setting 'triclinic'
loop_
_space_group_symop_operation_xyz
x,y,z
-x,-y,-z
loop_
_atom_site_type_symbol
_atom_site_label
_atom_site_fract_x
_atom_site_fract_y
_atom_site_fract_z
Si Si1 0.281601 0.554918 0.533754
Si Si2 0.775379 0.251599 0.811521
Si Si3 0.457981 0.450936 0.646771
Si Si4 0.238392 0.478860 0.083759
Si Si5 0.422476 0.644156 0.926665
Si Si6 0.923043 0.971558 0.534716
Si Si7 0.531456 0.821710 0.370964
Si Si8 0.146812 0.617561 0.899922
O O1 0.275621 0.689073 0.419916
O O2 0.337697 0.536473 0.766554
O O3 0.430699 0.745343 0.430502
O O4 0.077321 0.259823 0.505774
O O5 0.954488 0.431986 0.817184
O O6 0.625571 0.955540 0.886795
O O7 0.782246 0.294238 0.934241
O O8 0.500000 0.500000 0.500000
O O9 0.239445 0.158556 0.638266
O O10 0.540212 0.684750 0.567987
O O11 0.561666 0.478653 0.860254
O O12 0.135014 0.211754 0.238025
O O13 0.421728 0.710433 0.190397
O O14 0.297067 0.565519 0.917746
O O15 0.127385 0.453481 0.993553
O O16 0.000000 0.000000 0.500000
O O17 0.726906 0.137356 0.287441
#
# Coordination Sequence:
#
# PCOD8029942 Si02
#       8
#     2   2   2   2   2   2   2   2
#     4  12  26  43  65  96 135 169 207 268 332 377
#     4  11  24  39  66  99 125 166 220 270 309 378
#     4  11  22  41  69  94 125 168 220 262 305 381
#     4  11  21  41  65  94 128 172 210 263 319 378
#     4  12  26  43  65  96 135 169 207 268 332 377
#     4  11  22  41  69  94 125 168 220 262 305 381
#     4  11  21  41  65  94 128 172 210 263 319 378
#     4  11  22  38  72  98 120 166 231 264 300 381
#
# _framework density 20.585788999999998
#
# number of rings (size 3 to 8) (size 9 to 14) (size 15 to 20)
#    0.000    0.750    7.500    1.500    7.000    1.000 
#    0.000    2.500    0.000    0.000    0.000    0.000 
#    0.000    0.000    0.000    0.000    0.000    0.000 
#
# Total GULP energy -198325.766012 kJ/mol
# GULP energy per Si atom -12395.360376 kJ/mol
# Density = 2.053894 g / cm^3
# Si number density = 20.585789 Si / 1000 Ang^3
#
#
#
# Elastic Constant Matrix: (Units=GPa)
#
#
# Indices 1 2 3 4 5 6 
#
# 1 92.6452 26.8428 23.3994 -5.1394 19.3108 18.2858
# 2 26.8428 56.5687 20.6246 -16.9624 -2.1750 18.4131
# 3 23.3994 20.6246 87.9257 -4.5037 14.9584 8.7221
# 4 -5.1394 -16.9624 -4.5037 26.5286 -1.1396 1.5172
# 5 19.3108 -2.1750 14.9584 -1.1396 39.5317 -5.5300
# 6 18.2858 18.4131 8.7221 1.5172 -5.5300 27.7759
#
#
#
# Elastic Compliance Matrix: (Units=1/GPa)
#
#
# Indices 1 2 3 4 5 6 
#
# 1 0.016016 -0.004741 -0.000712 0.000075 -0.009070 -0.008987
# 2 -0.004741 0.034142 -0.004485 0.021376 0.003921 -0.018490
# 3 -0.000712 -0.004485 0.013671 -0.000808 -0.005357 -0.001874
# 4 0.000075 0.021376 -0.000808 0.052222 0.000615 -0.016696
# 5 -0.009070 0.003921 -0.005357 0.000615 0.033626 0.011715
# 6 -0.008987 -0.018490 -0.001874 -0.016696 0.011715 0.058009
#
#
# Mechanical properties :
#
#
# Convention : Reuss Voigt Hill
#
# Bulk Modulus (GPa) = 22.75179 42.09702 32.42440
# Shear Modulus (GPa) = 20.64311 29.85210 25.24760
#
# Velocity S-wave (km/s) = 3.17011 3.81219 3.50588
# Velocity P-wave (km/s) = 4.94729 6.31435 5.67215
#
# Compressibility (1/GPa) = 0.04395258
#
# Stress axis : x y z
#
# Youngs Moduli (GPa) = 62.43792 29.28975 73.15012
#
# Poissons Ratio (x) = 0.13887 0.05206
# Poissons Ratio (y) = 0.29604 0.32805
# Poissons Ratio (z) = 0.04444 0.13135
#
# Static dielectric constant tensor:
#      x y z
#    x 3.495030 0.117550 -0.314330 
#    y 0.117550 3.645060 -0.153280 
#    z -0.314330 -0.153280 3.151340 
# 
# 
# High freq. dielectric constant tensor:
#      x y z
#    x 1.817950 0.014430 0.010790 
#    y 0.014430 1.797840 -0.023920 
#    z 0.010790 -0.023920 1.794020 
# 
# From -- ./inp_files/245480.got.cif
#   From: 2010.06.25/outbox.cif.g09.slc.cpg/sg2_123_cif.got.tgz:245480.got - 2010.06.27 13:26:56.
