data_PCOD8029441
_publ_section_title
;
Structure prediction by ZEFSAII (Michael W. Deem and Ramdas Pophale) SiO2 
 PCOD8029441
Probable space group: P -1
;
_chemical_formula_sum "Si O2"
_cell_formula_units_Z 16
_cell_length_a 12.231804
_cell_length_b 13.537486
_cell_length_c 9.583146
_cell_angle_alpha 113.755758
_cell_angle_beta 62.280031
_cell_angle_gamma 62.155116
_cell_volume 757.960035
_symmetry_space_group_name_H-M "P -1"
_symmetry_group_IT_number 2
_symmetry_cell_setting 'triclinic'
loop_
_space_group_symop_operation_xyz
x,y,z
-x,-y,-z
loop_
_atom_site_type_symbol
_atom_site_label
_atom_site_fract_x
_atom_site_fract_y
_atom_site_fract_z
Si Si1 0.067114 0.549828 0.087143
Si Si2 0.561436 0.578047 0.302913
Si Si3 0.246505 0.781398 0.073247
Si Si4 0.490433 0.262334 0.300186
Si Si5 0.770850 0.151032 0.568626
Si Si6 0.695759 0.963982 0.484312
Si Si7 0.979691 0.469037 0.341515
Si Si8 0.339773 0.058118 0.826390
O O1 0.918487 0.756351 0.271955
O O2 0.060150 0.512049 0.226225
O O3 0.302651 0.418968 0.838332
O O4 0.000000 0.500000 0.000000
O O5 0.491990 0.659759 0.545596
O O6 0.359710 0.701784 0.394766
O O7 0.693463 0.375343 0.118691
O O8 0.260971 0.758920 0.219455
O O9 0.399543 0.767097 0.918752
O O10 0.011969 0.978652 0.278804
O O11 0.253090 0.401263 0.485152
O O12 0.607737 0.070534 0.166301
O O13 0.690670 0.087915 0.615294
O O14 0.666928 0.988796 0.349352
O O15 0.515372 0.026585 0.706760
O O16 0.000000 0.500000 0.500000
O O17 0.119011 0.264677 0.118245
#
# Coordination Sequence:
#
# PCOD8029441 Si02
#       8
#     2   2   2   2   2   2   2   2
#     4  12  21  42  72 103 133 170 226 272 330 410
#     4  12  23  45  74  96 130 181 230 275 327 395
#     4  11  28  46  64  98 139 174 228 282 328 395
#     4  12  26  45  69 102 137 176 224 275 337 401
#     4  11  25  46  69  96 129 183 228 274 335 388
#     4  11  20  41  74  98 130 173 223 281 325 396
#     4  12  28  43  65 106 144 174 212 276 349 398
#     4  11  23  42  70 102 133 171 221 275 339 400
#
# _framework density 21.109293999999998
#
# number of rings (size 3 to 8) (size 9 to 14) (size 15 to 20)
#    0.000    0.500    6.250    1.500    3.500    3.000 
#    0.000    0.000    0.000    0.000    0.000    0.000 
#    0.000    0.000    0.000    0.000    0.000    0.000 
#
# Total GULP energy -198517.530705 kJ/mol
# GULP energy per Si atom -12407.345669 kJ/mol
# Density = 2.106125 g / cm^3
# Si number density = 21.109294 Si / 1000 Ang^3
#
#
#
# Elastic Constant Matrix: (Units=GPa)
#
#
# Indices 1 2 3 4 5 6 
#
# 1 64.2061 18.6642 18.4566 1.7176 -6.1348 -3.1285
# 2 18.6642 88.7597 42.0446 5.4243 -6.9096 -6.7801
# 3 18.4566 42.0446 75.3164 5.8952 -18.7478 0.3675
# 4 1.7176 5.4243 5.8952 36.9929 -3.2385 -1.7196
# 5 -6.1348 -6.9096 -18.7478 -3.2385 26.2418 2.9662
# 6 -3.1285 -6.7801 0.3675 -1.7196 2.9662 40.4492
#
#
#
# Elastic Compliance Matrix: (Units=1/GPa)
#
#
# Indices 1 2 3 4 5 6 
#
# 1 0.017146 -0.002185 -0.002629 0.000113 0.001469 0.000881
# 2 -0.002185 0.016108 -0.009214 -0.000949 -0.003288 0.002815
# 3 -0.002629 -0.009214 0.022451 -0.001087 0.013200 -0.002966
# 4 0.000113 -0.000949 -0.001087 0.027581 0.002306 0.000863
# 5 0.001469 -0.003288 0.013200 0.002306 0.047747 -0.003961
# 6 0.000881 0.002815 -0.002966 0.000863 -0.003961 0.025617
#
#
# Mechanical properties :
#
#
# Convention : Reuss Voigt Hill
#
# Bulk Modulus (GPa) = 36.17072 42.95701 39.56387
# Shear Modulus (GPa) = 25.78344 30.67791 28.23067
#
# Velocity S-wave (km/s) = 3.49868 3.81634 3.66096
# Velocity P-wave (km/s) = 5.78733 6.30977 6.05419
#
# Compressibility (1/GPa) = 0.02764667
#
# Stress axis : x y z
#
# Youngs Moduli (GPa) = 58.32212 62.08200 44.54219
#
# Poissons Ratio (x) = 0.13566 0.11712
# Poissons Ratio (y) = 0.12745 0.41043
# Poissons Ratio (z) = 0.15335 0.57205
#
# Static dielectric constant tensor:
#      x y z
#    x 3.727090 -0.073480 -0.077650 
#    y -0.073480 3.799310 0.030370 
#    z -0.077650 0.030370 3.871740 
# 
# 
# High freq. dielectric constant tensor:
#      x y z
#    x 1.829290 -0.002500 -0.003360 
#    y -0.002500 1.831080 0.012350 
#    z -0.003360 0.012350 1.833570 
# 
# From -- ./inp_files/274058.got.cif
#   From: 2010.06.25/outbox.cif.g09.slc.cpg/sg2_138_cif.got.tgz:274058.got - 2010.06.27 13:26:56.
