data_PCOD8029747
_publ_section_title
;
Structure prediction by ZEFSAII (Michael W. Deem and Ramdas Pophale) SiO2 
 PCOD8029747
Probable space group: P -1
;
_chemical_formula_sum "Si O2"
_cell_formula_units_Z 16
_cell_length_a 10.456044
_cell_length_b 23.008908
_cell_length_c 16.690358
_cell_angle_alpha 18.060872
_cell_angle_beta 39.681300
_cell_angle_gamma 41.239550
_cell_volume 790.700146
_symmetry_space_group_name_H-M "P -1"
_symmetry_group_IT_number 2
_symmetry_cell_setting 'triclinic'
loop_
_space_group_symop_operation_xyz
x,y,z
-x,-y,-z
loop_
_atom_site_type_symbol
_atom_site_label
_atom_site_fract_x
_atom_site_fract_y
_atom_site_fract_z
Si Si1 0.193691 0.480834 0.537145
Si Si2 0.104848 0.116094 0.652997
Si Si3 0.568288 0.901739 0.344883
Si Si4 0.124102 0.229161 0.762301
Si Si5 0.912066 0.500789 0.260227
Si Si6 0.364625 0.193469 0.291923
Si Si7 0.420747 0.294783 0.952870
Si Si8 0.360584 0.548473 0.929676
O O1 0.223809 0.296854 0.707114
O O2 0.173398 0.412414 0.728121
O O3 0.376560 0.604455 0.271428
O O4 0.980742 0.595280 0.467016
O O5 0.304045 0.129757 0.593123
O O6 0.151738 0.167306 0.471135
O O7 0.928536 0.273066 0.561644
O O8 0.045013 0.906983 0.957666
O O9 0.710250 0.886133 0.220021
O O10 0.404483 0.752968 0.608580
O O11 0.454803 0.110607 0.122316
O O12 0.753912 0.561262 0.188092
O O13 0.127939 0.562581 0.049878
O O14 0.500000 0.000000 0.500000
O O15 0.345600 0.223520 0.167520
O O16 0.432937 0.388287 0.039302
O O17 0.500000 0.500000 0.000000
#
# Coordination Sequence:
#
# PCOD8029747 Si02
#       8
#     2   2   2   2   2   2   2   2
#     4  11  22  41  64  96 126 161 213 266 309 368
#     4  11  21  40  64  92 124 165 205 258 313 370
#     4  12  21  40  64  93 125 165 206 260 310 370
#     4  11  22  38  69  98 119 159 222 265 299 374
#     4  11  25  42  63  91 131 170 203 258 323 375
#     4  11  21  39  64  94 124 164 213 254 305 374
#     4  12  25  41  63  93 131 169 206 257 322 372
#     4  11  21  39  65  93 123 165 210 256 309 369
#
# _framework density 20.235230000000001
#
# number of rings (size 3 to 8) (size 9 to 14) (size 15 to 20)
#    0.000    0.750    6.250    2.250    0.000    6.500 
#    0.000    3.750    0.000    0.000    0.000    0.000 
#    0.000    0.000    0.000    0.000    0.000    0.000 
#
# Total GULP energy -198386.882568 kJ/mol
# GULP energy per Si atom -12399.180160 kJ/mol
# Density = 2.018917 g / cm^3
# Si number density = 20.235230 Si / 1000 Ang^3
#
#
#
# Elastic Constant Matrix: (Units=GPa)
#
#
# Indices 1 2 3 4 5 6 
#
# 1 71.3843 34.3354 31.7159 -2.1767 3.8300 8.8447
# 2 34.3354 99.6356 26.9684 4.8200 -6.5358 19.0630
# 3 31.7159 26.9684 100.8811 -3.2488 -23.2818 9.0669
# 4 -2.1767 4.8200 -3.2488 38.9766 2.8405 4.1479
# 5 3.8300 -6.5358 -23.2818 2.8405 39.1296 -3.1866
# 6 8.8447 19.0630 9.0669 4.1479 -3.1866 32.1392
#
#
#
# Elastic Compliance Matrix: (Units=1/GPa)
#
#
# Indices 1 2 3 4 5 6 
#
# 1 0.020005 -0.005481 -0.006209 0.001927 -0.006824 -0.001428
# 2 -0.005481 0.013507 -0.000988 -0.001572 0.001843 -0.005839
# 3 -0.006209 -0.000988 0.014260 0.000418 0.008823 -0.000907
# 4 0.001927 -0.001572 0.000418 0.026528 -0.002403 -0.003378
# 5 -0.006824 0.001843 0.008823 -0.002403 0.032102 0.001789
# 6 -0.001428 -0.005839 -0.000907 -0.003378 0.001789 0.035840
#
#
# Mechanical properties :
#
#
# Convention : Reuss Voigt Hill
#
# Bulk Modulus (GPa) = 44.60982 50.88227 47.74604
# Shear Modulus (GPa) = 28.56006 33.97450 31.26728
#
# Velocity S-wave (km/s) = 3.76094 4.10198 3.93516
# Velocity P-wave (km/s) = 6.39946 6.90181 6.65537
#
# Compressibility (1/GPa) = 0.02241659
#
# Stress axis : x y z
#
# Youngs Moduli (GPa) = 49.98653 74.03611 70.12665
#
# Poissons Ratio (x) = 0.40580 0.43539
# Poissons Ratio (y) = 0.27398 0.06929
# Poissons Ratio (z) = 0.31035 0.07315
#
# Static dielectric constant tensor:
#      x y z
#    x 3.370480 0.508490 -0.249220 
#    y 0.508490 3.557210 -0.164630 
#    z -0.249220 -0.164630 4.008560 
# 
# 
# High freq. dielectric constant tensor:
#      x y z
#    x 1.761850 0.014930 -0.008070 
#    y 0.014930 1.805460 0.001670 
#    z -0.008070 0.001670 1.799190 
# 
# From -- ./inp_files/305710.got.cif
#   From: 2010.06.25/outbox.cif.g09.slc.cpg/sg2_153_cif.got.tgz:305710.got - 2010.06.27 13:26:56.
