data_PCOD8029340
_publ_section_title
;
Structure prediction by ZEFSAII (Michael W. Deem and Ramdas Pophale) SiO2 
 PCOD8029340
Probable space group: P -1
;
_chemical_formula_sum "Si O2"
_cell_formula_units_Z 16
_cell_length_a 14.531644
_cell_length_b 9.384538
_cell_length_c 15.292769
_cell_angle_alpha 150.505788
_cell_angle_beta 133.694320
_cell_angle_gamma 48.517537
_cell_volume 731.375138
_symmetry_space_group_name_H-M "P -1"
_symmetry_group_IT_number 2
_symmetry_cell_setting 'triclinic'
loop_
_space_group_symop_operation_xyz
x,y,z
-x,-y,-z
loop_
_atom_site_type_symbol
_atom_site_label
_atom_site_fract_x
_atom_site_fract_y
_atom_site_fract_z
Si Si1 0.651922 0.628794 0.561264
Si Si2 0.865284 0.548775 0.520871
Si Si3 0.488284 0.164563 0.817907
Si Si4 0.461509 0.182282 0.159510
Si Si5 0.067978 0.932940 0.916192
Si Si6 0.028914 0.035571 0.436409
Si Si7 0.774504 0.610348 0.299689
Si Si8 0.801396 0.559542 0.794706
O O1 0.759310 0.678409 0.590255
O O2 0.546684 0.439078 0.358383
O O3 0.719735 0.487385 0.618357
O O4 0.587368 0.962099 0.713463
O O5 0.793274 0.595648 0.407473
O O6 0.980516 0.745583 0.699718
O O7 0.906751 0.198580 0.385414
O O8 0.349697 0.156401 0.681153
O O9 0.499446 0.052365 0.864016
O O10 0.500000 0.500000 0.000000
O O11 0.306701 0.320881 0.137784
O O12 0.500000 0.000000 0.000000
O O13 0.211512 0.727277 0.907388
O O14 0.096750 0.223290 0.042302
O O15 0.000000 0.000000 0.000000
O O16 0.102069 0.742247 0.278464
O O17 0.115250 0.283521 0.627270
O O18 0.000000 0.000000 0.500000
#
# Coordination Sequence:
#
# PCOD8029340 Si02
#       8
#     2   2   2   2   2   2   2   2
#     4  11  22  44  71  97 140 187 226 278 354 409
#     4  11  25  42  68  98 139 183 224 277 345 409
#     4  11  25  45  70 102 131 183 233 280 345 412
#     4  11  26  46  71 105 138 181 232 292 347 405
#     4  11  21  41  66  99 134 179 221 279 346 402
#     4  11  20  40  67  99 124 178 227 270 338 408
#     4  11  24  44  63  93 139 176 228 277 332 411
#     4  11  21  42  72 101 137 177 228 287 344 408
#
# _framework density 21.876595999999999
#
# number of rings (size 3 to 8) (size 9 to 14) (size 15 to 20)
#    0.000    1.000    2.500    6.750    3.500    0.500 
#    2.250    3.750    0.000    0.000    0.000    0.000 
#    0.000    0.000    0.000    0.000    0.000    0.000 
#
# Total GULP energy -198224.342267 kJ/mol
# GULP energy per Si atom -12389.021392 kJ/mol
# Density = 2.182680 g / cm^3
# Si number density = 21.876596 Si / 1000 Ang^3
#
#
#
# Elastic Constant Matrix: (Units=GPa)
#
#
# Indices 1 2 3 4 5 6 
#
# 1 124.2241 42.0451 28.8479 10.3570 -27.1287 -14.0121
# 2 42.0451 127.0389 32.9356 18.3900 -25.2762 -12.9264
# 3 28.8479 32.9356 98.3275 24.1018 -13.8892 -8.1473
# 4 10.3570 18.3900 24.1018 28.7606 0.7877 -2.1730
# 5 -27.1287 -25.2762 -13.8892 0.7877 42.4268 7.1312
# 6 -14.0121 -12.9264 -8.1473 -2.1730 7.1312 25.8149
#
#
#
# Elastic Compliance Matrix: (Units=1/GPa)
#
#
# Indices 1 2 3 4 5 6 
#
# 1 0.010402 -0.001641 -0.001179 -0.001615 0.004816 0.002986
# 2 -0.001641 0.010598 -0.000890 -0.005387 0.004671 0.002391
# 3 -0.001179 -0.000890 0.014033 -0.010739 0.003251 0.001542
# 4 -0.001615 -0.005387 -0.010739 0.047987 -0.008554 -0.000561
# 5 0.004816 0.004671 0.003251 -0.008554 0.031221 -0.003366
# 6 0.002986 0.002391 0.001542 -0.000561 -0.003366 0.042925
#
#
# Mechanical properties :
#
#
# Convention : Reuss Voigt Hill
#
# Bulk Modulus (GPa) = 36.21362 61.91640 49.06501
# Shear Modulus (GPa) = 28.77017 35.78459 32.27738
#
# Velocity S-wave (km/s) = 3.63038 4.04883 3.84530
# Velocity P-wave (km/s) = 5.84486 7.08670 6.49553
#
# Compressibility (1/GPa) = 0.02761392
#
# Stress axis : x y z
#
# Youngs Moduli (GPa) = 96.13141 94.35670 71.25959
#
# Poissons Ratio (x) = 0.15488 0.08398
# Poissons Ratio (y) = 0.15779 0.06342
# Poissons Ratio (z) = 0.11329 0.08397
#
# Static dielectric constant tensor:
#      x y z
#    x 4.152520 -0.012750 0.018750 
#    y -0.012750 3.438800 0.328230 
#    z 0.018750 0.328230 4.034160 
# 
# 
# High freq. dielectric constant tensor:
#      x y z
#    x 1.879000 -0.012820 -0.000220 
#    y -0.012820 1.856740 0.019700 
#    z -0.000220 0.019700 1.859420 
# 
# From -- ./inp_files/285172.got.cif
#   From: 2010.06.25/outbox.cif.g09.slc.cpg/sg2_143_cif.got.tgz:285172.got - 2010.06.27 13:26:56.
