data_PCOD8029460
_publ_section_title
;
Structure prediction by ZEFSAII (Michael W. Deem and Ramdas Pophale) SiO2 
 PCOD8029460
Probable space group: P -1
;
_chemical_formula_sum "Si O2"
_cell_formula_units_Z 16
_cell_length_a 9.706934
_cell_length_b 14.587738
_cell_length_c 12.874636
_cell_angle_alpha 29.199975
_cell_angle_beta 120.884945
_cell_angle_gamma 109.330956
_cell_volume 732.846079
_symmetry_space_group_name_H-M "P -1"
_symmetry_group_IT_number 2
_symmetry_cell_setting 'triclinic'
loop_
_space_group_symop_operation_xyz
x,y,z
-x,-y,-z
loop_
_atom_site_type_symbol
_atom_site_label
_atom_site_fract_x
_atom_site_fract_y
_atom_site_fract_z
Si Si1 0.827962 0.248753 0.410427
Si Si2 0.531745 0.774670 0.710717
Si Si3 0.185680 0.512556 0.029453
Si Si4 0.686896 0.567538 0.173287
Si Si5 0.454021 0.499148 0.310955
Si Si6 0.454387 0.798544 0.180991
Si Si7 0.088515 0.272112 0.776146
Si Si8 0.910881 0.031424 0.086645
O O1 0.643314 0.245217 0.379279
O O2 0.851507 0.419557 0.328860
O O3 0.963256 0.045650 0.691890
O O4 0.842611 0.302662 0.242506
O O5 0.690362 0.683022 0.784901
O O6 0.500000 0.000000 0.500000
O O7 0.555067 0.663083 0.939346
O O8 0.274215 0.556645 0.125798
O O9 0.000000 0.500000 0.000000
O O10 0.600492 0.442515 0.338640
O O11 0.741907 0.739657 0.083500
O O12 0.503440 0.673967 0.218537
O O13 0.459596 0.319262 0.567449
O O14 0.500000 0.000000 0.000000
O O15 0.257203 0.830065 0.070706
O O16 0.131804 0.152470 0.804394
O O17 0.000000 0.500000 0.500000
O O18 0.974766 0.168847 0.898756
#
# Coordination Sequence:
#
# PCOD8029460 Si02
#       8
#     2   2   2   2   2   2   2   2
#     4  11  22  44  68 100 139 175 226 289 339 415
#     4  11  23  42  69 103 136 181 231 287 346 410
#     4  11  25  45  72 100 137 192 230 282 358 417
#     4  11  20  42  69  93 132 180 224 277 345 405
#     4  11  24  47  70  94 139 183 233 280 347 419
#     4  11  27  45  68  98 138 186 225 287 351 414
#     4  11  22  38  65  98 130 176 218 283 343 387
#     4  11  25  41  65 105 137 169 237 282 335 420
#
# _framework density 21.832688999999998
#
# number of rings (size 3 to 8) (size 9 to 14) (size 15 to 20)
#    0.000    1.000    3.750    3.000    3.500    6.000 
#    0.000    1.250    0.000    0.000    0.000    0.000 
#    0.000    0.000    0.000    0.000    0.000    0.000 
#
# Total GULP energy -198282.635994 kJ/mol
# GULP energy per Si atom -12392.664750 kJ/mol
# Density = 2.178300 g / cm^3
# Si number density = 21.832689 Si / 1000 Ang^3
#
#
#
# Elastic Constant Matrix: (Units=GPa)
#
#
# Indices 1 2 3 4 5 6 
#
# 1 100.2950 32.2443 23.0613 13.8655 0.4826 1.1799
# 2 32.2443 103.2895 56.1470 13.3347 -12.8239 8.4121
# 3 23.0613 56.1470 113.5853 8.9805 -4.6167 -8.1995
# 4 13.8655 13.3347 8.9805 38.4007 7.6106 -1.3629
# 5 0.4826 -12.8239 -4.6167 7.6106 32.6538 2.9472
# 6 1.1799 8.4121 -8.1995 -1.3629 2.9472 31.0077
#
#
#
# Elastic Compliance Matrix: (Units=1/GPa)
#
#
# Indices 1 2 3 4 5 6 
#
# 1 0.011465 -0.002970 -0.000661 -0.002792 -0.000792 0.000147
# 2 -0.002970 0.016859 -0.007590 -0.004727 0.007359 -0.007375
# 3 -0.000661 -0.007590 0.013001 0.000380 -0.001736 0.005704
# 4 -0.002792 -0.004727 0.000380 0.030561 -0.009219 0.003709
# 5 -0.000792 0.007359 -0.001736 -0.009219 0.035994 -0.006252
# 6 0.000147 -0.007375 0.005704 0.003709 -0.006252 0.036511
#
#
# Mechanical properties :
#
#
# Convention : Reuss Voigt Hill
#
# Bulk Modulus (GPa) = 52.95455 60.00836 56.48145
# Shear Modulus (GPa) = 28.88048 34.12692 31.50370
#
# Velocity S-wave (km/s) = 3.64099 3.95791 3.80275
# Velocity P-wave (km/s) = 6.47944 6.95931 6.72365
#
# Compressibility (1/GPa) = 0.01888412
#
# Stress axis : x y z
#
# Youngs Moduli (GPa) = 87.21936 59.31431 76.91597
#
# Poissons Ratio (x) = 0.17616 0.05080
# Poissons Ratio (y) = 0.25904 0.58382
# Poissons Ratio (z) = 0.05761 0.45022
#
# Static dielectric constant tensor:
#      x y z
#    x 3.901080 0.120490 0.065680 
#    y 0.120490 4.485100 0.082630 
#    z 0.065680 0.082630 4.227470 
# 
# 
# High freq. dielectric constant tensor:
#      x y z
#    x 1.850190 0.004990 0.000190 
#    y 0.004990 1.869100 0.011160 
#    z 0.000190 0.011160 1.861280 
# 
# From -- ./inp_files/398257.got.cif
#   From: 2010.06.25/outbox.cif.g09.slc.cpg/sg2_200_cif.got.tgz:398257.got - 2010.06.27 13:26:56.
