data_PCOD8029562
_publ_section_title
;
Structure prediction by ZEFSAII (Michael W. Deem and Ramdas Pophale) SiO2 
 PCOD8029562
Probable space group: P -1
;
_chemical_formula_sum "Si O2"
_cell_formula_units_Z 16
_cell_length_a 11.657291
_cell_length_b 9.835846
_cell_length_c 8.530591
_cell_angle_alpha 58.891374
_cell_angle_beta 62.282757
_cell_angle_gamma 73.177974
_cell_volume 739.797749
_symmetry_space_group_name_H-M "P -1"
_symmetry_group_IT_number 2
_symmetry_cell_setting 'triclinic'
loop_
_space_group_symop_operation_xyz
x,y,z
-x,-y,-z
loop_
_atom_site_type_symbol
_atom_site_label
_atom_site_fract_x
_atom_site_fract_y
_atom_site_fract_z
Si Si1 0.043208 0.256231 0.705435
Si Si2 0.092560 0.929172 0.349338
Si Si3 0.766056 0.845632 0.088539
Si Si4 0.576836 0.503950 0.692207
Si Si5 0.476510 0.131457 0.571434
Si Si6 0.709074 0.551734 0.099885
Si Si7 0.700601 0.286173 0.485228
Si Si8 0.185275 0.493953 0.261947
O O1 0.114907 0.171997 0.856110
O O2 0.139445 0.367401 0.489997
O O3 0.002091 0.119418 0.698271
O O4 0.915829 0.356473 0.785576
O O5 0.175585 0.777139 0.456424
O O6 0.000000 0.000000 0.500000
O O7 0.194167 0.048299 0.146344
O O8 0.637640 0.924707 0.208840
O O9 0.735989 0.674450 0.145557
O O10 0.567242 0.695709 0.574429
O O11 0.440792 0.435777 0.866510
O O12 0.617997 0.425134 0.547274
O O13 0.679484 0.445840 0.795272
O O14 0.609404 0.144379 0.578959
O O15 0.500000 0.000000 0.500000
O O16 0.748202 0.373979 0.246280
O O17 0.795527 0.585648 0.873184
#
# Coordination Sequence:
#
# PCOD8029562 Si02
#       8
#     2   2   2   2   2   2   2   2
#     4  11  25  45  65  96 140 179 227 285 331 406
#     4  12  29  45  67 100 141 185 229 285 343 408
#     4  12  25  47  69  98 140 182 226 288 349 405
#     4  11  20  48  70 102 139 175 227 287 340 408
#     4  11  24  42  74 105 139 178 224 291 351 406
#     4  11  23  41  76 101 131 177 230 284 343 407
#     4  11  23  47  71  98 142 178 228 283 342 409
#     4  11  23  40  73 103 126 178 237 279 330 405
#
# _framework density 21.627535000000002
#
# number of rings (size 3 to 8) (size 9 to 14) (size 15 to 20)
#    0.000    0.750    5.000    2.250    5.250    4.000 
#    2.250    0.000    0.000    0.000    0.000    0.000 
#    0.000    0.000    0.000    0.000    0.000    0.000 
#
# Total GULP energy -198468.084544 kJ/mol
# GULP energy per Si atom -12404.255284 kJ/mol
# Density = 2.157831 g / cm^3
# Si number density = 21.627535 Si / 1000 Ang^3
#
#
#
# Elastic Constant Matrix: (Units=GPa)
#
#
# Indices 1 2 3 4 5 6 
#
# 1 130.4605 40.4849 34.5814 3.1645 0.4551 7.5935
# 2 40.4849 127.2213 43.1575 22.4814 -8.3234 13.5941
# 3 34.5814 43.1575 85.7291 22.1234 3.2805 -4.4536
# 4 3.1645 22.4814 22.1234 33.9494 -0.5517 1.8696
# 5 0.4551 -8.3234 3.2805 -0.5517 21.9234 -3.6737
# 6 7.5935 13.5941 -4.4536 1.8696 -3.6737 36.2343
#
#
#
# Elastic Compliance Matrix: (Units=1/GPa)
#
#
# Indices 1 2 3 4 5 6 
#
# 1 0.009291 -0.002143 -0.003486 0.002912 -0.000712 -0.001794
# 2 -0.002143 0.011373 -0.004077 -0.004404 0.004248 -0.003661
# 3 -0.003486 -0.004077 0.017787 -0.008875 -0.003600 0.004539
# 4 0.002912 -0.004404 -0.008875 0.037997 0.000219 -0.001987
# 5 -0.000712 0.004248 -0.003600 0.000219 0.048287 0.002998
# 6 -0.001794 -0.003661 0.004539 -0.001987 0.002998 0.030312
#
#
# Mechanical properties :
#
#
# Convention : Reuss Voigt Hill
#
# Bulk Modulus (GPa) = 52.52758 64.42872 58.47815
# Shear Modulus (GPa) = 27.65404 33.43388 30.54396
#
# Velocity S-wave (km/s) = 3.57970 3.93605 3.76210
# Velocity P-wave (km/s) = 6.43628 7.10714 6.78002
#
# Compressibility (1/GPa) = 0.01903762
#
# Stress axis : x y z
#
# Youngs Moduli (GPa) = 107.63514 87.92960 56.22057
#
# Poissons Ratio (x) = 0.18848 0.19599
# Poissons Ratio (y) = 0.23072 0.22920
# Poissons Ratio (z) = 0.37523 0.35847
#
# Static dielectric constant tensor:
#      x y z
#    x 4.066530 0.034760 -0.125600 
#    y 0.034760 3.771930 0.151950 
#    z -0.125600 0.151950 3.833640 
# 
# 
# High freq. dielectric constant tensor:
#      x y z
#    x 1.865360 0.006110 -0.003590 
#    y 0.006110 1.842940 0.011370 
#    z -0.003590 0.011370 1.847410 
# 
# From -- ./inp_files/208465.got.cif
#   From: 2010.06.25/outbox.cif.g09.slc.cpg/sg2_105_cif.got.tgz:208465.got - 2010.06.27 13:26:56.
