data_PCOD8029576
_publ_section_title
;
Structure prediction by ZEFSAII (Michael W. Deem and Ramdas Pophale) SiO2 
 PCOD8029576
Probable space group: P -1
;
_chemical_formula_sum "Si O2"
_cell_formula_units_Z 16
_cell_length_a 9.786967
_cell_length_b 19.848816
_cell_length_c 13.080392
_cell_angle_alpha 25.999059
_cell_angle_beta 48.602870
_cell_angle_gamma 46.620945
_cell_volume 801.840244
_symmetry_space_group_name_H-M "P -1"
_symmetry_group_IT_number 2
_symmetry_cell_setting 'triclinic'
loop_
_space_group_symop_operation_xyz
x,y,z
-x,-y,-z
loop_
_atom_site_type_symbol
_atom_site_label
_atom_site_fract_x
_atom_site_fract_y
_atom_site_fract_z
Si Si1 0.148564 0.257579 0.151737
Si Si2 0.117910 0.493319 0.189169
Si Si3 0.373966 0.918222 0.446826
Si Si4 0.950202 0.979980 0.886205
Si Si5 0.810233 0.854949 0.323550
Si Si6 0.229786 0.734521 0.944087
Si Si7 0.229716 0.780066 0.516338
Si Si8 0.632206 0.575843 0.035285
O O1 0.976494 0.201222 0.359716
O O2 0.289911 0.109599 0.225746
O O3 0.252707 0.318401 0.109396
O O4 0.074746 0.398882 0.913739
O O5 0.075424 0.331844 0.469074
O O6 0.177846 0.579774 0.138385
O O7 0.291887 0.456995 0.072806
O O8 0.592111 0.875158 0.429469
O O9 0.262925 0.842908 0.686839
O O10 0.354820 0.848963 0.439167
O O11 0.051871 0.835736 0.958376
O O12 0.796129 0.119129 0.712604
O O13 0.832213 0.916104 0.116111
O O14 0.112124 0.046553 0.765119
O O15 0.412166 0.674275 0.009111
O O16 0.337681 0.594928 0.690328
#
# Coordination Sequence:
#
# PCOD8029576 Si02
#       8
#     2   2   2   2   2   2   2   2
#     4  11  21  34  59  93 120 151 194 248 298 343
#     4  11  21  38  60  88 122 156 192 245 300 348
#     4  12  22  38  63  92 120 152 200 249 293 347
#     4  11  25  43  61  85 122 163 198 239 295 356
#     4  11  25  43  61  85 122 163 198 239 295 356
#     4  12  22  38  63  92 120 152 200 249 293 347
#     4  11  21  38  60  88 122 156 192 245 300 348
#     4  11  21  34  59  93 120 151 194 248 298 343
#
# _framework density 19.9541
#
# number of rings (size 3 to 8) (size 9 to 14) (size 15 to 20)
#    0.000    0.750    5.000    6.000    0.000    2.000 
#    0.000    1.250    0.000    4.500    0.000    0.000 
#    0.000    0.000    0.000    0.000    0.000    0.000 
#
# Total GULP energy -198515.658561 kJ/mol
# GULP energy per Si atom -12407.228660 kJ/mol
# Density = 1.990868 g / cm^3
# Si number density = 19.954100 Si / 1000 Ang^3
#
#
#
# Elastic Constant Matrix: (Units=GPa)
#
#
# Indices 1 2 3 4 5 6 
#
# 1 67.6851 0.6814 12.2625 -4.0056 6.2961 3.8776
# 2 0.6814 44.6255 25.5371 -12.3100 0.7064 2.5280
# 3 12.2625 25.5371 91.3620 -23.5829 18.0951 4.7691
# 4 -4.0056 -12.3100 -23.5829 20.4393 -0.5031 3.3078
# 5 6.2961 0.7064 18.0951 -0.5031 35.9126 -13.3321
# 6 3.8776 2.5280 4.7691 3.3078 -13.3321 24.6827
#
#
#
# Elastic Compliance Matrix: (Units=1/GPa)
#
#
# Indices 1 2 3 4 5 6 
#
# 1 0.015851 0.001518 -0.000003 0.004861 -0.004956 -0.005974
# 2 0.001518 0.028884 -0.004908 0.012641 0.000441 -0.003704
# 3 -0.000003 -0.004908 0.023646 0.026685 -0.017862 -0.017290
# 4 0.004861 0.012641 0.026685 0.093080 -0.025706 -0.033573
# 5 -0.004956 0.000441 -0.017862 -0.025706 0.050255 0.034774
# 6 -0.005974 -0.003704 -0.017290 -0.033573 0.034774 0.068455
#
#
# Mechanical properties :
#
#
# Convention : Reuss Voigt Hill
#
# Bulk Modulus (GPa) = 16.23563 31.18161 23.70862
# Shear Modulus (GPa) = 16.26070 27.21970 21.74020
#
# Velocity S-wave (km/s) = 2.85775 3.69740 3.30435
# Velocity P-wave (km/s) = 4.36385 5.82136 5.14448
#
# Compressibility (1/GPa) = 0.06159292
#
# Stress axis : x y z
#
# Youngs Moduli (GPa) = 63.08921 34.62100 42.29023
#
# Poissons Ratio (x) = -0.05255 0.00014
# Poissons Ratio (y) = -0.09575 0.20758
# Poissons Ratio (z) = 0.00021 0.16993
#
# Static dielectric constant tensor:
#      x y z
#    x 3.737750 0.047250 0.137660 
#    y 0.047250 3.464640 -0.346100 
#    z 0.137660 -0.346100 3.693580 
# 
# 
# High freq. dielectric constant tensor:
#      x y z
#    x 1.794410 0.005260 0.006830 
#    y 0.005260 1.761700 -0.032970 
#    z 0.006830 -0.032970 1.773970 
# 
# From -- ./inp_files/186961.got.cif
#   From: 2010.06.25/outbox.cif.g09.slc.cpg/sg2_94_cif.got.tgz:186961.got - 2010.06.27 13:26:56.
