data_PCOD8029139
_publ_section_title
;
Structure prediction by ZEFSAII (Michael W. Deem and Ramdas Pophale) SiO2 
 PCOD8029139
Probable space group: P -1
;
_chemical_formula_sum "Si O2"
_cell_formula_units_Z 16
_cell_length_a 6.352463
_cell_length_b 9.424533
_cell_length_c 17.170593
_cell_angle_alpha 130.704775
_cell_angle_beta 95.217399
_cell_angle_gamma 101.344188
_cell_volume 730.082764
_symmetry_space_group_name_H-M "P -1"
_symmetry_group_IT_number 2
_symmetry_cell_setting 'triclinic'
loop_
_space_group_symop_operation_xyz
x,y,z
-x,-y,-z
loop_
_atom_site_type_symbol
_atom_site_label
_atom_site_fract_x
_atom_site_fract_y
_atom_site_fract_z
Si Si1 0.874154 0.043873 0.761793
Si Si2 0.328577 0.586795 0.369624
Si Si3 0.560724 0.299022 0.428893
Si Si4 0.905015 0.263845 0.310760
Si Si5 0.620917 0.393542 0.233206
Si Si6 0.018890 0.241480 0.993262
Si Si7 0.293623 0.072291 0.021498
Si Si8 0.965847 0.396184 0.779873
O O1 0.877175 0.180208 0.887381
O O2 0.937214 0.182410 0.737943
O O3 0.628157 0.881347 0.685287
O O4 0.067993 0.946749 0.743882
O O5 0.409262 0.760039 0.500600
O O6 0.559397 0.543131 0.343184
O O7 0.218352 0.642011 0.308716
O O8 0.150639 0.409694 0.348541
O O9 0.500000 0.500000 0.500000
O O10 0.797702 0.338304 0.407418
O O11 0.741487 0.252191 0.227443
O O12 0.371049 0.260650 0.149991
O O13 0.781265 0.512883 0.211768
O O14 0.903452 0.118223 0.021944
O O15 0.236488 0.166180 0.972073
O O16 0.072764 0.470382 0.101596
O O17 0.500000 0.000000 0.000000
#
# Coordination Sequence:
#
# PCOD8029139 Si02
#       8
#     2   2   2   2   2   2   2   2
#     4  12  27  43  64 100 136 178 219 266 333 396
#     4  11  23  43  71  96 127 174 220 272 327 384
#     4  12  24  43  72 100 129 168 224 282 328 385
#     4  11  22  41  71  99 130 165 223 280 325 387
#     4  11  21  41  66  99 129 172 219 268 328 387
#     4  11  23  41  66  96 134 171 220 275 321 387
#     4  11  20  35  66  98 124 163 223 273 321 379
#     4  11  26  44  64  95 143 178 213 268 329 400
#
# _framework density 21.915323000000001
#
# number of rings (size 3 to 8) (size 9 to 14) (size 15 to 20)
#    0.000    0.750    5.000    3.000    3.500    1.500 
#    0.000    1.875    0.000    0.000    0.000    0.000 
#    0.000    0.000    0.000    0.000    0.000    0.000 
#
# Total GULP energy -198230.488658 kJ/mol
# GULP energy per Si atom -12389.405541 kJ/mol
# Density = 2.186544 g / cm^3
# Si number density = 21.915323 Si / 1000 Ang^3
#
#
#
# Elastic Constant Matrix: (Units=GPa)
#
#
# Indices 1 2 3 4 5 6 
#
# 1 101.2233 42.9246 31.6262 -1.9548 -6.5099 -8.8432
# 2 42.9246 123.4610 40.7171 -3.3520 -5.3881 -15.5224
# 3 31.6262 40.7171 111.0120 -25.5406 10.7471 -8.6834
# 4 -1.9548 -3.3520 -25.5406 26.7404 -4.8491 3.5740
# 5 -6.5099 -5.3881 10.7471 -4.8491 42.0922 -6.8446
# 6 -8.8432 -15.5224 -8.6834 3.5740 -6.8446 22.0850
#
#
#
# Elastic Compliance Matrix: (Units=1/GPa)
#
#
# Indices 1 2 3 4 5 6 
#
# 1 0.012427 -0.002916 -0.003009 -0.002260 0.002527 0.002893
# 2 -0.002916 0.011173 -0.003629 -0.002667 0.002658 0.006514
# 3 -0.003009 -0.003629 0.014313 0.012551 -0.003332 -0.001192
# 4 -0.002260 -0.002667 0.012551 0.049804 0.000929 -0.005616
# 5 0.002527 0.002658 -0.003332 0.000929 0.027040 0.009800
# 6 0.002893 0.006514 -0.001192 -0.005616 0.009800 0.054493
#
#
# Mechanical properties :
#
#
# Convention : Reuss Voigt Hill
#
# Bulk Modulus (GPa) = 53.17414 62.91467 58.04440
# Shear Modulus (GPa) = 25.69018 32.87876 29.28447
#
# Velocity S-wave (km/s) = 3.42752 3.87753 3.65945
# Velocity P-wave (km/s) = 6.32298 6.98694 6.66323
#
# Compressibility (1/GPa) = 0.01880613
#
# Stress axis : x y z
#
# Youngs Moduli (GPa) = 80.46760 89.50390 69.86474
#
# Poissons Ratio (x) = 0.26096 0.21024
# Poissons Ratio (y) = 0.23461 0.25352
# Poissons Ratio (z) = 0.24215 0.32478
#
# Static dielectric constant tensor:
#      x y z
#    x 3.624160 -0.137620 -0.264390 
#    y -0.137620 3.725040 -0.123620 
#    z -0.264390 -0.123620 4.076760 
# 
# 
# High freq. dielectric constant tensor:
#      x y z
#    x 1.870410 -0.016650 0.004260 
#    y -0.016650 1.835730 -0.017500 
#    z 0.004260 -0.017500 1.870330 
# 
# From -- ./inp_files/548425.got.cif
#   From: 2010.06.25/outbox.cif.g09.slc.cpg/sg2_275_cif.got.tgz:548425.got - 2010.06.27 13:26:56.
