data_PCOD8029996
_publ_section_title
;
Structure prediction by ZEFSAII (Michael W. Deem and Ramdas Pophale) SiO2 
 PCOD8029996
Probable space group: P -1
;
_chemical_formula_sum "Si O2"
_cell_formula_units_Z 16
_cell_length_a 8.898394
_cell_length_b 9.650855
_cell_length_c 15.210335
_cell_angle_alpha 120.307556
_cell_angle_beta 60.995908
_cell_angle_gamma 77.071469
_cell_volume 773.529470
_symmetry_space_group_name_H-M "P -1"
_symmetry_group_IT_number 2
_symmetry_cell_setting 'triclinic'
loop_
_space_group_symop_operation_xyz
x,y,z
-x,-y,-z
loop_
_atom_site_type_symbol
_atom_site_label
_atom_site_fract_x
_atom_site_fract_y
_atom_site_fract_z
Si Si1 0.365717 0.284401 0.261638
Si Si2 0.749822 0.308610 0.351130
Si Si3 0.509010 0.141960 0.611115
Si Si4 0.966953 0.568039 0.747203
Si Si5 0.801714 0.269029 0.518120
Si Si6 0.829721 0.996952 0.098632
Si Si7 0.786470 0.820467 0.560845
Si Si8 0.040364 0.547050 0.908831
O O1 0.251003 0.294381 0.206806
O O2 0.350176 0.486920 0.340026
O O3 0.245222 0.269963 0.373263
O O4 0.618982 0.081136 0.123197
O O5 0.500000 0.500000 0.500000
O O6 0.869332 0.226200 0.383580
O O7 0.891900 0.348656 0.264300
O O8 0.739430 0.141270 0.255584
O O9 0.691401 0.164832 0.539417
O O10 0.289837 0.371724 0.754512
O O11 0.500000 0.000000 0.500000
O O12 0.567450 0.035027 0.656822
O O13 0.129596 0.338498 0.592983
O O14 0.902377 0.567310 0.867698
O O15 0.030970 0.149661 0.465486
O O16 0.969725 0.767718 0.018298
O O17 0.000000 0.000000 0.000000
O O18 0.000000 0.500000 0.000000
#
# Coordination Sequence:
#
# PCOD8029996 Si02
#       8
#     2   2   2   2   2   2   2   2
#     4  11  22  41  71 101 133 175 218 279 342 396
#     4  12  21  38  69 103 129 168 219 279 327 395
#     4  12  26  43  68  96 132 181 227 274 331 393
#     4  11  21  42  67 101 134 166 225 277 333 396
#     4  11  22  39  68 104 136 161 223 283 337 391
#     4  12  25  41  65  96 137 176 220 271 335 388
#     4  11  21  41  69 105 132 170 219 283 340 389
#     4  12  27  45  61  95 136 179 223 272 327 399
#
# _framework density 20.684408000000001
#
# number of rings (size 3 to 8) (size 9 to 14) (size 15 to 20)
#    0.000    0.500    6.250    3.375    3.500    0.500 
#    0.000    0.000    0.000    4.500    0.000    0.000 
#    0.000    0.000    0.000    0.000    0.000    0.000 
#
# Total GULP energy -198307.043139 kJ/mol
# GULP energy per Si atom -12394.190196 kJ/mol
# Density = 2.063733 g / cm^3
# Si number density = 20.684408 Si / 1000 Ang^3
#
#
#
# Elastic Constant Matrix: (Units=GPa)
#
#
# Indices 1 2 3 4 5 6 
#
# 1 127.5068 70.6440 56.0689 5.3687 3.3417 -4.1816
# 2 70.6440 132.3682 48.5943 1.3052 9.4433 -13.7955
# 3 56.0689 48.5943 108.8763 9.1002 7.5157 -10.9526
# 4 5.3687 1.3052 9.1002 47.2446 -8.8851 1.2046
# 5 3.3417 9.4433 7.5157 -8.8851 34.8835 -2.9698
# 6 -4.1816 -13.7955 -10.9526 1.2046 -2.9698 41.7923
#
#
#
# Elastic Compliance Matrix: (Units=1/GPa)
#
#
# Indices 1 2 3 4 5 6 
#
# 1 0.012671 -0.005409 -0.004318 -0.000233 0.000988 -0.001572
# 2 -0.005409 0.011586 -0.002013 0.000259 -0.001896 0.002613
# 3 -0.004318 -0.002013 0.012884 -0.002414 -0.002246 0.002190
# 4 -0.000233 0.000259 -0.002414 0.022841 0.006223 -0.000786
# 5 0.000988 -0.001896 -0.002246 0.006223 0.031233 0.000925
# 6 -0.001572 0.002613 0.002190 -0.000786 0.000925 0.025295
#
#
# Mechanical properties :
#
#
# Convention : Reuss Voigt Hill
#
# Bulk Modulus (GPa) = 73.20731 79.92952 76.56842
# Shear Modulus (GPa) = 34.59171 37.68037 36.13604
#
# Velocity S-wave (km/s) = 4.09388 4.27274 4.18427
# Velocity P-wave (km/s) = 7.60367 7.94154 7.77444
#
# Compressibility (1/GPa) = 0.01365984
#
# Stress axis : x y z
#
# Youngs Moduli (GPa) = 78.92271 86.31339 77.61633
#
# Poissons Ratio (x) = 0.46688 0.33513
# Poissons Ratio (y) = 0.42691 0.15626
# Poissons Ratio (z) = 0.34077 0.17377
#
# Static dielectric constant tensor:
#      x y z
#    x 0.710480 0.389300 -2.000320 
#    y 0.389300 3.711100 0.384540 
#    z -2.000320 0.384540 2.374080 
# 
# 
# High freq. dielectric constant tensor:
#      x y z
#    x 1.819230 -0.013130 0.006260 
#    y -0.013130 1.815560 0.005200 
#    z 0.006260 0.005200 1.798810 
# 
# From -- ./inp_files/187625.got.cif
#   From: 2010.06.25/outbox.cif.g09.slc.cpg/sg2_94_cif.got.tgz:187625.got - 2010.06.27 13:26:56.
