data_PCOD8029546
_publ_section_title
;
Structure prediction by ZEFSAII (Michael W. Deem and Ramdas Pophale) SiO2 
 PCOD8029546
Probable space group: P -1
;
_chemical_formula_sum "Si O2"
_cell_formula_units_Z 14
_cell_length_a 10.949229
_cell_length_b 10.799393
_cell_length_c 7.718109
_cell_angle_alpha 119.677765
_cell_angle_beta 69.724714
_cell_angle_gamma 65.695423
_cell_volume 519.581780
_symmetry_space_group_name_H-M "P -1"
_symmetry_group_IT_number 2
_symmetry_cell_setting 'triclinic'
loop_
_space_group_symop_operation_xyz
x,y,z
-x,-y,-z
loop_
_atom_site_type_symbol
_atom_site_label
_atom_site_fract_x
_atom_site_fract_y
_atom_site_fract_z
Si Si1 0.439080 0.401601 0.850854
Si Si2 0.779459 0.686368 0.213675
Si Si3 0.176501 0.032756 0.646724
Si Si4 0.312616 0.225546 0.295398
Si Si5 0.112645 0.102637 0.321946
Si Si6 0.280671 0.553800 0.384598
Si Si7 0.229097 0.728277 0.882360
O O1 0.314293 0.353999 0.897875
O O2 0.654068 0.206516 0.553960
O O3 0.436165 0.465218 0.097132
O O4 0.333502 0.579642 0.888704
O O5 0.743650 0.872100 0.284344
O O6 0.682030 0.733261 0.478491
O O7 0.000000 0.500000 0.000000
O O8 0.127051 0.060524 0.488594
O O9 0.990462 0.145953 0.927224
O O10 0.152971 0.233860 0.345521
O O11 0.271973 0.392206 0.311124
O O12 0.500000 0.000000 0.000000
O O13 0.904865 0.234118 0.456366
O O14 0.245570 0.887179 0.003881
O O15 0.330816 0.597591 0.566593
#
# Coordination Sequence:
#
# PCOD8029546 Si02
#       7
#     2   2   2   2   2   2   2
#     4  12  25  46  76 110 150 192 246 311 364 439
#     4  11  20  44  73 107 146 193 242 304 367 433
#     4  11  24  45  74 109 147 196 248 300 373 437
#     4  11  24  45  73 112 143 185 254 306 359 437
#     4  11  25  47  75 106 150 197 242 304 373 443
#     4  12  24  47  78 104 147 198 246 303 370 434
#     4  12  26  51  74 108 152 197 245 302 375 444
#
# _framework density 26.944745999999999
#
# number of rings (size 3 to 8) (size 9 to 14) (size 15 to 20)
#    0.000    0.571    4.286    4.286    0.000    2.857 
#    5.143    2.857    0.000    0.000    0.000    0.000 
#    0.000    0.000    0.000    0.000    0.000    0.000 
#
# Total GULP energy -173680.191676 kJ/mol
# GULP energy per Si atom -12405.727977 kJ/mol
# Density = 2.688342 g / cm^3
# Si number density = 26.944746 Si / 1000 Ang^3
#
#
#
# Elastic Constant Matrix: (Units=GPa)
#
#
# Indices 1 2 3 4 5 6 
#
# 1 115.6179 30.7068 30.8207 -2.6503 12.0092 -2.6707
# 2 30.7068 109.8605 49.4267 8.4723 10.6253 12.7390
# 3 30.8207 49.4267 143.4516 -5.5022 14.3228 -4.2149
# 4 -2.6503 8.4723 -5.5022 54.1023 0.5632 -4.7725
# 5 12.0092 10.6253 14.3228 0.5632 46.2433 8.0104
# 6 -2.6707 12.7390 -4.2149 -4.7725 8.0104 38.7148
#
#
#
# Elastic Compliance Matrix: (Units=1/GPa)
#
#
# Indices 1 2 3 4 5 6 
#
# 1 0.009827 -0.002397 -0.000990 0.000944 -0.002034 0.001896
# 2 -0.002397 0.012388 -0.004004 -0.002907 -0.000079 -0.005019
# 3 -0.000990 -0.004004 0.008926 0.001762 -0.002107 0.002874
# 4 0.000944 -0.002907 0.001762 0.019513 -0.001024 0.003831
# 5 -0.002034 -0.000079 -0.002107 -0.001024 0.023769 -0.005388
# 6 0.001896 -0.005019 0.002874 0.003831 -0.005388 0.029512
#
#
# Mechanical properties :
#
#
# Convention : Reuss Voigt Hill
#
# Bulk Modulus (GPa) = 61.13639 65.64872 63.39256
# Shear Modulus (GPa) = 40.26729 45.01047 42.63888
#
# Velocity S-wave (km/s) = 3.86999 4.09158 3.98233
# Velocity P-wave (km/s) = 6.53513 6.83655 6.68754
#
# Compressibility (1/GPa) = 0.01635687
#
# Stress axis : x y z
#
# Youngs Moduli (GPa) = 101.76516 80.72447 112.03433
#
# Poissons Ratio (x) = 0.19350 0.11095
# Poissons Ratio (y) = 0.24393 0.44863
# Poissons Ratio (z) = 0.10078 0.32325
#
# Static dielectric constant tensor:
#      x y z
#    x 5.657850 0.641310 0.128180 
#    y 0.641310 4.973480 0.132770 
#    z 0.128180 0.132770 5.139770 
# 
# 
# High freq. dielectric constant tensor:
#      x y z
#    x 2.108770 0.015830 0.005760 
#    y 0.015830 2.091250 0.009610 
#    z 0.005760 0.009610 2.095320 
# 
# From -- ./inp_files/307930.got.cif
#   From: 2010.06.25/outbox.cif.g09.slc.cpg/sg2_154_cif.got.tgz:307930.got - 2010.06.27 13:26:56.
