data_PCOD8029208
_publ_section_title
;
Structure prediction by ZEFSAII (Michael W. Deem and Ramdas Pophale) SiO2 
 PCOD8029208
Probable space group: P -1
;
_chemical_formula_sum "Si O2"
_cell_formula_units_Z 16
_cell_length_a 16.251823
_cell_length_b 9.844877
_cell_length_c 15.792732
_cell_angle_alpha 143.155693
_cell_angle_beta 142.066334
_cell_angle_gamma 36.326389
_cell_volume 820.524871
_symmetry_space_group_name_H-M "P -1"
_symmetry_group_IT_number 2
_symmetry_cell_setting 'triclinic'
loop_
_space_group_symop_operation_xyz
x,y,z
-x,-y,-z
loop_
_atom_site_type_symbol
_atom_site_label
_atom_site_fract_x
_atom_site_fract_y
_atom_site_fract_z
Si Si1 0.913307 0.929296 0.464841
Si Si2 0.887056 0.141399 0.114934
Si Si3 0.796319 0.769493 0.784773
Si Si4 0.124925 0.559177 0.591484
Si Si5 0.672722 0.447514 0.614927
Si Si6 0.776690 0.311719 0.814294
Si Si7 0.123717 0.491510 0.860616
Si Si8 0.667548 0.931458 0.580856
O O1 0.826294 0.780708 0.280039
O O2 0.049401 0.752631 0.549507
O O3 0.781367 0.171396 0.525204
O O4 0.000000 0.000000 0.500000
O O5 0.814126 0.321251 0.226825
O O6 0.904288 0.292185 0.123849
O O7 0.052884 0.919755 0.164160
O O8 0.774899 0.023107 0.943788
O O9 0.684762 0.669599 0.682155
O O10 0.769512 0.833398 0.696915
O O11 0.972320 0.554624 0.823476
O O12 0.268156 0.294440 0.548729
O O13 0.000000 0.500000 0.500000
O O14 0.500000 0.500000 0.500000
O O15 0.731039 0.462477 0.763743
O O16 0.663960 0.190178 0.672996
O O17 0.755565 0.512030 0.973387
O O18 0.500000 0.000000 0.500000
#
# Coordination Sequence:
#
# PCOD8029208 Si02
#       8
#     2   2   2   2   2   2   2   2
#     4  12  22  39  63  91 121 161 210 249 298 360
#     4  11  20  37  68  94 121 149 212 268 295 347
#     4  11  21  40  60  90 124 162 201 251 305 360
#     4  12  20  37  61  93 119 156 209 254 293 356
#     4  12  26  42  59  92 132 162 200 251 309 372
#     4  11  21  38  63  91 119 167 197 247 317 352
#     4  11  20  38  67  94 122 149 211 266 297 352
#     4  12  22  38  61  91 126 163 200 244 307 374
#
# _framework density 19.499713
#
# number of rings (size 3 to 8) (size 9 to 14) (size 15 to 20)
#    0.000    0.500    8.750    1.500    0.000    3.000 
#    0.000    2.500    0.000    0.000    0.000    0.000 
#    0.000    0.000    0.000    0.000    0.000    0.000 
#
# Total GULP energy -198399.922065 kJ/mol
# GULP energy per Si atom -12399.995129 kJ/mol
# Density = 1.945533 g / cm^3
# Si number density = 19.499713 Si / 1000 Ang^3
#
#
#
# Elastic Constant Matrix: (Units=GPa)
#
#
# Indices 1 2 3 4 5 6 
#
# 1 93.4190 28.0019 42.5145 5.6662 -0.7515 -0.5792
# 2 28.0019 43.2167 24.1383 5.1284 -1.6585 0.4909
# 3 42.5145 24.1383 140.8375 22.2976 -19.3318 -9.6693
# 4 5.6662 5.1284 22.2976 28.3874 5.0971 -0.4677
# 5 -0.7515 -1.6585 -19.3318 5.0971 43.1744 -2.8218
# 6 -0.5792 0.4909 -9.6693 -0.4677 -2.8218 37.7698
#
#
#
# Elastic Compliance Matrix: (Units=1/GPa)
#
#
# Indices 1 2 3 4 5 6 
#
# 1 0.014539 -0.007641 -0.003662 0.001689 -0.001928 -0.000738
# 2 -0.007641 0.029766 -0.002587 -0.001838 -0.000009 -0.001190
# 3 -0.003662 -0.002587 0.011030 -0.008488 0.005983 0.003143
# 4 0.001689 -0.001838 -0.008488 0.043490 -0.009124 -0.002266
# 5 -0.001928 -0.000009 0.005983 -0.009124 0.027107 0.003415
# 6 -0.000738 -0.001190 0.003143 -0.002266 0.003415 0.027512
#
#
# Mechanical properties :
#
#
# Convention : Reuss Voigt Hill
#
# Bulk Modulus (GPa) = 36.29007 51.86473 44.07740
# Shear Modulus (GPa) = 26.25918 34.05424 30.15671
#
# Velocity S-wave (km/s) = 3.67365 4.18353 3.93685
# Velocity P-wave (km/s) = 6.05353 7.07045 6.58166
#
# Compressibility (1/GPa) = 0.02755575
#
# Stress axis : x y z
#
# Youngs Moduli (GPa) = 68.78148 33.59497 90.66106
#
# Poissons Ratio (x) = 0.25670 0.33199
# Poissons Ratio (y) = 0.52556 0.23453
# Poissons Ratio (z) = 0.25187 0.08691
#
# Static dielectric constant tensor:
#      x y z
#    x 3.537780 0.216660 -0.197830 
#    y 0.216660 3.861760 -0.198270 
#    z -0.197830 -0.198270 4.172580 
# 
# 
# High freq. dielectric constant tensor:
#      x y z
#    x 1.760110 0.020900 -0.012050 
#    y 0.020900 1.732730 0.011030 
#    z -0.012050 0.011030 1.776550 
# 
# From -- ./inp_files/205138.got.cif
#   From: 2010.06.25/outbox.cif.g09.slc.cpg/sg2_103_cif.got.tgz:205138.got - 2010.06.27 13:26:56.
