data_PCOD8029358
_publ_section_title
;
Structure prediction by ZEFSAII (Michael W. Deem and Ramdas Pophale) SiO2 
 PCOD8029358
Probable space group: P -1
;
_chemical_formula_sum "Si O2"
_cell_formula_units_Z 16
_cell_length_a 13.272445
_cell_length_b 8.413578
_cell_length_c 14.458861
_cell_angle_alpha 84.219755
_cell_angle_beta 137.899434
_cell_angle_gamma 65.412872
_cell_volume 729.320399
_symmetry_space_group_name_H-M "P -1"
_symmetry_group_IT_number 2
_symmetry_cell_setting 'triclinic'
loop_
_space_group_symop_operation_xyz
x,y,z
-x,-y,-z
loop_
_atom_site_type_symbol
_atom_site_label
_atom_site_fract_x
_atom_site_fract_y
_atom_site_fract_z
Si Si1 0.029702 0.129776 0.077799
Si Si2 0.663141 0.406904 0.477459
Si Si3 0.439108 0.330185 0.788380
Si Si4 0.537057 0.802121 0.464345
Si Si5 0.638992 0.654575 0.735463
Si Si6 0.383499 0.063930 0.660383
Si Si7 0.043377 0.801364 0.594898
Si Si8 0.111632 0.899864 0.823062
O O1 0.952988 0.147428 0.127197
O O2 0.276089 0.006566 0.251090
O O3 0.880717 0.389507 0.920582
O O4 0.000000 0.000000 0.000000
O O5 0.546134 0.578258 0.299764
O O6 0.621051 0.551851 0.528925
O O7 0.554588 0.319676 0.421073
O O8 0.926408 0.177923 0.657287
O O9 0.445564 0.137415 0.779828
O O10 0.217561 0.549852 0.678624
O O11 0.654418 0.194869 0.003921
O O12 0.609621 0.800296 0.618557
O O13 0.675019 0.795931 0.482805
O O14 0.588091 0.786297 0.789127
O O15 0.185192 0.113579 0.560067
O O16 0.134598 0.760614 0.761928
O O17 0.000000 0.000000 0.500000
#
# Coordination Sequence:
#
# PCOD8029358 Si02
#       8
#     2   2   2   2   2   2   2   2
#     4  12  22  37  68 103 137 178 224 269 323 396
#     4  11  20  40  69  99 134 177 234 272 314 403
#     4  11  24  45  68 101 136 171 220 289 343 385
#     4  11  23  39  64  99 139 181 218 273 333 390
#     4  12  21  40  66  97 138 182 226 265 322 406
#     4  11  25  44  67  98 142 176 216 282 350 394
#     4  12  24  47  78  94 126 179 233 284 336 396
#     4  12  23  41  73 105 129 179 233 272 325 401
#
# _framework density 21.938231999999999
#
# number of rings (size 3 to 8) (size 9 to 14) (size 15 to 20)
#    0.000    0.500    6.250    3.000    0.000    0.500 
#    0.000    5.625    0.000    0.000    0.000    0.000 
#    0.000    0.000    0.000    0.000    0.000    0.000 
#
# Total GULP energy -198446.069208 kJ/mol
# GULP energy per Si atom -12402.879325 kJ/mol
# Density = 2.188830 g / cm^3
# Si number density = 21.938232 Si / 1000 Ang^3
#
#
#
# Elastic Constant Matrix: (Units=GPa)
#
#
# Indices 1 2 3 4 5 6 
#
# 1 97.9616 30.8924 16.0406 5.3206 2.9623 1.8577
# 2 30.8924 97.2295 36.7311 -12.5384 12.9252 -15.7028
# 3 16.0406 36.7311 95.9145 -14.8706 0.3346 1.0615
# 4 5.3206 -12.5384 -14.8706 41.6624 -7.2899 0.1313
# 5 2.9623 12.9252 0.3346 -7.2899 26.2818 1.3365
# 6 1.8577 -15.7028 1.0615 0.1313 1.3365 40.1721
#
#
#
# Elastic Compliance Matrix: (Units=1/GPa)
#
#
# Indices 1 2 3 4 5 6 
#
# 1 0.011878 -0.004206 -0.000828 -0.003072 -0.000002 -0.002161
# 2 -0.004206 0.015841 -0.005063 0.002257 -0.006969 0.006745
# 3 -0.000828 -0.005063 0.013124 0.003908 0.003623 -0.002421
# 4 -0.003072 0.002257 0.003908 0.027662 0.006829 0.000603
# 5 -0.000002 -0.006969 0.003623 0.006829 0.043543 -0.004291
# 6 -0.002161 0.006745 -0.002421 0.000603 -0.004291 0.027834
#
#
# Mechanical properties :
#
#
# Convention : Reuss Voigt Hill
#
# Bulk Modulus (GPa) = 48.43256 50.93709 49.68483
# Shear Modulus (GPa) = 29.94758 35.45270 32.70014
#
# Velocity S-wave (km/s) = 3.69872 4.02434 3.86496
# Velocity P-wave (km/s) = 6.35337 6.69795 6.52794
#
# Compressibility (1/GPa) = 0.02064727
#
# Stress axis : x y z
#
# Youngs Moduli (GPa) = 84.18961 63.12764 76.19912
#
# Poissons Ratio (x) = 0.26552 0.06310
# Poissons Ratio (y) = 0.35411 0.38583
# Poissons Ratio (z) = 0.06971 0.31964
#
# Static dielectric constant tensor:
#      x y z
#    x 3.952600 -0.078120 -0.027690 
#    y -0.078120 4.506250 -0.013940 
#    z -0.027690 -0.013940 3.866950 
# 
# 
# High freq. dielectric constant tensor:
#      x y z
#    x 1.860570 -0.006540 0.002500 
#    y -0.006540 1.889810 -0.000920 
#    z 0.002500 -0.000920 1.852610 
# 
# From -- ./inp_files/503840.got.cif
#   From: 2010.06.25/outbox.cif.g09.slc.cpg/sg2_252_cif.got.tgz:503840.got - 2010.06.27 13:26:56.
