data_PCOD8029701
_publ_section_title
;
Structure prediction by ZEFSAII (Michael W. Deem and Ramdas Pophale) SiO2 
 PCOD8029701
Probable space group: P -1
;
_chemical_formula_sum "Si O2"
_cell_formula_units_Z 16
_cell_length_a 21.713728
_cell_length_b 12.677245
_cell_length_c 18.495002
_cell_angle_alpha 160.695187
_cell_angle_beta 26.448310
_cell_angle_gamma 154.308256
_cell_volume 692.997378
_symmetry_space_group_name_H-M "P -1"
_symmetry_group_IT_number 2
_symmetry_cell_setting 'triclinic'
loop_
_space_group_symop_operation_xyz
x,y,z
-x,-y,-z
loop_
_atom_site_type_symbol
_atom_site_label
_atom_site_fract_x
_atom_site_fract_y
_atom_site_fract_z
Si Si1 0.908291 0.762060 0.612979
Si Si2 0.526328 0.313271 0.532227
Si Si3 0.338874 0.174788 0.889476
Si Si4 0.413095 0.347503 0.162043
Si Si5 0.044518 0.781010 0.872217
Si Si6 0.110516 0.177090 0.786392
Si Si7 0.772172 0.295157 0.576854
Si Si8 0.443389 0.672523 0.733994
O O1 0.764353 0.832478 0.781753
O O2 0.990628 0.623392 0.374087
O O3 0.857387 0.419466 0.493562
O O4 0.010614 0.108780 0.773592
O O5 0.557117 0.396792 0.637184
O O6 0.544608 0.648971 0.681565
O O7 0.632363 0.101267 0.264834
O O8 0.358094 0.067502 0.535541
O O9 0.499683 0.425150 0.850645
O O10 0.223515 0.976908 0.820066
O O11 0.270689 0.396322 0.150889
O O12 0.484316 0.067816 0.925461
O O13 0.966896 0.758314 0.017608
O O14 0.000000 0.000000 0.000000
O O15 0.265230 0.497998 0.819561
O O16 0.126665 0.806472 0.537574
O O17 0.500000 0.500000 0.500000
#
# Coordination Sequence:
#
# PCOD8029701 Si02
#       8
#     2   2   2   2   2   2   2   2
#     4  12  23  41  67 103 141 178 230 284 349 412
#     4  11  23  43  68 104 137 177 238 287 341 414
#     4  12  23  39  72 109 139 180 231 292 351 407
#     4  12  25  44  69 105 140 185 230 291 348 412
#     4  12  24  40  69 107 145 180 229 292 355 408
#     4  11  25  46  67 101 144 187 231 285 350 420
#     4  11  21  38  66 104 141 177 224 287 345 405
#     4  11  28  50  70  97 137 190 234 283 355 418
#
# _framework density 23.08811
#
# number of rings (size 3 to 8) (size 9 to 14) (size 15 to 20)
#    0.000    0.500    5.000    4.500    3.500    0.500 
#    2.250    0.625    0.000    0.000    0.000    0.000 
#    0.000    0.000    0.000    0.000    0.000    0.000 
#
# Total GULP energy -198302.839891 kJ/mol
# GULP energy per Si atom -12393.927493 kJ/mol
# Density = 2.303556 g / cm^3
# Si number density = 23.088110 Si / 1000 Ang^3
#
#
#
# Elastic Constant Matrix: (Units=GPa)
#
#
# Indices 1 2 3 4 5 6 
#
# 1 49.1423 -154.3547 85.4615 -15.8894 -25.7211 -85.5767
# 2 -154.3547 -433.8401 144.9035 -50.3264 -54.9955 -271.7781
# 3 85.4615 144.9035 98.6534 -2.4292 9.1370 61.7546
# 4 -15.8894 -50.3264 -2.4292 29.1947 -12.6905 -23.3668
# 5 -25.7211 -54.9955 9.1370 -12.6905 43.2809 -31.0455
# 6 -85.5767 -271.7781 61.7546 -23.3668 -31.0455 -130.1662
#
#
#
# Elastic Compliance Matrix: (Units=1/GPa)
#
#
# Indices 1 2 3 4 5 6 
#
# 1 0.011607 -0.001724 -0.003951 -0.001297 0.000933 -0.005894
# 2 -0.001724 0.007989 -0.000498 -0.000248 -0.001819 -0.015304
# 3 -0.003951 -0.000498 0.009760 0.004151 0.001342 0.007202
# 4 -0.001297 -0.000248 0.004151 0.032654 0.004956 -0.003703
# 5 0.000933 -0.001819 0.001342 0.004956 0.021024 -0.002082
# 6 -0.005894 -0.015304 0.007202 -0.003703 -0.002082 0.032724
#
#
# Mechanical properties :
#
#
# Convention : Reuss Voigt Hill
#
# Bulk Modulus (GPa) = 58.79004 -14.89156 21.94924
# Shear Modulus (GPa) = 37.37661 -35.67511 0.85075
#
# Velocity S-wave (km/s) = 4.02788 -3.93513 0.60768
# Velocity P-wave (km/s) = 6.86661 5.20681 3.16540
#
# Compressibility (1/GPa) = 0.01700968
#
# Stress axis : x y z
#
# Youngs Moduli (GPa) = 86.15322 125.17874 102.46019
#
# Poissons Ratio (x) = 0.21587 0.40479
# Poissons Ratio (y) = 0.14857 0.05101
# Poissons Ratio (z) = 0.34036 0.06232
#
# Static dielectric constant tensor:
#      x y z
#    x 4.543710 0.042650 -0.261710 
#    y 0.042650 4.176660 0.135320 
#    z -0.261710 0.135320 4.635240 
# 
# 
# High freq. dielectric constant tensor:
#      x y z
#    x 1.928640 0.011890 -0.003470 
#    y 0.011890 1.882060 -0.009130 
#    z -0.003470 -0.009130 1.928020 
# 
# From -- ./inp_files/578069.got.cif
#   From: 2010.06.25/outbox.cif.g09.slc.cpg/sg2_290_cif.got.tgz:578069.got - 2010.06.27 13:26:56.
