data_PCOD8029802
_publ_section_title
;
Structure prediction by ZEFSAII (Michael W. Deem and Ramdas Pophale) SiO2 
 PCOD8029802
Probable space group: P -1
;
_chemical_formula_sum "Si O2"
_cell_formula_units_Z 16
_cell_length_a 12.220135
_cell_length_b 16.782356
_cell_length_c 10.821555
_cell_angle_alpha 147.596060
_cell_angle_beta 109.233995
_cell_angle_gamma 48.221461
_cell_volume 720.405979
_symmetry_space_group_name_H-M "P -1"
_symmetry_group_IT_number 2
_symmetry_cell_setting 'triclinic'
loop_
_space_group_symop_operation_xyz
x,y,z
-x,-y,-z
loop_
_atom_site_type_symbol
_atom_site_label
_atom_site_fract_x
_atom_site_fract_y
_atom_site_fract_z
Si Si1 0.110162 0.741356 0.696966
Si Si2 0.538014 0.591485 0.776898
Si Si3 0.212376 0.494315 0.078503
Si Si4 0.278450 0.106230 0.631521
Si Si5 0.089895 0.011766 0.445256
Si Si6 0.779147 0.894996 0.679932
Si Si7 0.351447 0.283251 0.607099
Si Si8 0.683318 0.431579 0.218598
O O1 0.294086 0.579913 0.477264
O O2 0.169886 0.643260 0.730893
O O3 0.983669 0.735857 0.587088
O O4 0.000000 0.000000 0.000000
O O5 0.595638 0.631947 0.970171
O O6 0.482489 0.480519 0.653850
O O7 0.361809 0.842058 0.977410
O O8 0.176688 0.365017 0.954366
O O9 0.208160 0.492103 0.924310
O O10 0.058080 0.767014 0.412950
O O11 0.250866 0.088219 0.455511
O O12 0.191446 0.052153 0.602373
O O13 0.481438 0.928954 0.521463
O O14 0.225533 0.783815 0.114236
O O15 0.000000 0.000000 0.500000
O O16 0.729964 0.783578 0.576031
O O17 0.400402 0.354430 0.614436
#
# Coordination Sequence:
#
# PCOD8029802 Si02
#       8
#     2   2   2   2   2   2   2   2
#     4  12  26  46  73  98 130 186 238 279 331 405
#     4  12  23  44  73 100 128 182 236 278 336 404
#     4  11  21  39  70  96 138 177 224 279 339 407
#     4  11  21  42  65 101 137 180 225 280 341 409
#     4  12  24  39  62 108 141 177 225 277 351 408
#     4  11  22  45  72  98 136 179 238 274 329 420
#     4  11  23  43  67 102 139 177 218 286 357 397
#     4  12  26  45  65 102 145 176 223 290 343 399
#
# _framework density 22.209699000000001
#
# number of rings (size 3 to 8) (size 9 to 14) (size 15 to 20)
#    0.000    0.500    6.250    3.000    1.750    2.500 
#    0.000    0.625    0.000    0.000    0.000    0.000 
#    0.000    0.000    0.000    0.000    0.000    0.000 
#
# Total GULP energy -198314.902904 kJ/mol
# GULP energy per Si atom -12394.681431 kJ/mol
# Density = 2.215915 g / cm^3
# Si number density = 22.209699 Si / 1000 Ang^3
#
#
#
# Elastic Constant Matrix: (Units=GPa)
#
#
# Indices 1 2 3 4 5 6 
#
# 1 159.0790 51.6161 51.2163 3.6944 23.7729 -11.4409
# 2 51.6161 106.6285 31.7903 2.4599 14.4987 -9.2851
# 3 51.2163 31.7903 81.1900 12.1473 7.1352 7.9256
# 4 3.6944 2.4599 12.1473 26.1632 -3.7130 7.6971
# 5 23.7729 14.4987 7.1352 -3.7130 38.3487 7.5099
# 6 -11.4409 -9.2851 7.9256 7.6971 7.5099 30.8307
#
#
#
# Elastic Compliance Matrix: (Units=1/GPa)
#
#
# Indices 1 2 3 4 5 6 
#
# 1 0.010017 -0.001824 -0.005501 -0.001395 -0.005878 0.006362
# 2 -0.001824 0.012399 -0.003667 -0.001346 -0.004048 0.005322
# 3 -0.005501 -0.003667 0.018475 -0.005014 0.002283 -0.007199
# 4 -0.001395 -0.001346 -0.005014 0.046166 0.009411 -0.013452
# 5 -0.005878 -0.004048 0.002283 0.009411 0.034630 -0.014772
# 6 0.006362 0.005322 -0.007199 -0.013452 -0.014772 0.045206
#
#
# Mechanical properties :
#
#
# Convention : Reuss Voigt Hill
#
# Bulk Modulus (GPa) = 52.88635 68.46032 60.67333
# Shear Modulus (GPa) = 25.61746 33.22019 29.41883
#
# Velocity S-wave (km/s) = 3.39991 3.87169 3.64345
# Velocity P-wave (km/s) = 6.26710 7.13289 6.71396
#
# Compressibility (1/GPa) = 0.01890847
#
# Stress axis : x y z
#
# Youngs Moduli (GPa) = 99.82766 80.64974 54.12725
#
# Poissons Ratio (x) = 0.14708 0.29774
# Poissons Ratio (y) = 0.18205 0.19849
# Poissons Ratio (z) = 0.54913 0.29575
#
# Static dielectric constant tensor:
#      x y z
#    x 4.462820 -0.318090 0.225940 
#    y -0.318090 4.087000 0.026560 
#    z 0.225940 0.026560 4.030810 
# 
# 
# High freq. dielectric constant tensor:
#      x y z
#    x 1.883780 -0.022260 0.008100 
#    y -0.022260 1.856220 0.009950 
#    z 0.008100 0.009950 1.875440 
# 
# From -- ./inp_files/437116.got.cif
#   From: 2010.06.25/outbox.cif.g09.slc.cpg/sg2_219_cif.got.tgz:437116.got - 2010.06.27 13:26:56.
