data_PCOD8029248
_publ_section_title
;
Structure prediction by ZEFSAII (Michael W. Deem and Ramdas Pophale) SiO2 
 PCOD8029248
Probable space group: P -1
;
_chemical_formula_sum "Si O2"
_cell_formula_units_Z 16
_cell_length_a 11.744083
_cell_length_b 14.695456
_cell_length_c 11.781040
_cell_angle_alpha 27.752015
_cell_angle_beta 55.763039
_cell_angle_gamma 50.193552
_cell_volume 727.270252
_symmetry_space_group_name_H-M "P -1"
_symmetry_group_IT_number 2
_symmetry_cell_setting 'triclinic'
loop_
_space_group_symop_operation_xyz
x,y,z
-x,-y,-z
loop_
_atom_site_type_symbol
_atom_site_label
_atom_site_fract_x
_atom_site_fract_y
_atom_site_fract_z
Si Si1 0.260555 0.109219 0.473186
Si Si2 0.773987 0.008079 0.867527
Si Si3 0.520233 0.689506 0.845148
Si Si4 0.504134 0.553635 0.673575
Si Si5 0.224730 0.405570 0.611597
Si Si6 0.702211 0.982626 0.693520
Si Si7 0.548090 0.715804 0.183333
Si Si8 0.013558 0.852130 0.263828
O O1 0.313957 0.301826 0.262769
O O2 0.205993 0.118269 0.361919
O O3 0.142163 0.094013 0.646110
O O4 0.405375 0.901184 0.625955
O O5 0.811999 0.947331 0.780174
O O6 0.597607 0.141173 0.823189
O O7 0.868570 0.134217 0.725144
O O8 0.817109 0.799824 0.152584
O O9 0.500000 0.500000 0.000000
O O10 0.487200 0.651806 0.034867
O O11 0.662092 0.580738 0.564000
O O12 0.475552 0.486083 0.636915
O O13 0.378472 0.765615 0.554307
O O14 0.308545 0.379586 0.713209
O O15 0.074008 0.608639 0.462284
O O16 0.583436 0.870886 0.902805
O O17 0.000000 0.000000 0.000000
#
# Coordination Sequence:
#
# PCOD8029248 Si02
#       8
#     2   2   2   2   2   2   2   2
#     4  11  26  45  62  96 138 171 221 277 326 395
#     4  11  23  41  68 101 135 177 220 274 333 386
#     4  11  24  41  68  96 123 175 224 271 334 385
#     4  12  19  34  67  99 126 167 215 274 328 377
#     4  11  22  39  67 100 130 169 219 274 324 390
#     4  11  21  39  66 100 133 166 222 283 324 384
#     4  11  20  38  67 104 133 165 225 278 331 378
#     4  12  28  46  65  93 136 182 222 267 331 406
#
# _framework density 22.000074999999999
#
# number of rings (size 3 to 8) (size 9 to 14) (size 15 to 20)
#    0.000    0.750    6.250    2.625    0.000    3.000 
#    0.000    2.500    0.000    0.000    0.000    0.000 
#    0.000    0.000    0.000    0.000    0.000    0.000 
#
# Total GULP energy -198334.659827 kJ/mol
# GULP energy per Si atom -12395.916239 kJ/mol
# Density = 2.195000 g / cm^3
# Si number density = 22.000075 Si / 1000 Ang^3
#
#
#
# Elastic Constant Matrix: (Units=GPa)
#
#
# Indices 1 2 3 4 5 6 
#
# 1 58.5550 31.8037 14.1778 6.1733 -5.5582 6.2042
# 2 31.8037 91.9573 31.3564 13.4949 -3.5660 2.7714
# 3 14.1778 31.3564 102.8435 5.0509 -3.4643 2.9436
# 4 6.1733 13.4949 5.0509 47.2809 0.6557 -5.0699
# 5 -5.5582 -3.5660 -3.4643 0.6557 31.9159 -3.6431
# 6 6.2042 2.7714 2.9436 -5.0699 -3.6431 23.4890
#
#
#
# Elastic Compliance Matrix: (Units=1/GPa)
#
#
# Indices 1 2 3 4 5 6 
#
# 1 0.021867 -0.006911 -0.000620 -0.001365 0.002449 -0.004797
# 2 -0.006911 0.014883 -0.003430 -0.002994 0.000134 -0.000126
# 3 -0.000620 -0.003430 0.010906 -0.000194 0.000611 -0.000745
# 4 -0.001365 -0.002994 -0.000194 0.022810 -0.000423 0.005596
# 5 0.002449 0.000134 0.000611 -0.000423 0.032326 0.004183
# 6 -0.004797 -0.000126 -0.000745 0.005596 0.004183 0.045805
#
#
# Mechanical properties :
#
#
# Convention : Reuss Voigt Hill
#
# Bulk Modulus (GPa) = 38.86103 45.33683 42.09893
# Shear Modulus (GPa) = 27.91782 32.27170 30.09476
#
# Velocity S-wave (km/s) = 3.56615 3.83416 3.70258
# Velocity P-wave (km/s) = 5.88719 6.34455 6.12014
#
# Compressibility (1/GPa) = 0.02573272
#
# Stress axis : x y z
#
# Youngs Moduli (GPa) = 45.73186 67.19150 91.69108
#
# Poissons Ratio (x) = 0.46438 0.05689
# Poissons Ratio (y) = 0.31606 0.31448
# Poissons Ratio (z) = 0.02837 0.23045
#
# Static dielectric constant tensor:
#      x y z
#    x 3.925510 0.357660 -0.150100 
#    y 0.357660 3.813440 0.293580 
#    z -0.150100 0.293580 4.861380 
# 
# 
# High freq. dielectric constant tensor:
#      x y z
#    x 1.851230 0.027240 -0.010640 
#    y 0.027240 1.838950 0.005080 
#    z -0.010640 0.005080 1.894900 
# 
# From -- ./inp_files/428747.got.cif
#   From: 2010.06.25/outbox.cif.g09.slc.cpg/sg2_215_cif.got.tgz:428747.got - 2010.06.27 13:26:56.
