data_PCOD8029210
_publ_section_title
;
Structure prediction by ZEFSAII (Michael W. Deem and Ramdas Pophale) SiO2 
 PCOD8029210
Probable space group: P -1
;
_chemical_formula_sum "Si O2"
_cell_formula_units_Z 16
_cell_length_a 11.717901
_cell_length_b 14.637545
_cell_length_c 8.962841
_cell_angle_alpha 140.248301
_cell_angle_beta 53.668084
_cell_angle_gamma 127.840954
_cell_volume 753.792924
_symmetry_space_group_name_H-M "P -1"
_symmetry_group_IT_number 2
_symmetry_cell_setting 'triclinic'
loop_
_space_group_symop_operation_xyz
x,y,z
-x,-y,-z
loop_
_atom_site_type_symbol
_atom_site_label
_atom_site_fract_x
_atom_site_fract_y
_atom_site_fract_z
Si Si1 0.843925 0.112130 0.027039
Si Si2 0.375495 0.578287 0.088814
Si Si3 0.609326 0.270134 0.433976
Si Si4 0.731330 0.838292 0.959015
Si Si5 0.695013 0.958227 0.648819
Si Si6 0.424229 0.871483 0.277832
Si Si7 0.596625 0.532261 0.611865
Si Si8 0.816856 0.753347 0.105690
O O1 0.008802 0.220934 0.014976
O O2 0.851562 0.983007 0.977187
O O3 0.774420 0.042605 0.838102
O O4 0.745545 0.209220 0.294937
O O5 0.449073 0.658545 0.287105
O O6 0.321113 0.710285 0.219974
O O7 0.500822 0.546630 0.849641
O O8 0.247902 0.424725 0.034483
O O9 0.473528 0.138905 0.305712
O O10 0.662905 0.396056 0.421679
O O11 0.734722 0.685142 0.680075
O O12 0.567676 0.848437 0.056412
O O13 0.752452 0.815936 0.089875
O O14 0.788339 0.849527 0.386936
O O15 0.687348 0.079500 0.682599
O O16 0.500000 0.000000 0.500000
O O17 0.500000 0.500000 0.500000
#
# Coordination Sequence:
#
# PCOD8029210 Si02
#       8
#     2   2   2   2   2   2   2   2
#     4  12  28  42  63 102 139 177 218 273 334 385
#     4  11  23  41  68  96 131 173 218 267 335 394
#     4  12  22  42  69  96 131 168 227 279 323 384
#     4  11  22  41  65  94 130 171 226 267 322 391
#     4  12  23  43  69  95 131 173 228 278 328 382
#     4  11  20  37  69 101 120 161 227 281 317 376
#     4  11  23  38  67 104 130 162 222 283 333 377
#     4  12  25  46  65  93 141 185 217 258 333 421
#
# _framework density 21.225988999999998
#
# number of rings (size 3 to 8) (size 9 to 14) (size 15 to 20)
#    0.000    0.500    6.250    3.000    3.500    0.500 
#    0.000    0.625    0.000    0.000    0.000    0.000 
#    0.000    0.000    0.000    0.000    0.000    0.000 
#
# Total GULP energy -198301.367538 kJ/mol
# GULP energy per Si atom -12393.835471 kJ/mol
# Density = 2.117768 g / cm^3
# Si number density = 21.225989 Si / 1000 Ang^3
#
#
#
# Elastic Constant Matrix: (Units=GPa)
#
#
# Indices 1 2 3 4 5 6 
#
# 1 65.4102 40.6199 32.7919 6.4208 -0.2765 -8.6985
# 2 40.6199 158.0223 34.6729 34.7163 -16.2405 -14.5227
# 3 32.7919 34.6729 71.0321 10.2906 7.5396 -6.9348
# 4 6.4208 34.7163 10.2906 30.6211 -1.2965 -9.9726
# 5 -0.2765 -16.2405 7.5396 -1.2965 28.7849 -0.2383
# 6 -8.6985 -14.5227 -6.9348 -9.9726 -0.2383 40.2514
#
#
#
# Elastic Compliance Matrix: (Units=1/GPa)
#
#
# Indices 1 2 3 4 5 6 
#
# 1 0.022286 -0.004547 -0.008416 0.004215 0.000066 0.002770
# 2 -0.004547 0.010957 -0.002412 -0.010386 0.006303 0.000019
# 3 -0.008416 -0.002412 0.020252 -0.002556 -0.006860 0.000126
# 4 0.004215 -0.010386 -0.002556 0.047001 -0.002964 0.008351
# 5 0.000066 0.006303 -0.006860 -0.002964 0.039966 0.000609
# 6 0.002770 0.000019 0.000126 0.008351 0.000609 0.027544
#
#
# Mechanical properties :
#
#
# Convention : Reuss Voigt Hill
#
# Bulk Modulus (GPa) = 43.96557 56.73712 50.35134
# Shear Modulus (GPa) = 24.23228 32.35682 28.29455
#
# Velocity S-wave (km/s) = 3.38247 3.90859 3.65501
# Velocity P-wave (km/s) = 6.00107 6.86713 6.44866
#
# Compressibility (1/GPa) = 0.02274507
#
# Stress axis : x y z
#
# Youngs Moduli (GPa) = 44.87196 91.26260 49.37881
#
# Poissons Ratio (x) = 0.41493 0.41557
# Poissons Ratio (y) = 0.20401 0.11911
# Poissons Ratio (z) = 0.37764 0.22015
#
# Static dielectric constant tensor:
#      x y z
#    x 3.683080 -0.378780 -0.066760 
#    y -0.378780 4.331850 0.440930 
#    z -0.066760 0.440930 4.002820 
# 
# 
# High freq. dielectric constant tensor:
#      x y z
#    x 1.810770 -0.029410 0.007650 
#    y -0.029410 1.840690 0.026550 
#    z 0.007650 0.026550 1.833880 
# 
# From -- ./inp_files/254035.got.cif
#   From: 2010.06.25/outbox.cif.g09.slc.cpg/sg2_128_cif.got.tgz:254035.got - 2010.06.27 13:26:56.
