data_PCOD8029405
_publ_section_title
;
Structure prediction by ZEFSAII (Michael W. Deem and Ramdas Pophale) SiO2 
 PCOD8029405
Probable space group: P -1
;
_chemical_formula_sum "Si O2"
_cell_formula_units_Z 16
_cell_length_a 19.931228
_cell_length_b 11.547758
_cell_length_c 9.155139
_cell_angle_alpha 109.768400
_cell_angle_beta 71.111143
_cell_angle_gamma 159.359176
_cell_volume 698.850053
_symmetry_space_group_name_H-M "P -1"
_symmetry_group_IT_number 2
_symmetry_cell_setting 'triclinic'
loop_
_space_group_symop_operation_xyz
x,y,z
-x,-y,-z
loop_
_atom_site_type_symbol
_atom_site_label
_atom_site_fract_x
_atom_site_fract_y
_atom_site_fract_z
Si Si1 0.937599 0.217270 0.756193
Si Si2 0.994406 0.189234 0.193013
Si Si3 0.515630 0.855601 0.576093
Si Si4 0.715124 0.865758 0.056643
Si Si5 0.351038 0.963010 0.759750
Si Si6 0.400352 0.787072 0.122504
Si Si7 0.873414 0.893262 0.461517
Si Si8 0.865864 0.318603 0.648379
O O1 0.871870 0.240035 0.747571
O O2 0.167010 0.577681 0.742499
O O3 0.837757 0.948552 0.619809
O O4 0.864474 0.096049 0.919442
O O5 0.171855 0.394120 0.087714
O O6 0.084675 0.468259 0.239346
O O7 0.792324 0.880777 0.117798
O O8 0.965090 0.092634 0.334607
O O9 0.312811 0.480851 0.609479
O O10 0.537382 0.897835 0.404582
O O11 0.563928 0.064566 0.702388
O O12 0.654070 0.973070 0.588344
O O13 0.720361 0.010247 0.186517
O O14 0.500000 0.500000 0.000000
O O15 0.494732 0.170962 0.883934
O O16 0.500000 0.000000 0.000000
O O17 0.000000 0.000000 0.500000
O O18 0.000000 0.500000 0.500000
#
# Coordination Sequence:
#
# PCOD8029405 Si02
#       8
#     2   2   2   2   2   2   2   2
#     4  12  24  42  72  98 142 176 234 278 343 399
#     4  11  24  46  67  97 138 179 228 281 342 412
#     4  11  24  41  68  99 136 173 230 274 345 398
#     4  12  28  44  67 105 141 180 226 289 351 402
#     4  12  23  45  70  98 135 181 232 282 333 412
#     4  11  25  43  71  99 132 180 233 277 336 407
#     4  12  26  44  69 102 140 184 225 281 348 409
#     4  11  20  41  69 102 125 177 229 284 329 402
#
# _framework density 22.894753999999999
#
# number of rings (size 3 to 8) (size 9 to 14) (size 15 to 20)
#    0.000    0.500    3.750    4.500    5.250    0.500 
#    0.000    1.875    0.000    0.000    0.000    0.000 
#    0.000    0.000    0.000    0.000    0.000    0.000 
#
# Total GULP energy -198345.966047 kJ/mol
# GULP energy per Si atom -12396.622878 kJ/mol
# Density = 2.284264 g / cm^3
# Si number density = 22.894754 Si / 1000 Ang^3
#
#
#
# Elastic Constant Matrix: (Units=GPa)
#
#
# Indices 1 2 3 4 5 6 
#
# 1 122.3798 33.5234 27.2544 -6.9155 41.5188 22.6414
# 2 33.5234 93.7445 8.0110 10.9972 4.1874 21.2157
# 3 27.2544 8.0110 100.2107 -23.4142 20.7510 0.2354
# 4 -6.9155 10.9972 -23.4142 34.8121 5.3524 6.7939
# 5 41.5188 4.1874 20.7510 5.3524 39.9578 7.4624
# 6 22.6414 21.2157 0.2354 6.7939 7.4624 42.0160
#
#
#
# Elastic Compliance Matrix: (Units=1/GPa)
#
#
# Indices 1 2 3 4 5 6 
#
# 1 0.017050 -0.005591 0.002130 0.010391 -0.018745 -0.004727
# 2 -0.005591 0.014539 -0.003169 -0.008186 0.007846 -0.004380
# 3 0.002130 -0.003169 0.015178 0.013365 -0.011604 0.000267
# 4 0.010391 -0.008186 0.013365 0.046783 -0.022181 -0.005166
# 5 -0.018745 0.007846 -0.011604 -0.022181 0.052595 0.000450
# 6 -0.004727 -0.004380 0.000267 -0.005166 0.000450 0.029314
#
#
# Mechanical properties :
#
#
# Convention : Reuss Voigt Hill
#
# Bulk Modulus (GPa) = 29.84399 50.43473 40.13936
# Shear Modulus (GPa) = 25.01441 39.86027 32.43734
#
# Velocity S-wave (km/s) = 3.30901 4.17708 3.76813
# Velocity P-wave (km/s) = 5.25956 6.73356 6.04168
#
# Compressibility (1/GPa) = 0.03350759
#
# Stress axis : x y z
#
# Youngs Moduli (GPa) = 58.65257 68.78252 65.88620
#
# Poissons Ratio (x) = 0.38455 -0.14037
# Poissons Ratio (y) = 0.32791 0.20878
# Poissons Ratio (z) = -0.12495 0.21795
#
# Static dielectric constant tensor:
#      x y z
#    x 3.959700 -0.139490 0.238770 
#    y -0.139490 4.187550 0.283250 
#    z 0.238770 0.283250 4.015470 
# 
# 
# High freq. dielectric constant tensor:
#      x y z
#    x 1.919030 0.018830 0.011690 
#    y 0.018830 1.907120 -0.003780 
#    z 0.011690 -0.003780 1.901780 
# 
# From -- ./inp_files/225965.got.cif
#   From: 2010.06.25/outbox.cif.g09.slc.cpg/sg2_113_cif.got.tgz:225965.got - 2010.06.27 13:26:56.
