data_PCOD8029857
_publ_section_title
;
Structure prediction by ZEFSAII (Michael W. Deem and Ramdas Pophale) SiO2 
 PCOD8029857
Probable space group: P -1
;
_chemical_formula_sum "Si O2"
_cell_formula_units_Z 16
_cell_length_a 17.407441
_cell_length_b 12.514587
_cell_length_c 8.134021
_cell_angle_alpha 95.062495
_cell_angle_beta 121.021010
_cell_angle_gamma 37.172566
_cell_volume 717.979438
_symmetry_space_group_name_H-M "P -1"
_symmetry_group_IT_number 2
_symmetry_cell_setting 'triclinic'
loop_
_space_group_symop_operation_xyz
x,y,z
-x,-y,-z
loop_
_atom_site_type_symbol
_atom_site_label
_atom_site_fract_x
_atom_site_fract_y
_atom_site_fract_z
Si Si1 0.710791 0.202607 0.840432
Si Si2 0.943676 0.509066 0.634792
Si Si3 0.115370 0.178382 0.548619
Si Si4 0.181233 0.879655 0.693787
Si Si5 0.289423 0.661059 0.458207
Si Si6 0.953511 0.289548 0.811889
Si Si7 0.567693 0.010425 0.213460
Si Si8 0.163604 0.474636 0.971505
O O1 0.493978 0.397106 0.606035
O O2 0.779023 0.206548 0.765245
O O3 0.724897 0.244426 0.042380
O O4 0.834509 0.964273 0.932917
O O5 0.962608 0.364216 0.685619
O O6 0.728631 0.775136 0.458967
O O7 0.024883 0.392521 0.525736
O O8 0.084293 0.436254 0.884004
O O9 0.334453 0.980166 0.731318
O O10 0.975999 0.300361 0.258056
O O11 0.122789 0.066949 0.658324
O O12 0.304085 0.723820 0.643912
O O13 0.000000 0.000000 0.500000
O O14 0.147375 0.714807 0.353316
O O15 0.834194 0.476210 0.841885
O O16 0.500000 0.000000 0.000000
O O17 0.383657 0.241461 0.138534
#
# Coordination Sequence:
#
# PCOD8029857 Si02
#       8
#     2   2   2   2   2   2   2   2
#     4  11  25  46  71  95 142 175 224 289 332 398
#     4  11  22  41  63  97 129 167 220 272 327 403
#     4  11  22  41  67  96 129 169 226 268 334 399
#     4  12  24  45  73 102 135 183 226 281 340 401
#     4  11  26  46  68 102 137 177 231 278 339 406
#     4  12  25  43  66  94 133 178 216 274 341 398
#     4  11  21  40  67  94 132 169 213 278 329 390
#     4  11  24  40  67  95 130 176 217 271 338 399
#
# _framework density 22.284758
#
# number of rings (size 3 to 8) (size 9 to 14) (size 15 to 20)
#    0.000    0.750    5.000    2.625    1.750    6.500 
#    2.250    0.000    0.000    0.000    0.000    0.000 
#    0.000    0.000    0.000    0.000    0.000    0.000 
#
# Total GULP energy -198232.010445 kJ/mol
# GULP energy per Si atom -12389.500653 kJ/mol
# Density = 2.223404 g / cm^3
# Si number density = 22.284758 Si / 1000 Ang^3
#
#
#
# Elastic Constant Matrix: (Units=GPa)
#
#
# Indices 1 2 3 4 5 6 
#
# 1 83.2545 21.3365 29.9304 -10.0011 10.8197 18.1079
# 2 21.3365 112.7540 31.8061 2.6412 9.7095 -7.3497
# 3 29.9304 31.8061 83.0719 -13.2048 11.5602 -2.7438
# 4 -10.0011 2.6412 -13.2048 44.9469 -16.1770 -0.0638
# 5 10.8197 9.7095 11.5602 -16.1770 27.5296 -0.0199
# 6 18.1079 -7.3497 -2.7438 -0.0638 -0.0199 34.7045
#
#
#
# Elastic Compliance Matrix: (Units=1/GPa)
#
#
# Indices 1 2 3 4 5 6 
#
# 1 0.017052 -0.002230 -0.004974 0.001358 -0.003036 -0.009762
# 2 -0.002230 0.010804 -0.003270 -0.003359 -0.003532 0.003185
# 3 -0.004974 -0.003270 0.015927 0.003147 -0.001728 0.003167
# 4 0.001358 -0.003359 0.003147 0.029713 0.016789 -0.001107
# 5 -0.003036 -0.003532 -0.001728 0.016789 0.049355 0.000758
# 6 -0.009762 0.003185 0.003167 -0.001107 0.000758 0.034832
#
#
# Mechanical properties :
#
#
# Convention : Reuss Voigt Hill
#
# Bulk Modulus (GPa) = 43.79401 49.46961 46.63181
# Shear Modulus (GPa) = 26.84658 34.50337 30.67497
#
# Velocity S-wave (km/s) = 3.47465 3.93911 3.71415
# Velocity P-wave (km/s) = 5.98266 6.55254 6.27408
#
# Compressibility (1/GPa) = 0.02283418
#
# Stress axis : x y z
#
# Youngs Moduli (GPa) = 58.64407 92.56019 62.78555
#
# Poissons Ratio (x) = 0.20645 0.31229
# Poissons Ratio (y) = 0.13080 0.20531
# Poissons Ratio (z) = 0.29169 0.30268
#
# Static dielectric constant tensor:
#      x y z
#    x 3.844110 -0.773900 0.165900 
#    y -0.773900 3.290250 0.466910 
#    z 0.165900 0.466910 3.851200 
# 
# 
# High freq. dielectric constant tensor:
#      x y z
#    x 1.883960 -0.004650 -0.000910 
#    y -0.004650 1.896110 -0.003200 
#    z -0.000910 -0.003200 1.870440 
# 
# From -- ./inp_files/333414.got.cif
#   From: 2010.06.25/outbox.cif.g09.slc.cpg/sg2_167_cif.got.tgz:333414.got - 2010.06.27 13:26:56.
