data_PCOD8029645
_publ_section_title
;
Structure prediction by ZEFSAII (Michael W. Deem and Ramdas Pophale) SiO2 
 PCOD8029645
Probable space group: P -1
;
_chemical_formula_sum "Si O2"
_cell_formula_units_Z 16
_cell_length_a 9.406472
_cell_length_b 16.091585
_cell_length_c 8.847958
_cell_angle_alpha 89.750726
_cell_angle_beta 126.960559
_cell_angle_gamma 55.251245
_cell_volume 746.400163
_symmetry_space_group_name_H-M "P -1"
_symmetry_group_IT_number 2
_symmetry_cell_setting 'triclinic'
loop_
_space_group_symop_operation_xyz
x,y,z
-x,-y,-z
loop_
_atom_site_type_symbol
_atom_site_label
_atom_site_fract_x
_atom_site_fract_y
_atom_site_fract_z
Si Si1 0.203133 0.777580 0.996575
Si Si2 0.609672 0.383637 0.156257
Si Si3 0.561123 0.601980 0.466043
Si Si4 0.718374 0.621601 0.859038
Si Si5 0.150601 0.645813 0.380022
Si Si6 0.807615 0.870852 0.985871
Si Si7 0.914258 0.011716 0.205818
Si Si8 0.408499 0.880036 0.701964
O O1 0.216182 0.730003 0.841849
O O2 0.475391 0.675429 0.256027
O O3 0.149646 0.893263 0.951361
O O4 0.975669 0.809862 0.942739
O O5 0.374783 0.408628 0.068553
O O6 0.785962 0.349392 0.409103
O O7 0.500000 0.500000 0.000000
O O8 0.566463 0.665250 0.604221
O O9 0.342513 0.610061 0.370962
O O10 0.830871 0.461760 0.614935
O O11 0.659653 0.736033 0.866437
O O12 0.000000 0.500000 0.000000
O O13 0.883652 0.777022 0.163751
O O14 0.840311 0.950585 0.078387
O O15 0.518903 0.937943 0.756662
O O16 0.213841 0.919755 0.442642
O O17 0.740397 0.081427 0.239186
#
# Coordination Sequence:
#
# PCOD8029645 Si02
#       8
#     2   2   2   2   2   2   2   2
#     4  11  22  40  66  96 133 171 221 276 331 390
#     4  11  21  37  63  96 133 178 213 267 341 392
#     4   9  18  35  59  89 123 170 209 257 328 388
#     4  11  23  40  64  93 133 173 218 275 329 395
#     4   9  18  34  60  89 124 163 215 258 316 394
#     4  11  24  41  70  96 125 178 229 269 326 394
#     4  11  24  45  67  94 138 175 221 276 327 384
#     4  11  24  43  68  99 130 176 226 270 328 397
#
# _framework density 21.436223999999999
#
# number of rings (size 3 to 8) (size 9 to 14) (size 15 to 20)
#    0.000    1.500    2.500    3.750    5.250    0.500 
#    0.000    1.875    0.000    0.000    0.000    0.000 
#    0.000    0.000    0.000    0.000    0.000    0.000 
#
# Total GULP energy -198262.608985 kJ/mol
# GULP energy per Si atom -12391.413062 kJ/mol
# Density = 2.138743 g / cm^3
# Si number density = 21.436224 Si / 1000 Ang^3
#
#
#
# Elastic Constant Matrix: (Units=GPa)
#
#
# Indices 1 2 3 4 5 6 
#
# 1 82.8769 42.2107 55.7861 2.7933 -3.7188 8.9367
# 2 42.2107 133.7195 61.2841 -2.0692 -1.4119 8.6304
# 3 55.7861 61.2841 72.2073 -5.7147 -12.3054 10.2024
# 4 2.7933 -2.0692 -5.7147 31.4635 -2.1341 3.1701
# 5 -3.7188 -1.4119 -12.3054 -2.1341 34.0219 6.1413
# 6 8.9367 8.6304 10.2024 3.1701 6.1413 35.8716
#
#
#
# Elastic Compliance Matrix: (Units=1/GPa)
#
#
# Indices 1 2 3 4 5 6 
#
# 1 0.027855 0.002783 -0.025907 -0.007633 -0.006983 0.001629
# 2 0.002783 0.013023 -0.014390 -0.002457 -0.004748 0.001296
# 3 -0.025907 -0.014390 0.051317 0.012750 0.017521 -0.008805
# 4 -0.007633 -0.002457 0.012750 0.035633 0.006896 -0.005463
# 5 -0.006983 -0.004748 0.017521 0.006896 0.036830 -0.009016
# 6 0.001629 0.001296 -0.008805 -0.005463 -0.009016 0.031690
#
#
# Mechanical properties :
#
#
# Convention : Reuss Voigt Hill
#
# Bulk Modulus (GPa) = 58.25044 67.48506 62.86775
# Shear Modulus (GPa) = 18.04417 28.90624 23.47520
#
# Velocity S-wave (km/s) = 2.90446 3.67614 3.31285
# Velocity P-wave (km/s) = 6.20328 7.04051 6.63512
#
# Compressibility (1/GPa) = 0.01716725
#
# Stress axis : x y z
#
# Youngs Moduli (GPa) = 35.89964 76.78793 19.48685
#
# Poissons Ratio (x) = -0.21373 0.50485
# Poissons Ratio (y) = -0.09992 0.28041
# Poissons Ratio (z) = 0.93006 1.10497
#
# Static dielectric constant tensor:
#      x y z
#    x 3.725450 0.081870 -0.102490 
#    y 0.081870 4.160840 -0.014170 
#    z -0.102490 -0.014170 4.096000 
# 
# 
# High freq. dielectric constant tensor:
#      x y z
#    x 1.817970 -0.001590 -0.011350 
#    y -0.001590 1.859140 0.002610 
#    z -0.011350 0.002610 1.839740 
# 
# From -- ./inp_files/207120.got.cif
#   From: 2010.06.25/outbox.cif.g09.slc.cpg/sg2_104_cif.got.tgz:207120.got - 2010.06.27 13:26:56.
