data_PCOD8029464
_publ_section_title
;
Structure prediction by ZEFSAII (Michael W. Deem and Ramdas Pophale) SiO2 
 PCOD8029464
Probable space group: P -1
;
_chemical_formula_sum "Si O2"
_cell_formula_units_Z 16
_cell_length_a 16.831049
_cell_length_b 11.439911
_cell_length_c 20.100409
_cell_angle_alpha 29.313260
_cell_angle_beta 23.331459
_cell_angle_gamma 44.156859
_cell_volume 677.807630
_symmetry_space_group_name_H-M "P -1"
_symmetry_group_IT_number 2
_symmetry_cell_setting 'triclinic'
loop_
_space_group_symop_operation_xyz
x,y,z
-x,-y,-z
loop_
_atom_site_type_symbol
_atom_site_label
_atom_site_fract_x
_atom_site_fract_y
_atom_site_fract_z
Si Si1 0.096796 0.278294 0.376820
Si Si2 0.440113 0.092418 0.892600
Si Si3 0.064558 0.175649 0.597943
Si Si4 0.306843 0.231573 0.109604
Si Si5 0.012655 0.260354 0.738044
Si Si6 0.526743 0.607873 0.641661
Si Si7 0.230769 0.758661 0.698945
Si Si8 0.460871 0.199882 0.676463
O O1 0.190423 0.311629 0.364884
O O2 0.289301 0.329498 0.149144
O O3 0.001650 0.496786 0.331848
O O4 0.918276 0.983179 0.642879
O O5 0.556135 0.384011 0.687348
O O6 0.510005 0.103280 0.756974
O O7 0.511893 0.886270 0.975646
O O8 0.182330 0.008172 0.145503
O O9 0.052166 0.352501 0.582603
O O10 0.174801 0.003720 0.633964
O O11 0.394689 0.494859 0.867465
O O12 0.215508 0.197627 0.638807
O O13 0.792742 0.990544 0.053813
O O14 0.396273 0.749160 0.633496
O O15 0.359212 0.819234 0.500825
O O16 0.000000 0.500000 0.000000
O O17 0.500000 0.500000 0.500000
#
# Coordination Sequence:
#
# PCOD8029464 Si02
#       8
#     2   2   2   2   2   2   2   2
#     4  11  22  42  67 107 141 183 232 291 350 412
#     4  11  20  42  70 101 134 185 234 277 348 416
#     4  11  23  43  68  99 141 187 229 284 349 411
#     4  11  23  39  72 105 144 181 233 289 351 414
#     4  11  26  44  69 103 143 179 236 293 349 412
#     4  12  23  43  69 104 140 186 230 290 343 412
#     4  12  23  44  72 100 137 182 241 280 343 426
#     4  11  24  46  70 100 134 188 232 285 353 419
#
# _framework density 23.605518
#
# number of rings (size 3 to 8) (size 9 to 14) (size 15 to 20)
#    0.000    0.750    5.000    3.000    0.000    4.000 
#    0.000    3.750    0.000    0.000    0.000    0.000 
#    0.000    0.000    0.000    0.000    0.000    0.000 
#
# Total GULP energy -198346.101862 kJ/mol
# GULP energy per Si atom -12396.631366 kJ/mol
# Density = 2.355179 g / cm^3
# Si number density = 23.605518 Si / 1000 Ang^3
#
#
#
# Elastic Constant Matrix: (Units=GPa)
#
#
# Indices 1 2 3 4 5 6 
#
# 1 98.9718 24.8183 37.3197 22.8704 11.2461 -2.3402
# 2 24.8183 80.1640 8.8228 20.1880 5.7928 0.8002
# 3 37.3197 8.8228 103.8310 16.7533 2.3526 13.6983
# 4 22.8704 20.1880 16.7533 31.6914 3.6244 0.8478
# 5 11.2461 5.7928 2.3526 3.6244 42.3809 4.2834
# 6 -2.3402 0.8002 13.6983 0.8478 4.2834 44.8861
#
#
#
# Elastic Compliance Matrix: (Units=1/GPa)
#
#
# Indices 1 2 3 4 5 6 
#
# 1 0.014031 -0.002108 -0.004092 -0.006351 -0.002909 0.002415
# 2 -0.002108 0.015247 0.000920 -0.008575 -0.000800 -0.000424
# 3 -0.004092 0.000920 0.012183 -0.004085 0.001034 -0.003969
# 4 -0.006351 -0.008575 -0.004085 0.043831 -0.000695 0.000307
# 5 -0.002909 -0.000800 0.001034 -0.000695 0.024762 -0.002803
# 6 0.002415 -0.000424 -0.003969 0.000307 -0.002803 0.023885
#
#
# Mechanical properties :
#
#
# Convention : Reuss Voigt Hill
#
# Bulk Modulus (GPa) = 32.36140 47.20980 39.78560
# Shear Modulus (GPa) = 32.29974 37.92540 35.11257
#
# Velocity S-wave (km/s) = 3.70308 4.01263 3.86096
# Velocity P-wave (km/s) = 5.65887 6.44292 6.06358
#
# Compressibility (1/GPa) = 0.03090101
#
# Stress axis : x y z
#
# Youngs Moduli (GPa) = 71.27215 65.58537 82.08138
#
# Poissons Ratio (x) = 0.13825 0.33586
# Poissons Ratio (y) = 0.15023 -0.07549
# Poissons Ratio (z) = 0.29163 -0.06032
#
# Static dielectric constant tensor:
#      x y z
#    x 4.373090 0.057960 0.009340 
#    y 0.057960 3.881610 -0.077460 
#    z 0.009340 -0.077460 3.933240 
# 
# 
# High freq. dielectric constant tensor:
#      x y z
#    x 1.942540 0.009950 0.002910 
#    y 0.009950 1.934820 0.012960 
#    z 0.002910 0.012960 1.929490 
# 
# From -- ./inp_files/600014.got.cif
#   From: 2010.06.25/outbox.cif.g09.slc.cpg/sg2_301_cif.got.tgz:600014.got - 2010.06.27 13:26:56.
