data_PCOD8029212
_publ_section_title
;
Structure prediction by ZEFSAII (Michael W. Deem and Ramdas Pophale) SiO2 
 PCOD8029212
Probable space group: P -1
;
_chemical_formula_sum "Si O2"
_cell_formula_units_Z 14
_cell_length_a 19.856023
_cell_length_b 13.395017
_cell_length_c 9.033036
_cell_angle_alpha 124.428980
_cell_angle_beta 146.488843
_cell_angle_gamma 33.547284
_cell_volume 663.704204
_symmetry_space_group_name_H-M "P -1"
_symmetry_group_IT_number 2
_symmetry_cell_setting 'triclinic'
loop_
_space_group_symop_operation_xyz
x,y,z
-x,-y,-z
loop_
_atom_site_type_symbol
_atom_site_label
_atom_site_fract_x
_atom_site_fract_y
_atom_site_fract_z
Si Si1 0.645708 0.461766 0.128093
Si Si2 0.941460 0.036772 0.249986
Si Si3 0.912839 0.527499 0.208779
Si Si4 0.159268 0.154283 0.175795
Si Si5 0.053504 0.271724 0.765840
Si Si6 0.304969 0.884867 0.710790
Si Si7 0.471237 0.902159 0.772370
O O1 0.831734 0.387377 0.483954
O O2 0.758009 0.273494 0.073376
O O3 0.500000 0.500000 0.000000
O O4 0.514343 0.663515 0.967791
O O5 0.138702 0.911567 0.409933
O O6 0.872762 0.960151 0.012581
O O7 0.000000 0.000000 0.500000
O O8 0.967327 0.589262 0.245652
O O9 0.000000 0.500000 0.500000
O O10 0.000457 0.331370 0.150555
O O11 0.681823 0.678108 0.930484
O O12 0.373423 0.006841 0.521838
O O13 0.146662 0.234260 0.064026
O O14 0.211960 0.057437 0.796743
O O15 0.339643 0.913221 0.636583
O O16 0.500000 0.000000 0.000000
#
# Coordination Sequence:
#
# PCOD8029212 Si02
#       7
#     2   2   2   2   2   2   2
#     4  11  20  37  71  99 136 173 218 275 349 395
#     4  11  22  45  67 104 140 170 222 292 342 399
#     4  12  25  46  68  96 143 185 227 277 345 408
#     4  12  25  44  70 101 137 177 234 286 339 405
#     4  11  23  41  68 106 133 178 227 289 339 401
#     4  11  22  43  73  97 141 181 223 277 351 402
#     4  12  26  46  67  96 141 187 226 280 337 411
#
# _framework density 21.093733
#
# number of rings (size 3 to 8) (size 9 to 14) (size 15 to 20)
#    0.000    0.571    7.143    1.286    0.000    5.714 
#    0.000    1.429    0.000    0.000    0.000    0.000 
#    0.000    0.000    0.000    0.000    0.000    0.000 
#
# Total GULP energy -173549.859520 kJ/mol
# GULP energy per Si atom -12396.418537 kJ/mol
# Density = 2.104572 g / cm^3
# Si number density = 21.093733 Si / 1000 Ang^3
#
#
#
# Elastic Constant Matrix: (Units=GPa)
#
#
# Indices 1 2 3 4 5 6 
#
# 1 122.3869 5.2364 58.2281 -7.5465 1.3297 -1.4056
# 2 5.2364 121.4556 50.4979 -12.4514 -7.3868 -5.6544
# 3 58.2281 50.4979 130.0641 -9.2219 -13.2688 -7.6862
# 4 -7.5465 -12.4514 -9.2219 46.9308 -2.3683 3.4773
# 5 1.3297 -7.3868 -13.2688 -2.3683 39.9140 -3.8684
# 6 -1.4056 -5.6544 -7.6862 3.4773 -3.8684 32.4467
#
#
#
# Elastic Compliance Matrix: (Units=1/GPa)
#
#
# Indices 1 2 3 4 5 6 
#
# 1 0.010930 0.001891 -0.005806 0.001088 -0.001969 -0.000924
# 2 0.001891 0.010353 -0.004628 0.002121 0.000501 0.000622
# 3 -0.005806 -0.004628 0.012634 0.000338 0.003785 0.002350
# 4 0.001088 0.002121 0.000338 0.022320 0.001628 -0.001701
# 5 -0.001969 0.000501 0.003785 0.001628 0.026948 0.003937
# 6 -0.000924 0.000622 0.002350 -0.001701 0.003937 0.032096
#
#
# Mechanical properties :
#
#
# Convention : Reuss Voigt Hill
#
# Bulk Modulus (GPa) = 59.41328 66.87014 63.14171
# Shear Modulus (GPa) = 36.23783 41.18792 38.71288
#
# Velocity S-wave (km/s) = 4.14930 4.42363 4.28866
# Velocity P-wave (km/s) = 7.15424 7.60668 7.38393
#
# Compressibility (1/GPa) = 0.01683125
#
# Stress axis : x y z
#
# Youngs Moduli (GPa) = 91.49096 96.59038 79.15410
#
# Poissons Ratio (x) = -0.18270 0.45957
# Poissons Ratio (y) = -0.17305 0.36634
# Poissons Ratio (z) = 0.53119 0.44704
#
# Static dielectric constant tensor:
#      x y z
#    x 4.038500 0.060420 0.071800 
#    y 0.060420 4.187110 -0.185600 
#    z 0.071800 -0.185600 3.957090 
# 
# 
# High freq. dielectric constant tensor:
#      x y z
#    x 1.828060 0.008750 0.007440 
#    y 0.008750 1.841440 -0.015720 
#    z 0.007440 -0.015720 1.821970 
# 
# From -- ./inp_files/305959.got.cif
#   From: 2010.06.25/outbox.cif.g09.slc.cpg/sg2_153_cif.got.tgz:305959.got - 2010.06.27 13:26:56.
