data_PCOD8029530
_publ_section_title
;
Structure prediction by ZEFSAII (Michael W. Deem and Ramdas Pophale) SiO2 
 PCOD8029530
Probable space group: P -1
;
_chemical_formula_sum "Si O2"
_cell_formula_units_Z 14
_cell_length_a 10.847562
_cell_length_b 20.039982
_cell_length_c 8.961286
_cell_angle_alpha 26.939196
_cell_angle_beta 140.799225
_cell_angle_gamma 138.516859
_cell_volume 546.122694
_symmetry_space_group_name_H-M "P -1"
_symmetry_group_IT_number 2
_symmetry_cell_setting 'triclinic'
loop_
_space_group_symop_operation_xyz
x,y,z
-x,-y,-z
loop_
_atom_site_type_symbol
_atom_site_label
_atom_site_fract_x
_atom_site_fract_y
_atom_site_fract_z
Si Si1 0.279730 0.244099 0.504451
Si Si2 0.743578 0.819330 0.721217
Si Si3 0.850548 0.125952 0.361934
Si Si4 0.286074 0.978044 0.266654
Si Si5 0.644449 0.316063 0.193930
Si Si6 0.358826 0.617267 0.278025
Si Si7 0.010563 0.414778 0.527054
O O1 0.351087 0.209411 0.475639
O O2 0.430111 0.390763 0.423948
O O3 0.047157 0.255344 0.253539
O O4 0.271458 0.107702 0.881499
O O5 0.575747 0.738523 0.839413
O O6 0.803424 0.999965 0.439767
O O7 0.941262 0.749124 0.064912
O O8 0.872312 0.035988 0.716362
O O9 0.673724 0.217241 0.032826
O O10 0.245613 0.822416 0.449608
O O11 0.500000 0.000000 0.500000
O O12 0.796939 0.418461 0.245543
O O13 0.621526 0.398455 0.850398
O O14 0.184999 0.489009 0.430415
O O15 0.000000 0.500000 0.500000
#
# Coordination Sequence:
#
# PCOD8029530 Si02
#       7
#     2   2   2   2   2   2   2
#     4  12  23  38  68 100 138 179 223 276 342 402
#     4  12  26  43  69 104 138 180 229 282 343 410
#     4  11  23  43  71 103 138 176 229 280 345 404
#     4  11  20  44  69 102 142 169 221 287 343 397
#     4  11  24  46  72  98 137 181 231 284 340 403
#     4  11  25  46  70 101 136 183 228 283 341 404
#     4  12  28  48  67  98 143 184 232 281 340 405
#
# _framework density 25.635262999999998
#
# number of rings (size 3 to 8) (size 9 to 14) (size 15 to 20)
#    0.000    0.571    4.286    3.857    0.000   10.857 
#    0.000    1.429    0.000    0.000    0.000    0.000 
#    0.000    0.000    0.000    0.000    0.000    0.000 
#
# Total GULP energy -173586.982321 kJ/mol
# GULP energy per Si atom -12399.070166 kJ/mol
# Density = 2.557692 g / cm^3
# Si number density = 25.635263 Si / 1000 Ang^3
#
#
#
# Elastic Constant Matrix: (Units=GPa)
#
#
# Indices 1 2 3 4 5 6 
#
# 1 103.9716 33.8093 2.0123 16.4629 -13.5393 -3.6610
# 2 33.8093 141.9922 12.8524 35.9311 8.6960 2.4365
# 3 2.0123 12.8524 55.1938 20.0765 -6.2101 -4.3880
# 4 16.4629 35.9311 20.0765 32.2337 -2.1764 -9.0134
# 5 -13.5393 8.6960 -6.2101 -2.1764 31.8247 1.4729
# 6 -3.6610 2.4365 -4.3880 -9.0134 1.4729 50.4597
#
#
#
# Elastic Compliance Matrix: (Units=1/GPa)
#
#
# Indices 1 2 3 4 5 6 
#
# 1 0.011779 -0.002210 0.002431 -0.004628 0.005765 0.000178
# 2 -0.002210 0.011127 0.001632 -0.013379 -0.004447 -0.002816
# 3 0.002431 0.001632 0.024771 -0.018536 0.004209 -0.001182
# 4 -0.004628 -0.013379 -0.018536 0.062728 0.001904 0.009848
# 5 0.005765 -0.004447 0.004209 0.001904 0.036028 0.000287
# 6 0.000178 -0.002816 -0.001182 0.009848 0.000287 0.021615
#
#
# Mechanical properties :
#
#
# Convention : Reuss Voigt Hill
#
# Bulk Modulus (GPa) = 19.46092 44.27841 31.86967
# Shear Modulus (GPa) = 27.55279 39.73586 33.64432
#
# Velocity S-wave (km/s) = 3.28197 3.94133 3.62667
# Velocity P-wave (km/s) = 4.68719 6.16621 5.47685
#
# Compressibility (1/GPa) = 0.05138503
#
# Stress axis : x y z
#
# Youngs Moduli (GPa) = 84.89450 89.86894 40.36937
#
# Poissons Ratio (x) = 0.19858 -0.09815
# Poissons Ratio (y) = 0.18759 -0.06588
# Poissons Ratio (z) = -0.20641 -0.14666
#
# Static dielectric constant tensor:
#      x y z
#    x 5.112210 0.168090 0.144640 
#    y 0.168090 4.848960 0.252370 
#    z 0.144640 0.252370 5.077900 
# 
# 
# High freq. dielectric constant tensor:
#      x y z
#    x 2.038920 0.002500 -0.004480 
#    y 0.002500 2.027230 0.002120 
#    z -0.004480 0.002120 2.032900 
# 
# From -- ./inp_files/281438.got.cif
#   From: 2010.06.25/outbox.cif.g09.slc.cpg/sg2_141_cif.got.tgz:281438.got - 2010.06.27 13:26:56.
