data_PCOD8029687
_publ_section_title
;
Structure prediction by ZEFSAII (Michael W. Deem and Ramdas Pophale) SiO2 
 PCOD8029687
Probable space group: P -1
;
_chemical_formula_sum "Si O2"
_cell_formula_units_Z 16
_cell_length_a 11.297584
_cell_length_b 9.696188
_cell_length_c 9.432310
_cell_angle_alpha 131.558455
_cell_angle_beta 84.245987
_cell_angle_gamma 98.370663
_cell_volume 764.912343
_symmetry_space_group_name_H-M "P -1"
_symmetry_group_IT_number 2
_symmetry_cell_setting 'triclinic'
loop_
_space_group_symop_operation_xyz
x,y,z
-x,-y,-z
loop_
_atom_site_type_symbol
_atom_site_label
_atom_site_fract_x
_atom_site_fract_y
_atom_site_fract_z
Si Si1 0.169944 0.009392 0.293075
Si Si2 0.286985 0.809770 0.372575
Si Si3 0.055874 0.094153 0.917265
Si Si4 0.106855 0.498603 0.291493
Si Si5 0.319293 0.992567 0.783360
Si Si6 0.853020 0.580143 0.449657
Si Si7 0.305117 0.760541 0.895488
Si Si8 0.521536 0.307514 0.936728
O O1 0.205775 0.230309 0.439119
O O2 0.200189 0.945937 0.403723
O O3 0.029151 0.960921 0.244017
O O4 0.243527 0.908084 0.097715
O O5 0.208220 0.613437 0.265031
O O6 0.401184 0.799531 0.253415
O O7 0.341294 0.883108 0.563789
O O8 0.179938 0.013363 0.822608
O O9 0.070429 0.313748 0.081660
O O10 0.000000 0.000000 0.000000
O O11 0.162939 0.460139 0.409982
O O12 0.991689 0.609042 0.405562
O O13 0.394746 0.192100 0.905263
O O14 0.360108 0.870798 0.826432
O O15 0.789634 0.410501 0.252322
O O16 0.409222 0.670984 0.906930
O O17 0.500000 0.500000 0.000000
#
# Coordination Sequence:
#
# PCOD8029687 Si02
#       8
#     2   2   2   2   2   2   2   2
#     4  11  24  41  65 105 140 174 214 274 338 400
#     4  11  26  44  66  99 139 170 223 278 337 395
#     4  12  21  39  70 101 138 171 221 271 332 397
#     4  11  21  38  64 101 137 174 216 275 325 404
#     4  12  23  44  72  93 134 182 220 277 330 390
#     4  11  21  38  69 100 135 174 225 265 331 399
#     4  11  23  46  70  98 132 176 229 272 329 401
#     4  11  27  48  67  95 131 177 228 280 335 391
#
# _framework density 20.917428999999998
#
# number of rings (size 3 to 8) (size 9 to 14) (size 15 to 20)
#    0.000    0.750    5.000    2.250    1.750    2.500 
#    0.000    0.625    0.000    0.000    0.000    0.000 
#    0.000    0.000    0.000    0.000    0.000    0.000 
#
# Total GULP energy -198465.082218 kJ/mol
# GULP energy per Si atom -12404.067639 kJ/mol
# Density = 2.086982 g / cm^3
# Si number density = 20.917429 Si / 1000 Ang^3
#
#
#
# Elastic Constant Matrix: (Units=GPa)
#
#
# Indices 1 2 3 4 5 6 
#
# 1 86.7745 48.5892 6.1358 -6.8033 5.1585 -5.4803
# 2 48.5892 139.7291 41.0027 4.6253 14.9964 -17.0149
# 3 6.1358 41.0027 77.0202 5.0781 6.2718 -7.6422
# 4 -6.8033 4.6253 5.0781 41.9536 0.7796 2.3321
# 5 5.1585 14.9964 6.2718 0.7796 22.3333 3.8825
# 6 -5.4803 -17.0149 -7.6422 2.3321 3.8825 39.0955
#
#
#
# Elastic Compliance Matrix: (Units=1/GPa)
#
#
# Indices 1 2 3 4 5 6 
#
# 1 0.014852 -0.005777 0.001684 0.002858 -0.000077 -0.000266
# 2 -0.005777 0.011755 -0.004802 -0.001768 -0.005854 0.004054
# 3 0.001684 -0.004802 0.015776 -0.001156 -0.001811 0.001479
# 4 0.002858 -0.001768 -0.001156 0.024745 0.000354 -0.002106
# 5 -0.000077 -0.005854 -0.001811 0.000354 0.050605 -0.007959
# 6 -0.000266 0.004054 0.001479 -0.002106 -0.007959 0.028511
#
#
# Mechanical properties :
#
#
# Convention : Reuss Voigt Hill
#
# Bulk Modulus (GPa) = 40.66331 54.99769 47.83050
# Shear Modulus (GPa) = 29.03047 34.52955 31.78001
#
# Velocity S-wave (km/s) = 3.72944 4.06736 3.90206
# Velocity P-wave (km/s) = 6.16661 6.95756 6.57399
#
# Compressibility (1/GPa) = 0.02459220
#
# Stress axis : x y z
#
# Youngs Moduli (GPa) = 67.33119 85.06704 63.38553
#
# Poissons Ratio (x) = 0.49147 -0.10674
# Poissons Ratio (y) = 0.38900 0.30440
# Poissons Ratio (z) = -0.11339 0.40852
#
# Static dielectric constant tensor:
#      x y z
#    x 4.135210 0.004660 0.172010 
#    y 0.004660 4.140200 0.010910 
#    z 0.172010 0.010910 3.850100 
# 
# 
# High freq. dielectric constant tensor:
#      x y z
#    x 1.816370 -0.002810 0.007190 
#    y -0.002810 1.829680 0.001480 
#    z 0.007190 0.001480 1.823120 
# 
# From -- ./inp_files/186427.got.cif
#   From: 2010.06.25/outbox.cif.g09.slc.cpg/sg2_94_cif.got.tgz:186427.got - 2010.06.27 13:26:56.
