data_PCOD8029229
_publ_section_title
;
Structure prediction by ZEFSAII (Michael W. Deem and Ramdas Pophale) SiO2 
 PCOD8029229
Probable space group: P -1
;
_chemical_formula_sum "Si O2"
_cell_formula_units_Z 16
_cell_length_a 11.576409
_cell_length_b 9.366516
_cell_length_c 14.764678
_cell_angle_alpha 67.714990
_cell_angle_beta 119.774923
_cell_angle_gamma 61.275220
_cell_volume 711.658410
_symmetry_space_group_name_H-M "P -1"
_symmetry_group_IT_number 2
_symmetry_cell_setting 'triclinic'
loop_
_space_group_symop_operation_xyz
x,y,z
-x,-y,-z
loop_
_atom_site_type_symbol
_atom_site_label
_atom_site_fract_x
_atom_site_fract_y
_atom_site_fract_z
Si Si1 0.845359 0.757774 0.709941
Si Si2 0.296790 0.619776 0.450287
Si Si3 0.288848 0.212968 0.170822
Si Si4 0.886478 0.360649 0.793427
Si Si5 0.540369 0.240277 0.340735
Si Si6 0.449097 0.491007 0.839161
Si Si7 0.396100 0.851503 0.170694
Si Si8 0.862533 0.246198 0.170877
O O1 0.649456 0.940331 0.673296
O O2 0.919557 0.513008 0.772709
O O3 0.085421 0.623439 0.865750
O O4 0.746196 0.939874 0.539479
O O5 0.500000 0.500000 0.500000
O O6 0.133127 0.666717 0.312866
O O7 0.431013 0.404260 0.633823
O O8 0.125331 0.913806 0.357406
O O9 0.412706 0.259751 0.209292
O O10 0.385026 0.037201 0.159819
O O11 0.000000 0.500000 0.000000
O O12 0.655043 0.520049 0.718197
O O13 0.119616 0.059213 0.005969
O O14 0.648508 0.287310 0.323636
O O15 0.495105 0.282610 0.855586
O O16 0.253512 0.650623 0.800386
O O17 0.697691 0.319737 0.016210
#
# Coordination Sequence:
#
# PCOD8029229 Si02
#       8
#     2   2   2   2   2   2   2   2
#     4  11  22  40  65  94 133 172 216 280 328 384
#     4  12  25  41  69 103 135 167 217 279 331 390
#     4  11  20  38  63  97 132 168 214 266 331 392
#     4  11  23  41  63 102 139 164 217 275 330 392
#     4  11  22  38  66  97 130 173 218 269 335 392
#     4  11  26  44  67  91 130 185 220 268 325 400
#     4  12  23  40  66  96 129 178 212 270 332 382
#     4  11  25  47  65  92 134 174 227 270 326 395
#
# _framework density 22.482696000000001
#
# number of rings (size 3 to 8) (size 9 to 14) (size 15 to 20)
#    0.000    0.750    3.750    6.750    1.750    3.000 
#    0.000    1.875    0.000    3.000    0.000    0.000 
#    0.000    0.000    0.000    0.000    0.000    0.000 
#
# Total GULP energy -198286.283515 kJ/mol
# GULP energy per Si atom -12392.892720 kJ/mol
# Density = 2.243152 g / cm^3
# Si number density = 22.482696 Si / 1000 Ang^3
#
#
#
# Elastic Constant Matrix: (Units=GPa)
#
#
# Indices 1 2 3 4 5 6 
#
# 1 64.6498 37.2588 -16.7839 -3.0418 7.6251 1.6319
# 2 37.2588 176.7909 10.1548 10.4205 6.4275 2.5705
# 3 -16.7839 10.1548 63.9590 6.9382 4.9654 -1.2010
# 4 -3.0418 10.4205 6.9382 33.1779 -2.4782 5.3665
# 5 7.6251 6.4275 4.9654 -2.4782 24.1916 2.8694
# 6 1.6319 2.5705 -1.2010 5.3665 2.8694 29.0729
#
#
#
# Elastic Compliance Matrix: (Units=1/GPa)
#
#
# Indices 1 2 3 4 5 6 
#
# 1 0.020615 -0.004569 0.006469 0.001512 -0.006441 -0.000129
# 2 -0.004569 0.006871 -0.002041 -0.002161 -0.000186 -0.000018
# 3 0.006469 -0.002041 0.018509 -0.003361 -0.005851 0.001780
# 4 0.001512 -0.002161 -0.003361 0.033105 0.004966 -0.006634
# 5 -0.006441 -0.000186 -0.005851 0.004966 0.045754 -0.005296
# 6 -0.000129 -0.000018 0.001780 -0.006634 -0.005296 0.036226
#
#
# Mechanical properties :
#
#
# Convention : Reuss Voigt Hill
#
# Bulk Modulus (GPa) = 21.87668 40.73988 31.30828
# Shear Modulus (GPa) = 28.31254 35.60647 31.95951
#
# Velocity S-wave (km/s) = 3.55252 3.98393 3.77439
# Velocity P-wave (km/s) = 5.15546 6.27073 5.74025
#
# Compressibility (1/GPa) = 0.04571079
#
# Stress axis : x y z
#
# Youngs Moduli (GPa) = 48.50901 145.53912 54.02793
#
# Poissons Ratio (x) = 0.66500 -0.34949
# Poissons Ratio (y) = 0.22165 0.11030
# Poissons Ratio (z) = -0.31379 0.29711
#
# Static dielectric constant tensor:
#      x y z
#    x 3.724120 0.152670 -0.054290 
#    y 0.152670 4.569740 0.360440 
#    z -0.054290 0.360440 4.391610 
# 
# 
# High freq. dielectric constant tensor:
#      x y z
#    x 1.840990 0.019600 -0.005620 
#    y 0.019600 1.902800 0.021990 
#    z -0.005620 0.021990 1.909990 
# 
# From -- ./inp_files/515401.got.cif
#   From: 2010.06.25/outbox.cif.g09.slc.cpg/sg2_258_cif.got.tgz:515401.got - 2010.06.27 13:26:56.
