data_PCOD8029670
_publ_section_title
;
Structure prediction by ZEFSAII (Michael W. Deem and Ramdas Pophale) SiO2 
 PCOD8029670
Probable space group: P -1
;
_chemical_formula_sum "Si O2"
_cell_formula_units_Z 16
_cell_length_a 9.374664
_cell_length_b 15.143625
_cell_length_c 20.413549
_cell_angle_alpha 159.071683
_cell_angle_beta 129.443240
_cell_angle_gamma 48.382931
_cell_volume 772.680939
_symmetry_space_group_name_H-M "P -1"
_symmetry_group_IT_number 2
_symmetry_cell_setting 'triclinic'
loop_
_space_group_symop_operation_xyz
x,y,z
-x,-y,-z
loop_
_atom_site_type_symbol
_atom_site_label
_atom_site_fract_x
_atom_site_fract_y
_atom_site_fract_z
Si Si1 0.209918 0.168084 0.959626
Si Si2 0.196126 0.284975 0.896050
Si Si3 0.190931 0.082137 0.608777
Si Si4 0.389232 0.740985 0.970566
Si Si5 0.525094 0.439421 0.685914
Si Si6 0.626624 0.393368 0.372348
Si Si7 0.736931 0.676687 0.712008
Si Si8 0.919917 0.409490 0.144944
O O1 0.193536 0.102757 0.832195
O O2 0.294194 0.896885 0.830106
O O3 0.337497 0.367429 0.146585
O O4 0.007239 0.283247 0.014694
O O5 0.217356 0.153243 0.740934
O O6 0.392927 0.371087 0.018554
O O7 0.000000 0.500000 0.000000
O O8 0.177878 0.298203 0.699718
O O9 0.357227 0.850559 0.469473
O O10 0.000000 0.000000 0.500000
O O11 0.372513 0.541278 0.769880
O O12 0.242475 0.727809 0.976200
O O13 0.343844 0.026958 0.126156
O O14 0.403499 0.434751 0.582055
O O15 0.771150 0.501678 0.535223
O O16 0.419213 0.422944 0.363079
O O17 0.926879 0.625311 0.775658
#
# Coordination Sequence:
#
# PCOD8029670 Si02
#       8
#     2   2   2   2   2   2   2   2
#     4  11  21  39  65  97 124 167 216 266 318 384
#     4  11  22  43  67  95 124 167 218 267 317 378
#     4  12  23  40  68  95 129 164 222 265 315 385
#     4  11  25  44  65  94 136 171 214 266 329 384
#     4  11  21  40  64  94 128 170 214 270 314 376
#     4  11  21  37  70  99 122 164 230 271 311 374
#     4  11  22  40  66  98 132 166 218 273 317 380
#     4  12  25  42  64  96 134 180 207 262 334 383
#
# _framework density 20.707124
#
# number of rings (size 3 to 8) (size 9 to 14) (size 15 to 20)
#    0.000    0.750    6.250    3.000    3.500    1.000 
#    0.000    3.750    0.000    0.000    0.000    0.000 
#    0.000    0.000    0.000    0.000    0.000    0.000 
#
# Total GULP energy -198264.029679 kJ/mol
# GULP energy per Si atom -12391.501855 kJ/mol
# Density = 2.065999 g / cm^3
# Si number density = 20.707124 Si / 1000 Ang^3
#
#
#
# Elastic Constant Matrix: (Units=GPa)
#
#
# Indices 1 2 3 4 5 6 
#
# 1 89.3596 22.4240 22.9688 -10.5160 -2.6152 2.2787
# 2 22.4240 117.4834 46.4114 1.9027 1.0629 1.9636
# 3 22.9688 46.4114 82.3534 3.4214 -23.8779 -0.8056
# 4 -10.5160 1.9027 3.4214 36.6437 -5.5831 -7.9661
# 5 -2.6152 1.0629 -23.8779 -5.5831 27.5524 -0.2651
# 6 2.2787 1.9636 -0.8056 -7.9661 -0.2651 28.1931
#
#
#
# Elastic Compliance Matrix: (Units=1/GPa)
#
#
# Indices 1 2 3 4 5 6 
#
# 1 0.012772 -0.001202 -0.003274 0.003927 -0.000783 0.000060
# 2 -0.001202 0.012558 -0.009307 -0.001868 -0.009059 -0.001657
# 3 -0.003274 -0.009307 0.024520 0.000988 0.021519 0.002095
# 4 0.003927 -0.001868 0.000988 0.031524 0.007774 0.008821
# 5 -0.000783 -0.009059 0.021519 0.007774 0.056833 0.004040
# 6 0.000060 -0.001657 0.002095 0.008821 0.004040 0.038171
#
#
# Mechanical properties :
#
#
# Convention : Reuss Voigt Hill
#
# Bulk Modulus (GPa) = 44.87757 52.53386 48.70572
# Shear Modulus (GPa) = 23.65513 31.63731 27.64622
#
# Velocity S-wave (km/s) = 3.38356 3.91301 3.65788
# Velocity P-wave (km/s) = 6.08146 6.77056 6.43524
#
# Compressibility (1/GPa) = 0.02228285
#
# Stress axis : x y z
#
# Youngs Moduli (GPa) = 78.29851 79.63102 40.78321
#
# Poissons Ratio (x) = 0.09569 0.13354
# Poissons Ratio (y) = 0.09409 0.37958
# Poissons Ratio (z) = 0.25637 0.74115
#
# Static dielectric constant tensor:
#      x y z
#    x 3.661910 0.081170 -0.215450 
#    y 0.081170 4.007540 -0.041110 
#    z -0.215450 -0.041110 3.637360 
# 
# 
# High freq. dielectric constant tensor:
#      x y z
#    x 1.796180 0.007560 -0.025110 
#    y 0.007560 1.827300 0.003140 
#    z -0.025110 0.003140 1.799860 
# 
# From -- ./inp_files/306788.got.cif
#   From: 2010.06.25/outbox.cif.g09.slc.cpg/sg2_154_cif.got.tgz:306788.got - 2010.06.27 13:26:56.
