data_PCOD8029097
_publ_section_title
;
Structure prediction by ZEFSAII (Michael W. Deem and Ramdas Pophale) SiO2 
 PCOD8029097
Probable space group: P -1
;
_chemical_formula_sum "Si O2"
_cell_formula_units_Z 16
_cell_length_a 12.122775
_cell_length_b 13.708316
_cell_length_c 11.806214
_cell_angle_alpha 31.614493
_cell_angle_beta 50.145860
_cell_angle_gamma 60.239888
_cell_volume 783.577749
_symmetry_space_group_name_H-M "P -1"
_symmetry_group_IT_number 2
_symmetry_cell_setting 'triclinic'
loop_
_space_group_symop_operation_xyz
x,y,z
-x,-y,-z
loop_
_atom_site_type_symbol
_atom_site_label
_atom_site_fract_x
_atom_site_fract_y
_atom_site_fract_z
Si Si1 0.583522 0.113986 0.434184
Si Si2 0.308028 0.123563 0.729825
Si Si3 0.890976 0.817762 0.396658
Si Si4 0.185472 0.601942 0.121803
Si Si5 0.949630 0.695852 0.877566
Si Si6 0.195575 0.733893 0.228829
Si Si7 0.862259 0.623710 0.251282
Si Si8 0.160220 0.034708 0.486080
O O1 0.470950 0.198283 0.509793
O O2 0.500000 0.000000 0.500000
O O3 0.671381 0.975198 0.586946
O O4 0.695164 0.285738 0.146877
O O5 0.212925 0.088225 0.713062
O O6 0.244246 0.259174 0.725689
O O7 0.309888 0.918566 0.988751
O O8 0.815354 0.616483 0.689630
O O9 0.923410 0.948744 0.355844
O O10 0.038047 0.800712 0.250987
O O11 0.230137 0.623905 0.201793
O O12 0.028302 0.669258 0.137759
O O13 0.851244 0.780249 0.764469
O O14 0.851246 0.663702 0.086164
O O15 0.091262 0.845418 0.656410
O O16 0.000000 0.500000 0.000000
O O17 0.195759 0.595293 0.472693
#
# Coordination Sequence:
#
# PCOD8029097 Si02
#       8
#     2   2   2   2   2   2   2   2
#     4  12  24  40  61 101 142 174 209 259 330 407
#     4  12  23  37  62  96 138 170 205 261 337 398
#     4  11  20  37  64  97 129 170 212 272 331 381
#     4  11  20  37  60  95 133 171 214 261 321 389
#     4  11  24  45  72  95 125 169 232 282 314 371
#     4  11  20  33  59  93 132 166 211 264 320 387
#     4  11  22  41  63  95 125 168 222 271 325 375
#     4  11  24  43  66  99 130 172 219 272 327 379
#
# _framework density 20.419160000000002
#
# number of rings (size 3 to 8) (size 9 to 14) (size 15 to 20)
#    0.000    0.750    6.250    3.375    0.000    1.500 
#    2.250    0.625    0.000    1.500    0.000    0.000 
#    0.000    0.000    0.000    0.000    0.000    0.000 
#
# Total GULP energy -198416.854014 kJ/mol
# GULP energy per Si atom -12401.053376 kJ/mol
# Density = 2.037269 g / cm^3
# Si number density = 20.419160 Si / 1000 Ang^3
#
#
#
# Elastic Constant Matrix: (Units=GPa)
#
#
# Indices 1 2 3 4 5 6 
#
# 1 80.1740 38.8256 29.6468 4.9073 19.4923 -6.2465
# 2 38.8256 116.8325 53.8040 9.0838 -2.8306 -0.9819
# 3 29.6468 53.8040 117.6949 11.7991 5.8501 -10.1440
# 4 4.9073 9.0838 11.7991 38.3553 1.2055 -2.4030
# 5 19.4923 -2.8306 5.8501 1.2055 36.6975 5.3795
# 6 -6.2465 -0.9819 -10.1440 -2.4030 5.3795 20.2346
#
#
#
# Elastic Compliance Matrix: (Units=1/GPa)
#
#
# Indices 1 2 3 4 5 6 
#
# 1 0.019344 -0.006355 -0.000655 0.000140 -0.011914 0.008519
# 2 -0.006355 0.013221 -0.005103 -0.001293 0.006079 -0.005648
# 3 -0.000655 -0.005103 0.011836 -0.001887 -0.002749 0.005991
# 4 0.000140 -0.001293 -0.001887 0.027137 -0.001140 0.002560
# 5 -0.011914 0.006079 -0.002749 -0.001140 0.036669 -0.014645
# 6 0.008519 -0.005648 0.005991 0.002560 -0.014645 0.058977
#
#
# Mechanical properties :
#
#
# Convention : Reuss Voigt Hill
#
# Bulk Modulus (GPa) = 49.56190 62.13936 55.85063
# Shear Modulus (GPa) = 25.23517 31.88580 28.56049
#
# Velocity S-wave (km/s) = 3.51929 3.95595 3.74399
# Velocity P-wave (km/s) = 6.39053 7.16687 6.78980
#
# Compressibility (1/GPa) = 0.02017679
#
# Stress axis : x y z
#
# Youngs Moduli (GPa) = 51.69481 75.63561 84.48503
#
# Poissons Ratio (x) = 0.48063 0.05537
# Poissons Ratio (y) = 0.32850 0.43110
# Poissons Ratio (z) = 0.03388 0.38594
#
# Static dielectric constant tensor:
#      x y z
#    x 3.513720 -0.049080 0.170780 
#    y -0.049080 3.746690 0.004410 
#    z 0.170780 0.004410 3.996090 
# 
# 
# High freq. dielectric constant tensor:
#      x y z
#    x 1.755630 -0.001110 0.015670 
#    y -0.001110 1.802550 -0.006520 
#    z 0.015670 -0.006520 1.813460 
# 
# From -- ./inp_files/432240.got.cif
#   From: 2010.06.25/outbox.cif.g09.slc.cpg/sg2_217_cif.got.tgz:432240.got - 2010.06.27 13:26:56.
