data_PCOD8029244
_publ_section_title
;
Structure prediction by ZEFSAII (Michael W. Deem and Ramdas Pophale) SiO2 
 PCOD8029244
Probable space group: P -1
;
_chemical_formula_sum "Si O2"
_cell_formula_units_Z 14
_cell_length_a 9.560876
_cell_length_b 15.215763
_cell_length_c 9.520609
_cell_angle_alpha 60.492853
_cell_angle_beta 86.433664
_cell_angle_gamma 41.906933
_cell_volume 685.922360
_symmetry_space_group_name_H-M "P -1"
_symmetry_group_IT_number 2
_symmetry_cell_setting 'triclinic'
loop_
_space_group_symop_operation_xyz
x,y,z
-x,-y,-z
loop_
_atom_site_type_symbol
_atom_site_label
_atom_site_fract_x
_atom_site_fract_y
_atom_site_fract_z
Si Si1 0.123398 0.687390 0.487021
Si Si2 0.615377 0.017032 0.881795
Si Si3 0.906251 0.168654 0.893256
Si Si4 0.780563 0.592905 0.345464
Si Si5 0.241483 0.375845 0.996247
Si Si6 0.448302 0.468919 0.886970
Si Si7 0.448220 0.994494 0.662110
O O1 0.172677 0.743947 0.323906
O O2 0.251200 0.508711 0.564982
O O3 0.255557 0.641879 0.660733
O O4 0.837717 0.833085 0.416472
O O5 0.471873 0.207982 0.744132
O O6 0.607862 0.978368 0.756060
O O7 0.500000 0.000000 0.000000
O O8 0.890268 0.875618 0.024667
O O9 0.689498 0.299570 0.916163
O O10 0.000000 0.000000 0.000000
O O11 0.831879 0.599216 0.179638
O O12 0.000000 0.500000 0.500000
O O13 0.329695 0.436007 0.973356
O O14 0.461119 0.172728 0.188767
O O15 0.000000 0.500000 0.000000
O O16 0.500000 0.500000 0.000000
O O17 0.500000 0.000000 0.500000
#
# Coordination Sequence:
#
# PCOD8029244 Si02
#       7
#     2   2   2   2   2   2   2
#     4  11  23  44  70  96 136 181 223 277 338 406
#     4  12  23  42  71 100 132 178 229 278 330 402
#     4  12  25  47  70  97 142 182 223 283 340 409
#     4  11  20  38  66 105 130 164 228 278 327 394
#     4  11  25  44  68  95 138 176 220 281 337 395
#     4  11  27  46  67 101 137 178 229 278 345 406
#     4  12  24  42  67 103 137 172 229 283 334 394
#
# _framework density 20.410471999999999
#
# number of rings (size 3 to 8) (size 9 to 14) (size 15 to 20)
#    0.000    0.571    4.286    4.714    4.000    0.000 
#    2.571    1.429    0.000    0.000    0.000    0.000 
#    0.000    0.000    0.000    0.000    0.000    0.000 
#
# Total GULP energy -173648.537304 kJ/mol
# GULP energy per Si atom -12403.466950 kJ/mol
# Density = 2.036402 g / cm^3
# Si number density = 20.410472 Si / 1000 Ang^3
#
#
#
# Elastic Constant Matrix: (Units=GPa)
#
#
# Indices 1 2 3 4 5 6 
#
# 1 120.3402 50.2690 68.3395 13.6770 5.6543 -1.9472
# 2 50.2690 103.4009 51.6737 6.1527 -8.5739 1.8046
# 3 68.3395 51.6737 163.1595 12.3636 -2.8464 18.8317
# 4 13.6770 6.1527 12.3636 44.2786 4.3045 4.4487
# 5 5.6543 -8.5739 -2.8464 4.3045 47.9600 2.2659
# 6 -1.9472 1.8046 18.8317 4.4487 2.2659 37.0848
#
#
#
# Elastic Compliance Matrix: (Units=1/GPa)
#
#
# Indices 1 2 3 4 5 6 
#
# 1 0.013021 -0.004275 -0.004377 -0.002317 -0.002519 0.003546
# 2 -0.004275 0.013147 -0.002335 -0.000136 0.002720 0.000172
# 3 -0.004377 -0.002335 0.009317 -0.000529 0.000928 -0.004841
# 4 -0.002317 -0.000136 -0.000529 0.023904 -0.001805 -0.002604
# 5 -0.002519 0.002720 0.000928 -0.001805 0.021939 -0.001860
# 6 0.003546 0.000172 -0.004841 -0.002604 -0.001860 0.030027
#
#
# Mechanical properties :
#
#
# Convention : Reuss Voigt Hill
#
# Bulk Modulus (GPa) = 74.02463 80.82947 77.42705
# Shear Modulus (GPa) = 36.27581 40.30590 38.29086
#
# Velocity S-wave (km/s) = 4.22039 4.44865 4.33603
# Velocity P-wave (km/s) = 7.75214 8.12867 7.94264
#
# Compressibility (1/GPa) = 0.01350902
#
# Stress axis : x y z
#
# Youngs Moduli (GPa) = 76.80136 76.06194 107.33156
#
# Poissons Ratio (x) = 0.32519 0.46983
# Poissons Ratio (y) = 0.32836 0.25063
# Poissons Ratio (z) = 0.33619 0.17761
#
# Static dielectric constant tensor:
#      x y z
#    x 5.240740 0.657160 0.981910 
#    y 0.657160 3.982040 0.182570 
#    z 0.981910 0.182570 4.616790 
# 
# 
# High freq. dielectric constant tensor:
#      x y z
#    x 1.799260 0.000520 0.004170 
#    y 0.000520 1.801870 -0.005530 
#    z 0.004170 -0.005530 1.818700 
# 
# From -- ./inp_files/149506.got.cif
#   From: 2010.06.25/outbox.cif.g09.slc.cpg/sg2_75_cif.got.tgz:149506.got - 2010.06.27 13:26:56.
