data_PCOD8029867
_publ_section_title
;
Structure prediction by ZEFSAII (Michael W. Deem and Ramdas Pophale) SiO2 
 PCOD8029867
Probable space group: P -1
;
_chemical_formula_sum "Si O2"
_cell_formula_units_Z 14
_cell_length_a 6.390448
_cell_length_b 10.984293
_cell_length_c 9.031747
_cell_angle_alpha 89.675697
_cell_angle_beta 72.047846
_cell_angle_gamma 75.205957
_cell_volume 581.278771
_symmetry_space_group_name_H-M "P -1"
_symmetry_group_IT_number 2
_symmetry_cell_setting 'triclinic'
loop_
_space_group_symop_operation_xyz
x,y,z
-x,-y,-z
loop_
_atom_site_type_symbol
_atom_site_label
_atom_site_fract_x
_atom_site_fract_y
_atom_site_fract_z
Si Si1 0.520156 0.894772 0.879483
Si Si2 0.202632 0.434190 0.346114
Si Si3 0.552133 0.358144 0.761379
Si Si4 0.126059 0.796779 0.077285
Si Si5 0.268177 0.019084 0.682308
Si Si6 0.843876 0.667734 0.941248
Si Si7 0.530969 0.785220 0.507122
O O1 0.754267 0.795384 0.867035
O O2 0.506370 0.964643 0.724295
O O3 0.312607 0.829145 0.931466
O O4 0.500000 0.000000 0.000000
O O5 0.391379 0.510828 0.285454
O O6 0.080747 0.430424 0.211362
O O7 0.352898 0.297511 0.374860
O O8 0.000000 0.500000 0.500000
O O9 0.769294 0.262071 0.789525
O O10 0.496583 0.305501 0.617668
O O11 0.338300 0.378243 0.919050
O O12 0.940370 0.928556 0.159581
O O13 0.036337 0.690797 0.008942
O O14 0.291167 0.135557 0.578452
O O15 0.280450 0.887595 0.591131
#
# Coordination Sequence:
#
# PCOD8029867 Si02
#       7
#     2   2   2   2   2   2   2
#     4  11  21  40  68 106 143 180 226 291 353 418
#     4  12  27  48  71 104 139 187 246 294 352 416
#     4  11  25  48  72 100 146 188 236 295 345 420
#     4  11  23  42  73 109 136 181 240 279 352 429
#     4  11  21  40  70 103 145 175 226 283 354 429
#     4  11  24  46  74  99 142 185 238 293 351 415
#     4  11  24  45  70 102 144 187 223 295 361 406
#
# _framework density 24.084827000000001
#
# number of rings (size 3 to 8) (size 9 to 14) (size 15 to 20)
#    0.000    0.857    4.286    3.000    0.000    2.286 
#    5.143    0.000    0.000    0.000    0.000    0.000 
#    0.000    0.000    0.000    0.000    0.000    0.000 
#
# Total GULP energy -173439.487819 kJ/mol
# GULP energy per Si atom -12388.534844 kJ/mol
# Density = 2.403001 g / cm^3
# Si number density = 24.084827 Si / 1000 Ang^3
#
#
#
# Elastic Constant Matrix: (Units=GPa)
#
#
# Indices 1 2 3 4 5 6 
#
# 1 77.1438 19.8850 25.4849 0.7839 4.1469 15.9596
# 2 19.8850 99.9452 19.5409 -5.8687 -2.7973 9.5784
# 3 25.4849 19.5409 110.9653 15.8011 13.3423 20.2627
# 4 0.7839 -5.8687 15.8011 53.0188 -4.9689 8.4766
# 5 4.1469 -2.7973 13.3423 -4.9689 24.2226 -1.6738
# 6 15.9596 9.5784 20.2627 8.4766 -1.6738 31.4347
#
#
#
# Elastic Compliance Matrix: (Units=1/GPa)
#
#
# Indices 1 2 3 4 5 6 
#
# 1 0.015566 -0.002115 -0.001916 0.000931 -0.002104 -0.006387
# 2 -0.002115 0.011175 -0.001902 0.002377 0.003078 -0.001583
# 3 -0.001916 -0.001902 0.012309 -0.003654 -0.007823 -0.005813
# 4 0.000931 0.002377 -0.003654 0.021471 0.006236 -0.004299
# 5 -0.002104 0.003078 -0.007823 0.006236 0.048006 0.006048
# 6 -0.006387 -0.001583 -0.005813 -0.004299 0.006048 0.040765
#
#
# Mechanical properties :
#
#
# Convention : Reuss Voigt Hill
#
# Bulk Modulus (GPa) = 36.78380 46.43066 41.60723
# Shear Modulus (GPa) = 29.37386 36.61147 32.99267
#
# Velocity S-wave (km/s) = 3.49607 3.90308 3.70517
# Velocity P-wave (km/s) = 5.62160 6.29539 5.96801
#
# Compressibility (1/GPa) = 0.02718588
#
# Stress axis : x y z
#
# Youngs Moduli (GPa) = 64.24389 89.48197 81.23906
#
# Poissons Ratio (x) = 0.18921 0.15564
# Poissons Ratio (y) = 0.13585 0.15451
# Poissons Ratio (z) = 0.12308 0.17019
#
# Static dielectric constant tensor:
#      x y z
#    x 4.146500 -0.022150 0.294510 
#    y -0.022150 4.685540 0.026740 
#    z 0.294510 0.026740 4.323140 
# 
# 
# High freq. dielectric constant tensor:
#      x y z
#    x 1.925570 -0.001980 0.015390 
#    y -0.001980 1.974720 0.001910 
#    z 0.015390 0.001910 1.980610 
# 
# From -- ./inp_files/131598.got.cif
#   From: 2010.06.25/outbox.cif.g09.slc.cpg/sg2_66_cif.got.tgz:131598.got - 2010.06.27 13:26:56.
