data_PCOD8029283
_publ_section_title
;
Structure prediction by ZEFSAII (Michael W. Deem and Ramdas Pophale) SiO2 
 PCOD8029283
Probable space group: P -1
;
_chemical_formula_sum "Si O2"
_cell_formula_units_Z 14
_cell_length_a 11.544373
_cell_length_b 14.001325
_cell_length_c 10.929256
_cell_angle_alpha 150.854340
_cell_angle_beta 39.284336
_cell_angle_gamma 134.621674
_cell_volume 542.760580
_symmetry_space_group_name_H-M "P -1"
_symmetry_group_IT_number 2
_symmetry_cell_setting 'triclinic'
loop_
_space_group_symop_operation_xyz
x,y,z
-x,-y,-z
loop_
_atom_site_type_symbol
_atom_site_label
_atom_site_fract_x
_atom_site_fract_y
_atom_site_fract_z
Si Si1 0.671508 0.992173 0.757870
Si Si2 0.035611 0.542542 0.256224
Si Si3 0.815846 0.695761 0.816419
Si Si4 0.339686 0.634106 0.270802
Si Si5 0.594293 0.990961 0.219908
Si Si6 0.007593 0.218369 0.655573
Si Si7 0.970008 0.114107 0.927265
O O1 0.833688 0.173580 0.841604
O O2 0.592879 0.000298 0.693456
O O3 0.788911 0.800672 0.472560
O O4 0.500000 0.000000 0.000000
O O5 0.249375 0.611356 0.185466
O O6 0.995065 0.572065 0.177952
O O7 0.927408 0.689331 0.592484
O O8 0.985732 0.314619 0.061890
O O9 0.804842 0.473930 0.632889
O O10 0.912781 0.856644 0.010396
O O11 0.621171 0.779350 0.026639
O O12 0.405657 0.855137 0.496926
O O13 0.500000 0.500000 0.000000
O O14 0.758599 0.053907 0.063305
O O15 0.960258 0.054451 0.404250
#
# Coordination Sequence:
#
# PCOD8029283 Si02
#       7
#     2   2   2   2   2   2   2
#     4  11  25  46  68  94 126 174 230 277 323 383
#     4  11  21  41  66  96 130 173 213 262 331 394
#     4  11  21  38  65  99 132 175 210 254 336 396
#     4  11  25  38  58 102 141 165 211 265 319 408
#     4  12  22  40  69  93 132 176 215 269 330 380
#     4  11  25  45  68  91 130 174 224 277 324 383
#     4  11  20  39  67  97 131 171 214 263 328 393
#
# _framework density 25.794060999999999
#
# number of rings (size 3 to 8) (size 9 to 14) (size 15 to 20)
#    0.000    0.857    5.714    2.143    6.000    0.571 
#    0.000    5.000    0.000    0.000    0.000    0.000 
#    0.000    0.000    0.000    0.000    0.000    0.000 
#
# Total GULP energy -173484.452389 kJ/mol
# GULP energy per Si atom -12391.746599 kJ/mol
# Density = 2.573535 g / cm^3
# Si number density = 25.794061 Si / 1000 Ang^3
#
#
#
# Elastic Constant Matrix: (Units=GPa)
#
#
# Indices 1 2 3 4 5 6 
#
# 1 173.5491 9.4458 22.9760 6.8973 -22.6255 -4.3004
# 2 9.4458 63.3966 -4.2490 -2.9135 -18.0059 -14.8084
# 3 22.9760 -4.2490 44.0409 -14.7744 -4.5498 4.9878
# 4 6.8973 -2.9135 -14.7744 39.1255 -2.5314 -16.0138
# 5 -22.6255 -18.0059 -4.5498 -2.5314 56.8326 8.4460
# 6 -4.3004 -14.8084 4.9878 -16.0138 8.4460 39.4647
#
#
#
# Elastic Compliance Matrix: (Units=1/GPa)
#
#
# Indices 1 2 3 4 5 6 
#
# 1 0.006764 -0.001070 -0.004386 -0.003129 0.001983 -0.000804
# 2 -0.001070 0.020114 0.004513 0.007286 0.005343 0.008674
# 3 -0.004386 0.004513 0.029944 0.013565 0.002323 0.002438
# 4 -0.003129 0.007286 0.013565 0.038396 0.001490 0.015940
# 5 0.001983 0.005343 0.002323 0.001490 0.020609 -0.001879
# 6 -0.000804 0.008674 0.002438 0.015940 -0.001879 0.035068
#
#
# Mechanical properties :
#
#
# Convention : Reuss Voigt Hill
#
# Bulk Modulus (GPa) = 18.20300 37.48135 27.84217
# Shear Modulus (GPa) = 29.22389 43.93881 36.58135
#
# Velocity S-wave (km/s) = 3.36961 4.13176 3.77000
# Velocity P-wave (km/s) = 4.71290 6.10938 5.45600
#
# Compressibility (1/GPa) = 0.05493601
#
# Stress axis : x y z
#
# Youngs Moduli (GPa) = 147.84485 49.71624 33.39562
#
# Poissons Ratio (x) = 0.05321 0.14646
# Poissons Ratio (y) = 0.15823 -0.15071
# Poissons Ratio (z) = 0.64841 -0.22437
#
# Static dielectric constant tensor:
#      x y z
#    x 4.879350 -0.121250 -0.096140 
#    y -0.121250 4.238360 -0.351200 
#    z -0.096140 -0.351200 4.598260 
# 
# 
# High freq. dielectric constant tensor:
#      x y z
#    x 2.048140 -0.017510 -0.009900 
#    y -0.017510 2.036760 -0.004930 
#    z -0.009900 -0.004930 2.028320 
# 
# From -- ./inp_files/413967.got.cif
#   From: 2010.06.25/outbox.cif.g09.slc.cpg/sg2_207_cif.got.tgz:413967.got - 2010.06.27 13:26:56.
