data_PCOD8029835
_publ_section_title
;
Structure prediction by ZEFSAII (Michael W. Deem and Ramdas Pophale) SiO2 
 PCOD8029835
Probable space group: P -1
;
_chemical_formula_sum "Si O2"
_cell_formula_units_Z 14
_cell_length_a 9.308691
_cell_length_b 12.429819
_cell_length_c 11.782432
_cell_angle_alpha 143.751698
_cell_angle_beta 59.011224
_cell_angle_gamma 124.830704
_cell_volume 657.529636
_symmetry_space_group_name_H-M "P -1"
_symmetry_group_IT_number 2
_symmetry_cell_setting 'triclinic'
loop_
_space_group_symop_operation_xyz
x,y,z
-x,-y,-z
loop_
_atom_site_type_symbol
_atom_site_label
_atom_site_fract_x
_atom_site_fract_y
_atom_site_fract_z
Si Si1 0.641693 0.729225 0.364350
Si Si2 0.182645 0.899516 0.494278
Si Si3 0.108443 0.975728 0.173157
Si Si4 0.110139 0.661846 0.729824
Si Si5 0.695790 0.624266 0.503322
Si Si6 0.252999 0.623191 0.403940
Si Si7 0.998980 0.711406 0.187272
O O1 0.704972 0.707775 0.446149
O O2 0.444904 0.588947 0.301825
O O3 0.803678 0.691239 0.198874
O O4 0.655563 0.946255 0.505592
O O5 0.262920 0.755421 0.403566
O O6 0.037399 0.792309 0.368329
O O7 0.080989 0.988838 0.704870
O O8 0.138813 0.854153 0.166908
O O9 0.251221 0.185627 0.278190
O O10 0.130320 0.857742 0.953560
O O11 0.174141 0.504672 0.640023
O O12 0.222300 0.718642 0.616637
O O13 0.901886 0.575346 0.714539
O O14 0.500000 0.500000 0.500000
O O15 0.000000 0.500000 0.000000
#
# Coordination Sequence:
#
# PCOD8029835 Si02
#       7
#     2   2   2   2   2   2   2
#     4  11  21  40  65  98 127 168 221 276 324 383
#     4  11  21  41  66  93 133 172 213 272 330 393
#     4  11  22  42  70  98 126 173 230 263 331 386
#     4  11  25  43  69  92 136 181 216 265 330 396
#     4  12  22  43  67  95 130 168 222 279 320 379
#     4  11  23  43  62  96 138 177 213 266 330 394
#     4  11  21  40  72  97 129 173 218 277 333 382
#
# _framework density 21.291817999999999
#
# number of rings (size 3 to 8) (size 9 to 14) (size 15 to 20)
#    0.000    0.857    5.714    3.000    0.000    1.143 
#    0.000    7.857    0.000    0.000    0.000    0.000 
#    0.000    0.000    0.000    0.000    0.000    0.000 
#
# Total GULP energy -173436.802177 kJ/mol
# GULP energy per Si atom -12388.343013 kJ/mol
# Density = 2.124336 g / cm^3
# Si number density = 21.291818 Si / 1000 Ang^3
#
#
#
# Elastic Constant Matrix: (Units=GPa)
#
#
# Indices 1 2 3 4 5 6 
#
# 1 116.8028 31.6972 29.3010 4.3829 10.0282 21.3566
# 2 31.6972 92.1020 17.3555 8.0520 10.1827 11.5762
# 3 29.3010 17.3555 111.3321 12.8571 5.9541 13.1639
# 4 4.3829 8.0520 12.8571 29.3832 -2.3617 6.9917
# 5 10.0282 10.1827 5.9541 -2.3617 15.5577 1.3598
# 6 21.3566 11.5762 13.1639 6.9917 1.3598 42.9719
#
#
#
# Elastic Compliance Matrix: (Units=1/GPa)
#
#
# Indices 1 2 3 4 5 6 
#
# 1 0.010764 -0.002425 -0.001801 0.000480 -0.004232 -0.004089
# 2 -0.002425 0.013032 -0.000469 -0.003244 -0.007156 -0.001407
# 3 -0.001801 -0.000469 0.010317 -0.004025 -0.002970 -0.001390
# 4 0.000480 -0.003244 -0.004025 0.038503 0.009610 -0.004700
# 5 -0.004232 -0.007156 -0.002970 0.009610 0.074194 0.001029
# 6 -0.004089 -0.001407 -0.001390 -0.004700 0.001029 0.026840
#
#
# Mechanical properties :
#
#
# Convention : Reuss Voigt Hill
#
# Bulk Modulus (GPa) = 40.44792 52.99381 46.72086
# Shear Modulus (GPa) = 26.13925 33.70809 29.92367
#
# Velocity S-wave (km/s) = 3.50761 3.98320 3.75294
# Velocity P-wave (km/s) = 5.95337 6.78953 6.38515
#
# Compressibility (1/GPa) = 0.02472315
#
# Stress axis : x y z
#
# Youngs Moduli (GPa) = 92.90001 76.73169 96.92478
#
# Poissons Ratio (x) = 0.18611 0.17451
# Poissons Ratio (y) = 0.22532 0.04550
# Poissons Ratio (z) = 0.16727 0.03602
#
# Static dielectric constant tensor:
#      x y z
#    x 3.952250 -0.137480 0.063210 
#    y -0.137480 4.639790 -0.062890 
#    z 0.063210 -0.062890 3.651250 
# 
# 
# High freq. dielectric constant tensor:
#      x y z
#    x 1.830740 -0.006240 0.001010 
#    y -0.006240 1.858440 0.007630 
#    z 0.001010 0.007630 1.801790 
# 
# From -- ./inp_files/332783.got.cif
#   From: 2010.06.25/outbox.cif.g09.slc.cpg/sg2_167_cif.got.tgz:332783.got - 2010.06.27 13:26:56.
