data_PCOD8029104
_publ_section_title
;
Structure prediction by ZEFSAII (Michael W. Deem and Ramdas Pophale) SiO2 
 PCOD8029104
Probable space group: P -1
;
_chemical_formula_sum "Si O2"
_cell_formula_units_Z 14
_cell_length_a 15.949386
_cell_length_b 12.014177
_cell_length_c 10.736166
_cell_angle_alpha 123.361979
_cell_angle_beta 151.376794
_cell_angle_gamma 47.374570
_cell_volume 719.336893
_symmetry_space_group_name_H-M "P -1"
_symmetry_group_IT_number 2
_symmetry_cell_setting 'triclinic'
loop_
_space_group_symop_operation_xyz
x,y,z
-x,-y,-z
loop_
_atom_site_type_symbol
_atom_site_label
_atom_site_fract_x
_atom_site_fract_y
_atom_site_fract_z
Si Si1 0.387887 0.548174 0.013919
Si Si2 0.936094 0.759338 0.552728
Si Si3 0.508834 0.789153 0.410275
Si Si4 0.371082 0.178900 0.158250
Si Si5 0.159656 0.036540 0.670827
Si Si6 0.437246 0.266005 0.040332
Si Si7 0.696542 0.912210 0.548386
O O1 0.152205 0.613668 0.725847
O O2 0.500000 0.500000 0.000000
O O3 0.424570 0.675688 0.205328
O O4 0.471416 0.404677 0.126952
O O5 0.917288 0.895671 0.524485
O O6 0.910865 0.813952 0.699434
O O7 0.766612 0.713146 0.273275
O O8 0.653714 0.734837 0.688710
O O9 0.634526 0.795811 0.460617
O O10 0.319259 0.960993 0.292926
O O11 0.423319 0.265839 0.172215
O O12 0.547649 0.003707 0.296118
O O13 0.175866 0.165555 0.855191
O O14 0.374540 0.888860 0.853633
O O15 0.000000 0.000000 0.500000
#
# Coordination Sequence:
#
# PCOD8029104 Si02
#       7
#     2   2   2   2   2   2   2
#     4  12  26  37  57  89 125 153 196 239 295 354
#     4  11  21  38  61  87 113 156 199 239 291 345
#     4   9  20  37  60  86 116 157 188 250 284 344
#     4   9  18  38  60  84 113 154 195 237 290 337
#     4  11  20  33  64  88 114 148 200 252 279 332
#     4  11  20  39  57  85 123 153 186 242 297 354
#     4   9  17  37  63  82 112 150 196 240 285 336
#
# _framework density 19.462368000000001
#
# number of rings (size 3 to 8) (size 9 to 14) (size 15 to 20)
#    0.857    0.857    2.857    3.000    2.000    1.143 
#    0.000    1.429    0.000   12.000    0.000    0.000 
#    0.000    0.000    0.000    0.000    0.000    0.000 
#
# Total GULP energy -173487.681612 kJ/mol
# GULP energy per Si atom -12391.977258 kJ/mol
# Density = 1.941807 g / cm^3
# Si number density = 19.462368 Si / 1000 Ang^3
#
#
#
# Elastic Constant Matrix: (Units=GPa)
#
#
# Indices 1 2 3 4 5 6 
#
# 1 149.5377 42.6457 40.4598 -1.7242 8.3362 16.7821
# 2 42.6457 65.8654 18.1027 4.2727 -2.3537 16.2995
# 3 40.4598 18.1027 57.3790 -0.2663 1.4656 -2.5940
# 4 -1.7242 4.2727 -0.2663 30.4526 0.4963 7.1182
# 5 8.3362 -2.3537 1.4656 0.4963 24.6164 -1.6422
# 6 16.7821 16.2995 -2.5940 7.1182 -1.6422 39.6692
#
#
#
# Elastic Compliance Matrix: (Units=1/GPa)
#
#
# Indices 1 2 3 4 5 6 
#
# 1 0.010118 -0.004387 -0.005797 0.001987 -0.003766 -0.003369
# 2 -0.004387 0.020951 -0.003906 -0.001743 0.003319 -0.006558
# 3 -0.005797 -0.003906 0.022988 -0.000934 0.000624 0.005754
# 4 0.001987 -0.001743 -0.000934 0.034737 -0.001918 -0.006498
# 5 -0.003766 0.003319 0.000624 -0.001918 0.042375 0.002368
# 6 -0.003369 -0.006558 0.005754 -0.006498 0.002368 0.030968
#
#
# Mechanical properties :
#
#
# Convention : Reuss Voigt Hill
#
# Bulk Modulus (GPa) = 38.64514 52.79987 45.72250
# Shear Modulus (GPa) = 25.13278 30.38591 27.75935
#
# Velocity S-wave (km/s) = 3.59744 3.95557 3.78075
# Velocity P-wave (km/s) = 6.09548 6.93182 6.52706
#
# Compressibility (1/GPa) = 0.02587648
#
# Stress axis : x y z
#
# Youngs Moduli (GPa) = 98.83423 47.73027 43.50131
#
# Poissons Ratio (x) = 0.20941 0.25219
# Poissons Ratio (y) = 0.43363 0.16990
# Poissons Ratio (z) = 0.57296 0.18641
#
# Static dielectric constant tensor:
#      x y z
#    x 4.790240 0.297260 0.824690 
#    y 0.297260 3.420350 0.127740 
#    z 0.824690 0.127740 3.896790 
# 
# 
# High freq. dielectric constant tensor:
#      x y z
#    x 1.776090 0.011610 0.001390 
#    y 0.011610 1.741000 0.007360 
#    z 0.001390 0.007360 1.729440 
# 
# From -- ./inp_files/451697.got.cif
#   From: 2010.06.25/outbox.cif.g09.slc.cpg/sg2_226_cif.got.tgz:451697.got - 2010.06.27 13:26:56.
