data_PCOD8029959
_publ_section_title
;
Structure prediction by ZEFSAII (Michael W. Deem and Ramdas Pophale) SiO2 
 PCOD8029959
Probable space group: P -1
;
_chemical_formula_sum "Si O2"
_cell_formula_units_Z 14
_cell_length_a 11.782081
_cell_length_b 9.535373
_cell_length_c 12.127569
_cell_angle_alpha 59.163699
_cell_angle_beta 35.246869
_cell_angle_gamma 71.206197
_cell_volume 662.226223
_symmetry_space_group_name_H-M "P -1"
_symmetry_group_IT_number 2
_symmetry_cell_setting 'triclinic'
loop_
_space_group_symop_operation_xyz
x,y,z
-x,-y,-z
loop_
_atom_site_type_symbol
_atom_site_label
_atom_site_fract_x
_atom_site_fract_y
_atom_site_fract_z
Si Si1 0.597906 0.305312 0.259183
Si Si2 0.471572 0.126795 0.214984
Si Si3 0.673184 0.632887 0.362097
Si Si4 0.782563 0.926619 0.984298
Si Si5 0.810923 0.126768 0.316762
Si Si6 0.985000 0.568752 0.829117
Si Si7 0.839597 0.840496 0.727595
O O1 0.530542 0.270081 0.201273
O O2 0.400782 0.313349 0.482952
O O3 0.691761 0.148502 0.290991
O O4 0.761285 0.474031 0.074823
O O5 0.347135 0.200056 0.190477
O O6 0.673308 0.082165 0.021931
O O7 0.340337 0.956763 0.435580
O O8 0.500000 0.500000 0.500000
O O9 0.707239 0.786662 0.190538
O O10 0.872789 0.560943 0.258131
O O11 0.748578 0.859546 0.913476
O O12 0.022594 0.986823 0.789867
O O13 0.923892 0.312858 0.188968
O O14 0.958836 0.686678 0.697711
O O15 0.000000 0.000000 0.500000
#
# Coordination Sequence:
#
# PCOD8029959 Si02
#       7
#     2   2   2   2   2   2   2
#     4  12  25  40  67 102 139 159 212 282 326 378
#     4  12  25  44  64  99 135 174 212 265 328 383
#     4  12  22  39  70 103 125 169 219 266 329 381
#     4  11  23  39  72  95 124 174 221 261 320 387
#     4  11  21  41  66  96 132 168 212 266 320 384
#     4  11  23  43  67  95 130 173 217 267 317 383
#     4  11  24  46  68  90 130 177 224 262 308 397
#
# _framework density 21.140812
#
# number of rings (size 3 to 8) (size 9 to 14) (size 15 to 20)
#    0.000    0.571    7.143    3.000    0.000    2.286 
#    2.571    0.714    0.000    0.000    0.000    0.000 
#    0.000    0.000    0.000    0.000    0.000    0.000 
#
# Total GULP energy -173579.559851 kJ/mol
# GULP energy per Si atom -12398.539989 kJ/mol
# Density = 2.109269 g / cm^3
# Si number density = 21.140812 Si / 1000 Ang^3
#
#
#
# Elastic Constant Matrix: (Units=GPa)
#
#
# Indices 1 2 3 4 5 6 
#
# 1 131.5542 52.5701 33.4841 16.3687 6.8311 -23.0229
# 2 52.5701 66.8676 34.2263 13.9320 -1.8389 -6.0246
# 3 33.4841 34.2263 98.7594 12.4275 -2.9087 -2.2887
# 4 16.3687 13.9320 12.4275 34.2909 -6.1800 -2.9572
# 5 6.8311 -1.8389 -2.9087 -6.1800 29.6063 0.5826
# 6 -23.0229 -6.0246 -2.2887 -2.9572 0.5826 39.2387
#
#
#
# Elastic Compliance Matrix: (Units=1/GPa)
#
#
# Indices 1 2 3 4 5 6 
#
# 1 0.012932 -0.008679 -0.001046 -0.002514 -0.004270 0.006068
# 2 -0.008679 0.025189 -0.005268 -0.003934 0.002265 -0.001862
# 3 -0.001046 -0.005268 0.012541 -0.001837 0.000779 -0.000841
# 4 -0.002514 -0.003934 -0.001837 0.033954 0.007238 0.000265
# 5 -0.004270 0.002265 0.000779 0.007238 0.036531 -0.002109
# 6 0.006068 -0.001862 -0.000841 0.000265 -0.002109 0.028762
#
#
# Mechanical properties :
#
#
# Convention : Reuss Voigt Hill
#
# Bulk Modulus (GPa) = 48.36475 59.74913 54.05694
# Shear Modulus (GPa) = 26.76854 32.42055 29.59455
#
# Velocity S-wave (km/s) = 3.56223 3.92031 3.74555
# Velocity P-wave (km/s) = 6.31240 6.98681 6.65815
#
# Compressibility (1/GPa) = 0.02067621
#
# Stress axis : x y z
#
# Youngs Moduli (GPa) = 77.32641 39.70012 79.74071
#
# Poissons Ratio (x) = 0.34454 0.08338
# Poissons Ratio (y) = 0.67109 0.42011
# Poissons Ratio (z) = 0.08086 0.20916
#
# Static dielectric constant tensor:
#      x y z
#    x 4.017940 -0.383690 0.000350 
#    y -0.383690 3.714650 0.177260 
#    z 0.000350 0.177260 3.891610 
# 
# 
# High freq. dielectric constant tensor:
#      x y z
#    x 1.836050 -0.017770 -0.007370 
#    y -0.017770 1.806800 0.004190 
#    z -0.007370 0.004190 1.835660 
# 
# From -- ./inp_files/412031.got.cif
#   From: 2010.06.25/outbox.cif.g09.slc.cpg/sg2_207_cif.got.tgz:412031.got - 2010.06.27 13:26:56.
