data_PCOD8029875
_publ_section_title
;
Structure prediction by ZEFSAII (Michael W. Deem and Ramdas Pophale) SiO2 
 PCOD8029875
Probable space group: P -1
;
_chemical_formula_sum "Si O2"
_cell_formula_units_Z 16
_cell_length_a 7.963265
_cell_length_b 17.259441
_cell_length_c 8.523460
_cell_angle_alpha 66.108072
_cell_angle_beta 53.049323
_cell_angle_gamma 46.206714
_cell_volume 675.657569
_symmetry_space_group_name_H-M "P -1"
_symmetry_group_IT_number 2
_symmetry_cell_setting 'triclinic'
loop_
_space_group_symop_operation_xyz
x,y,z
-x,-y,-z
loop_
_atom_site_type_symbol
_atom_site_label
_atom_site_fract_x
_atom_site_fract_y
_atom_site_fract_z
Si Si1 0.355625 0.188718 0.060639
Si Si2 0.130546 0.033310 0.019818
Si Si3 0.532173 0.283750 0.674842
Si Si4 0.309629 0.427980 0.385414
Si Si5 0.022466 0.113484 0.344573
Si Si6 0.467316 0.069037 0.610706
Si Si7 0.319107 0.585051 0.398688
Si Si8 0.307543 0.268547 0.350332
O O1 0.093733 0.195730 0.215767
O O2 0.439722 0.207698 0.164448
O O3 0.325015 0.269692 0.882144
O O4 0.600287 0.069607 0.971113
O O5 0.947960 0.096932 0.224522
O O6 0.214321 0.098739 0.829425
O O7 0.000000 0.000000 0.000000
O O8 0.382392 0.374350 0.557553
O O9 0.627072 0.327661 0.720631
O O10 0.776306 0.170747 0.554943
O O11 0.390111 0.508639 0.266384
O O12 0.423435 0.334795 0.267552
O O13 0.000000 0.500000 0.500000
O O14 0.259198 0.000813 0.385090
O O15 0.397149 0.182241 0.509121
O O16 0.500000 0.000000 0.500000
O O17 0.500000 0.500000 0.500000
O O18 0.008947 0.650841 0.560816
#
# Coordination Sequence:
#
# PCOD8029875 Si02
#       8
#     2   2   2   2   2   2   2   2
#     4  11  24  41  65 102 135 179 222 267 333 406
#     4  11  27  42  62  96 144 176 232 273 318 407
#     4  11  23  41  75  95 130 181 224 271 345 400
#     4   9  22  41  69  96 126 174 223 286 341 392
#     4  11  25  46  64 100 144 177 225 273 327 406
#     4  11  21  41  67  95 141 187 210 273 337 390
#     4   9  19  43  66  93 128 169 221 287 331 387
#     4  11  21  40  68  97 140 176 222 271 340 398
#
# _framework density 23.680634000000001
#
# number of rings (size 3 to 8) (size 9 to 14) (size 15 to 20)
#    0.000    1.500    3.750    1.500    8.750    0.500 
#    0.000    6.250    0.000    0.000    0.000    0.000 
#    0.000    0.000    0.000    0.000    0.000    0.000 
#
# Total GULP energy -198220.433882 kJ/mol
# GULP energy per Si atom -12388.777118 kJ/mol
# Density = 2.362674 g / cm^3
# Si number density = 23.680634 Si / 1000 Ang^3
#
#
#
# Elastic Constant Matrix: (Units=GPa)
#
#
# Indices 1 2 3 4 5 6 
#
# 1 94.3925 39.7468 15.2063 2.0379 18.4984 19.0687
# 2 39.7468 110.5467 31.3480 2.9565 4.7557 18.5640
# 3 15.2063 31.3480 83.3133 -2.9490 6.7144 4.7306
# 4 2.0379 2.9565 -2.9490 8.9442 4.3095 6.1535
# 5 18.4984 4.7557 6.7144 4.3095 27.0390 8.3297
# 6 19.0687 18.5640 4.7306 6.1535 8.3297 54.7074
#
#
#
# Elastic Compliance Matrix: (Units=1/GPa)
#
#
# Indices 1 2 3 4 5 6 
#
# 1 0.014770 -0.004608 0.000091 0.004475 -0.009200 -0.002695
# 2 -0.004608 0.012194 -0.004054 -0.004442 0.003400 -0.002199
# 3 0.000091 -0.004054 0.014136 0.008065 -0.004095 -0.000162
# 4 0.004475 -0.004442 0.008065 0.134015 -0.021790 -0.012506
# 5 -0.009200 0.003400 -0.004095 -0.021790 0.047921 -0.002438
# 6 -0.002695 -0.002199 -0.000162 -0.012506 -0.002438 0.021757
#
#
# Mechanical properties :
#
#
# Convention : Reuss Voigt Hill
#
# Bulk Modulus (GPa) = 41.73697 51.20608 46.47152
# Shear Modulus (GPa) = 18.52399 31.60154 25.06277
#
# Velocity S-wave (km/s) = 2.79989 3.65703 3.25678
# Velocity P-wave (km/s) = 5.30243 6.28509 5.81456
#
# Compressibility (1/GPa) = 0.02395958
#
# Stress axis : x y z
#
# Youngs Moduli (GPa) = 67.70259 82.00774 70.74030
#
# Poissons Ratio (x) = 0.37787 -0.00642
# Poissons Ratio (y) = 0.31195 0.28675
# Poissons Ratio (z) = -0.00614 0.33242
#
# Static dielectric constant tensor:
#      x y z
#    x 4.716430 0.634960 -0.005370 
#    y 0.634960 4.961640 -0.069470 
#    z -0.005370 -0.069470 4.052680 
# 
# 
# High freq. dielectric constant tensor:
#      x y z
#    x 1.958160 0.019800 0.003300 
#    y 0.019800 1.949230 -0.004770 
#    z 0.003300 -0.004770 1.898810 
# 
# From -- ./inp_files/216951.got.cif
#   From: 2010.06.25/outbox.cif.g09.slc.cpg/sg2_109_cif.got.tgz:216951.got - 2010.06.27 13:26:56.
