data_PCOD8029551
_publ_section_title
;
Structure prediction by ZEFSAII (Michael W. Deem and Ramdas Pophale) SiO2 
 PCOD8029551
Probable space group: P -1
;
_chemical_formula_sum "Si O2"
_cell_formula_units_Z 14
_cell_length_a 13.480284
_cell_length_b 14.088448
_cell_length_c 8.746540
_cell_angle_alpha 120.169493
_cell_angle_beta 99.664705
_cell_angle_gamma 32.363834
_cell_volume 639.730251
_symmetry_space_group_name_H-M "P -1"
_symmetry_group_IT_number 2
_symmetry_cell_setting 'triclinic'
loop_
_space_group_symop_operation_xyz
x,y,z
-x,-y,-z
loop_
_atom_site_type_symbol
_atom_site_label
_atom_site_fract_x
_atom_site_fract_y
_atom_site_fract_z
Si Si1 0.460782 0.417546 0.855160
Si Si2 0.568729 0.324045 0.458966
Si Si3 0.023525 0.791374 0.207958
Si Si4 0.232944 0.526202 0.343509
Si Si5 0.825306 0.759641 0.215920
Si Si6 0.532362 0.900012 0.077345
Si Si7 0.215361 0.088033 0.357962
O O1 0.463008 0.419647 0.675585
O O2 0.644205 0.155714 0.755683
O O3 0.500000 0.500000 0.000000
O O4 0.218494 0.606126 0.985006
O O5 0.500000 0.500000 0.500000
O O6 0.462853 0.333399 0.329253
O O7 0.836446 0.062086 0.330582
O O8 0.131920 0.709536 0.338367
O O9 0.884687 0.813336 0.185117
O O10 0.042066 0.696390 0.561567
O O11 0.271271 0.379250 0.131999
O O12 0.591683 0.933378 0.245915
O O13 0.794321 0.812805 0.429606
O O14 0.000000 0.500000 0.000000
O O15 0.313294 0.047916 0.198007
O O16 0.500000 0.000000 0.000000
#
# Coordination Sequence:
#
# PCOD8029551 Si02
#       7
#     2   2   2   2   2   2   2
#     4  12  26  47  77 102 138 195 237 292 370 423
#     4  12  28  45  73 107 140 188 244 300 361 417
#     4  11  24  48  73 100 147 187 233 300 348 436
#     4  11  24  47  70 105 145 184 241 293 353 435
#     4  11  20  45  71 100 136 192 237 279 356 424
#     4  12  25  41  70 107 145 185 240 294 352 427
#     4  11  24  46  73 102 145 190 239 293 354 437
#
# _framework density 21.884222999999999
#
# number of rings (size 3 to 8) (size 9 to 14) (size 15 to 20)
#    0.000    0.571    7.143    2.143    2.000    4.571 
#    0.000    0.000    0.000    0.000    0.000    0.000 
#    0.000    0.000    0.000    0.000    0.000    0.000 
#
# Total GULP energy -173515.412530 kJ/mol
# GULP energy per Si atom -12393.958038 kJ/mol
# Density = 2.183441 g / cm^3
# Si number density = 21.884223 Si / 1000 Ang^3
#
#
#
# Elastic Constant Matrix: (Units=GPa)
#
#
# Indices 1 2 3 4 5 6 
#
# 1 76.6256 18.3353 37.5688 -4.1358 -15.3692 7.7448
# 2 18.3353 101.6082 33.7887 1.6208 -2.1284 1.5275
# 3 37.5688 33.7887 119.2961 9.9234 -15.9296 3.6070
# 4 -4.1358 1.6208 9.9234 34.1934 -6.9724 -0.4808
# 5 -15.3692 -2.1284 -15.9296 -6.9724 52.2553 -5.0391
# 6 7.7448 1.5275 3.6070 -0.4808 -5.0391 40.8717
#
#
#
# Elastic Compliance Matrix: (Units=1/GPa)
#
#
# Indices 1 2 3 4 5 6 
#
# 1 0.016918 -0.001447 -0.004690 0.004227 0.003838 -0.002215
# 2 -0.001447 0.011007 -0.002767 -0.000063 -0.000829 0.000004
# 3 -0.004690 -0.002767 0.011114 -0.003361 0.001462 0.000152
# 4 0.004227 -0.000063 -0.003361 0.031655 0.004481 0.000423
# 5 0.003838 -0.000829 0.001462 0.004481 0.021456 0.001873
# 6 -0.002215 0.000004 0.000152 0.000423 0.001873 0.025109
#
#
# Mechanical properties :
#
#
# Convention : Reuss Voigt Hill
#
# Bulk Modulus (GPa) = 47.10504 52.99060 50.04782
# Shear Modulus (GPa) = 35.17576 39.31987 37.24781
#
# Velocity S-wave (km/s) = 4.01353 4.24337 4.13005
# Velocity P-wave (km/s) = 6.56120 6.94802 6.75738
#
# Compressibility (1/GPa) = 0.02122915
#
# Stress axis : x y z
#
# Youngs Moduli (GPa) = 59.10843 90.85403 89.98002
#
# Poissons Ratio (x) = 0.13146 0.42203
# Poissons Ratio (y) = 0.08553 0.24901
# Poissons Ratio (z) = 0.27723 0.25143
#
# Static dielectric constant tensor:
#      x y z
#    x 3.713100 -0.422000 -0.164310 
#    y -0.422000 4.254550 0.112830 
#    z -0.164310 0.112830 4.090060 
# 
# 
# High freq. dielectric constant tensor:
#      x y z
#    x 1.868700 -0.002120 -0.004070 
#    y -0.002120 1.855950 0.009270 
#    z -0.004070 0.009270 1.866380 
# 
# From -- ./inp_files/313952.got.cif
#   From: 2010.06.25/outbox.cif.g09.slc.cpg/sg2_157_cif.got.tgz:313952.got - 2010.06.27 13:26:56.
