data_PCOD8029818
_publ_section_title
;
Structure prediction by ZEFSAII (Michael W. Deem and Ramdas Pophale) SiO2 
 PCOD8029818
Probable space group: P -1
;
_chemical_formula_sum "Si O2"
_cell_formula_units_Z 16
_cell_length_a 12.948368
_cell_length_b 10.767038
_cell_length_c 7.505609
_cell_angle_alpha 139.607341
_cell_angle_beta 87.464736
_cell_angle_gamma 94.914725
_cell_volume 675.238620
_symmetry_space_group_name_H-M "P -1"
_symmetry_group_IT_number 2
_symmetry_cell_setting 'triclinic'
loop_
_space_group_symop_operation_xyz
x,y,z
-x,-y,-z
loop_
_atom_site_type_symbol
_atom_site_label
_atom_site_fract_x
_atom_site_fract_y
_atom_site_fract_z
Si Si1 0.035328 0.469874 0.171479
Si Si2 0.386068 0.321479 0.399416
Si Si3 0.414083 0.801686 0.591672
Si Si4 0.730424 0.533053 0.918593
Si Si5 0.428852 0.199356 0.871949
Si Si6 0.652904 0.325304 0.016112
Si Si7 0.050936 0.802380 0.813517
Si Si8 0.725072 0.048372 0.953969
O O1 0.154331 0.417864 0.108675
O O2 0.020149 0.662115 0.496636
O O3 0.976276 0.292630 0.093135
O O4 0.000000 0.500000 0.000000
O O5 0.471873 0.271014 0.482956
O O6 0.427892 0.297032 0.172819
O O7 0.361460 0.542900 0.663584
O O8 0.280235 0.184024 0.298294
O O9 0.329125 0.627872 0.373823
O O10 0.380797 0.904440 0.886683
O O11 0.415886 0.967869 0.620735
O O12 0.667413 0.724053 0.144254
O O13 0.734915 0.449357 0.024395
O O14 0.542715 0.273834 0.866167
O O15 0.709145 0.134704 0.853431
O O16 0.173382 0.857294 0.855940
O O17 0.000000 0.000000 0.000000
#
# Coordination Sequence:
#
# PCOD8029818 Si02
#       8
#     2   2   2   2   2   2   2   2
#     4  11  27  52  73 105 143 184 241 309 366 419
#     4  11  22  37  66  96 138 173 218 271 322 409
#     4  11  21  40  63  95 135 176 216 265 329 403
#     4  12  26  39  65  94 136 179 215 277 343 408
#     4  11  22  38  62  95 134 177 221 263 320 405
#     4  12  23  38  62  98 138 180 216 262 337 414
#     4  11  27  48  81 105 134 186 249 303 361 429
#     4  11  22  42  66  97 127 171 222 274 342 403
#
# _framework density 23.695325
#
# number of rings (size 3 to 8) (size 9 to 14) (size 15 to 20)
#    0.000    0.750    5.000    3.000    3.500    4.000 
#    0.000    0.000    0.000    0.000    0.000    0.000 
#    0.000    0.000    0.000    0.000    0.000    0.000 
#
# Total GULP energy -198336.858314 kJ/mol
# GULP energy per Si atom -12396.053645 kJ/mol
# Density = 2.364139 g / cm^3
# Si number density = 23.695325 Si / 1000 Ang^3
#
#
#
# Elastic Constant Matrix: (Units=GPa)
#
#
# Indices 1 2 3 4 5 6 
#
# 1 91.5964 29.0433 22.2111 8.0874 8.9315 13.8735
# 2 29.0433 123.2165 25.7950 13.3458 2.4250 0.4122
# 3 22.2111 25.7950 60.5501 0.8405 3.1908 1.0136
# 4 8.0874 13.3458 0.8405 36.4416 -0.0934 2.5571
# 5 8.9315 2.4250 3.1908 -0.0934 31.1356 4.0015
# 6 13.8735 0.4122 1.0136 2.5571 4.0015 33.9133
#
#
#
# Elastic Compliance Matrix: (Units=1/GPa)
#
#
# Indices 1 2 3 4 5 6 
#
# 1 0.013725 -0.002159 -0.003862 -0.001822 -0.002734 -0.005013
# 2 -0.002159 0.009640 -0.003294 -0.003051 0.000057 0.001088
# 3 -0.003862 -0.003294 0.019336 0.001544 -0.000743 0.001013
# 4 -0.001822 -0.003051 0.001544 0.029039 0.000889 -0.001558
# 5 -0.002734 0.000057 -0.000743 0.000889 0.033344 -0.002861
# 6 -0.005013 0.001088 0.001013 -0.001558 -0.002861 0.031949
#
#
# Mechanical properties :
#
#
# Convention : Reuss Voigt Hill
#
# Bulk Modulus (GPa) = 41.54138 47.71799 44.62969
# Shear Modulus (GPa) = 30.54631 33.51899 32.03265
#
# Velocity S-wave (km/s) = 3.59434 3.76517 3.68075
# Velocity P-wave (km/s) = 5.89875 6.25171 6.07779
#
# Compressibility (1/GPa) = 0.02407238
#
# Stress axis : x y z
#
# Youngs Moduli (GPa) = 72.85871 103.73531 51.71778
#
# Poissons Ratio (x) = 0.22395 0.19972
# Poissons Ratio (y) = 0.15729 0.17034
# Poissons Ratio (z) = 0.28136 0.34167
#
# Static dielectric constant tensor:
#      x y z
#    x 4.117650 0.065920 -0.012920 
#    y 0.065920 4.591480 0.252020 
#    z -0.012920 0.252020 4.281860 
# 
# 
# High freq. dielectric constant tensor:
#      x y z
#    x 1.918760 0.009350 0.001970 
#    y 0.009350 1.956530 0.010270 
#    z 0.001970 0.010270 1.940270 
# 
# From -- ./inp_files/258703.got.cif
#   From: 2010.06.25/outbox.cif.g09.slc.cpg/sg2_130_cif.got.tgz:258703.got - 2010.06.27 13:26:56.
