data_PCOD8029659
_publ_section_title
;
Structure prediction by ZEFSAII (Michael W. Deem and Ramdas Pophale) SiO2 
 PCOD8029659
Probable space group: P -1
;
_chemical_formula_sum "Si O2"
_cell_formula_units_Z 16
_cell_length_a 15.634386
_cell_length_b 18.027511
_cell_length_c 24.527789
_cell_angle_alpha 160.091261
_cell_angle_beta 21.729566
_cell_angle_gamma 146.744417
_cell_volume 832.754129
_symmetry_space_group_name_H-M "P -1"
_symmetry_group_IT_number 2
_symmetry_cell_setting 'triclinic'
loop_
_space_group_symop_operation_xyz
x,y,z
-x,-y,-z
loop_
_atom_site_type_symbol
_atom_site_label
_atom_site_fract_x
_atom_site_fract_y
_atom_site_fract_z
Si Si1 0.739061 0.040396 0.206465
Si Si2 0.991993 0.153515 0.763398
Si Si3 0.462209 0.378666 0.993409
Si Si4 0.792385 0.927558 0.217549
Si Si5 0.236565 0.512457 0.685235
Si Si6 0.300675 0.437668 0.720071
Si Si7 0.993319 0.143826 0.549614
Si Si8 0.294595 0.831758 0.455749
O O1 0.578795 0.285368 0.448024
O O2 0.642714 0.830786 0.100334
O O3 0.740955 0.069144 0.290158
O O4 0.000000 0.000000 0.000000
O O5 0.154001 0.277655 0.720409
O O6 0.911740 0.998835 0.659992
O O7 0.750498 0.335380 0.055590
O O8 0.151740 0.006754 0.615545
O O9 0.717712 0.293472 0.812537
O O10 0.500000 0.500000 0.000000
O O11 0.282576 0.575283 0.273176
O O12 0.576467 0.819120 0.281672
O O13 0.817887 0.092928 0.366148
O O14 0.043790 0.732172 0.926068
O O15 0.500000 0.500000 0.500000
O O16 0.211011 0.525971 0.774577
O O17 0.179403 0.288430 0.543582
O O18 0.000000 0.000000 0.500000
#
# Coordination Sequence:
#
# PCOD8029659 Si02
#       8
#     2   2   2   2   2   2   2   2
#     4  12  24  42  63  92 129 165 198 247 311 373
#     4  11  21  38  65  91 125 153 208 264 301 350
#     4  12  20  39  63  92 120 157 214 252 292 358
#     4  11  22  38  62  94 116 164 206 248 305 358
#     4  12  24  40  59  91 129 161 199 248 308 373
#     4  11  22  40  61  91 125 164 198 253 313 358
#     4  12  22  37  61  94 119 158 209 254 297 356
#     4  11  21  37  66  93 121 152 214 265 292 350
#
# _framework density 19.213353999999999
#
# number of rings (size 3 to 8) (size 9 to 14) (size 15 to 20)
#    0.000    0.500    8.750    0.750    0.000    1.000 
#    0.000    2.500    0.000    0.000    0.000    0.000 
#    0.000    0.000    0.000    0.000    0.000    0.000 
#
# Total GULP energy -198407.711593 kJ/mol
# GULP energy per Si atom -12400.481975 kJ/mol
# Density = 1.916962 g / cm^3
# Si number density = 19.213354 Si / 1000 Ang^3
#
#
#
# Elastic Constant Matrix: (Units=GPa)
#
#
# Indices 1 2 3 4 5 6 
#
# 1 104.2926 33.2922 27.4200 6.2134 12.8039 2.3572
# 2 33.2922 79.9381 45.9008 -1.2569 4.7192 13.6537
# 3 27.4200 45.9008 128.2886 7.4189 6.0576 14.4344
# 4 6.2134 -1.2569 7.4189 28.4415 5.1346 -2.6094
# 5 12.8039 4.7192 6.0576 5.1346 45.2174 7.2891
# 6 2.3572 13.6537 14.4344 -2.6094 7.2891 17.3551
#
#
#
# Elastic Compliance Matrix: (Units=1/GPa)
#
#
# Indices 1 2 3 4 5 6 
#
# 1 0.011805 -0.004892 -0.001002 -0.001573 -0.003194 0.004183
# 2 -0.004892 0.019042 -0.004741 0.001881 0.001551 -0.010742
# 3 -0.001002 -0.004741 0.010505 -0.003370 0.000666 -0.005658
# 4 -0.001573 0.001881 -0.003370 0.038267 -0.005170 0.009462
# 5 -0.003194 0.001551 0.000666 -0.005170 0.025418 -0.012793
# 6 0.004183 -0.010742 -0.005658 0.009462 -0.012793 0.077004
#
#
# Mechanical properties :
#
#
# Convention : Reuss Voigt Hill
#
# Bulk Modulus (GPa) = 49.79316 58.41611 54.10463
# Shear Modulus (GPa) = 23.80899 31.92988 27.86944
#
# Velocity S-wave (km/s) = 3.52403 4.08101 3.81271
# Velocity P-wave (km/s) = 6.52155 7.25783 6.89952
#
# Compressibility (1/GPa) = 0.02008308
#
# Stress axis : x y z
#
# Youngs Moduli (GPa) = 84.71282 52.51535 95.18935
#
# Poissons Ratio (x) = 0.25690 0.09535
# Poissons Ratio (y) = 0.41440 0.45129
# Poissons Ratio (z) = 0.08486 0.24897
#
# Static dielectric constant tensor:
#      x y z
#    x 3.702670 -0.058560 0.030170 
#    y -0.058560 3.256650 0.208330 
#    z 0.030170 0.208330 3.768730 
# 
# 
# High freq. dielectric constant tensor:
#      x y z
#    x 1.767960 -0.002180 -0.000070 
#    y -0.002180 1.713920 0.016930 
#    z -0.000070 0.016930 1.762790 
# 
# From -- ./inp_files/218920.got.cif
#   From: 2010.06.25/outbox.cif.g09.slc.cpg/sg2_110_cif.got.tgz:218920.got - 2010.06.27 13:26:56.
