data_PCOD8029722
_publ_section_title
;
Structure prediction by ZEFSAII (Michael W. Deem and Ramdas Pophale) SiO2 
 PCOD8029722
Probable space group: P -1
;
_chemical_formula_sum "Si O2"
_cell_formula_units_Z 16
_cell_length_a 11.473553
_cell_length_b 15.735855
_cell_length_c 9.286468
_cell_angle_alpha 135.201975
_cell_angle_beta 38.083420
_cell_angle_gamma 133.900212
_cell_volume 692.705188
_symmetry_space_group_name_H-M "P -1"
_symmetry_group_IT_number 2
_symmetry_cell_setting 'triclinic'
loop_
_space_group_symop_operation_xyz
x,y,z
-x,-y,-z
loop_
_atom_site_type_symbol
_atom_site_label
_atom_site_fract_x
_atom_site_fract_y
_atom_site_fract_z
Si Si1 0.765493 0.804148 0.648876
Si Si2 0.945979 0.419382 0.315813
Si Si3 0.942404 0.034257 0.941851
Si Si4 0.607151 0.537988 0.094130
Si Si5 0.702962 0.809466 0.388498
Si Si6 0.599908 0.281642 0.905418
Si Si7 0.967573 0.595708 0.263863
Si Si8 0.366509 0.829917 0.571386
O O1 0.759160 0.849046 0.545262
O O2 0.827112 0.675418 0.440309
O O3 0.927204 0.916361 0.709485
O O4 0.554103 0.792269 0.913455
O O5 0.781038 0.288658 0.345888
O O6 0.000000 0.500000 0.500000
O O7 0.863362 0.504922 0.388394
O O8 0.154010 0.402808 0.049040
O O9 0.101461 0.157289 0.863570
O O10 0.733183 0.059266 0.201579
O O11 0.000000 0.000000 0.000000
O O12 0.558437 0.662014 0.347063
O O13 0.500000 0.500000 0.000000
O O14 0.543549 0.411906 0.099520
O O15 0.564120 0.884982 0.542540
O O16 0.822476 0.305584 0.773962
O O17 0.576037 0.206470 0.687397
O O18 0.000000 0.500000 0.000000
#
# Coordination Sequence:
#
# PCOD8029722 Si02
#       8
#     2   2   2   2   2   2   2   2
#     4  12  29  47  72 106 153 191 237 299 362 433
#     4  11  21  39  68 103 141 184 233 296 354 416
#     4  12  29  50  77 101 140 195 251 302 354 424
#     4  11  21  38  71 106 144 178 233 297 362 422
#     4  12  27  47  72 107 142 193 241 299 365 430
#     4  11  25  42  69 109 143 188 235 294 362 428
#     4  11  26  44  69 106 151 188 230 294 367 438
#     4  12  25  45  74 103 140 189 248 296 352 429
#
# _framework density 23.097850000000001
#
# number of rings (size 3 to 8) (size 9 to 14) (size 15 to 20)
#    0.000    0.500    5.000    3.375    5.250    4.500 
#    0.000    0.000    0.000    0.000    0.000    0.000 
#    0.000    0.000    0.000    0.000    0.000    0.000 
#
# Total GULP energy -198318.379077 kJ/mol
# GULP energy per Si atom -12394.898692 kJ/mol
# Density = 2.304528 g / cm^3
# Si number density = 23.097850 Si / 1000 Ang^3
#
#
#
# Elastic Constant Matrix: (Units=GPa)
#
#
# Indices 1 2 3 4 5 6 
#
# 1 143.7954 17.6652 57.8730 0.6365 19.8246 -14.6882
# 2 17.6652 66.7216 34.7460 -1.3219 17.6242 -8.2226
# 3 57.8730 34.7460 106.6540 7.4416 9.8678 -18.0327
# 4 0.6365 -1.3219 7.4416 43.6531 -1.8454 5.0219
# 5 19.8246 17.6242 9.8678 -1.8454 48.6101 1.6095
# 6 -14.6882 -8.2226 -18.0327 5.0219 1.6095 33.4008
#
#
#
# Elastic Compliance Matrix: (Units=1/GPa)
#
#
# Indices 1 2 3 4 5 6 
#
# 1 0.009432 0.001173 -0.004898 0.000374 -0.003326 0.001896
# 2 0.001173 0.019926 -0.006237 0.001123 -0.006467 0.002197
# 3 -0.004898 -0.006237 0.015025 -0.003198 0.000927 0.004859
# 4 0.000374 0.001123 -0.003198 0.024102 0.001169 -0.004966
# 5 -0.003326 -0.006467 0.000927 0.001169 0.024258 -0.003899
# 6 0.001896 0.002197 0.004859 -0.004966 -0.003899 0.034872
#
#
# Mechanical properties :
#
#
# Convention : Reuss Voigt Hill
#
# Bulk Modulus (GPa) = 40.88368 59.74881 50.31624
# Shear Modulus (GPa) = 32.11470 38.92527 35.51999
#
# Velocity S-wave (km/s) = 3.73282 4.10961 3.92574
# Velocity P-wave (km/s) = 6.02638 6.96006 6.50998
#
# Compressibility (1/GPa) = 0.02445964
#
# Stress axis : x y z
#
# Youngs Moduli (GPa) = 106.02055 50.18542 66.55723
#
# Poissons Ratio (x) = -0.05888 0.32600
# Poissons Ratio (y) = -0.12438 0.41510
# Poissons Ratio (z) = 0.51929 0.31300
#
# Static dielectric constant tensor:
#      x y z
#    x 4.496000 -0.025350 -0.323750 
#    y -0.025350 4.149410 -0.056500 
#    z -0.323750 -0.056500 4.313010 
# 
# 
# High freq. dielectric constant tensor:
#      x y z
#    x 1.924880 -0.002100 -0.008290 
#    y -0.002100 1.914140 -0.001120 
#    z -0.008290 -0.001120 1.908970 
# 
# From -- ./inp_files/274254.got.cif
#   From: 2010.06.25/outbox.cif.g09.slc.cpg/sg2_138_cif.got.tgz:274254.got - 2010.06.27 13:26:56.
