data_PCOD8029589
_publ_section_title
;
Structure prediction by ZEFSAII (Michael W. Deem and Ramdas Pophale) SiO2 
 PCOD8029589
Probable space group: P -1
;
_chemical_formula_sum "Si O2"
_cell_formula_units_Z 16
_cell_length_a 9.705735
_cell_length_b 9.465826
_cell_length_c 15.800839
_cell_angle_alpha 142.945427
_cell_angle_beta 75.730032
_cell_angle_gamma 119.118122
_cell_volume 735.919616
_symmetry_space_group_name_H-M "P -1"
_symmetry_group_IT_number 2
_symmetry_cell_setting 'triclinic'
loop_
_space_group_symop_operation_xyz
x,y,z
-x,-y,-z
loop_
_atom_site_type_symbol
_atom_site_label
_atom_site_fract_x
_atom_site_fract_y
_atom_site_fract_z
Si Si1 0.737611 0.445595 0.833859
Si Si2 0.541238 0.107743 0.848875
Si Si3 0.740339 0.596444 0.173777
Si Si4 0.490381 0.715711 0.357278
Si Si5 0.039995 0.015821 0.218902
Si Si6 0.396860 0.359804 0.365312
Si Si7 0.194202 0.987740 0.865712
Si Si8 0.905025 0.308332 0.087718
O O1 0.616315 0.177742 0.776551
O O2 0.667190 0.462104 0.761798
O O3 0.911356 0.455489 0.803994
O O4 0.765002 0.705135 0.006336
O O5 0.345977 0.962277 0.797040
O O6 0.580359 0.893309 0.784345
O O7 0.610482 0.377921 0.023562
O O8 0.654099 0.744148 0.303460
O O9 0.788954 0.438773 0.159586
O O10 0.907343 0.820322 0.213179
O O11 0.466363 0.577584 0.384950
O O12 0.500000 0.000000 0.500000
O O13 0.201665 0.245987 0.352414
O O14 0.964394 0.167865 0.246069
O O15 0.097781 0.842548 0.070298
O O16 0.500000 0.500000 0.500000
O O17 0.158061 0.904784 0.928651
#
# Coordination Sequence:
#
# PCOD8029589 Si02
#       8
#     2   2   2   2   2   2   2   2
#     4  11  21  39  64  96 138 169 215 271 331 392
#     4  12  22  40  68 103 137 170 223 274 330 395
#     4  12  23  41  70 104 133 174 220 279 332 389
#     4  12  27  47  66  95 134 183 226 269 332 401
#     4  11  22  41  67 101 135 170 222 270 337 395
#     4  12  27  47  67  95 137 181 222 273 334 397
#     4  11  21  35  62 102 134 171 212 274 330 386
#     4  11  21  36  62 103 135 167 213 277 332 385
#
# _framework density 21.741505
#
# number of rings (size 3 to 8) (size 9 to 14) (size 15 to 20)
#    0.000    0.500    5.000    6.750    0.000    1.000 
#    0.000    6.250    0.000    0.000    0.000    0.000 
#    0.000    0.000    0.000    0.000    0.000    0.000 
#
# Total GULP energy -198414.156980 kJ/mol
# GULP energy per Si atom -12400.884811 kJ/mol
# Density = 2.169202 g / cm^3
# Si number density = 21.741505 Si / 1000 Ang^3
#
#
#
# Elastic Constant Matrix: (Units=GPa)
#
#
# Indices 1 2 3 4 5 6 
#
# 1 176.7334 51.4028 55.7300 -2.0854 11.0748 -0.1685
# 2 51.4028 135.1530 51.8044 2.8696 -1.3352 -7.9479
# 3 55.7300 51.8044 68.8482 0.0406 2.8996 4.7527
# 4 -2.0854 2.8696 0.0406 16.6350 -8.6828 2.8041
# 5 11.0748 -1.3352 2.8996 -8.6828 40.9098 1.3580
# 6 -0.1685 -7.9479 4.7527 2.8041 1.3580 41.4428
#
#
#
# Elastic Compliance Matrix: (Units=1/GPa)
#
#
# Indices 1 2 3 4 5 6 
#
# 1 0.007786 -0.000763 -0.005697 0.000124 -0.001722 0.000587
# 2 -0.000763 0.010933 -0.007846 -0.002203 0.000548 0.003124
# 3 -0.005697 -0.007846 0.025355 0.001294 -0.000086 -0.004520
# 4 0.000124 -0.002203 0.001294 0.069126 0.014664 -0.005728
# 5 -0.001722 0.000548 -0.000086 0.014664 0.028107 -0.001805
# 6 0.000587 0.003124 -0.004520 -0.005728 -0.001805 0.025696
#
#
# Mechanical properties :
#
#
# Convention : Reuss Voigt Hill
#
# Bulk Modulus (GPa) = 64.67426 77.62321 71.14873
# Shear Modulus (GPa) = 24.90433 34.58402 29.74417
#
# Velocity S-wave (km/s) = 3.38816 3.99267 3.70277
# Velocity P-wave (km/s) = 6.71697 7.55219 7.14679
#
# Compressibility (1/GPa) = 0.01546210
#
# Stress axis : x y z
#
# Youngs Moduli (GPa) = 128.42754 91.47036 39.44057
#
# Poissons Ratio (x) = 0.06979 0.22469
# Poissons Ratio (y) = 0.09799 0.30945
# Poissons Ratio (z) = 0.73163 0.71767
#
# Static dielectric constant tensor:
#      x y z
#    x 4.561800 -0.081480 0.281750 
#    y -0.081480 3.914550 0.001130 
#    z 0.281750 0.001130 3.636940 
# 
# 
# High freq. dielectric constant tensor:
#      x y z
#    x 1.883100 -0.007540 0.008350 
#    y -0.007540 1.865090 -0.000960 
#    z 0.008350 -0.000960 1.806510 
# 
# From -- ./inp_files/331642.got.cif
#   From: 2010.06.25/outbox.cif.g09.slc.cpg/sg2_166_cif.got.tgz:331642.got - 2010.06.27 13:26:56.
