data_PCOD8029150
_publ_section_title
;
Structure prediction by ZEFSAII (Michael W. Deem and Ramdas Pophale) SiO2 
 PCOD8029150
Probable space group: P -1
;
_chemical_formula_sum "Si O2"
_cell_formula_units_Z 16
_cell_length_a 11.161202
_cell_length_b 13.582272
_cell_length_c 13.100897
_cell_angle_alpha 138.365963
_cell_angle_beta 48.578243
_cell_angle_gamma 148.832521
_cell_volume 681.463966
_symmetry_space_group_name_H-M "P -1"
_symmetry_group_IT_number 2
_symmetry_cell_setting 'triclinic'
loop_
_space_group_symop_operation_xyz
x,y,z
-x,-y,-z
loop_
_atom_site_type_symbol
_atom_site_label
_atom_site_fract_x
_atom_site_fract_y
_atom_site_fract_z
Si Si1 0.143983 0.587260 0.655690
Si Si2 0.823932 0.675933 0.150483
Si Si3 0.686720 0.100992 0.560775
Si Si4 0.538573 0.224106 0.905949
Si Si5 0.481104 0.310093 0.594982
Si Si6 0.061362 0.282282 0.236310
Si Si7 0.283216 0.901794 0.980164
Si Si8 0.210879 0.163359 0.896291
O O1 0.387954 0.667251 0.560470
O O2 0.939027 0.329401 0.562123
O O3 0.099820 0.682494 0.667030
O O4 0.157903 0.672334 0.825060
O O5 0.697608 0.672061 0.316039
O O6 0.709882 0.705879 0.151013
O O7 0.751664 0.455628 0.016033
O O8 0.103247 0.866623 0.129963
O O9 0.621349 0.135032 0.731007
O O10 0.500000 0.000000 0.500000
O O11 0.687591 0.927115 0.445338
O O12 0.432612 0.268730 0.919917
O O13 0.359717 0.061248 0.969357
O O14 0.685266 0.498507 0.702661
O O15 0.063260 0.190069 0.058534
O O16 0.936684 0.087689 0.236889
O O17 0.500000 0.000000 0.000000
#
# Coordination Sequence:
#
# PCOD8029150 Si02
#       8
#     2   2   2   2   2   2   2   2
#     4  12  24  44  62  98 146 185 230 284 335 416
#     4  12  26  43  68 106 139 181 232 283 351 419
#     4  12  24  38  67 104 149 189 217 268 362 433
#     4  12  23  44  71 104 143 181 234 284 339 426
#     4  12  26  37  63 105 144 181 215 277 358 430
#     4  11  20  36  61  96 142 188 212 266 345 423
#     4  12  27  50  75  96 130 190 251 295 331 389
#     4  11  20  36  65 102 144 175 218 282 345 416
#
# _framework density 23.478864999999999
#
# number of rings (size 3 to 8) (size 9 to 14) (size 15 to 20)
#    0.000    0.250    7.500    2.250    3.500    0.500 
#    0.000    0.625    0.000    1.500    0.000    0.000 
#    0.000    0.000    0.000    0.000    0.000    0.000 
#
# Total GULP energy -198304.787216 kJ/mol
# GULP energy per Si atom -12394.049201 kJ/mol
# Density = 2.342543 g / cm^3
# Si number density = 23.478865 Si / 1000 Ang^3
#
#
#
# Elastic Constant Matrix: (Units=GPa)
#
#
# Indices 1 2 3 4 5 6 
#
# 1 43.0259 16.3044 21.1656 -1.3663 -8.8069 21.3674
# 2 16.3044 130.5224 40.8704 8.8481 -18.9085 7.8669
# 3 21.1656 40.8704 107.8160 9.4436 -28.5815 7.2382
# 4 -1.3663 8.8481 9.4436 51.4669 6.5748 -15.8164
# 5 -8.8069 -18.9085 -28.5815 6.5748 20.5459 -5.8021
# 6 21.3674 7.8669 7.2382 -15.8164 -5.8021 26.0332
#
#
#
# Elastic Compliance Matrix: (Units=1/GPa)
#
#
# Indices 1 2 3 4 5 6 
#
# 1 0.048291 -0.000402 -0.003320 -0.012693 0.007147 -0.044710
# 2 -0.000402 0.009485 -0.001155 -0.003122 0.007243 -0.002497
# 3 -0.003320 -0.001155 0.017015 -0.006009 0.023059 -0.000169
# 4 -0.012693 -0.003122 -0.006009 0.031793 -0.018902 0.028135
# 5 0.007147 0.007243 0.023059 -0.018902 0.095190 -0.004735
# 6 -0.044710 -0.002497 -0.000169 0.028135 -0.004735 0.091949
#
#
# Mechanical properties :
#
#
# Convention : Reuss Voigt Hill
#
# Bulk Modulus (GPa) = 15.37587 48.67167 32.02377
# Shear Modulus (GPa) = 15.37720 33.14415 24.26067
#
# Velocity S-wave (km/s) = 2.56195 3.76128 3.21798
# Velocity P-wave (km/s) = 3.91337 6.29587 5.24178
#
# Compressibility (1/GPa) = 0.06503699
#
# Stress axis : x y z
#
# Youngs Moduli (GPa) = 20.70791 105.42937 58.77109
#
# Poissons Ratio (x) = 0.04241 0.19509
# Poissons Ratio (y) = 0.00833 0.06789
# Poissons Ratio (z) = 0.06874 0.12180
#
# Static dielectric constant tensor:
#      x y z
#    x 3.624850 -0.028900 -0.336850 
#    y -0.028900 4.457000 0.014020 
#    z -0.336850 0.014020 4.645240 
# 
# 
# High freq. dielectric constant tensor:
#      x y z
#    x 1.854760 0.004610 -0.033640 
#    y 0.004610 1.954750 0.001040 
#    z -0.033640 0.001040 1.946900 
# 
# From -- ./inp_files/522488.got.cif
#   From: 2010.06.25/outbox.cif.g09.slc.cpg/sg2_262_cif.got.tgz:522488.got - 2010.06.27 13:26:56.
