data_PCOD8029936
_publ_section_title
;
Structure prediction by ZEFSAII (Michael W. Deem and Ramdas Pophale) SiO2 
 PCOD8029936
Probable space group: P -1
;
_chemical_formula_sum "Si O2"
_cell_formula_units_Z 16
_cell_length_a 9.435551
_cell_length_b 18.732728
_cell_length_c 22.415219
_cell_angle_alpha 18.633068
_cell_angle_beta 36.228679
_cell_angle_gamma 36.981185
_cell_volume 735.587658
_symmetry_space_group_name_H-M "P -1"
_symmetry_group_IT_number 2
_symmetry_cell_setting 'triclinic'
loop_
_space_group_symop_operation_xyz
x,y,z
-x,-y,-z
loop_
_atom_site_type_symbol
_atom_site_label
_atom_site_fract_x
_atom_site_fract_y
_atom_site_fract_z
Si Si1 0.094057 0.468124 0.397079
Si Si2 0.892158 0.349808 0.328940
Si Si3 0.216620 0.010182 0.652738
Si Si4 0.751769 0.048692 0.443271
Si Si5 0.785668 0.510815 0.110035
Si Si6 0.342691 0.799196 0.982807
Si Si7 0.726712 0.385218 0.973875
Si Si8 0.347349 0.318056 0.550078
O O1 0.109943 0.270833 0.498689
O O2 0.295662 0.391236 0.441035
O O3 0.824726 0.509963 0.483995
O O4 0.133821 0.703959 0.166223
O O5 0.880471 0.496519 0.156523
O O6 0.625109 0.339024 0.454116
O O7 0.064105 0.460981 0.228131
O O8 0.040425 0.093149 0.472155
O O9 0.511079 0.939378 0.608540
O O10 0.127712 0.950747 0.664176
O O11 0.129891 0.846562 0.860810
O O12 0.660935 0.294411 0.308707
O O13 0.591456 0.739496 0.983801
O O14 0.000000 0.500000 0.000000
O O15 0.285393 0.068073 0.779322
O O16 0.380450 0.668284 0.010851
O O17 0.500000 0.500000 0.000000
#
# Coordination Sequence:
#
# PCOD8029936 Si02
#       8
#     2   2   2   2   2   2   2   2
#     4  11  23  46  71  95 134 178 238 277 334 405
#     4  12  24  42  64 103 142 174 227 285 336 395
#     4  11  21  41  64  98 129 182 216 274 332 409
#     4  11  22  37  65  92 138 173 217 270 344 400
#     4  12  24  37  62 101 141 174 218 276 341 408
#     4  12  23  44  70 100 131 182 230 269 345 411
#     4  12  24  39  66 101 139 180 216 269 345 417
#     4  11  25  45  71  97 131 183 232 289 330 390
#
# _framework density 21.751315999999999
#
# number of rings (size 3 to 8) (size 9 to 14) (size 15 to 20)
#    0.000    0.500    5.000    4.500    0.000    0.000 
#    0.000    3.125    0.000    0.000    0.000    0.000 
#    0.000    0.000    0.000    0.000    0.000    0.000 
#
# Total GULP energy -198414.844841 kJ/mol
# GULP energy per Si atom -12400.927803 kJ/mol
# Density = 2.170181 g / cm^3
# Si number density = 21.751316 Si / 1000 Ang^3
#
#
#
# Elastic Constant Matrix: (Units=GPa)
#
#
# Indices 1 2 3 4 5 6 
#
# 1 77.7813 28.3554 13.7474 -5.1693 10.8312 -4.7768
# 2 28.3554 94.7573 16.9710 2.9641 0.0757 -5.4193
# 3 13.7474 16.9710 104.2817 1.4763 9.6137 -5.4132
# 4 -5.1693 2.9641 1.4763 29.3634 -1.1532 0.2394
# 5 10.8312 0.0757 9.6137 -1.1532 35.8297 7.7243
# 6 -4.7768 -5.4193 -5.4132 0.2394 7.7243 26.7536
#
#
#
# Elastic Compliance Matrix: (Units=1/GPa)
#
#
# Indices 1 2 3 4 5 6 
#
# 1 0.015737 -0.004483 -0.000748 0.003033 -0.005141 0.003208
# 2 -0.004483 0.012271 -0.001461 -0.001906 0.001447 0.000989
# 3 -0.000748 -0.001461 0.010357 -0.000649 -0.003126 0.002574
# 4 0.003033 -0.001906 -0.000649 0.034837 0.000474 -0.000424
# 5 -0.005141 0.001447 -0.003126 0.000474 0.032617 -0.010679
# 6 0.003208 0.000989 0.002574 -0.000424 -0.010679 0.041759
#
#
# Mechanical properties :
#
#
# Convention : Reuss Voigt Hill
#
# Bulk Modulus (GPa) = 40.02779 43.88532 41.95656
# Shear Modulus (GPa) = 29.53529 32.90577 31.22053
#
# Velocity S-wave (km/s) = 3.68892 3.89371 3.79270
# Velocity P-wave (km/s) = 6.04868 6.35881 6.20568
#
# Compressibility (1/GPa) = 0.02498264
#
# Stress axis : x y z
#
# Youngs Moduli (GPa) = 63.54310 81.49028 96.55559
#
# Poissons Ratio (x) = 0.36529 0.07218
# Poissons Ratio (y) = 0.28484 0.14108
# Poissons Ratio (z) = 0.04750 0.11907
#
# Static dielectric constant tensor:
#      x y z
#    x 3.856240 0.037600 0.061160 
#    y 0.037600 3.671690 -0.110160 
#    z 0.061160 -0.110160 4.422520 
# 
# 
# High freq. dielectric constant tensor:
#      x y z
#    x 1.848140 -0.001870 0.014030 
#    y -0.001870 1.833420 0.001130 
#    z 0.014030 0.001130 1.871790 
# 
# From -- ./inp_files/274063.got.cif
#   From: 2010.06.25/outbox.cif.g09.slc.cpg/sg2_138_cif.got.tgz:274063.got - 2010.06.27 13:26:56.
