data_PCOD8029253
_publ_section_title
;
Structure prediction by ZEFSAII (Michael W. Deem and Ramdas Pophale) SiO2 
 PCOD8029253
Probable space group: P -1
;
_chemical_formula_sum "Si O2"
_cell_formula_units_Z 16
_cell_length_a 14.341411
_cell_length_b 8.773822
_cell_length_c 12.117935
_cell_angle_alpha 63.484436
_cell_angle_beta 150.021572
_cell_angle_gamma 114.609896
_cell_volume 680.246747
_symmetry_space_group_name_H-M "P -1"
_symmetry_group_IT_number 2
_symmetry_cell_setting 'triclinic'
loop_
_space_group_symop_operation_xyz
x,y,z
-x,-y,-z
loop_
_atom_site_type_symbol
_atom_site_label
_atom_site_fract_x
_atom_site_fract_y
_atom_site_fract_z
Si Si1 0.480585 0.496418 0.612318
Si Si2 0.568989 0.817661 0.745413
Si Si3 0.165084 0.844411 0.404282
Si Si4 0.701836 0.586862 0.142818
Si Si5 0.201767 0.719451 0.943520
Si Si6 0.938575 0.283299 0.428759
Si Si7 0.906958 0.422362 0.756224
Si Si8 0.131887 0.904359 0.026610
O O1 0.500000 0.500000 0.500000
O O2 0.543731 0.684239 0.662982
O O3 0.265718 0.460021 0.439185
O O4 0.586814 0.341486 0.826166
O O5 0.379427 0.882861 0.579554
O O6 0.679486 0.736351 0.984937
O O7 0.694573 0.982552 0.777641
O O8 0.133280 0.837650 0.505273
O O9 0.096357 0.658704 0.343905
O O10 0.054344 0.994252 0.188860
O O11 0.822376 0.450393 0.251938
O O12 0.835888 0.669090 0.351761
O O13 0.500000 0.500000 0.000000
O O14 0.120192 0.801191 0.721831
O O15 0.185915 0.867851 0.967887
O O16 0.089909 0.543927 0.922778
O O17 0.902673 0.270587 0.888331
#
# Coordination Sequence:
#
# PCOD8029253 Si02
#       8
#     2   2   2   2   2   2   2   2
#     4  11  24  44  70  98 133 177 234 281 339 400
#     4  11  24  43  69 102 137 175 233 280 346 405
#     4  11  24  44  69 102 133 183 226 281 349 406
#     4  11  20  38  70 101 131 175 229 283 330 404
#     4  12  26  44  70 103 139 183 232 287 342 409
#     4  11  23  40  72 100 137 176 233 283 336 410
#     4  11  25  46  71  98 133 185 237 281 338 411
#     4  12  26  45  65 101 144 184 224 285 349 409
#
# _framework density 23.520878
#
# number of rings (size 3 to 8) (size 9 to 14) (size 15 to 20)
#    0.000    0.750    5.000    3.000    1.750    4.500 
#    0.000    0.625    0.000    0.000    0.000    0.000 
#    0.000    0.000    0.000    0.000    0.000    0.000 
#
# Total GULP energy -198406.241042 kJ/mol
# GULP energy per Si atom -12400.390065 kJ/mol
# Density = 2.346734 g / cm^3
# Si number density = 23.520878 Si / 1000 Ang^3
#
#
#
# Elastic Constant Matrix: (Units=GPa)
#
#
# Indices 1 2 3 4 5 6 
#
# 1 99.4407 21.4825 47.6452 3.6626 -3.8570 -5.2191
# 2 21.4825 36.6052 16.9482 0.7209 10.5484 3.7562
# 3 47.6452 16.9482 132.2764 -4.2705 18.2235 -1.7712
# 4 3.6626 0.7209 -4.2705 22.1678 -14.9076 -3.5062
# 5 -3.8570 10.5484 18.2235 -14.9076 48.8519 -3.6416
# 6 -5.2191 3.7562 -1.7712 -3.5062 -3.6416 27.9739
#
#
#
# Elastic Compliance Matrix: (Units=1/GPa)
#
#
# Indices 1 2 3 4 5 6 
#
# 1 0.014579 -0.008384 -0.004833 0.001331 0.005500 0.004423
# 2 -0.008384 0.037101 -0.000501 -0.009526 -0.012090 -0.009345
# 3 -0.004833 -0.000501 0.009911 -0.000129 -0.004066 -0.000752
# 4 0.001331 -0.009526 -0.000129 0.061892 0.022002 0.012141
# 5 0.005500 -0.012090 -0.004066 0.022002 0.032444 0.009373
# 6 0.004423 -0.009345 -0.000752 0.012141 0.009373 0.040522
#
#
# Mechanical properties :
#
#
# Convention : Reuss Voigt Hill
#
# Bulk Modulus (GPa) = 29.27710 48.94157 39.10934
# Shear Modulus (GPa) = 21.25224 31.94847 26.60035
#
# Velocity S-wave (km/s) = 3.00917 3.68951 3.36657
# Velocity P-wave (km/s) = 4.95457 6.24523 5.63696
#
# Compressibility (1/GPa) = 0.03415639
#
# Stress axis : x y z
#
# Youngs Moduli (GPa) = 68.59035 26.95348 100.90028
#
# Poissons Ratio (x) = 0.22596 0.48763
# Poissons Ratio (y) = 0.57503 0.05056
# Poissons Ratio (z) = 0.33148 0.01351
#
# Static dielectric constant tensor:
#      x y z
#    x 4.253930 -0.236720 0.084960 
#    y -0.236720 3.923810 0.004920 
#    z 0.084960 0.004920 4.703430 
# 
# 
# High freq. dielectric constant tensor:
#      x y z
#    x 1.934140 -0.006510 0.002480 
#    y -0.006510 1.904340 -0.007190 
#    z 0.002480 -0.007190 1.957150 
# 
# From -- ./inp_files/447279.got.cif
#   From: 2010.06.25/outbox.cif.g09.slc.cpg/sg2_224_cif.got.tgz:447279.got - 2010.06.27 13:26:56.
