data_PCOD8029355
_publ_section_title
;
Structure prediction by ZEFSAII (Michael W. Deem and Ramdas Pophale) SiO2 
 PCOD8029355
Probable space group: P -1
;
_chemical_formula_sum "Si O2"
_cell_formula_units_Z 16
_cell_length_a 9.608703
_cell_length_b 11.459949
_cell_length_c 11.494381
_cell_angle_alpha 125.932439
_cell_angle_beta 130.801101
_cell_angle_gamma 77.934771
_cell_volume 743.719080
_symmetry_space_group_name_H-M "P -1"
_symmetry_group_IT_number 2
_symmetry_cell_setting 'triclinic'
loop_
_space_group_symop_operation_xyz
x,y,z
-x,-y,-z
loop_
_atom_site_type_symbol
_atom_site_label
_atom_site_fract_x
_atom_site_fract_y
_atom_site_fract_z
Si Si1 0.583393 0.109445 0.910764
Si Si2 0.486948 0.153076 0.634786
Si Si3 0.070397 0.385554 0.134312
Si Si4 0.935882 0.854959 0.615953
Si Si5 0.166052 0.923879 0.574041
Si Si6 0.777816 0.310070 0.718842
Si Si7 0.857902 0.916837 0.973941
Si Si8 0.065334 0.640630 0.702366
O O1 0.607956 0.174750 0.831635
O O2 0.360799 0.052267 0.793945
O O3 0.661850 0.963229 0.880087
O O4 0.715001 0.252876 0.139150
O O5 0.274354 0.157096 0.553894
O O6 0.577405 0.278567 0.660618
O O7 0.500000 0.000000 0.500000
O O8 0.212565 0.547714 0.274613
O O9 0.185613 0.263677 0.153704
O O10 0.958280 0.406741 0.203008
O O11 0.937657 0.334340 0.919799
O O12 0.073580 0.815732 0.568490
O O13 0.925346 0.742581 0.652926
O O14 0.035519 0.025010 0.812050
O O15 0.213232 0.831505 0.437743
O O16 0.000000 0.000000 0.500000
O O17 0.000000 0.000000 0.000000
O O18 0.000000 0.500000 0.500000
#
# Coordination Sequence:
#
# PCOD8029355 Si02
#       8
#     2   2   2   2   2   2   2   2
#     4  11  23  39  73  98 134 178 236 275 338 413
#     4  12  20  40  70 102 127 175 235 279 332 408
#     4  11  22  42  65  99 141 175 227 285 353 398
#     4  11  24  40  68  98 139 175 224 281 338 404
#     4  12  23  42  66 107 140 173 230 292 335 400
#     4  11  24  39  69 103 136 177 227 290 342 405
#     4  11  20  40  69  99 128 181 230 278 333 411
#     4  11  24  44  64  94 141 185 218 276 351 415
#
# _framework density 21.513501000000002
#
# number of rings (size 3 to 8) (size 9 to 14) (size 15 to 20)
#    0.000    0.750    6.250    3.000    0.000    2.000 
#    0.000    8.125    0.000    0.000    0.000    0.000 
#    0.000    0.000    0.000    0.000    0.000    0.000 
#
# Total GULP energy -198257.264543 kJ/mol
# GULP energy per Si atom -12391.079034 kJ/mol
# Density = 2.146454 g / cm^3
# Si number density = 21.513501 Si / 1000 Ang^3
#
#
#
# Elastic Constant Matrix: (Units=GPa)
#
#
# Indices 1 2 3 4 5 6 
#
# 1 123.1410 44.1226 44.4032 4.7902 16.0011 8.6962
# 2 44.1226 121.9114 48.4552 6.3612 15.1366 11.2389
# 3 44.4032 48.4552 120.9900 3.6489 7.5145 -9.1708
# 4 4.7902 6.3612 3.6489 32.6995 1.8340 0.8186
# 5 16.0011 15.1366 7.5145 1.8340 37.9831 -3.8183
# 6 8.6962 11.2389 -9.1708 0.8186 -3.8183 32.7948
#
#
#
# Elastic Compliance Matrix: (Units=1/GPa)
#
#
# Indices 1 2 3 4 5 6 
#
# 1 0.010642 -0.001790 -0.003222 -0.000570 -0.003457 -0.003498
# 2 -0.001790 0.011394 -0.004031 -0.001189 -0.003427 -0.004927
# 3 -0.003222 -0.004031 0.011413 -0.000229 0.001278 0.005582
# 4 -0.000570 -0.001189 -0.000229 0.030974 -0.000773 -0.000369
# 5 -0.003457 -0.003427 0.001278 -0.000773 0.029528 0.005906
# 6 -0.003498 -0.004927 0.005582 -0.000369 0.005906 0.035367
#
#
# Mechanical properties :
#
#
# Convention : Reuss Voigt Hill
#
# Bulk Modulus (GPa) = 65.09039 71.11162 68.10100
# Shear Modulus (GPa) = 32.78137 35.96623 34.37380
#
# Velocity S-wave (km/s) = 3.90777 4.09320 4.00156
# Velocity P-wave (km/s) = 7.11914 7.44750 7.28517
#
# Compressibility (1/GPa) = 0.01536325
#
# Stress axis : x y z
#
# Youngs Moduli (GPa) = 93.96487 87.76190 87.62058
#
# Poissons Ratio (x) = 0.15705 0.28234
# Poissons Ratio (y) = 0.16815 0.35323
# Poissons Ratio (z) = 0.30278 0.35380
#
# Static dielectric constant tensor:
#      x y z
#    x 4.225130 0.215400 -0.090940 
#    y 0.215400 3.888890 0.128350 
#    z -0.090940 0.128350 4.147190 
# 
# 
# High freq. dielectric constant tensor:
#      x y z
#    x 1.838530 0.022260 -0.006900 
#    y 0.022260 1.841640 -0.013400 
#    z -0.006900 -0.013400 1.845830 
# 
# From -- ./inp_files/345283.got.cif
#   From: 2010.06.25/outbox.cif.g09.slc.cpg/sg2_173_cif.got.tgz:345283.got - 2010.06.27 13:26:56.
