data_PCOD8029381
_publ_section_title
;
Structure prediction by ZEFSAII (Michael W. Deem and Ramdas Pophale) SiO2 
 PCOD8029381
Probable space group: P -1
;
_chemical_formula_sum "Si O2"
_cell_formula_units_Z 14
_cell_length_a 11.869309
_cell_length_b 15.736668
_cell_length_c 9.314657
_cell_angle_alpha 80.798676
_cell_angle_beta 144.176964
_cell_angle_gamma 124.851386
_cell_volume 647.754653
_symmetry_space_group_name_H-M "P -1"
_symmetry_group_IT_number 2
_symmetry_cell_setting 'triclinic'
loop_
_space_group_symop_operation_xyz
x,y,z
-x,-y,-z
loop_
_atom_site_type_symbol
_atom_site_label
_atom_site_fract_x
_atom_site_fract_y
_atom_site_fract_z
Si Si1 0.353633 0.074387 0.316606
Si Si2 0.691877 0.855016 0.273557
Si Si3 0.655344 0.736146 0.806107
Si Si4 0.567877 0.093039 0.831971
Si Si5 0.176740 0.807575 0.446667
Si Si6 0.756270 0.356176 0.356155
Si Si7 0.886406 0.801018 0.742022
O O1 0.224262 0.124563 0.131014
O O2 0.378293 0.070011 0.512731
O O3 0.683808 0.170618 0.568792
O O4 0.142898 0.932669 0.065874
O O5 0.472424 0.858275 0.087516
O O6 0.728870 0.805302 0.460423
O O7 0.544247 0.749951 0.021379
O O8 0.000000 0.000000 0.500000
O O9 0.337516 0.635714 0.587163
O O10 0.640133 0.688853 0.640764
O O11 0.871397 0.755082 0.125682
O O12 0.417401 0.947671 0.747311
O O13 0.927038 0.210600 0.142604
O O14 0.108161 0.693674 0.484467
O O15 0.000000 0.500000 0.500000
#
# Coordination Sequence:
#
# PCOD8029381 Si02
#       7
#     2   2   2   2   2   2   2
#     4  10  17  30  57 102 132 153 189 262 322 374
#     4  12  25  40  63  98 134 165 202 267 319 371
#     4  11  19  36  66  90 115 167 219 253 302 380
#     4  11  19  33  61 102 135 149 200 266 326 363
#     4  10  19  35  64  92 122 164 213 251 310 377
#     4  11  28  47  61  85 131 180 213 251 317 386
#     4  11  20  33  62  95 127 160 206 259 314 367
#
# _framework density 21.613123000000002
#
# number of rings (size 3 to 8) (size 9 to 14) (size 15 to 20)
#    0.000    1.143    4.286    5.571    0.000    4.000 
#    0.000    0.714    0.000    1.714    0.000    0.000 
#    0.000    0.000    0.000    0.000    0.000    0.000 
#
# Total GULP energy -173501.913425 kJ/mol
# GULP energy per Si atom -12392.993816 kJ/mol
# Density = 2.156393 g / cm^3
# Si number density = 21.613123 Si / 1000 Ang^3
#
#
#
# Elastic Constant Matrix: (Units=GPa)
#
#
# Indices 1 2 3 4 5 6 
#
# 1 130.9281 39.1961 25.5300 -3.2976 31.0582 4.9448
# 2 39.1961 118.6374 43.8528 -7.6725 10.6628 12.6089
# 3 25.5300 43.8528 56.4807 -9.3314 11.7701 -0.7068
# 4 -3.2976 -7.6725 -9.3314 29.6148 -4.3102 8.1049
# 5 31.0582 10.6628 11.7701 -4.3102 30.1545 -8.1454
# 6 4.9448 12.6089 -0.7068 8.1049 -8.1454 29.6767
#
#
#
# Elastic Compliance Matrix: (Units=1/GPa)
#
#
# Indices 1 2 3 4 5 6 
#
# 1 0.011385 -0.001713 -0.001443 -0.000140 -0.011764 -0.004394
# 2 -0.001713 0.013219 -0.009076 0.001985 -0.000787 -0.006305
# 3 -0.001443 -0.009076 0.027191 0.004788 -0.004650 0.002161
# 4 -0.000140 0.001985 0.004788 0.038879 0.000078 -0.011303
# 5 -0.011764 -0.000787 -0.004650 0.000078 0.051809 0.016383
# 6 -0.004394 -0.006305 0.002161 -0.011303 0.016383 0.044743
#
#
# Mechanical properties :
#
#
# Convention : Reuss Voigt Hill
#
# Bulk Modulus (GPa) = 36.58764 58.13377 47.36070
# Shear Modulus (GPa) = 22.64481 31.05368 26.84925
#
# Velocity S-wave (km/s) = 3.24038 3.79462 3.52840
# Velocity P-wave (km/s) = 5.56465 6.79373 6.20967
#
# Compressibility (1/GPa) = 0.02733163
#
# Stress axis : x y z
#
# Youngs Moduli (GPa) = 87.83465 75.64782 36.77624
#
# Poissons Ratio (x) = 0.12957 0.05306
# Poissons Ratio (y) = 0.15044 0.33379
# Poissons Ratio (z) = 0.12674 0.68660
#
# Static dielectric constant tensor:
#      x y z
#    x 4.826350 0.168490 0.377320 
#    y 0.168490 3.788570 -0.438510 
#    z 0.377320 -0.438510 3.779530 
# 
# 
# High freq. dielectric constant tensor:
#      x y z
#    x 1.874450 0.013420 0.027460 
#    y 0.013420 1.822110 -0.047950 
#    z 0.027460 -0.047950 1.808100 
# 
# From -- ./inp_files/261857.got.cif
#   From: 2010.06.25/outbox.cif.g09.slc.cpg/sg2_131_cif.got.tgz:261857.got - 2010.06.27 13:26:56.
