data_PCOD8029053
_publ_section_title
;
Structure prediction by ZEFSAII (Michael W. Deem and Ramdas Pophale) SiO2 
 PCOD8029053
Probable space group: P -1
;
_chemical_formula_sum "Si O2"
_cell_formula_units_Z 16
_cell_length_a 8.227518
_cell_length_b 10.642957
_cell_length_c 16.310700
_cell_angle_alpha 144.783459
_cell_angle_beta 69.362208
_cell_angle_gamma 119.821269
_cell_volume 710.414972
_symmetry_space_group_name_H-M "P -1"
_symmetry_group_IT_number 2
_symmetry_cell_setting 'triclinic'
loop_
_space_group_symop_operation_xyz
x,y,z
-x,-y,-z
loop_
_atom_site_type_symbol
_atom_site_label
_atom_site_fract_x
_atom_site_fract_y
_atom_site_fract_z
Si Si1 0.383351 0.481966 0.209412
Si Si2 0.697265 0.847650 0.261771
Si Si3 0.641560 0.022292 0.060964
Si Si4 0.469161 0.994917 0.251288
Si Si5 0.774660 0.158354 0.562846
Si Si6 0.554124 0.692955 0.448073
Si Si7 0.976584 0.286322 0.831382
Si Si8 0.862288 0.529209 0.276198
O O1 0.587799 0.589936 0.186500
O O2 0.268208 0.629230 0.270717
O O3 0.382706 0.563769 0.347776
O O4 0.295519 0.200797 0.066148
O O5 0.592991 0.864769 0.205249
O O6 0.913614 0.866898 0.226251
O O7 0.685016 0.055498 0.434799
O O8 0.533732 0.035985 0.169208
O O9 0.835926 0.253735 0.140095
O O10 0.500000 0.000000 0.000000
O O11 0.244282 0.856713 0.219638
O O12 0.518022 0.252520 0.422544
O O13 0.999889 0.285912 0.584406
O O14 0.706950 0.943134 0.522660
O O15 0.658233 0.512074 0.332753
O O16 0.078849 0.374543 0.773978
O O17 0.000000 0.500000 0.000000
#
# Coordination Sequence:
#
# PCOD8029053 Si02
#       8
#     2   2   2   2   2   2   2   2
#     4  11  20  40  69  95 138 175 217 276 344 396
#     4  11  21  41  69 104 134 167 231 299 329 380
#     4  12  27  47  62  95 145 190 211 268 352 425
#     4  12  25  43  73 103 131 177 237 279 341 395
#     4  11  20  38  70 104 128 169 230 290 336 384
#     4  11  19  40  70  99 126 173 228 281 327 391
#     4  12  24  40  68 105 137 174 232 285 330 402
#     4  12  23  42  68  97 141 182 221 270 351 409
#
# _framework density 22.522048999999999
#
# number of rings (size 3 to 8) (size 9 to 14) (size 15 to 20)
#    0.000    0.500    7.500    3.375    0.000    4.000 
#    0.000    1.875    0.000    0.000    0.000    0.000 
#    0.000    0.000    0.000    0.000    0.000    0.000 
#
# Total GULP energy -198211.871943 kJ/mol
# GULP energy per Si atom -12388.241996 kJ/mol
# Density = 2.247079 g / cm^3
# Si number density = 22.522049 Si / 1000 Ang^3
#
#
#
# Elastic Constant Matrix: (Units=GPa)
#
#
# Indices 1 2 3 4 5 6 
#
# 1 96.8754 32.9316 13.5228 0.2477 -1.3976 -10.1564
# 2 32.9316 79.6021 44.2830 -8.9733 2.9189 -6.3516
# 3 13.5228 44.2830 107.8456 -3.6236 -3.4575 -0.8944
# 4 0.2477 -8.9733 -3.6236 47.1061 -4.0931 0.7468
# 5 -1.3976 2.9189 -3.4575 -4.0931 35.2451 -1.9550
# 6 -10.1564 -6.3516 -0.8944 0.7468 -1.9550 18.5152
#
#
#
# Elastic Compliance Matrix: (Units=1/GPa)
#
#
# Indices 1 2 3 4 5 6 
#
# 1 0.012613 -0.005313 0.000648 -0.001010 0.001180 0.005293
# 2 -0.005313 0.019452 -0.007261 0.002951 -0.002021 0.003075
# 3 0.000648 -0.007261 0.012207 -0.000277 0.001717 -0.001353
# 4 -0.001010 0.002951 -0.000277 0.021972 0.002229 -0.000206
# 5 0.001180 -0.002021 0.001717 0.002229 0.029182 0.003028
# 6 0.005293 0.003075 -0.001353 -0.000206 0.003028 0.058231
#
#
# Mechanical properties :
#
#
# Convention : Reuss Voigt Hill
#
# Bulk Modulus (GPa) = 48.97344 51.75535 50.36440
# Shear Modulus (GPa) = 27.12731 33.07898 30.10314
#
# Velocity S-wave (km/s) = 3.47432 3.83657 3.65993
# Velocity P-wave (km/s) = 6.15520 6.53111 6.34594
#
# Compressibility (1/GPa) = 0.02041923
#
# Stress axis : x y z
#
# Youngs Moduli (GPa) = 79.28496 51.40829 81.91771
#
# Poissons Ratio (x) = 0.27314 -0.05308
# Poissons Ratio (y) = 0.42126 0.59482
# Poissons Ratio (z) = -0.05137 0.37329
#
# Static dielectric constant tensor:
#      x y z
#    x 4.630950 -0.071420 0.294880 
#    y -0.071420 3.745990 -0.001260 
#    z 0.294880 -0.001260 4.643500 
# 
# 
# High freq. dielectric constant tensor:
#      x y z
#    x 1.889970 -0.016010 -0.001980 
#    y -0.016010 1.846790 -0.000420 
#    z -0.001980 -0.000420 1.906980 
# 
# From -- ./inp_files/495822.got.cif
#   From: 2010.06.25/outbox.cif.g09.slc.cpg/sg2_248_cif.got.tgz:495822.got - 2010.06.27 13:26:56.
