data_PCOD8029418
_publ_section_title
;
Structure prediction by ZEFSAII (Michael W. Deem and Ramdas Pophale) SiO2 
 PCOD8029418
Probable space group: P -1
;
_chemical_formula_sum "Si O2"
_cell_formula_units_Z 16
_cell_length_a 11.215978
_cell_length_b 11.488295
_cell_length_c 14.658073
_cell_angle_alpha 151.400297
_cell_angle_beta 61.625274
_cell_angle_gamma 126.886692
_cell_volume 716.490466
_symmetry_space_group_name_H-M "P -1"
_symmetry_group_IT_number 2
_symmetry_cell_setting 'triclinic'
loop_
_space_group_symop_operation_xyz
x,y,z
-x,-y,-z
loop_
_atom_site_type_symbol
_atom_site_label
_atom_site_fract_x
_atom_site_fract_y
_atom_site_fract_z
Si Si1 0.360562 0.277342 0.091230
Si Si2 0.135329 0.045934 0.173758
Si Si3 0.452631 0.843826 0.815820
Si Si4 0.165120 0.836942 0.349879
Si Si5 0.890865 0.489448 0.115912
Si Si6 0.715201 0.742243 0.561127
Si Si7 0.798161 0.704862 0.023801
Si Si8 0.318249 0.290399 0.740777
O O1 0.272953 0.277678 0.032968
O O2 0.504990 0.567268 0.250668
O O3 0.251430 0.240564 0.191244
O O4 0.409153 0.032325 0.894311
O O5 0.153456 0.194573 0.367311
O O6 0.175255 0.793965 0.002522
O O7 0.965556 0.947059 0.133125
O O8 0.579145 0.761909 0.677602
O O9 0.313037 0.545347 0.671429
O O10 0.500000 0.000000 0.000000
O O11 0.201245 0.581824 0.159957
O O12 0.985401 0.726934 0.318423
O O13 0.252056 0.040636 0.379199
O O14 0.224323 0.988982 0.528412
O O15 0.750686 0.519023 0.145357
O O16 0.000000 0.500000 0.000000
O O17 0.698033 0.738149 0.164178
#
# Coordination Sequence:
#
# PCOD8029418 Si02
#       8
#     2   2   2   2   2   2   2   2
#     4  12  26  43  70  97 134 179 222 273 332 392
#     4  11  22  43  69  97 134 178 218 272 339 388
#     4  11  23  40  62  98 137 169 209 271 343 389
#     4  11  23  40  70 100 128 177 223 271 331 392
#     4  11  20  41  70  96 136 172 212 280 335 390
#     4  11  22  38  67 101 135 163 215 284 333 384
#     4  11  25  50  64  90 141 182 220 272 324 400
#     4  12  24  42  70 100 129 175 231 272 326 399
#
# _framework density 22.331071000000001
#
# number of rings (size 3 to 8) (size 9 to 14) (size 15 to 20)
#    0.000    0.750    5.000    3.375    3.500    0.500 
#    4.500    0.625    0.000    0.000    0.000    0.000 
#    0.000    0.000    0.000    0.000    0.000    0.000 
#
# Total GULP energy -198390.837082 kJ/mol
# GULP energy per Si atom -12399.427318 kJ/mol
# Density = 2.228024 g / cm^3
# Si number density = 22.331071 Si / 1000 Ang^3
#
#
#
# Elastic Constant Matrix: (Units=GPa)
#
#
# Indices 1 2 3 4 5 6 
#
# 1 107.3686 19.5738 31.6480 4.2874 28.4155 -9.7446
# 2 19.5738 87.4694 20.2436 1.1304 11.2989 -3.6676
# 3 31.6480 20.2436 100.5587 7.2255 28.5730 -5.7859
# 4 4.2874 1.1304 7.2255 27.7719 2.3350 10.0195
# 5 28.4155 11.2989 28.5730 2.3350 24.9130 -3.7962
# 6 -9.7446 -3.6676 -5.7859 10.0195 -3.7962 38.3729
#
#
#
# Elastic Compliance Matrix: (Units=1/GPa)
#
#
# Indices 1 2 3 4 5 6 
#
# 1 0.013657 -0.001093 0.000478 -0.001788 -0.015095 0.002409
# 2 -0.001093 0.012361 -0.001342 0.000103 -0.002769 0.000401
# 3 0.000478 -0.001342 0.015137 -0.003055 -0.016797 0.001411
# 4 -0.001788 0.000103 -0.003055 0.041312 -0.000160 -0.011707
# 5 -0.015095 -0.002769 -0.016797 -0.000160 0.078065 0.001134
# 6 0.002409 0.000401 0.001411 -0.011707 0.001134 0.030092
#
#
# Mechanical properties :
#
#
# Convention : Reuss Voigt Hill
#
# Bulk Modulus (GPa) = 26.85135 48.70305 37.77720
# Shear Modulus (GPa) = 24.16031 33.14031 28.65031
#
# Velocity S-wave (km/s) = 3.29282 3.85651 3.58576
# Velocity P-wave (km/s) = 5.14851 6.45656 5.83928
#
# Compressibility (1/GPa) = 0.03724207
#
# Stress axis : x y z
#
# Youngs Moduli (GPa) = 73.22218 80.90052 66.06139
#
# Poissons Ratio (x) = 0.08840 -0.03158
# Poissons Ratio (y) = 0.08001 0.08865
# Poissons Ratio (z) = -0.03501 0.10857
#
# Static dielectric constant tensor:
#      x y z
#    x 4.261600 0.062520 0.248340 
#    y 0.062520 4.193530 0.143630 
#    z 0.248340 0.143630 4.594860 
# 
# 
# High freq. dielectric constant tensor:
#      x y z
#    x 1.873700 0.009700 0.024980 
#    y 0.009700 1.890650 0.003990 
#    z 0.024980 0.003990 1.880750 
# 
# From -- ./inp_files/519374.got.cif
#   From: 2010.06.25/outbox.cif.g09.slc.cpg/sg2_260_cif.got.tgz:519374.got - 2010.06.27 13:26:56.
