data_PCOD8029095
_publ_section_title
;
Structure prediction by ZEFSAII (Michael W. Deem and Ramdas Pophale) SiO2 
 PCOD8029095
Probable space group: P -1
;
_chemical_formula_sum "Si O2"
_cell_formula_units_Z 12
_cell_length_a 8.805856
_cell_length_b 8.476377
_cell_length_c 9.619766
_cell_angle_alpha 113.176185
_cell_angle_beta 64.328405
_cell_angle_gamma 100.413102
_cell_volume 594.888235
_symmetry_space_group_name_H-M "P -1"
_symmetry_group_IT_number 2
_symmetry_cell_setting 'triclinic'
loop_
_space_group_symop_operation_xyz
x,y,z
-x,-y,-z
loop_
_atom_site_type_symbol
_atom_site_label
_atom_site_fract_x
_atom_site_fract_y
_atom_site_fract_z
Si Si1 0.996063 0.414339 0.120672
Si Si2 0.463771 0.806296 0.407987
Si Si3 0.661448 0.243915 0.275167
Si Si4 0.487945 0.302081 0.086230
Si Si5 0.270474 0.143043 0.895300
Si Si6 0.271626 0.620170 0.216309
O O1 0.084169 0.542601 0.243493
O O2 0.806684 0.384162 0.237428
O O3 0.090178 0.231912 0.010032
O O4 0.000000 0.500000 0.000000
O O5 0.439290 0.702551 0.526078
O O6 0.623942 0.752460 0.230589
O O7 0.292282 0.779642 0.372024
O O8 0.500000 0.000000 0.500000
O O9 0.526135 0.237112 0.203038
O O10 0.747968 0.058447 0.199694
O O11 0.392747 0.481441 0.191774
O O12 0.370461 0.161174 0.007509
O O13 0.664606 0.326237 0.943338
#
# Coordination Sequence:
#
# PCOD8029095 Si02
#       6
#     2   2   2   2   2   2
#     4  11  21  35  56  83 109 146 181 219 269 320
#     4   9  20  36  57  78 110 142 178 224 276 313
#     4  11  20  33  58  86 105 141 185 218 270 325
#     4   9  17  32  57  81 102 141 188 222 260 314
#     4   9  20  38  56  77 114 142 178 229 266 312
#     4   9  18  35  52  78 114 141 173 226 271 314
#
# _framework density 20.171856999999999
#
# number of rings (size 3 to 8) (size 9 to 14) (size 15 to 20)
#    0.000    2.333    1.667    2.000    0.000    1.333 
#    0.000    0.000    0.000    2.000    0.000    0.000 
#    0.000    0.000    0.000    0.000    0.000    0.000 
#
# Total GULP energy -148707.564176 kJ/mol
# GULP energy per Si atom -12392.297015 kJ/mol
# Density = 2.012594 g / cm^3
# Si number density = 20.171857 Si / 1000 Ang^3
#
#
#
# Elastic Constant Matrix: (Units=GPa)
#
#
# Indices 1 2 3 4 5 6 
#
# 1 82.0386 26.3285 43.7810 -12.4132 20.5487 9.7770
# 2 26.3285 60.4790 18.9897 -13.1799 15.2903 14.3295
# 3 43.7810 18.9897 94.1887 -27.1082 29.5765 7.2183
# 4 -12.4132 -13.1799 -27.1082 39.5400 3.2457 6.8919
# 5 20.5487 15.2903 29.5765 3.2457 29.5491 -0.2420
# 6 9.7770 14.3295 7.2183 6.8919 -0.2420 33.2535
#
#
#
# Elastic Compliance Matrix: (Units=1/GPa)
#
#
# Indices 1 2 3 4 5 6 
#
# 1 0.018238 -0.003571 -0.004924 0.002236 -0.006179 -0.003263
# 2 -0.003571 0.032104 0.013778 0.025261 -0.030869 -0.021235
# 3 -0.004924 0.013778 0.034386 0.033409 -0.041951 -0.019183
# 4 0.002236 0.025261 0.033409 0.067688 -0.055773 -0.033229
# 5 -0.006179 -0.030869 -0.041951 -0.055773 0.102527 0.036530
# 6 -0.003263 -0.021235 -0.019183 -0.033229 0.036530 0.051499
#
#
# Mechanical properties :
#
#
# Convention : Reuss Voigt Hill
#
# Bulk Modulus (GPa) = 10.49375 46.10053 28.29714
# Shear Modulus (GPa) = 15.26070 30.30898 22.78484
#
# Velocity S-wave (km/s) = 2.75350 3.88046 3.36450
# Velocity P-wave (km/s) = 3.91439 6.55598 5.39923
#
# Compressibility (1/GPa) = 0.09529480
#
# Stress axis : x y z
#
# Youngs Moduli (GPa) = 54.83112 31.14912 29.08137
#
# Poissons Ratio (x) = 0.11124 0.14319
# Poissons Ratio (y) = 0.19581 -0.40069
# Poissons Ratio (z) = 0.26997 -0.42918
#
# Static dielectric constant tensor:
#      x y z
#    x 3.547860 0.286870 0.237670 
#    y 0.286870 3.674460 -0.073550 
#    z 0.237670 -0.073550 3.975120 
# 
# 
# High freq. dielectric constant tensor:
#      x y z
#    x 1.773170 0.021970 0.025890 
#    y 0.021970 1.784410 -0.006470 
#    z 0.025890 -0.006470 1.774280 
# 
# From -- ./inp_files/144482.got.cif
#   From: 2010.06.25/outbox.cif.g09.slc.cpg/sg2_73_cif.got.tgz:144482.got - 2010.06.27 13:26:56.
