data_PCOD8029525
_publ_section_title
;
Structure prediction by ZEFSAII (Michael W. Deem and Ramdas Pophale) SiO2 
 PCOD8029525
Probable space group: P -1
;
_chemical_formula_sum "Si O2"
_cell_formula_units_Z 12
_cell_length_a 12.345550
_cell_length_b 17.144119
_cell_length_c 20.984391
_cell_angle_alpha 160.399884
_cell_angle_beta 158.683482
_cell_angle_gamma 30.889010
_cell_volume 534.675364
_symmetry_space_group_name_H-M "P -1"
_symmetry_group_IT_number 2
_symmetry_cell_setting 'triclinic'
loop_
_space_group_symop_operation_xyz
x,y,z
-x,-y,-z
loop_
_atom_site_type_symbol
_atom_site_label
_atom_site_fract_x
_atom_site_fract_y
_atom_site_fract_z
Si Si1 0.255257 0.511292 0.528664
Si Si2 0.394597 0.685107 0.983219
Si Si3 0.307408 0.750358 0.220452
Si Si4 0.793918 0.160044 0.133002
Si Si5 0.546324 0.854844 0.563292
Si Si6 0.374366 0.278986 0.218396
O O1 0.145287 0.617563 0.615488
O O2 0.467030 0.319090 0.516589
O O3 0.426426 0.707528 0.726396
O O4 0.945964 0.383368 0.228797
O O5 0.565602 0.461510 0.908721
O O6 0.398747 0.779568 0.986060
O O7 0.553458 0.898861 0.279606
O O8 0.321572 0.732295 0.291226
O O9 0.500000 0.000000 0.500000
O O10 0.968812 0.732820 0.998954
O O11 0.111878 0.090376 0.233427
O O12 0.588799 0.949319 0.896257
O O13 0.500000 0.500000 0.500000
#
# Coordination Sequence:
#
# PCOD8029525 Si02
#       6
#     2   2   2   2   2   2
#     4  11  21  41  71  98 135 178 219 277 334 391
#     4  11  22  43  75  96 128 182 229 268 323 404
#     4  12  25  46  68 100 136 172 227 280 323 397
#     4  11  20  44  68  97 134 179 222 269 331 404
#     4  11  21  42  71  99 130 177 228 270 326 400
#     4  12  26  44  64 101 141 172 219 278 340 393
#
# _framework density 22.443525999999999
#
# number of rings (size 3 to 8) (size 9 to 14) (size 15 to 20)
#    0.000    0.667    5.000    5.500    0.000    1.333 
#    6.000    1.667    0.000    0.000    0.000    0.000 
#    0.000    0.000    0.000    0.000    0.000    0.000 
#
# Total GULP energy -148826.564408 kJ/mol
# GULP energy per Si atom -12402.213701 kJ/mol
# Density = 2.239244 g / cm^3
# Si number density = 22.443526 Si / 1000 Ang^3
#
#
#
# Elastic Constant Matrix: (Units=GPa)
#
#
# Indices 1 2 3 4 5 6 
#
# 1 91.0312 22.1122 22.2890 2.9656 18.5291 3.8343
# 2 22.1122 87.0277 22.0116 20.7795 8.8075 -4.7892
# 3 22.2890 22.0116 89.0512 5.0624 -0.5505 -4.0686
# 4 2.9656 20.7795 5.0624 40.8222 -3.0836 -7.4804
# 5 18.5291 8.8075 -0.5505 -3.0836 42.2800 22.5529
# 6 3.8343 -4.7892 -4.0686 -7.4804 22.5529 30.1988
#
#
#
# Elastic Compliance Matrix: (Units=1/GPa)
#
#
# Indices 1 2 3 4 5 6 
#
# 1 0.013448 -0.001902 -0.002822 0.000356 -0.007115 0.003012
# 2 -0.001902 0.015042 -0.002685 -0.006757 -0.005225 0.004493
# 3 -0.002822 -0.002685 0.012615 0.000206 0.001791 0.000345
# 4 0.000356 -0.006757 0.000206 0.028989 0.000198 0.005944
# 5 -0.007115 -0.005225 0.001791 0.000198 0.046043 -0.034021
# 6 0.003012 0.004493 0.000345 0.005944 -0.034021 0.060370
#
#
# Mechanical properties :
#
#
# Convention : Reuss Voigt Hill
#
# Bulk Modulus (GPa) = 38.04282 44.43732 41.24007
# Shear Modulus (GPa) = 24.98896 36.04001 30.51449
#
# Velocity S-wave (km/s) = 3.34041 4.01160 3.69129
# Velocity P-wave (km/s) = 5.64491 6.42650 6.04834
#
# Compressibility (1/GPa) = 0.02628617
#
# Stress axis : x y z
#
# Youngs Moduli (GPa) = 74.35982 66.47875 79.27242
#
# Poissons Ratio (x) = 0.12646 0.22374
# Poissons Ratio (y) = 0.14145 0.21284
# Poissons Ratio (z) = 0.20987 0.17849
#
# Static dielectric constant tensor:
#      x y z
#    x 4.234400 0.300520 -0.105930 
#    y 0.300520 4.128930 0.201340 
#    z -0.105930 0.201340 4.271880 
# 
# 
# High freq. dielectric constant tensor:
#      x y z
#    x 1.888760 0.014190 -0.014780 
#    y 0.014190 1.878040 0.025700 
#    z -0.014780 0.025700 1.878960 
# 
# From -- ./inp_files/152011.got.cif
#   From: 2010.06.25/outbox.cif.g09.slc.cpg/sg2_77_cif.got.tgz:152011.got - 2010.06.27 13:26:56.
