data_PCOD8029834
_publ_section_title
;
Structure prediction by ZEFSAII (Michael W. Deem and Ramdas Pophale) SiO2 
 PCOD8029834
Probable space group: P -1
;
_chemical_formula_sum "Si O2"
_cell_formula_units_Z 14
_cell_length_a 10.789801
_cell_length_b 11.498104
_cell_length_c 11.058064
_cell_angle_alpha 132.197358
_cell_angle_beta 71.835166
_cell_angle_gamma 71.106336
_cell_volume 630.443499
_symmetry_space_group_name_H-M "P -1"
_symmetry_group_IT_number 2
_symmetry_cell_setting 'triclinic'
loop_
_space_group_symop_operation_xyz
x,y,z
-x,-y,-z
loop_
_atom_site_type_symbol
_atom_site_label
_atom_site_fract_x
_atom_site_fract_y
_atom_site_fract_z
Si Si1 0.657326 0.446101 0.336259
Si Si2 0.241794 0.962202 0.085250
Si Si3 0.353367 0.260900 0.100512
Si Si4 0.004311 0.312937 0.607489
Si Si5 0.931123 0.433392 0.375592
Si Si6 0.532165 0.083295 0.375182
Si Si7 0.815432 0.774368 0.278628
O O1 0.500000 0.500000 0.500000
O O2 0.805345 0.400676 0.347756
O O3 0.540954 0.673406 0.446325
O O4 0.768947 0.212617 0.060975
O O5 0.107774 0.093798 0.336894
O O6 0.466975 0.817868 0.941255
O O7 0.148127 0.156275 0.143774
O O8 0.173722 0.394535 0.349975
O O9 0.239421 0.473523 0.182871
O O10 0.430978 0.034222 0.848825
O O11 0.063418 0.441080 0.644310
O O12 0.085258 0.194697 0.633816
O O13 0.367476 0.140138 0.538868
O O14 0.735569 0.915955 0.275200
O O15 0.000000 0.500000 0.000000
#
# Coordination Sequence:
#
# PCOD8029834 Si02
#       7
#     2   2   2   2   2   2   2
#     4  12  25  41  62  98 139 175 204 255 336 398
#     4  11  23  39  60  91 138 166 207 262 324 393
#     4  11  21  40  65  97 129 160 219 272 321 375
#     4  11  23  39  68  96 122 171 224 272 314 373
#     4  11  24  40  63  96 131 174 215 262 325 381
#     4  11  25  41  69  97 128 169 219 269 318 378
#     4  11  22  44  69  96 122 167 228 275 309 365
#
# _framework density 22.206588
#
# number of rings (size 3 to 8) (size 9 to 14) (size 15 to 20)
#    0.000    0.857    5.714    2.143    4.000    2.857 
#    2.571    0.714    0.000    1.714    0.000    0.000 
#    0.000    0.000    0.000    0.000    0.000    0.000 
#
# Total GULP energy -173467.174684 kJ/mol
# GULP energy per Si atom -12390.512477 kJ/mol
# Density = 2.215605 g / cm^3
# Si number density = 22.206588 Si / 1000 Ang^3
#
#
#
# Elastic Constant Matrix: (Units=GPa)
#
#
# Indices 1 2 3 4 5 6 
#
# 1 105.0299 40.8411 42.9447 14.9445 1.2393 -29.2786
# 2 40.8411 73.0282 27.4992 13.6075 9.7225 -33.6028
# 3 42.9447 27.4992 155.2978 10.3766 17.5267 -7.3786
# 4 14.9445 13.6075 10.3766 34.2286 -3.6675 -6.1589
# 5 1.2393 9.7225 17.5267 -3.6675 46.5158 4.5053
# 6 -29.2786 -33.6028 -7.3786 -6.1589 4.5053 37.3960
#
#
#
# Elastic Compliance Matrix: (Units=1/GPa)
#
#
# Indices 1 2 3 4 5 6 
#
# 1 0.014371 -0.003053 -0.002943 -0.002788 0.000426 0.007417
# 2 -0.003053 0.029071 -0.001866 -0.006330 -0.008047 0.023290
# 3 -0.002943 -0.001866 0.007803 -0.001007 -0.002326 -0.002326
# 4 -0.002788 -0.006330 -0.001007 0.033188 0.004700 -0.003170
# 5 0.000426 -0.008047 -0.002326 0.004700 0.025349 -0.009636
# 6 0.007417 0.023290 -0.002326 -0.003170 -0.009636 0.053655
#
#
# Mechanical properties :
#
#
# Convention : Reuss Voigt Hill
#
# Bulk Modulus (GPa) = 28.15237 61.76953 44.96095
# Shear Modulus (GPa) = 26.17808 38.43282 32.30545
#
# Velocity S-wave (km/s) = 3.43715 4.16467 3.81828
# Velocity P-wave (km/s) = 5.33451 7.14159 6.30315
#
# Compressibility (1/GPa) = 0.03552098
#
# Stress axis : x y z
#
# Youngs Moduli (GPa) = 69.58554 34.39864 128.16339
#
# Poissons Ratio (x) = 0.10503 0.37714
# Poissons Ratio (y) = 0.21246 0.23911
# Poissons Ratio (z) = 0.20477 0.06418
#
# Static dielectric constant tensor:
#      x y z
#    x 0.490650 0.937160 -2.457460 
#    y 0.937160 3.488140 0.920970 
#    z -2.457460 0.920970 2.947810 
# 
# 
# High freq. dielectric constant tensor:
#      x y z
#    x 1.875520 -0.046300 -0.014960 
#    y -0.046300 1.850940 -0.003420 
#    z -0.014960 -0.003420 1.896080 
# 
# From -- ./inp_files/426894.got.cif
#   From: 2010.06.25/outbox.cif.g09.slc.cpg/sg2_214_cif.got.tgz:426894.got - 2010.06.27 13:26:56.
