data_PCOD8029090
_publ_section_title
;
Structure prediction by ZEFSAII (Michael W. Deem and Ramdas Pophale) SiO2 
 PCOD8029090
Probable space group: P -1
;
_chemical_formula_sum "Si O2"
_cell_formula_units_Z 10
_cell_length_a 8.980517
_cell_length_b 9.512226
_cell_length_c 15.189078
_cell_angle_alpha 46.274409
_cell_angle_beta 116.437811
_cell_angle_gamma 79.765406
_cell_volume 555.182505
_symmetry_space_group_name_H-M "P -1"
_symmetry_group_IT_number 2
_symmetry_cell_setting 'triclinic'
loop_
_space_group_symop_operation_xyz
x,y,z
-x,-y,-z
loop_
_atom_site_type_symbol
_atom_site_label
_atom_site_fract_x
_atom_site_fract_y
_atom_site_fract_z
Si Si1 0.224043 0.378283 0.170466
Si Si2 0.109401 0.562030 0.437187
Si Si3 0.680237 0.700012 0.573732
Si Si4 0.377546 0.692408 0.266147
Si Si5 0.887175 0.104957 0.065937
O O1 0.171936 0.393911 0.254719
O O2 0.476433 0.046027 0.354073
O O3 0.253256 0.582262 0.068260
O O4 0.000000 0.500000 0.000000
O O5 0.124099 0.461712 0.385527
O O6 0.384317 0.384454 0.617704
O O7 0.000000 0.500000 0.500000
O O8 0.919922 0.913280 0.233231
O O9 0.550778 0.599942 0.586114
O O10 0.274026 0.845045 0.077614
O O11 0.164701 0.922543 0.183299
#
# Coordination Sequence:
#
# PCOD8029090 Si02
#       5
#     2   2   2   2   2
#     4  10  17  30  55  77  96 122 164 215 248 279
#     4  11  21  33  50  74 106 136 161 199 249 298
#     4   9  19  32  51  78  98 124 167 205 245 293
#     4   9  17  33  53  73  98 127 169 212 241 284
#     4   9  18  32  53  75  94 129 172 206 244 287
#
# _framework density 18.012093
#
# number of rings (size 3 to 8) (size 9 to 14) (size 15 to 20)
#    0.000    2.400    0.000    6.000    0.000    0.800 
#    0.000    1.000    0.000   16.800    0.000    0.000 
#    0.000    0.000    0.000    0.000    0.000    0.000 
#
# Total GULP energy -123958.517849 kJ/mol
# GULP energy per Si atom -12395.851785 kJ/mol
# Density = 1.797110 g / cm^3
# Si number density = 18.012093 Si / 1000 Ang^3
#
#
#
# Elastic Constant Matrix: (Units=GPa)
#
#
# Indices 1 2 3 4 5 6 
#
# 1 87.2949 31.4466 48.1213 5.9245 -20.3007 -1.8708
# 2 31.4466 79.4281 41.4903 -0.7223 -2.8421 2.2516
# 3 48.1213 41.4903 126.3441 -2.8166 -20.8677 8.7688
# 4 5.9245 -0.7223 -2.8166 41.4520 7.9718 -5.9371
# 5 -20.3007 -2.8421 -20.8677 7.9718 22.5226 0.2579
# 6 -1.8708 2.2516 8.7688 -5.9371 0.2579 15.0678
#
#
#
# Elastic Compliance Matrix: (Units=1/GPa)
#
#
# Indices 1 2 3 4 5 6 
#
# 1 0.019341 -0.005513 -0.003270 -0.005730 0.015706 0.002602
# 2 -0.005513 0.017004 -0.004825 0.002422 -0.008159 0.000676
# 3 -0.003270 -0.004825 0.012723 -0.001587 0.008883 -0.007866
# 4 -0.005730 0.002422 -0.001587 0.029859 -0.017035 0.011907
# 5 0.015706 -0.008159 0.008883 -0.017035 0.071900 -0.009943
# 6 0.002602 0.000676 -0.007866 0.011907 -0.009943 0.076028
#
#
# Mechanical properties :
#
#
# Convention : Reuss Voigt Hill
#
# Bulk Modulus (GPa) = 45.76308 59.46485 52.61396
# Shear Modulus (GPa) = 19.13104 27.27576 23.20340
#
# Velocity S-wave (km/s) = 3.26256 3.89563 3.59306
# Velocity P-wave (km/s) = 6.29717 7.30206 6.81815
#
# Compressibility (1/GPa) = 0.02185168
#
# Stress axis : x y z
#
# Youngs Moduli (GPa) = 51.70259 58.81044 78.60012
#
# Poissons Ratio (x) = 0.32422 0.25706
# Poissons Ratio (y) = 0.28504 0.37921
# Poissons Ratio (z) = 0.16909 0.28374
#
# Static dielectric constant tensor:
#      x y z
#    x 2.825350 0.109920 -0.304110 
#    y 0.109920 3.577980 -0.053570 
#    z -0.304110 -0.053570 3.706250 
# 
# 
# High freq. dielectric constant tensor:
#      x y z
#    x 1.633580 0.014660 -0.023400 
#    y 0.014660 1.703000 0.004280 
#    z -0.023400 0.004280 1.724670 
# 
# From -- ./inp_files/146059.got.cif
#   From: 2010.06.25/outbox.cif.g09.slc.cpg/sg2_74_cif.got.tgz:146059.got - 2010.06.27 13:26:56.
