data_PCOD8029192
_publ_section_title
;
Structure prediction by ZEFSAII (Michael W. Deem and Ramdas Pophale) SiO2 
 PCOD8029192
Probable space group: P -1
;
_chemical_formula_sum "Si O2"
_cell_formula_units_Z 14
_cell_length_a 9.192666
_cell_length_b 11.598957
_cell_length_c 12.106275
_cell_angle_alpha 138.407647
_cell_angle_beta 130.060509
_cell_angle_gamma 56.468999
_cell_volume 649.389753
_symmetry_space_group_name_H-M "P -1"
_symmetry_group_IT_number 2
_symmetry_cell_setting 'triclinic'
loop_
_space_group_symop_operation_xyz
x,y,z
-x,-y,-z
loop_
_atom_site_type_symbol
_atom_site_label
_atom_site_fract_x
_atom_site_fract_y
_atom_site_fract_z
Si Si1 0.056633 0.128160 0.026396
Si Si2 0.640620 0.756738 0.592051
Si Si3 0.195847 0.310897 0.605045
Si Si4 0.634865 0.903543 0.274846
Si Si5 0.769314 0.370842 0.387390
Si Si6 0.701878 0.331285 0.078295
Si Si7 0.705969 0.016774 0.160958
O O1 0.242685 0.205379 0.215423
O O2 0.867607 0.271540 0.025562
O O3 0.114110 0.046020 0.876166
O O4 0.000000 0.000000 0.000000
O O5 0.747417 0.790184 0.553772
O O6 0.616995 0.550002 0.442243
O O7 0.445908 0.893461 0.593234
O O8 0.210256 0.168274 0.607956
O O9 0.339431 0.456580 0.802663
O O10 0.979480 0.411199 0.556782
O O11 0.739632 0.902264 0.206910
O O12 0.475721 0.772750 0.103626
O O13 0.778423 0.287916 0.209193
O O14 0.703936 0.224855 0.332580
O O15 0.500000 0.000000 0.000000
#
# Coordination Sequence:
#
# PCOD8029192 Si02
#       7
#     2   2   2   2   2   2   2
#     4  12  18  37  68  91 111 161 224 244 284 364
#     4  11  20  37  64  92 116 162 208 253 294 363
#     4  11  23  39  63  98 126 157 203 263 310 354
#     4  12  25  40  61  95 134 160 196 257 319 359
#     4  11  21  38  67  91 120 159 214 253 300 360
#     4  11  20  40  68  91 116 169 214 248 289 376
#     4  12  23  40  63  90 126 164 208 251 304 373
#
# _framework density 21.558702
#
# number of rings (size 3 to 8) (size 9 to 14) (size 15 to 20)
#    0.000    0.571    8.571    1.714    0.000    1.143 
#    0.000    0.714    0.000    0.000    0.000    0.000 
#    0.000    0.000    0.000    0.000    0.000    0.000 
#
# Total GULP energy -173520.263929 kJ/mol
# GULP energy per Si atom -12394.304566 kJ/mol
# Density = 2.150963 g / cm^3
# Si number density = 21.558702 Si / 1000 Ang^3
#
#
#
# Elastic Constant Matrix: (Units=GPa)
#
#
# Indices 1 2 3 4 5 6 
#
# 1 83.9318 39.4171 15.3387 6.4226 -12.3688 8.1502
# 2 39.4171 117.3095 28.3657 0.9251 -15.0033 13.1711
# 3 15.3387 28.3657 59.2284 12.1339 -4.1041 1.8428
# 4 6.4226 0.9251 12.1339 27.5566 3.0163 -4.9981
# 5 -12.3688 -15.0033 -4.1041 3.0163 25.1862 1.7659
# 6 8.1502 13.1711 1.8428 -4.9981 1.7659 33.5253
#
#
#
# Elastic Compliance Matrix: (Units=1/GPa)
#
#
# Indices 1 2 3 4 5 6 
#
# 1 0.015357 -0.003843 -0.000744 -0.004334 0.005870 -0.003138
# 2 -0.003843 0.011880 -0.004551 0.001367 0.004531 -0.003518
# 3 -0.000744 -0.004551 0.021300 -0.009347 0.001561 -0.000678
# 4 -0.004334 0.001367 -0.009347 0.043768 -0.008641 0.008011
# 5 0.005870 0.004531 0.001561 -0.008641 0.047070 -0.007061
# 6 -0.003138 -0.003518 -0.000678 0.008011 -0.007061 0.033577
#
#
# Mechanical properties :
#
#
# Convention : Reuss Voigt Hill
#
# Bulk Modulus (GPa) = 33.04615 47.41252 40.22934
# Shear Modulus (GPa) = 24.83688 29.07684 26.95686
#
# Velocity S-wave (km/s) = 3.39788 3.67649 3.53993
# Velocity P-wave (km/s) = 5.54580 6.32946 5.95055
#
# Compressibility (1/GPa) = 0.03026071
#
# Stress axis : x y z
#
# Youngs Moduli (GPa) = 65.11870 84.17708 46.94810
#
# Poissons Ratio (x) = 0.32347 0.03494
# Poissons Ratio (y) = 0.25023 0.21365
# Poissons Ratio (z) = 0.04847 0.38308
#
# Static dielectric constant tensor:
#      x y z
#    x 3.208170 0.205300 -0.364960 
#    y 0.205300 3.900630 0.250660 
#    z -0.364960 0.250660 3.878360 
# 
# 
# High freq. dielectric constant tensor:
#      x y z
#    x 1.825970 0.007370 -0.006990 
#    y 0.007370 1.839240 0.018740 
#    z -0.006990 0.018740 1.843440 
# 
# From -- ./inp_files/160187.got.cif
#   From: 2010.06.25/outbox.cif.g09.slc.cpg/sg2_81_cif.got.tgz:160187.got - 2010.06.27 13:26:56.
