data_PCOD8029494
_publ_section_title
;
Structure prediction by ZEFSAII (Michael W. Deem and Ramdas Pophale) SiO2 
 PCOD8029494
Probable space group: P -1
;
_chemical_formula_sum "Si O2"
_cell_formula_units_Z 16
_cell_length_a 9.264112
_cell_length_b 12.641519
_cell_length_c 12.669484
_cell_angle_alpha 43.155553
_cell_angle_beta 123.862417
_cell_angle_gamma 100.088847
_cell_volume 769.668500
_symmetry_space_group_name_H-M "P -1"
_symmetry_group_IT_number 2
_symmetry_cell_setting 'triclinic'
loop_
_space_group_symop_operation_xyz
x,y,z
-x,-y,-z
loop_
_atom_site_type_symbol
_atom_site_label
_atom_site_fract_x
_atom_site_fract_y
_atom_site_fract_z
Si Si1 0.005617 0.291434 0.760290
Si Si2 0.543654 0.615127 0.013490
Si Si3 0.570705 0.995667 0.846063
Si Si4 0.682661 0.173239 0.056076
Si Si5 0.921424 0.390554 0.418499
Si Si6 0.549459 0.073010 0.363814
Si Si7 0.946696 0.080968 0.533127
Si Si8 0.357224 0.690430 0.280812
O O1 0.972832 0.482896 0.641806
O O2 0.971953 0.287722 0.623366
O O3 0.846297 0.254466 0.785602
O O4 0.212631 0.145146 0.977124
O O5 0.698675 0.515517 0.236380
O O6 0.500000 0.500000 0.000000
O O7 0.353052 0.726415 0.920055
O O8 0.602283 0.740996 0.872117
O O9 0.460746 0.922852 0.936796
O O10 0.447762 0.042065 0.652507
O O11 0.558999 0.174679 0.749444
O O12 0.656803 0.300950 0.857243
O O13 0.901447 0.043030 0.232808
O O14 0.957322 0.263582 0.425337
O O15 0.739421 0.091823 0.463520
O O16 0.500000 0.000000 0.500000
O O17 0.000000 0.000000 0.500000
O O18 0.500000 0.500000 0.500000
#
# Coordination Sequence:
#
# PCOD8029494 Si02
#       8
#     2   2   2   2   2   2   2   2
#     4  11  25  43  68 100 130 182 221 274 333 394
#     4  11  20  43  67  95 124 176 220 264 318 402
#     4  11  24  47  66  93 136 181 222 259 336 412
#     4  11  24  43  68  97 134 174 217 270 339 393
#     4  11  23  40  72  95 135 171 230 267 330 403
#     4  11  25  39  68  96 130 169 220 266 326 390
#     4  12  23  43  67 101 129 176 218 274 333 392
#     4  12  28  41  67 101 138 165 222 285 332 378
#
# _framework density 20.788170999999998
#
# number of rings (size 3 to 8) (size 9 to 14) (size 15 to 20)
#    0.000    0.750    6.250    2.250    7.000    1.000 
#    0.000    0.000    0.000    3.750    0.000    0.000 
#    0.000    0.000    0.000    0.000    0.000    0.000 
#
# Total GULP energy -198232.038884 kJ/mol
# GULP energy per Si atom -12389.502430 kJ/mol
# Density = 2.074086 g / cm^3
# Si number density = 20.788171 Si / 1000 Ang^3
#
#
#
# Elastic Constant Matrix: (Units=GPa)
#
#
# Indices 1 2 3 4 5 6 
#
# 1 73.2615 32.7412 38.9699 7.0449 -12.2890 5.7785
# 2 32.7412 148.5279 34.5323 -13.5291 -9.8664 8.7650
# 3 38.9699 34.5323 131.2101 -0.7959 -0.8884 -0.4198
# 4 7.0449 -13.5291 -0.7959 31.2409 0.2464 1.8057
# 5 -12.2890 -9.8664 -0.8884 0.2464 39.9967 7.3010
# 6 5.7785 8.7650 -0.4198 1.8057 7.3010 21.2050
#
#
#
# Elastic Compliance Matrix: (Units=1/GPa)
#
#
# Indices 1 2 3 4 5 6 
#
# 1 0.019733 -0.002888 -0.005110 -0.005534 0.006367 -0.006006
# 2 -0.002888 0.008427 -0.001332 0.004468 0.001815 -0.003728
# 3 -0.005110 -0.001332 0.009488 0.000671 -0.002210 0.002835
# 4 -0.005534 0.004468 0.000671 0.035400 -0.000205 -0.003269
# 5 0.006367 0.001815 -0.002210 -0.000205 0.029682 -0.012731
# 6 -0.006006 -0.003728 0.002835 -0.003269 -0.012731 0.055054
#
#
# Mechanical properties :
#
#
# Convention : Reuss Voigt Hill
#
# Bulk Modulus (GPa) = 52.67237 62.83180 57.75209
# Shear Modulus (GPa) = 27.35623 34.93893 31.14758
#
# Velocity S-wave (km/s) = 3.63154 4.10410 3.87503
# Velocity P-wave (km/s) = 6.55567 7.26282 6.91828
#
# Compressibility (1/GPa) = 0.01898529
#
# Stress axis : x y z
#
# Youngs Moduli (GPa) = 50.67716 118.66992 105.39681
#
# Poissons Ratio (x) = 0.34278 0.53860
# Poissons Ratio (y) = 0.14638 0.14043
# Poissons Ratio (z) = 0.25897 0.15812
#
# Static dielectric constant tensor:
#      x y z
#    x 5.316310 0.976680 0.762790 
#    y 0.976680 4.300930 0.357800 
#    z 0.762790 0.357800 4.658190 
# 
# 
# High freq. dielectric constant tensor:
#      x y z
#    x 1.789560 0.009230 0.005690 
#    y 0.009230 1.829650 0.005740 
#    z 0.005690 0.005740 1.829190 
# 
# From -- ./inp_files/392163.got.cif
#   From: 2010.06.25/outbox.cif.g09.slc.cpg/sg2_197_cif.got.tgz:392163.got - 2010.06.27 13:26:56.
