data_PCOD8029190
_publ_section_title
;
Structure prediction by ZEFSAII (Michael W. Deem and Ramdas Pophale) SiO2 
 PCOD8029190
Probable space group: P -1
;
_chemical_formula_sum "Si O2"
_cell_formula_units_Z 16
_cell_length_a 11.764044
_cell_length_b 11.864582
_cell_length_c 25.705238
_cell_angle_alpha 30.727352
_cell_angle_beta 149.219888
_cell_angle_gamma 128.400126
_cell_volume 838.309280
_symmetry_space_group_name_H-M "P -1"
_symmetry_group_IT_number 2
_symmetry_cell_setting 'triclinic'
loop_
_space_group_symop_operation_xyz
x,y,z
-x,-y,-z
loop_
_atom_site_type_symbol
_atom_site_label
_atom_site_fract_x
_atom_site_fract_y
_atom_site_fract_z
Si Si1 0.821099 0.134953 0.193726
Si Si2 0.747994 0.747105 0.186091
Si Si3 0.504512 0.990638 0.442602
Si Si4 0.704716 0.340833 0.398974
Si Si5 0.292760 0.196188 0.968303
Si Si6 0.016053 0.472855 0.191607
Si Si7 0.027281 0.927203 0.833031
Si Si8 0.767782 0.276150 0.895129
O O1 0.858660 0.341854 0.158341
O O2 0.799801 0.206381 0.095908
O O3 0.577616 0.120894 0.125107
O O4 0.049135 0.862437 0.396238
O O5 0.771805 0.519191 0.319711
O O6 0.763406 0.670714 0.162439
O O7 0.979411 0.804476 0.268033
O O8 0.500000 0.000000 0.000000
O O9 0.706389 0.727830 0.605385
O O10 0.500000 0.000000 0.500000
O O11 0.582070 0.201803 0.370751
O O12 0.245569 0.045444 0.293471
O O13 0.509578 0.496780 0.305625
O O14 0.111374 0.388720 0.861334
O O15 0.241855 0.958638 0.041588
O O16 0.033857 0.664686 0.081362
O O17 0.150790 0.760727 0.997947
#
# Coordination Sequence:
#
# PCOD8029190 Si02
#       8
#     2   2   2   2   2   2   2   2
#     4  11  21  37  60  89 117 153 201 244 293 344
#     4  11  21  40  58  89 121 150 199 245 290 345
#     4  11  21  40  58  89 121 150 199 245 290 345
#     4  11  20  37  62  90 115 150 201 249 290 334
#     4  11  23  40  58  85 125 160 192 241 297 355
#     4  11  23  40  58  85 125 160 192 241 297 355
#     4  11  20  37  62  90 115 150 201 249 290 334
#     4  11  21  37  60  89 117 153 201 244 293 344
#
# _framework density 19.086034000000001
#
# number of rings (size 3 to 8) (size 9 to 14) (size 15 to 20)
#    0.000    1.000    7.500    0.750    0.000    6.000 
#    0.000    6.250    0.000    0.000    0.000    0.000 
#    0.000    0.000    0.000    0.000    0.000    0.000 
#
# Total GULP energy -198384.008018 kJ/mol
# GULP energy per Si atom -12399.000501 kJ/mol
# Density = 1.904259 g / cm^3
# Si number density = 19.086034 Si / 1000 Ang^3
#
#
#
# Elastic Constant Matrix: (Units=GPa)
#
#
# Indices 1 2 3 4 5 6 
#
# 1 113.0863 36.3671 38.6981 -14.1196 11.3403 -17.9747
# 2 36.3671 97.6180 36.7506 -3.7594 4.6819 -3.4000
# 3 38.6981 36.7506 60.9326 -7.9549 22.6119 -11.6274
# 4 -14.1196 -3.7594 -7.9549 27.5860 4.6621 4.7058
# 5 11.3403 4.6819 22.6119 4.6621 28.6117 -8.7829
# 6 -17.9747 -3.4000 -11.6274 4.7058 -8.7829 35.9233
#
#
#
# Elastic Compliance Matrix: (Units=1/GPa)
#
#
# Indices 1 2 3 4 5 6 
#
# 1 0.012509 -0.002370 -0.005362 0.003838 0.000224 0.003851
# 2 -0.002370 0.014604 -0.010578 -0.003297 0.007123 -0.001054
# 3 -0.005362 -0.010578 0.038191 0.011529 -0.028115 0.000293
# 4 0.003838 -0.003297 0.011529 0.045207 -0.019069 -0.005244
# 5 0.000224 0.007123 -0.028115 -0.019069 0.061882 0.009314
# 6 0.003851 -0.001054 0.000293 -0.005244 0.009314 0.032723
#
#
# Mechanical properties :
#
#
# Convention : Reuss Voigt Hill
#
# Bulk Modulus (GPa) = 34.86267 55.02982 44.94625
# Shear Modulus (GPa) = 19.89676 29.07897 24.48786
#
# Velocity S-wave (km/s) = 3.23224 3.90753 3.58582
# Velocity P-wave (km/s) = 5.67764 7.01808 6.38315
#
# Compressibility (1/GPa) = 0.02868398
#
# Stress axis : x y z
#
# Youngs Moduli (GPa) = 79.94387 68.47463 26.18416
#
# Poissons Ratio (x) = 0.16230 0.14040
# Poissons Ratio (y) = 0.18949 0.27697
# Poissons Ratio (z) = 0.42865 0.72431
#
# Static dielectric constant tensor:
#      x y z
#    x 3.502600 0.305390 -0.011010 
#    y 0.305390 3.975560 0.013070 
#    z -0.011010 0.013070 3.377410 
# 
# 
# High freq. dielectric constant tensor:
#      x y z
#    x 1.732270 0.019670 -0.001850 
#    y 0.019670 1.763340 0.001230 
#    z -0.001850 0.001230 1.726190 
# 
# From -- ./inp_files/257626.got.cif
#   From: 2010.06.25/outbox.cif.g09.slc.cpg/sg2_129_cif.got.tgz:257626.got - 2010.06.27 13:26:56.
