data_PCOD8029902
_publ_section_title
;
Structure prediction by ZEFSAII (Michael W. Deem and Ramdas Pophale) SiO2 
 PCOD8029902
Probable space group: P -1
;
_chemical_formula_sum "Si O2"
_cell_formula_units_Z 16
_cell_length_a 14.373899
_cell_length_b 11.419203
_cell_length_c 9.988331
_cell_angle_alpha 84.672607
_cell_angle_beta 76.407202
_cell_angle_gamma 29.857084
_cell_volume 772.183356
_symmetry_space_group_name_H-M "P -1"
_symmetry_group_IT_number 2
_symmetry_cell_setting 'triclinic'
loop_
_space_group_symop_operation_xyz
x,y,z
-x,-y,-z
loop_
_atom_site_type_symbol
_atom_site_label
_atom_site_fract_x
_atom_site_fract_y
_atom_site_fract_z
Si Si1 0.452092 0.081137 0.187330
Si Si2 0.003544 0.133909 0.483119
Si Si3 0.395707 0.344253 0.825956
Si Si4 0.599780 0.643965 0.669239
Si Si5 0.565903 0.297268 0.533106
Si Si6 0.968093 0.802103 0.827417
Si Si7 0.821263 0.720517 0.939950
Si Si8 0.435854 0.701739 0.980149
O O1 0.411311 0.202920 0.319320
O O2 0.256704 0.296782 0.134269
O O3 0.508789 0.884966 0.219243
O O4 0.632165 0.956033 0.068655
O O5 0.978628 0.196128 0.330670
O O6 0.829300 0.368138 0.609638
O O7 0.202608 0.966013 0.498994
O O8 0.000000 0.000000 0.500000
O O9 0.461726 0.372942 0.697231
O O10 0.458283 0.321654 0.952423
O O11 0.160248 0.585648 0.878148
O O12 0.492906 0.731206 0.557781
O O13 0.495475 0.677839 0.814184
O O14 0.500000 0.500000 0.500000
O O15 0.884709 0.762684 0.824254
O O16 0.800044 0.048324 0.943779
O O17 0.000000 0.500000 0.000000
O O18 0.500000 0.500000 0.000000
#
# Coordination Sequence:
#
# PCOD8029902 Si02
#       8
#     2   2   2   2   2   2   2   2
#     4  11  23  42  65 102 140 175 224 287 340 400
#     4  12  24  46  70  96 135 183 230 279 344 412
#     4  12  24  45  73  96 140 188 223 275 352 419
#     4  12  26  41  68 108 136 171 232 290 335 399
#     4  12  24  46  71  95 135 185 227 278 347 409
#     4  12  23  43  72  98 130 187 229 266 353 409
#     4  11  21  40  70  96 138 184 221 271 347 412
#     4  12  25  43  70 102 137 171 232 293 331 401
#
# _framework density 20.720469000000001
#
# number of rings (size 3 to 8) (size 9 to 14) (size 15 to 20)
#    0.000    0.250    7.500    2.250    0.000    3.000 
#    0.000    1.250    0.000    0.000    0.000    0.000 
#    0.000    0.000    0.000    0.000    0.000    0.000 
#
# Total GULP energy -198376.288581 kJ/mol
# GULP energy per Si atom -12398.518036 kJ/mol
# Density = 2.067331 g / cm^3
# Si number density = 20.720469 Si / 1000 Ang^3
#
#
#
# Elastic Constant Matrix: (Units=GPa)
#
#
# Indices 1 2 3 4 5 6 
#
# 1 103.8329 55.7314 15.2888 11.5666 6.1629 -7.6642
# 2 55.7314 125.6741 22.9543 10.2252 12.5536 -17.6060
# 3 15.2888 22.9543 73.4809 8.0839 -3.1076 2.5702
# 4 11.5666 10.2252 8.0839 36.7262 2.7869 1.4748
# 5 6.1629 12.5536 -3.1076 2.7869 39.4181 -9.9108
# 6 -7.6642 -17.6060 2.5702 1.4748 -9.9108 46.8883
#
#
#
# Elastic Compliance Matrix: (Units=1/GPa)
#
#
# Indices 1 2 3 4 5 6 
#
# 1 0.012903 -0.005345 -0.000764 -0.002403 -0.000159 0.000186
# 2 -0.005345 0.011538 -0.002594 -0.000920 -0.002182 0.003169
# 3 -0.000764 -0.002594 0.014977 -0.002423 0.001937 -0.001434
# 4 -0.002403 -0.000920 -0.002423 0.029010 -0.002065 -0.001954
# 5 -0.000159 -0.002182 0.001937 -0.002065 0.027633 0.004955
# 6 0.000186 0.003169 -0.001434 -0.001954 0.004955 0.023735
#
#
# Mechanical properties :
#
#
# Convention : Reuss Voigt Hill
#
# Bulk Modulus (GPa) = 45.42984 54.54852 49.98918
# Shear Modulus (GPa) = 34.59278 38.54073 36.56675
#
# Velocity S-wave (km/s) = 4.09038 4.31749 4.20547
# Velocity P-wave (km/s) = 6.65440 7.15803 6.91080
#
# Compressibility (1/GPa) = 0.02201197
#
# Stress axis : x y z
#
# Youngs Moduli (GPa) = 77.50098 86.67116 66.76941
#
# Poissons Ratio (x) = 0.46326 0.05100
# Poissons Ratio (y) = 0.41425 0.17320
# Poissons Ratio (z) = 0.05920 0.22483
#
# Static dielectric constant tensor:
#      x y z
#    x 3.978450 -0.079680 -0.127710 
#    y -0.079680 3.949360 0.015970 
#    z -0.127710 0.015970 3.679810 
# 
# 
# High freq. dielectric constant tensor:
#      x y z
#    x 1.828330 -0.007580 -0.014010 
#    y -0.007580 1.823620 -0.006810 
#    z -0.014010 -0.006810 1.802010 
# 
# From -- ./inp_files/307513.got.cif
#   From: 2010.06.25/outbox.cif.g09.slc.cpg/sg2_154_cif.got.tgz:307513.got - 2010.06.27 13:26:56.
