data_PCOD8029486
_publ_section_title
;
Structure prediction by ZEFSAII (Michael W. Deem and Ramdas Pophale) SiO2 
 PCOD8029486
Probable space group: P -1
;
_chemical_formula_sum "Si O2"
_cell_formula_units_Z 16
_cell_length_a 14.467357
_cell_length_b 9.720362
_cell_length_c 9.207737
_cell_angle_alpha 116.962381
_cell_angle_beta 139.587810
_cell_angle_gamma 77.449289
_cell_volume 729.629292
_symmetry_space_group_name_H-M "P -1"
_symmetry_group_IT_number 2
_symmetry_cell_setting 'triclinic'
loop_
_space_group_symop_operation_xyz
x,y,z
-x,-y,-z
loop_
_atom_site_type_symbol
_atom_site_label
_atom_site_fract_x
_atom_site_fract_y
_atom_site_fract_z
Si Si1 0.893512 0.121598 0.862471
Si Si2 0.574910 0.310612 0.943670
Si Si3 0.830448 0.177385 0.295224
Si Si4 0.763617 0.817655 0.016040
Si Si5 0.040967 0.671423 0.201953
Si Si6 0.352466 0.354921 0.916946
Si Si7 0.626120 0.906630 0.603197
Si Si8 0.934497 0.812840 0.647405
O O1 0.846619 0.228226 0.732799
O O2 0.764709 0.028700 0.763925
O O3 0.973153 0.002331 0.812548
O O4 0.012621 0.245831 0.162946
O O5 0.513364 0.347136 0.045900
O O6 0.432354 0.238651 0.643484
O O7 0.684210 0.192818 0.041990
O O8 0.664065 0.464736 0.037881
O O9 0.860437 0.303536 0.523245
O O10 0.972064 0.234405 0.393212
O O11 0.817766 0.993342 0.236666
O O12 0.668493 0.704208 0.970039
O O13 0.896505 0.740099 0.089518
O O14 0.661880 0.835040 0.765499
O O15 0.000000 0.500000 0.000000
O O16 0.234131 0.248192 0.618408
O O17 0.500000 0.000000 0.500000
#
# Coordination Sequence:
#
# PCOD8029486 Si02
#       8
#     2   2   2   2   2   2   2   2
#     4  11  22  41  70 104 136 185 241 294 352 413
#     4  11  27  45  67 107 144 195 228 292 361 438
#     4  12  24  46  74 105 143 184 251 289 356 430
#     4  12  24  46  77 102 138 190 244 299 349 430
#     4  12  28  42  69 112 149 180 237 309 366 411
#     4  11  26  44  70 102 147 188 234 290 369 424
#     4  12  24  45  70 102 141 185 241 291 351 428
#     4  11  20  42  75  97 132 189 234 298 344 428
#
# _framework density 21.928944999999999
#
# number of rings (size 3 to 8) (size 9 to 14) (size 15 to 20)
#    0.000    0.500    6.250    1.875    1.750    5.500 
#    0.000    0.000    0.000    0.000    0.000    0.000 
#    0.000    0.000    0.000    0.000    0.000    0.000 
#
# Total GULP energy -198253.912104 kJ/mol
# GULP energy per Si atom -12390.869506 kJ/mol
# Density = 2.187903 g / cm^3
# Si number density = 21.928945 Si / 1000 Ang^3
#
#
#
# Elastic Constant Matrix: (Units=GPa)
#
#
# Indices 1 2 3 4 5 6 
#
# 1 111.2207 62.6140 40.7773 -7.4178 -7.1885 18.2614
# 2 62.6140 105.0252 43.1814 -0.1955 -4.5646 5.1420
# 3 40.7773 43.1814 127.2394 -9.9949 -17.9356 8.8447
# 4 -7.4178 -0.1955 -9.9949 30.8369 -6.0037 -3.7330
# 5 -7.1885 -4.5646 -17.9356 -6.0037 36.3761 -4.5535
# 6 18.2614 5.1420 8.8447 -3.7330 -4.5535 35.4916
#
#
#
# Elastic Compliance Matrix: (Units=1/GPa)
#
#
# Indices 1 2 3 4 5 6 
#
# 1 0.015360 -0.008262 -0.001349 0.002685 0.001032 -0.005955
# 2 -0.008262 0.015599 -0.003246 -0.002949 -0.001474 0.002300
# 3 -0.001349 -0.003246 0.010449 0.003989 0.005091 -0.000367
# 4 0.002685 -0.002949 0.003989 0.036363 0.008500 0.002967
# 5 0.001032 -0.001474 0.005091 0.008500 0.031847 0.003394
# 6 -0.005955 0.002300 -0.000367 0.002967 0.003394 0.031746
#
#
# Mechanical properties :
#
#
# Convention : Reuss Voigt Hill
#
# Bulk Modulus (GPa) = 63.70581 70.73675 67.22128
# Shear Modulus (GPa) = 29.01777 33.66842 31.34309
#
# Velocity S-wave (km/s) = 3.64161 3.92259 3.78471
# Velocity P-wave (km/s) = 6.84075 7.26932 7.05829
#
# Compressibility (1/GPa) = 0.01569716
#
# Stress axis : x y z
#
# Youngs Moduli (GPa) = 65.10343 64.10585 95.70056
#
# Poissons Ratio (x) = 0.52962 0.12905
# Poissons Ratio (y) = 0.53786 0.31061
# Poissons Ratio (z) = 0.08779 0.20806
#
# Static dielectric constant tensor:
#      x y z
#    x 3.689340 0.210780 -0.543740 
#    y 0.210780 3.843310 0.106680 
#    z -0.543740 0.106680 3.831800 
# 
# 
# High freq. dielectric constant tensor:
#      x y z
#    x 1.870950 0.000840 -0.011630 
#    y 0.000840 1.851230 -0.001670 
#    z -0.011630 -0.001670 1.868870 
# 
# From -- ./inp_files/299408.got.cif
#   From: 2010.06.25/outbox.cif.g09.slc.cpg/sg2_150_cif.got.tgz:299408.got - 2010.06.27 13:26:56.
