data_PCOD8029625
_publ_section_title
;
Structure prediction by ZEFSAII (Michael W. Deem and Ramdas Pophale) SiO2 
 PCOD8029625
Probable space group: P -1
;
_chemical_formula_sum "Si O2"
_cell_formula_units_Z 16
_cell_length_a 12.312126
_cell_length_b 5.353984
_cell_length_c 21.987048
_cell_angle_alpha 77.642813
_cell_angle_beta 143.131739
_cell_angle_gamma 82.425010
_cell_volume 727.080637
_symmetry_space_group_name_H-M "P -1"
_symmetry_group_IT_number 2
_symmetry_cell_setting 'triclinic'
loop_
_space_group_symop_operation_xyz
x,y,z
-x,-y,-z
loop_
_atom_site_type_symbol
_atom_site_label
_atom_site_fract_x
_atom_site_fract_y
_atom_site_fract_z
Si Si1 0.686674 0.408840 0.503089
Si Si2 0.883629 0.651178 0.128077
Si Si3 0.312388 0.258858 0.838313
Si Si4 0.400038 0.882496 0.781335
Si Si5 0.993748 0.852488 0.610478
Si Si6 0.693628 0.309166 0.992054
Si Si7 0.330860 0.342253 0.395140
Si Si8 0.782817 0.716698 0.424924
O O1 0.448707 0.489967 0.406250
O O2 0.763121 0.521699 0.588076
O O3 0.695989 0.547955 0.435710
O O4 0.854908 0.054093 0.594413
O O5 0.755937 0.812391 0.124524
O O6 0.132438 0.419425 0.259973
O O7 0.814077 0.431522 0.080108
O O8 0.838194 0.955434 0.055779
O O9 0.102994 0.509618 0.697264
O O10 0.475329 0.367651 0.922163
O O11 0.424005 0.980516 0.855694
O O12 0.170825 0.924622 0.666656
O O13 0.596942 0.540760 0.878834
O O14 0.403464 0.088863 0.717874
O O15 0.830465 0.924398 0.478564
O O16 0.500000 0.000000 0.500000
O O17 0.000000 0.500000 0.500000
#
# Coordination Sequence:
#
# PCOD8029625 Si02
#       8
#     2   2   2   2   2   2   2   2
#     4  11  24  41  66  99 132 174 221 271 348 397
#     4  12  25  41  66  91 134 175 224 278 333 400
#     4  11  22  38  61  96 135 174 220 274 333 403
#     4  11  23  38  60  93 139 175 219 268 330 404
#     4  11  21  37  61  98 138 175 214 268 343 404
#     4  11  26  40  61  95 131 182 224 271 335 394
#     4  11  26  46  68  97 130 171 225 280 337 404
#     4  12  22  38  62 100 138 177 215 274 340 398
#
# _framework density 22.005813
#
# number of rings (size 3 to 8) (size 9 to 14) (size 15 to 20)
#    0.000    0.750    3.750    4.125    8.750    0.000 
#    0.000    0.000    0.000    1.500    0.000    0.000 
#    0.000    0.000    0.000    0.000    0.000    0.000 
#
# Total GULP energy -198248.543750 kJ/mol
# GULP energy per Si atom -12390.533984 kJ/mol
# Density = 2.195573 g / cm^3
# Si number density = 22.005813 Si / 1000 Ang^3
#
#
#
# Elastic Constant Matrix: (Units=GPa)
#
#
# Indices 1 2 3 4 5 6 
#
# 1 81.4273 16.7592 26.7571 -4.6977 -4.9776 9.0794
# 2 16.7592 117.1919 42.5756 -3.0883 0.6088 0.9386
# 3 26.7571 42.5756 123.7443 -8.5285 7.0565 10.5712
# 4 -4.6977 -3.0883 -8.5285 44.0060 4.3104 1.2291
# 5 -4.9776 0.6088 7.0565 4.3104 27.7353 -1.5943
# 6 9.0794 0.9386 10.5712 1.2291 -1.5943 28.9625
#
#
#
# Elastic Compliance Matrix: (Units=1/GPa)
#
#
# Indices 1 2 3 4 5 6 
#
# 1 0.013894 -0.001059 -0.002469 0.000744 0.002840 -0.003295
# 2 -0.001059 0.009872 -0.003316 -0.000150 0.000533 0.001258
# 3 -0.002469 -0.003316 0.010360 0.001942 -0.003490 -0.003174
# 4 0.000744 -0.000150 0.001942 0.023637 -0.004155 -0.002169
# 5 0.002840 0.000533 -0.003490 -0.004155 0.038239 0.002648
# 6 -0.003295 0.001258 -0.003174 -0.002169 0.002648 0.036916
#
#
# Mechanical properties :
#
#
# Convention : Reuss Voigt Hill
#
# Bulk Modulus (GPa) = 48.92636 54.94971 51.93804
# Shear Modulus (GPa) = 32.59038 35.89220 34.24129
#
# Velocity S-wave (km/s) = 3.85254 4.04299 3.94891
# Velocity P-wave (km/s) = 6.48622 6.84245 6.66671
#
# Compressibility (1/GPa) = 0.02043888
#
# Stress axis : x y z
#
# Youngs Moduli (GPa) = 71.97277 101.29363 96.52453
#
# Poissons Ratio (x) = 0.10723 0.23834
# Poissons Ratio (y) = 0.07619 0.32007
# Poissons Ratio (z) = 0.17772 0.33588
#
# Static dielectric constant tensor:
#      x y z
#    x 3.861060 0.132020 -0.148770 
#    y 0.132020 4.135820 -0.012840 
#    z -0.148770 -0.012840 4.231630 
# 
# 
# High freq. dielectric constant tensor:
#      x y z
#    x 1.822330 0.023210 -0.003140 
#    y 0.023210 1.877000 -0.004070 
#    z -0.003140 -0.004070 1.872910 
# 
# From -- ./inp_files/592503.got.cif
#   From: 2010.06.25/outbox.cif.g09.slc.cpg/sg2_297_cif.got.tgz:592503.got - 2010.06.27 13:26:56.
