data_PCOD8029071
_publ_section_title
;
Structure prediction by ZEFSAII (Michael W. Deem and Ramdas Pophale) SiO2 
 PCOD8029071
Probable space group: P -1
;
_chemical_formula_sum "Si O2"
_cell_formula_units_Z 16
_cell_length_a 11.651673
_cell_length_b 8.775057
_cell_length_c 20.456435
_cell_angle_alpha 150.278907
_cell_angle_beta 43.399462
_cell_angle_gamma 126.495446
_cell_volume 708.421594
_symmetry_space_group_name_H-M "P -1"
_symmetry_group_IT_number 2
_symmetry_cell_setting 'triclinic'
loop_
_space_group_symop_operation_xyz
x,y,z
-x,-y,-z
loop_
_atom_site_type_symbol
_atom_site_label
_atom_site_fract_x
_atom_site_fract_y
_atom_site_fract_z
Si Si1 0.182660 0.038954 0.656288
Si Si2 0.601778 0.793264 0.485188
Si Si3 0.669765 0.591595 0.603686
Si Si4 0.564042 0.121887 0.085566
Si Si5 0.075305 0.419790 0.069086
Si Si6 0.883362 0.724540 0.450065
Si Si7 0.892624 0.828757 0.894162
Si Si8 0.329368 0.299893 0.809690
O O1 0.338030 0.134457 0.585293
O O2 0.202555 0.106915 0.750341
O O3 0.010968 0.226728 0.771438
O O4 0.201374 0.665257 0.507432
O O5 0.473710 0.536445 0.430942
O O6 0.762402 0.687971 0.424086
O O7 0.505933 0.094131 0.672179
O O8 0.584912 0.821707 0.779082
O O9 0.778125 0.783167 0.581913
O O10 0.647670 0.427353 0.148114
O O11 0.500000 0.000000 0.000000
O O12 0.703411 0.866373 0.960989
O O13 0.115253 0.352828 0.102412
O O14 0.248835 0.401816 0.950348
O O15 0.957722 0.165783 0.997736
O O16 0.995088 0.393428 0.284758
O O17 0.000000 0.000000 0.500000
#
# Coordination Sequence:
#
# PCOD8029071 Si02
#       8
#     2   2   2   2   2   2   2   2
#     4  11  19  42  71 105 139 173 235 291 342 405
#     4  11  21  44  74 100 138 180 239 288 339 412
#     4  11  24  46  75 102 133 188 239 286 341 417
#     4  12  27  45  68 100 141 183 231 283 347 419
#     4  11  23  40  72 107 138 175 227 296 350 404
#     4  12  29  46  68 102 146 187 230 287 352 418
#     4  11  25  45  67 102 144 181 227 284 354 415
#     4  11  22  39  67 105 136 177 229 288 341 407
#
# _framework density 22.585422000000001
#
# number of rings (size 3 to 8) (size 9 to 14) (size 15 to 20)
#    0.000    0.750    5.000    3.000    7.000    1.000 
#    0.000    2.500    0.000    0.000    0.000    0.000 
#    0.000    0.000    0.000    0.000    0.000    0.000 
#
# Total GULP energy -198374.084101 kJ/mol
# GULP energy per Si atom -12398.380256 kJ/mol
# Density = 2.253402 g / cm^3
# Si number density = 22.585422 Si / 1000 Ang^3
#
#
#
# Elastic Constant Matrix: (Units=GPa)
#
#
# Indices 1 2 3 4 5 6 
#
# 1 107.4621 28.0899 71.5403 4.6975 -10.4745 -4.9563
# 2 28.0899 102.5703 35.6117 -24.4437 1.4412 -5.1251
# 3 71.5403 35.6117 146.8436 -21.1378 -19.7825 -2.9296
# 4 4.6975 -24.4437 -21.1378 42.5496 -10.6889 2.9993
# 5 -10.4745 1.4412 -19.7825 -10.6889 35.0699 0.5830
# 6 -4.9563 -5.1251 -2.9296 2.9993 0.5830 18.6724
#
#
#
# Elastic Compliance Matrix: (Units=1/GPa)
#
#
# Indices 1 2 3 4 5 6 
#
# 1 0.016264 -0.003358 -0.008694 -0.008974 -0.002703 0.003557
# 2 -0.003358 0.012606 -0.000218 0.007574 0.000643 0.001298
# 3 -0.008694 -0.000218 0.013543 0.009730 0.008051 -0.002057
# 4 -0.008974 0.007574 0.009730 0.037573 0.014036 -0.005250
# 5 -0.002703 0.000643 0.008051 0.014036 0.036545 -0.002673
# 6 0.003557 0.001298 -0.002057 -0.005250 -0.002673 0.055459
#
#
# Mechanical properties :
#
#
# Convention : Reuss Voigt Hill
#
# Bulk Modulus (GPa) = 55.95567 69.70662 62.83115
# Shear Modulus (GPa) = 24.69272 34.03400 29.36336
#
# Velocity S-wave (km/s) = 3.31010 3.88609 3.60960
# Velocity P-wave (km/s) = 6.27996 7.14606 6.72697
#
# Compressibility (1/GPa) = 0.01787129
#
# Stress axis : x y z
#
# Youngs Moduli (GPa) = 61.48438 79.32941 73.84015
#
# Poissons Ratio (x) = 0.26642 0.64198
# Poissons Ratio (y) = 0.20649 0.01611
# Poissons Ratio (z) = 0.53456 0.01731
#
# Static dielectric constant tensor:
#      x y z
#    x 3.770950 -0.172980 -0.151560 
#    y -0.172980 3.605810 -0.563770 
#    z -0.151560 -0.563770 3.768950 
# 
# 
# High freq. dielectric constant tensor:
#      x y z
#    x 1.872760 -0.021540 -0.011310 
#    y -0.021540 1.882090 -0.014350 
#    z -0.011310 -0.014350 1.906610 
# 
# From -- ./inp_files/282094.got.cif
#   From: 2010.06.25/outbox.cif.g09.slc.cpg/sg2_142_cif.got.tgz:282094.got - 2010.06.27 13:26:56.
