data_PCOD8029012
_publ_section_title
;
Structure prediction by ZEFSAII (Michael W. Deem and Ramdas Pophale) SiO2 
 PCOD8029012
Probable space group: P -1
;
_chemical_formula_sum "Si O2"
_cell_formula_units_Z 16
_cell_length_a 20.474387
_cell_length_b 12.982700
_cell_length_c 9.858767
_cell_angle_alpha 109.197190
_cell_angle_beta 66.075345
_cell_angle_gamma 159.972142
_cell_volume 808.896727
_symmetry_space_group_name_H-M "P -1"
_symmetry_group_IT_number 2
_symmetry_cell_setting 'triclinic'
loop_
_space_group_symop_operation_xyz
x,y,z
-x,-y,-z
loop_
_atom_site_type_symbol
_atom_site_label
_atom_site_fract_x
_atom_site_fract_y
_atom_site_fract_z
Si Si1 0.259619 0.298590 0.106066
Si Si2 0.062188 0.234720 0.306709
Si Si3 0.224476 0.341641 0.896021
Si Si4 0.325449 0.731110 0.924853
Si Si5 0.343885 0.371858 0.550755
Si Si6 0.518030 0.098588 0.658617
Si Si7 0.545072 0.746054 0.287855
Si Si8 0.927347 0.154324 0.108960
O O1 0.097903 0.153665 0.243124
O O2 0.426578 0.509537 0.169265
O O3 0.157720 0.042750 0.026759
O O4 0.363922 0.512038 0.983320
O O5 0.009987 0.200076 0.183783
O O6 0.251705 0.570132 0.347107
O O7 0.874576 0.989679 0.460733
O O8 0.294367 0.359663 0.728487
O O9 0.262030 0.514422 0.883059
O O10 0.000000 0.000000 0.000000
O O11 0.118166 0.495629 0.040332
O O12 0.500000 0.000000 0.000000
O O13 0.386341 0.855202 0.779250
O O14 0.500000 0.500000 0.500000
O O15 0.424525 0.567970 0.453312
O O16 0.431859 0.095579 0.702811
O O17 0.500000 0.000000 0.500000
O O18 0.762338 0.003490 0.234908
#
# Coordination Sequence:
#
# PCOD8029012 Si02
#       8
#     2   2   2   2   2   2   2   2
#     4  11  19  38  65  97 128 159 206 276 322 369
#     4  11  20  40  66  91 127 166 218 263 312 391
#     4  12  20  40  69  96 122 171 228 265 304 395
#     4  12  22  39  71  92 121 180 224 254 315 395
#     4  12  22  38  66  98 130 169 210 270 340 375
#     4  11  26  45  59  89 131 172 219 265 316 385
#     4  11  26  39  61  98 138 160 209 281 332 370
#     4  12  20  40  66  97 129 164 215 272 317 388
#
# _framework density 19.780028000000001
#
# number of rings (size 3 to 8) (size 9 to 14) (size 15 to 20)
#    0.000    0.500    7.500    2.250    0.000    3.500 
#    0.000    1.875    0.000    0.000    0.000    0.000 
#    0.000    0.000    0.000    0.000    0.000    0.000 
#
# Total GULP energy -198229.798544 kJ/mol
# GULP energy per Si atom -12389.362409 kJ/mol
# Density = 1.973501 g / cm^3
# Si number density = 19.780028 Si / 1000 Ang^3
#
#
#
# Elastic Constant Matrix: (Units=GPa)
#
#
# Indices 1 2 3 4 5 6 
#
# 1 89.0045 51.0340 47.1303 -12.9446 5.6119 -0.8015
# 2 51.0340 116.9568 66.6184 -16.8255 -9.1043 -2.1434
# 3 47.1303 66.6184 141.1209 -20.0172 6.9103 -0.0610
# 4 -12.9446 -16.8255 -20.0172 45.5158 -2.7904 2.6814
# 5 5.6119 -9.1043 6.9103 -2.7904 32.6071 -7.4951
# 6 -0.8015 -2.1434 -0.0610 2.6814 -7.4951 35.0869
#
#
#
# Elastic Compliance Matrix: (Units=1/GPa)
#
#
# Indices 1 2 3 4 5 6 
#
# 1 0.016286 -0.005996 -0.002232 0.001239 -0.004122 -0.000973
# 2 -0.005996 0.014928 -0.005119 0.001863 0.006928 0.002104
# 3 -0.002232 -0.005119 0.010705 0.002044 -0.003422 -0.001232
# 4 0.001239 0.001863 0.002044 0.024089 0.001625 -0.001348
# 5 -0.004122 0.006928 -0.003422 0.001625 0.035989 0.007887
# 6 -0.000973 0.002104 -0.001232 -0.001348 0.007887 0.030393
#
#
# Mechanical properties :
#
#
# Convention : Reuss Voigt Hill
#
# Bulk Modulus (GPa) = 65.67444 75.18307 70.42875
# Shear Modulus (GPa) = 30.45864 34.79527 32.62695
#
# Velocity S-wave (km/s) = 3.92837 4.19873 4.06580
# Velocity P-wave (km/s) = 7.33830 7.84843 7.59765
#
# Compressibility (1/GPa) = 0.01522662
#
# Stress axis : x y z
#
# Youngs Moduli (GPa) = 61.40123 66.98920 93.41759
#
# Poissons Ratio (x) = 0.40166 0.20847
# Poissons Ratio (y) = 0.36816 0.47816
# Poissons Ratio (z) = 0.13702 0.34289
#
# Static dielectric constant tensor:
#      x y z
#    x 3.858350 0.045230 0.232520 
#    y 0.045230 4.291170 -0.272630 
#    z 0.232520 -0.272630 4.060840 
# 
# 
# High freq. dielectric constant tensor:
#      x y z
#    x 1.768760 0.009770 0.006780 
#    y 0.009770 1.768220 -0.005460 
#    z 0.006780 -0.005460 1.776930 
# 
# From -- ./inp_files/354383.got.cif
#   From: 2010.06.25/outbox.cif.g09.slc.cpg/sg2_178_cif.got.tgz:354383.got - 2010.06.27 13:26:56.
