data_PCOD8029409
_publ_section_title
;
Structure prediction by ZEFSAII (Michael W. Deem and Ramdas Pophale) SiO2 
 PCOD8029409
Probable space group: P -1
;
_chemical_formula_sum "Si O2"
_cell_formula_units_Z 16
_cell_length_a 8.557207
_cell_length_b 16.994026
_cell_length_c 11.999463
_cell_angle_alpha 123.183182
_cell_angle_beta 146.655519
_cell_angle_gamma 51.445338
_cell_volume 748.636687
_symmetry_space_group_name_H-M "P -1"
_symmetry_group_IT_number 2
_symmetry_cell_setting 'triclinic'
loop_
_space_group_symop_operation_xyz
x,y,z
-x,-y,-z
loop_
_atom_site_type_symbol
_atom_site_label
_atom_site_fract_x
_atom_site_fract_y
_atom_site_fract_z
Si Si1 0.806043 0.052261 0.596864
Si Si2 0.791175 0.765674 0.604311
Si Si3 0.057141 0.695634 0.297306
Si Si4 0.759604 0.613956 0.634948
Si Si5 0.231604 0.398177 0.109936
Si Si6 0.273009 0.083275 0.742931
Si Si7 0.095042 0.607550 0.485095
Si Si8 0.935368 0.065530 0.123136
O O1 0.565740 0.165243 0.556031
O O2 0.127779 0.051582 0.740935
O O3 0.659970 0.997867 0.378892
O O4 0.849171 0.996805 0.697831
O O5 0.881364 0.694424 0.712129
O O6 0.844669 0.691502 0.473357
O O7 0.004125 0.831765 0.780793
O O8 0.401514 0.648112 0.423861
O O9 0.015284 0.632373 0.327953
O O10 0.968719 0.812416 0.368302
O O11 0.827884 0.692243 0.059624
O O12 0.833331 0.611750 0.807125
O O13 0.918256 0.503147 0.588953
O O14 0.573626 0.391154 0.287513
O O15 0.000000 0.500000 0.000000
O O16 0.586317 0.094553 0.974528
O O17 0.000000 0.000000 0.000000
#
# Coordination Sequence:
#
# PCOD8029409 Si02
#       8
#     2   2   2   2   2   2   2   2
#     4  11  25  47  70  95 135 176 225 278 328 401
#     4  12  25  46  65 100 140 178 218 272 339 397
#     4  11  21  40  70  98 125 176 222 270 328 394
#     4  11  23  43  65  98 134 175 225 268 321 399
#     4  11  20  41  69  94 130 172 224 273 322 387
#     4  11  24  45  73  98 127 175 231 271 333 394
#     4  11  23  40  68  94 137 176 220 269 330 390
#     4  12  26  44  69 100 138 171 218 280 341 393
#
# _framework density 21.372183
#
# number of rings (size 3 to 8) (size 9 to 14) (size 15 to 20)
#    0.000    0.750    5.000    3.375    1.750    2.000 
#    0.000    0.625    0.000    0.000    0.000    0.000 
#    0.000    0.000    0.000    0.000    0.000    0.000 
#
# Total GULP energy -198467.719270 kJ/mol
# GULP energy per Si atom -12404.232454 kJ/mol
# Density = 2.132354 g / cm^3
# Si number density = 21.372183 Si / 1000 Ang^3
#
#
#
# Elastic Constant Matrix: (Units=GPa)
#
#
# Indices 1 2 3 4 5 6 
#
# 1 114.5208 61.6664 58.3248 10.1100 -5.3736 9.9504
# 2 61.6664 153.9729 40.9563 16.5931 -7.9565 2.5688
# 3 58.3248 40.9563 107.7755 2.9227 -8.8015 4.7207
# 4 10.1100 16.5931 2.9227 21.1207 1.5836 0.1498
# 5 -5.3736 -7.9565 -8.8015 1.5836 20.6685 3.4450
# 6 9.9504 2.5688 4.7207 0.1498 3.4450 49.4738
#
#
#
# Elastic Compliance Matrix: (Units=1/GPa)
#
#
# Indices 1 2 3 4 5 6 
#
# 1 0.014336 -0.003725 -0.006145 -0.003090 0.000266 -0.002113
# 2 -0.003725 0.008958 -0.001060 -0.005289 0.002395 0.000234
# 3 -0.006145 -0.001060 0.013261 0.001674 0.003551 -0.000227
# 4 -0.003090 -0.005289 0.001674 0.053221 -0.006375 0.001019
# 5 0.000266 0.002395 0.003551 -0.006375 0.052062 -0.004123
# 6 -0.002113 0.000234 -0.000227 0.001019 -0.004123 0.020931
#
#
# Mechanical properties :
#
#
# Convention : Reuss Voigt Hill
#
# Bulk Modulus (GPa) = 68.04234 77.57380 72.80807
# Shear Modulus (GPa) = 26.38145 32.60738 29.49442
#
# Velocity S-wave (km/s) = 3.51719 3.91025 3.71892
# Velocity P-wave (km/s) = 6.95702 7.53407 7.25129
#
# Compressibility (1/GPa) = 0.01469673
#
# Stress axis : x y z
#
# Youngs Moduli (GPa) = 69.75303 111.62816 75.40881
#
# Poissons Ratio (x) = 0.41584 0.46336
# Poissons Ratio (y) = 0.25985 0.07990
# Poissons Ratio (z) = 0.42861 0.11828
#
# Static dielectric constant tensor:
#      x y z
#    x 4.006940 0.031810 0.020320 
#    y 0.031810 4.066530 0.103680 
#    z 0.020320 0.103680 3.810790 
# 
# 
# High freq. dielectric constant tensor:
#      x y z
#    x 1.842340 -0.001050 -0.002090 
#    y -0.001050 1.856840 0.004500 
#    z -0.002090 0.004500 1.827430 
# 
# From -- ./inp_files/98198.got.cif
#   From: 2010.06.25/outbox.cif.g09.slc.cpg/sg2_50_cif.got.tgz:98198.got - 2010.06.27 13:26:56.
