data_PCOD8029605
_publ_section_title
;
Structure prediction by ZEFSAII (Michael W. Deem and Ramdas Pophale) SiO2 
 PCOD8029605
Probable space group: P -1
;
_chemical_formula_sum "Si O2"
_cell_formula_units_Z 10
_cell_length_a 13.190867
_cell_length_b 10.347637
_cell_length_c 9.327771
_cell_angle_alpha 133.183731
_cell_angle_beta 145.627159
_cell_angle_gamma 47.042422
_cell_volume 502.661264
_symmetry_space_group_name_H-M "P -1"
_symmetry_group_IT_number 2
_symmetry_cell_setting 'triclinic'
loop_
_space_group_symop_operation_xyz
x,y,z
-x,-y,-z
loop_
_atom_site_type_symbol
_atom_site_label
_atom_site_fract_x
_atom_site_fract_y
_atom_site_fract_z
Si Si1 0.022079 0.165048 0.976520
Si Si2 0.005258 0.212564 0.317690
Si Si3 0.406638 0.200570 0.483589
Si Si4 0.295607 0.420264 0.802143
Si Si5 0.613347 0.408307 0.699393
O O1 0.207470 0.220539 0.184293
O O2 0.067617 0.136582 0.175496
O O3 0.832101 0.327577 0.848561
O O4 0.010320 0.967545 0.746534
O O5 0.809829 0.369567 0.206307
O O6 0.162612 0.304552 0.626267
O O7 0.400898 0.334300 0.715440
O O8 0.539186 0.241554 0.545489
O O9 0.500000 0.000000 0.500000
O O10 0.423067 0.435616 0.099319
O O11 0.500000 0.500000 0.500000
#
# Coordination Sequence:
#
# PCOD8029605 Si02
#       5
#     2   2   2   2   2
#     4   9  18  34  53  79 113 141 179 227 272 322
#     4   8  14  30  57  81 104 139 181 234 273 304
#     4  11  21  36  62  85 105 143 190 230 269 321
#     4   9  17  32  57  83 107 141 188 226 266 324
#     4  11  23  37  55  82 117 149 177 222 280 328
#
# _framework density 19.894114999999999
#
# number of rings (size 3 to 8) (size 9 to 14) (size 15 to 20)
#    0.000    2.400    0.000    6.600    0.000    0.800 
#    0.000    4.000    0.000    3.600    0.000    0.000 
#    0.000    0.000    0.000    0.000    0.000    0.000 
#
# Total GULP energy -123892.032117 kJ/mol
# GULP energy per Si atom -12389.203212 kJ/mol
# Density = 1.984883 g / cm^3
# Si number density = 19.894115 Si / 1000 Ang^3
#
#
#
# Elastic Constant Matrix: (Units=GPa)
#
#
# Indices 1 2 3 4 5 6 
#
# 1 56.1135 32.0452 35.5149 -9.5834 7.3248 -0.0210
# 2 32.0452 91.9948 52.1908 2.1479 -6.2543 -0.7334
# 3 35.5149 52.1908 104.6630 -10.2649 10.6219 10.3286
# 4 -9.5834 2.1479 -10.2649 35.2842 -7.5772 -1.7101
# 5 7.3248 -6.2543 10.6219 -7.5772 27.0073 -2.1575
# 6 -0.0210 -0.7334 10.3286 -1.7101 -2.1575 26.7448
#
#
#
# Elastic Compliance Matrix: (Units=1/GPa)
#
#
# Indices 1 2 3 4 5 6 
#
# 1 0.026302 -0.007114 -0.004458 0.005177 -0.005460 0.001438
# 2 -0.007114 0.019094 -0.008820 -0.003469 0.009202 0.004445
# 3 -0.004458 -0.008820 0.017183 0.002355 -0.007517 -0.007337
# 4 0.005177 -0.003469 0.002355 0.031999 0.005966 0.001527
# 5 -0.005460 0.009202 -0.007517 0.005966 0.045847 0.007231
# 6 0.001438 0.004445 -0.007337 0.001527 0.007231 0.041028
#
#
# Mechanical properties :
#
#
# Convention : Reuss Voigt Hill
#
# Bulk Modulus (GPa) = 45.87921 54.69700 50.28811
# Shear Modulus (GPa) = 21.78626 26.67530 24.23078
#
# Velocity S-wave (km/s) = 3.31284 3.66575 3.49375
# Velocity P-wave (km/s) = 6.14369 6.74320 6.45041
#
# Compressibility (1/GPa) = 0.02179636
#
# Stress axis : x y z
#
# Youngs Moduli (GPa) = 38.01932 52.37217 58.19607
#
# Poissons Ratio (x) = 0.37256 0.25942
# Poissons Ratio (y) = 0.27046 0.51330
# Poissons Ratio (z) = 0.16948 0.46193
#
# Static dielectric constant tensor:
#      x y z
#    x 3.547010 -0.218620 0.334220 
#    y -0.218620 3.531700 0.464140 
#    z 0.334220 0.464140 4.121790 
# 
# 
# High freq. dielectric constant tensor:
#      x y z
#    x 1.737260 -0.023690 0.034530 
#    y -0.023690 1.763260 0.026760 
#    z 0.034530 0.026760 1.783240 
# 
# From -- ./inp_files/145398.got.cif
#   From: 2010.06.25/outbox.cif.g09.slc.cpg/sg2_73_cif.got.tgz:145398.got - 2010.06.27 13:26:56.
