data_PCOD8029296
_publ_section_title
;
Structure prediction by ZEFSAII (Michael W. Deem and Ramdas Pophale) SiO2 
 PCOD8029296
Probable space group: P -1
;
_chemical_formula_sum "Si O2"
_cell_formula_units_Z 12
_cell_length_a 9.300330
_cell_length_b 10.011727
_cell_length_c 12.482115
_cell_angle_alpha 136.768669
_cell_angle_beta 87.773183
_cell_angle_gamma 64.073436
_cell_volume 583.121318
_symmetry_space_group_name_H-M "P -1"
_symmetry_group_IT_number 2
_symmetry_cell_setting 'triclinic'
loop_
_space_group_symop_operation_xyz
x,y,z
-x,-y,-z
loop_
_atom_site_type_symbol
_atom_site_label
_atom_site_fract_x
_atom_site_fract_y
_atom_site_fract_z
Si Si1 0.598089 0.876914 0.039582
Si Si2 0.444484 0.746660 0.587687
Si Si3 0.415491 0.293579 0.670922
Si Si4 0.973961 0.507714 0.133442
Si Si5 0.914848 0.972505 0.362556
Si Si6 0.317313 0.631456 0.221651
O O1 0.494021 0.119369 0.268289
O O2 0.571252 0.679165 0.965518
O O3 0.828250 0.721012 0.940275
O O4 0.500000 0.000000 0.000000
O O5 0.500000 0.500000 0.500000
O O6 0.559710 0.644085 0.412215
O O7 0.206090 0.959250 0.703103
O O8 0.188111 0.501888 0.833897
O O9 0.525980 0.338101 0.776945
O O10 0.500000 0.000000 0.500000
O O11 0.900362 0.792744 0.334122
O O12 0.000000 0.500000 0.000000
O O13 0.146586 0.803695 0.235021
O O14 0.803161 0.245664 0.590410
#
# Coordination Sequence:
#
# PCOD8029296 Si02
#       6
#     2   2   2   2   2   2
#     4  11  22  39  63  91 129 169 209 261 318 374
#     4  11  22  40  65  90 130 171 207 257 330 374
#     4  11  20  40  66  95 125 165 213 259 311 383
#     4  11  20  39  69  90 121 169 216 256 310 375
#     4   9  17  36  61  89 120 166 202 253 313 375
#     4   9  19  33  62  92 121 157 210 258 307 366
#
# _framework density 20.578904999999999
#
# number of rings (size 3 to 8) (size 9 to 14) (size 15 to 20)
#    0.000    1.667    5.000    2.000    0.000    0.000 
#    0.000   11.667    3.667    0.000    0.000    0.000 
#    0.000    0.000    0.000    0.000    0.000    0.000 
#
# Total GULP energy -148688.513273 kJ/mol
# GULP energy per Si atom -12390.709439 kJ/mol
# Density = 2.053207 g / cm^3
# Si number density = 20.578905 Si / 1000 Ang^3
#
#
#
# Elastic Constant Matrix: (Units=GPa)
#
#
# Indices 1 2 3 4 5 6 
#
# 1 183.0026 59.8964 44.8914 2.0775 -4.2860 -14.6304
# 2 59.8964 122.2733 33.6585 6.1280 -9.2725 -17.8622
# 3 44.8914 33.6585 69.3331 6.5575 16.2682 2.3247
# 4 2.0775 6.1280 6.5575 30.6683 2.7261 4.6284
# 5 -4.2860 -9.2725 16.2682 2.7261 41.4924 2.3725
# 6 -14.6304 -17.8622 2.3247 4.6284 2.3725 39.7041
#
#
#
# Elastic Compliance Matrix: (Units=1/GPa)
#
#
# Indices 1 2 3 4 5 6 
#
# 1 0.007382 -0.002019 -0.004340 0.000376 0.001879 0.001910
# 2 -0.002019 0.011820 -0.005425 -0.002195 0.004425 0.004883
# 3 -0.004340 -0.005425 0.022572 -0.001863 -0.010129 -0.004539
# 4 0.000376 -0.002195 -0.001863 0.034269 -0.001708 -0.004633
# 5 0.001879 0.004425 -0.010129 -0.001708 0.029268 0.001726
# 6 0.001910 0.004883 -0.004539 -0.004633 0.001726 0.028789
#
#
# Mechanical properties :
#
#
# Convention : Reuss Voigt Hill
#
# Bulk Modulus (GPa) = 54.92901 72.38905 63.65903
# Shear Modulus (GPa) = 30.53650 38.11713 34.32682
#
# Velocity S-wave (km/s) = 3.85629 4.30844 4.08862
# Velocity P-wave (km/s) = 6.82479 7.74615 7.30002
#
# Compressibility (1/GPa) = 0.01820532
#
# Stress axis : x y z
#
# Youngs Moduli (GPa) = 135.45893 84.60542 44.30252
#
# Poissons Ratio (x) = 0.17080 0.19229
# Poissons Ratio (y) = 0.27346 0.24035
# Poissons Ratio (z) = 0.58794 0.45900
#
# Static dielectric constant tensor:
#      x y z
#    x 4.873560 0.000890 -0.408400 
#    y 0.000890 3.641500 -0.192830 
#    z -0.408400 -0.192830 4.676620 
# 
# 
# High freq. dielectric constant tensor:
#      x y z
#    x 1.811290 -0.028350 0.028090 
#    y -0.028350 1.770220 0.012880 
#    z 0.028090 0.012880 1.809900 
# 
# From -- ./inp_files/211518.got.cif
#   From: 2010.06.25/outbox.cif.g09.slc.cpg/sg2_106_cif.got.tgz:211518.got - 2010.06.27 13:26:56.
