data_PCOD8029657
_publ_section_title
;
Structure prediction by ZEFSAII (Michael W. Deem and Ramdas Pophale) SiO2 
 PCOD8029657
Probable space group: P -1
;
_chemical_formula_sum "Si O2"
_cell_formula_units_Z 16
_cell_length_a 15.197556
_cell_length_b 15.919039
_cell_length_c 9.592108
_cell_angle_alpha 53.833288
_cell_angle_beta 83.928105
_cell_angle_gamma 38.337601
_cell_volume 814.664847
_symmetry_space_group_name_H-M "P -1"
_symmetry_group_IT_number 2
_symmetry_cell_setting 'triclinic'
loop_
_space_group_symop_operation_xyz
x,y,z
-x,-y,-z
loop_
_atom_site_type_symbol
_atom_site_label
_atom_site_fract_x
_atom_site_fract_y
_atom_site_fract_z
Si Si1 0.470973 0.838773 0.659423
Si Si2 0.944189 0.146921 0.972782
Si Si3 0.614436 0.297716 0.578882
Si Si4 0.333816 0.407971 0.565770
Si Si5 0.065332 0.379449 0.252057
Si Si6 0.654624 0.704083 0.040902
Si Si7 0.650690 0.794733 0.442501
Si Si8 0.444581 0.478917 0.150430
O O1 0.624578 0.680285 0.920040
O O2 0.527540 0.868802 0.512456
O O3 0.490711 0.705083 0.721707
O O4 0.239368 0.107760 0.474311
O O5 0.865846 0.322309 0.716599
O O6 0.788311 0.275908 0.994623
O O7 0.000000 0.000000 0.000000
O O8 0.148834 0.967482 0.184549
O O9 0.500000 0.500000 0.500000
O O10 0.524340 0.276893 0.619996
O O11 0.583066 0.374273 0.354512
O O12 0.320479 0.310729 0.589462
O O13 0.352387 0.375642 0.760073
O O14 0.139156 0.387686 0.344614
O O15 0.000000 0.500000 0.000000
O O16 0.870154 0.529594 0.197460
O O17 0.475496 0.976186 0.822187
O O18 0.500000 0.500000 0.000000
#
# Coordination Sequence:
#
# PCOD8029657 Si02
#       8
#     2   2   2   2   2   2   2   2
#     4  11  22  41  63  93 130 168 210 264 327 382
#     4  11  23  43  70  92 128 177 221 258 330 397
#     4  11  23  45  69  88 130 179 211 268 331 383
#     4  11  25  41  65  98 129 168 219 272 319 383
#     4  11  21  37  66  90 127 173 211 259 324 387
#     4  11  24  39  65  95 131 169 214 269 321 388
#     4  11  21  42  62  92 130 169 216 262 316 389
#     4  11  26  43  68 104 133 164 220 282 319 386
#
# _framework density 19.639979
#
# number of rings (size 3 to 8) (size 9 to 14) (size 15 to 20)
#    0.000    1.000    7.500    1.125    1.750    7.000 
#    0.000    0.000    0.000    0.000    0.000    0.000 
#    0.000    0.000    0.000    0.000    0.000    0.000 
#
# Total GULP energy -198331.229555 kJ/mol
# GULP energy per Si atom -12395.701847 kJ/mol
# Density = 1.959528 g / cm^3
# Si number density = 19.639979 Si / 1000 Ang^3
#
#
#
# Elastic Constant Matrix: (Units=GPa)
#
#
# Indices 1 2 3 4 5 6 
#
# 1 88.1263 38.3129 57.0857 -1.3439 10.7949 7.1856
# 2 38.3129 74.2408 45.7742 5.6906 -5.2535 10.0112
# 3 57.0857 45.7742 142.4078 5.7905 13.6171 -21.0017
# 4 -1.3439 5.6906 5.7905 39.5088 -8.3185 -2.3001
# 5 10.7949 -5.2535 13.6171 -8.3185 40.2118 4.7466
# 6 7.1856 10.0112 -21.0017 -2.3001 4.7466 36.9852
#
#
#
# Elastic Compliance Matrix: (Units=1/GPa)
#
#
# Indices 1 2 3 4 5 6 
#
# 1 0.018494 -0.005197 -0.006350 0.001457 -0.002557 -0.005373
# 2 -0.005197 0.022878 -0.007530 -0.001318 0.007907 -0.010555
# 3 -0.006350 -0.007530 0.014417 -0.001795 -0.005962 0.012112
# 4 0.001457 -0.001318 -0.001795 0.026999 0.005628 0.000011
# 5 -0.002557 0.007907 -0.005962 0.005628 0.030790 -0.008630
# 6 -0.005373 -0.010555 0.012112 0.000011 -0.008630 0.038925
#
#
# Mechanical properties :
#
#
# Convention : Reuss Voigt Hill
#
# Bulk Modulus (GPa) = 56.70280 65.23560 60.96920
# Shear Modulus (GPa) = 25.44087 34.24798 29.84443
#
# Velocity S-wave (km/s) = 3.60302 4.18040 3.90240
# Velocity P-wave (km/s) = 6.80020 7.52255 7.17048
#
# Compressibility (1/GPa) = 0.01763581
#
# Stress axis : x y z
#
# Youngs Moduli (GPa) = 54.07260 43.71028 69.36171
#
# Poissons Ratio (x) = 0.22715 0.44046
# Poissons Ratio (y) = 0.28100 0.52227
# Poissons Ratio (z) = 0.34337 0.32912
#
# Static dielectric constant tensor:
#      x y z
#    x 5.167340 -0.194200 0.069370 
#    y -0.194200 3.617130 0.233450 
#    z 0.069370 0.233450 3.851430 
# 
# 
# High freq. dielectric constant tensor:
#      x y z
#    x 1.768740 0.008750 0.008620 
#    y 0.008750 1.763040 0.006690 
#    z 0.008620 0.006690 1.779830 
# 
# From -- ./inp_files/312733.got.cif
#   From: 2010.06.25/outbox.cif.g09.slc.cpg/sg2_157_cif.got.tgz:312733.got - 2010.06.27 13:26:56.
