data_PCOD8029263
_publ_section_title
;
Structure prediction by ZEFSAII (Michael W. Deem and Ramdas Pophale) SiO2 
 PCOD8029263
Probable space group: P -1
;
_chemical_formula_sum "Si O2"
_cell_formula_units_Z 16
_cell_length_a 10.128251
_cell_length_b 16.160860
_cell_length_c 9.689082
_cell_angle_alpha 146.353947
_cell_angle_beta 113.699795
_cell_angle_gamma 64.504956
_cell_volume 790.108930
_symmetry_space_group_name_H-M "P -1"
_symmetry_group_IT_number 2
_symmetry_cell_setting 'triclinic'
loop_
_space_group_symop_operation_xyz
x,y,z
-x,-y,-z
loop_
_atom_site_type_symbol
_atom_site_label
_atom_site_fract_x
_atom_site_fract_y
_atom_site_fract_z
Si Si1 0.023941 0.586986 0.918572
Si Si2 0.519592 0.792964 0.443268
Si Si3 0.251179 0.409431 0.571230
Si Si4 0.694714 0.130570 0.286400
Si Si5 0.476519 0.623102 0.918500
Si Si6 0.485577 0.878015 0.072732
Si Si7 0.200653 0.187893 0.003890
Si Si8 0.202424 0.574624 0.250530
O O1 0.107502 0.514837 0.718017
O O2 0.940448 0.756455 0.075970
O O3 0.905207 0.487325 0.776160
O O4 0.138262 0.597397 0.101649
O O5 0.676599 0.701297 0.430171
O O6 0.405046 0.804538 0.535969
O O7 0.541928 0.959496 0.634389
O O8 0.458715 0.701630 0.169208
O O9 0.367547 0.506134 0.695996
O O10 0.201111 0.315363 0.295750
O O11 0.784316 0.259001 0.456242
O O12 0.591125 0.095978 0.071745
O O13 0.806239 0.975106 0.156674
O O14 0.641956 0.538604 0.843779
O O15 0.425354 0.753449 0.964310
O O16 0.658074 0.824308 0.050020
#
# Coordination Sequence:
#
# PCOD8029263 Si02
#       8
#     2   2   2   2   2   2   2   2
#     4  11  25  41  61  90 130 161 203 249 317 367
#     4  11  20  39  63  95 123 159 199 261 308 352
#     4  12  22  40  66  92 122 162 208 257 305 361
#     4  11  22  41  67  89 124 161 214 252 302 366
#     4  12  23  38  68  95 123 156 216 257 297 360
#     4  11  22  39  64  97 125 157 205 262 308 355
#     4  11  22  41  63  89 126 169 199 250 314 371
#     4  11  23  41  63  92 122 167 204 253 305 367
#
# _framework density 20.250371999999999
#
# number of rings (size 3 to 8) (size 9 to 14) (size 15 to 20)
#    0.000    0.750    6.250    2.625    1.750    1.500 
#    0.000    1.875    0.000    0.000    0.000    0.000 
#    0.000    0.000    0.000    0.000    0.000    0.000 
#
# Total GULP energy -198463.302950 kJ/mol
# GULP energy per Si atom -12403.956434 kJ/mol
# Density = 2.020428 g / cm^3
# Si number density = 20.250372 Si / 1000 Ang^3
#
#
#
# Elastic Constant Matrix: (Units=GPa)
#
#
# Indices 1 2 3 4 5 6 
#
# 1 71.7508 22.1833 8.1251 11.4601 1.3265 -5.8959
# 2 22.1833 116.3418 6.5239 21.8077 1.5939 -5.8890
# 3 8.1251 6.5239 53.6848 15.8320 8.5609 -1.3927
# 4 11.4601 21.8077 15.8320 29.1290 2.0165 -7.1206
# 5 1.3265 1.5939 8.5609 2.0165 20.1804 4.0271
# 6 -5.8959 -5.8890 -1.3927 -7.1206 4.0271 19.1546
#
#
#
# Elastic Compliance Matrix: (Units=1/GPa)
#
#
# Indices 1 2 3 4 5 6 
#
# 1 0.015475 -0.002138 -0.000948 -0.003187 -0.000727 0.003005
# 2 -0.002138 0.010364 0.001401 -0.007676 -0.000481 -0.000122
# 3 -0.000948 0.001401 0.023881 -0.013377 -0.008584 -0.001293
# 4 -0.003187 -0.007676 -0.013377 0.052549 -0.001876 0.015615
# 5 -0.000727 -0.000481 -0.008584 -0.001876 0.056162 -0.013501
# 6 0.003005 -0.000122 -0.001293 0.015615 -0.013501 0.061643
#
#
# Mechanical properties :
#
#
# Convention : Reuss Voigt Hill
#
# Bulk Modulus (GPa) = 21.57518 35.04911 28.31214
# Shear Modulus (GPa) = 20.92982 27.35581 24.14282
#
# Velocity S-wave (km/s) = 3.21838 3.67942 3.45659
# Velocity P-wave (km/s) = 4.94853 5.94948 5.47194
#
# Compressibility (1/GPa) = 0.04634956
#
# Stress axis : x y z
#
# Youngs Moduli (GPa) = 64.62053 96.49106 41.87432
#
# Poissons Ratio (x) = 0.20630 0.03972
# Poissons Ratio (y) = 0.13816 -0.05868
# Poissons Ratio (z) = 0.06129 -0.13522
#
# Static dielectric constant tensor:
#      x y z
#    x 3.494630 -0.071050 0.004470 
#    y -0.071050 3.950020 0.176720 
#    z 0.004470 0.176720 3.752560 
# 
# 
# High freq. dielectric constant tensor:
#      x y z
#    x 1.772180 -0.002220 -0.002220 
#    y -0.002220 1.807900 0.008100 
#    z -0.002220 0.008100 1.796280 
# 
# From -- ./inp_files/205649.got.cif
#   From: 2010.06.25/outbox.cif.g09.slc.cpg/sg2_103_cif.got.tgz:205649.got - 2010.06.27 13:26:56.
