data_PCOD8029030
_publ_section_title
;
Structure prediction by ZEFSAII (Michael W. Deem and Ramdas Pophale) SiO2 
 PCOD8029030
Probable space group: P -1
;
_chemical_formula_sum "Si O2"
_cell_formula_units_Z 16
_cell_length_a 11.351515
_cell_length_b 19.968700
_cell_length_c 17.368353
_cell_angle_alpha 159.628912
_cell_angle_beta 149.091496
_cell_angle_gamma 31.159940
_cell_volume 674.250165
_symmetry_space_group_name_H-M "P -1"
_symmetry_group_IT_number 2
_symmetry_cell_setting 'triclinic'
loop_
_space_group_symop_operation_xyz
x,y,z
-x,-y,-z
loop_
_atom_site_type_symbol
_atom_site_label
_atom_site_fract_x
_atom_site_fract_y
_atom_site_fract_z
Si Si1 0.130201 0.364922 0.137374
Si Si2 0.807102 0.934836 0.025846
Si Si3 0.390179 0.554437 0.106867
Si Si4 0.730027 0.477232 0.821167
Si Si5 0.835813 0.240117 0.484116
Si Si6 0.650615 0.122200 0.764774
Si Si7 0.605629 0.879657 0.112086
Si Si8 0.653055 0.003066 0.433578
O O1 0.232381 0.549586 0.374463
O O2 0.194377 0.276432 0.164013
O O3 0.201618 0.184644 0.918908
O O4 0.849922 0.462911 0.083792
O O5 0.065649 0.959549 0.174729
O O6 0.700870 0.106294 0.216360
O O7 0.642908 0.973484 0.900272
O O8 0.376381 0.552074 0.188770
O O9 0.425996 0.767720 0.332665
O O10 0.589425 0.363867 0.977484
O O11 0.728879 0.287215 0.561307
O O12 0.560175 0.678380 0.904235
O O13 0.000000 0.500000 0.000000
O O14 0.116996 0.122795 0.524400
O O15 0.500000 0.000000 0.500000
O O16 0.566110 0.090145 0.770177
O O17 0.701875 0.990332 0.355282
#
# Coordination Sequence:
#
# PCOD8029030 Si02
#       8
#     2   2   2   2   2   2   2   2
#     4  11  21  41  67  97 136 165 224 271 327 402
#     4  12  27  42  65  98 138 183 210 270 344 391
#     4  12  22  39  72 103 120 179 226 276 326 381
#     4  11  19  39  70  96 135 167 222 278 326 394
#     4  11  21  41  67  98 129 173 218 276 328 382
#     4  12  24  46  68  97 135 172 228 276 318 398
#     4  11  24  44  65 100 141 169 216 281 333 394
#     4  12  23  42  69  99 127 174 229 272 325 384
#
# _framework density 23.730063999999999
#
# number of rings (size 3 to 8) (size 9 to 14) (size 15 to 20)
#    0.000    0.500    8.750    0.375    1.750    6.500 
#    2.250    0.625    0.000    0.000    0.000    0.000 
#    0.000    0.000    0.000    0.000    0.000    0.000 
#
# Total GULP energy -198299.778089 kJ/mol
# GULP energy per Si atom -12393.736131 kJ/mol
# Density = 2.367605 g / cm^3
# Si number density = 23.730064 Si / 1000 Ang^3
#
#
#
# Elastic Constant Matrix: (Units=GPa)
#
#
# Indices 1 2 3 4 5 6 
#
# 1 52.6027 26.6217 0.7611 3.8174 -2.6010 9.6350
# 2 26.6217 97.7355 19.0317 6.9957 -1.6707 23.3338
# 3 0.7611 19.0317 76.3896 21.1622 -17.2088 2.0495
# 4 3.8174 6.9957 21.1622 38.4636 1.9833 -1.3218
# 5 -2.6010 -1.6707 -17.2088 1.9833 30.7815 5.6337
# 6 9.6350 23.3338 2.0495 -1.3218 5.6337 32.1130
#
#
#
# Elastic Compliance Matrix: (Units=1/GPa)
#
#
# Indices 1 2 3 4 5 6 
#
# 1 0.022993 -0.005636 0.003196 -0.003375 0.004357 -0.003911
# 2 -0.005636 0.014501 -0.003078 -0.000696 0.000231 -0.008719
# 3 0.003196 -0.003078 0.019857 -0.011414 0.012423 -0.002639
# 4 -0.003375 -0.000696 -0.011414 0.033431 -0.009837 0.005349
# 5 0.004357 0.000231 0.012423 -0.009837 0.042294 -0.010092
# 6 -0.003911 -0.008719 -0.002639 0.005349 -0.010092 0.040808
#
#
# Mechanical properties :
#
#
# Convention : Reuss Voigt Hill
#
# Bulk Modulus (GPa) = 21.59026 35.50632 28.54829
# Shear Modulus (GPa) = 24.95539 32.29252 28.62395
#
# Velocity S-wave (km/s) = 3.24641 3.69294 3.47685
# Velocity P-wave (km/s) = 4.81355 5.76011 5.30797
#
# Compressibility (1/GPa) = 0.04631718
#
# Stress axis : x y z
#
# Youngs Moduli (GPa) = 43.49147 68.95858 50.35973
#
# Poissons Ratio (x) = 0.38862 -0.16097
# Poissons Ratio (y) = 0.24510 0.15501
# Poissons Ratio (z) = -0.13901 0.21225
#
# Static dielectric constant tensor:
#      x y z
#    x 4.554900 0.223770 -0.163780 
#    y 0.223770 4.360570 0.467570 
#    z -0.163780 0.467570 4.226670 
# 
# 
# High freq. dielectric constant tensor:
#      x y z
#    x 1.945830 0.018580 -0.008710 
#    y 0.018580 1.931770 0.032160 
#    z -0.008710 0.032160 1.925830 
# 
# From -- ./inp_files/570824.got.cif
#   From: 2010.06.25/outbox.cif.g09.slc.cpg/sg2_286_cif.got.tgz:570824.got - 2010.06.27 13:26:56.
