data_PCOD8029713
_publ_section_title
;
Structure prediction by ZEFSAII (Michael W. Deem and Ramdas Pophale) SiO2 
 PCOD8029713
Probable space group: P -1
;
_chemical_formula_sum "Si O2"
_cell_formula_units_Z 16
_cell_length_a 9.010007
_cell_length_b 10.149182
_cell_length_c 14.372361
_cell_angle_alpha 62.952579
_cell_angle_beta 89.585321
_cell_angle_gamma 45.085886
_cell_volume 719.034364
_symmetry_space_group_name_H-M "P -1"
_symmetry_group_IT_number 2
_symmetry_cell_setting 'triclinic'
loop_
_space_group_symop_operation_xyz
x,y,z
-x,-y,-z
loop_
_atom_site_type_symbol
_atom_site_label
_atom_site_fract_x
_atom_site_fract_y
_atom_site_fract_z
Si Si1 0.251089 0.884051 0.543627
Si Si2 0.948042 0.869289 0.185584
Si Si3 0.033325 0.637668 0.919098
Si Si4 0.600587 0.093424 0.651741
Si Si5 0.340184 0.006391 0.683397
Si Si6 0.409154 0.663023 0.285496
Si Si7 0.516045 0.333988 0.914894
Si Si8 0.264773 0.530379 0.128943
O O1 0.283400 0.962714 0.429415
O O2 0.244748 0.996650 0.596281
O O3 0.462627 0.597164 0.640264
O O4 0.000000 0.000000 0.500000
O O5 0.119076 0.864238 0.227849
O O6 0.113939 0.640392 0.189825
O O7 0.853508 0.847745 0.279254
O O8 0.728093 0.104665 0.051285
O O9 0.261053 0.471014 0.903054
O O10 0.797528 0.877110 0.791416
O O11 0.000000 0.500000 0.000000
O O12 0.082111 0.700204 0.989569
O O13 0.497687 0.323703 0.627306
O O14 0.387186 0.142808 0.620357
O O15 0.593759 0.734258 0.801048
O O16 0.458337 0.727810 0.174234
O O17 0.533898 0.498532 0.865409
#
# Coordination Sequence:
#
# PCOD8029713 Si02
#       8
#     2   2   2   2   2   2   2   2
#     4  12  26  50  74  98 134 187 240 290 338 415
#     4  11  22  41  72 101 139 182 233 287 341 413
#     4  12  23  40  67 105 146 185 221 285 352 416
#     4  12  26  44  69 102 146 183 230 285 354 406
#     4  12  25  47  68 103 140 183 224 289 349 411
#     4  11  24  44  70 104 136 178 243 286 339 413
#     4  11  21  38  68 101 138 185 231 283 341 408
#     4  11  22  41  67  99 142 176 234 275 347 405
#
# _framework density 22.252064000000001
#
# number of rings (size 3 to 8) (size 9 to 14) (size 15 to 20)
#    0.000    0.500    5.000    5.625    1.750    1.000 
#    2.250    3.750    0.000    0.000    0.000    0.000 
#    0.000    0.000    0.000    0.000    0.000    0.000 
#
# Total GULP energy -198396.122102 kJ/mol
# GULP energy per Si atom -12399.757631 kJ/mol
# Density = 2.220142 g / cm^3
# Si number density = 22.252064 Si / 1000 Ang^3
#
#
#
# Elastic Constant Matrix: (Units=GPa)
#
#
# Indices 1 2 3 4 5 6 
#
# 1 126.5361 53.9458 30.9585 27.2996 -2.3530 -19.9562
# 2 53.9458 100.2588 23.2087 32.9914 -5.7122 -20.3270
# 3 30.9585 23.2087 94.4554 32.1283 2.8694 -6.7282
# 4 27.2996 32.9914 32.1283 42.3845 -6.8566 -11.0684
# 5 -2.3530 -5.7122 2.8694 -6.8566 38.1713 8.5777
# 6 -19.9562 -20.3270 -6.7282 -11.0684 8.5777 23.6730
#
#
#
# Elastic Compliance Matrix: (Units=1/GPa)
#
#
# Indices 1 2 3 4 5 6 
#
# 1 0.011216 -0.004162 -0.001729 -0.001536 -0.001227 0.005116
# 2 -0.004162 0.016337 0.000990 -0.009156 -0.001084 0.006913
# 3 -0.001729 0.000990 0.014907 -0.011630 -0.003006 -0.000720
# 4 -0.001536 -0.009156 -0.011630 0.042906 0.005889 0.005464
# 5 -0.001227 -0.001084 -0.003006 0.005889 0.029675 -0.010819
# 6 0.005116 0.006913 -0.000720 0.005464 -0.010819 0.058761
#
#
# Mechanical properties :
#
#
# Convention : Reuss Voigt Hill
#
# Bulk Modulus (GPa) = 30.62112 59.71960 45.17036
# Shear Modulus (GPa) = 25.70833 35.05492 30.38162
#
# Velocity S-wave (km/s) = 3.40269 3.97338 3.69906
# Velocity P-wave (km/s) = 5.40635 6.92433 6.21189
#
# Compressibility (1/GPa) = 0.03265720
#
# Stress axis : x y z
#
# Youngs Moduli (GPa) = 89.16101 61.21043 67.08403
#
# Poissons Ratio (x) = 0.25473 0.11600
# Poissons Ratio (y) = 0.37105 -0.06639
# Poissons Ratio (z) = 0.15418 -0.06058
#
# Static dielectric constant tensor:
#      x y z
#    x 4.086590 -0.031210 0.140770 
#    y -0.031210 4.281850 0.346620 
#    z 0.140770 0.346620 4.301000 
# 
# 
# High freq. dielectric constant tensor:
#      x y z
#    x 1.875450 -0.006490 0.008280 
#    y -0.006490 1.872910 0.016700 
#    z 0.008280 0.016700 1.886880 
# 
# From -- ./inp_files/500175.got.cif
#   From: 2010.06.25/outbox.cif.g09.slc.cpg/sg2_251_cif.got.tgz:500175.got - 2010.06.27 13:26:56.
