data_PCOD8029338
_publ_section_title
;
Structure prediction by ZEFSAII (Michael W. Deem and Ramdas Pophale) SiO2 
 PCOD8029338
Probable space group: P -1
;
_chemical_formula_sum "Si O2"
_cell_formula_units_Z 16
_cell_length_a 7.987717
_cell_length_b 15.570867
_cell_length_c 6.668608
_cell_angle_alpha 70.461920
_cell_angle_beta 82.936123
_cell_angle_gamma 69.080979
_cell_volume 730.126613
_symmetry_space_group_name_H-M "P -1"
_symmetry_group_IT_number 2
_symmetry_cell_setting 'triclinic'
loop_
_space_group_symop_operation_xyz
x,y,z
-x,-y,-z
loop_
_atom_site_type_symbol
_atom_site_label
_atom_site_fract_x
_atom_site_fract_y
_atom_site_fract_z
Si Si1 0.344631 0.681234 0.652822
Si Si2 0.144431 0.599425 0.025427
Si Si3 0.196611 0.234656 0.109294
Si Si4 0.144849 0.086066 0.545149
Si Si5 0.416263 0.103097 0.833693
Si Si6 0.562851 0.403202 0.694188
Si Si7 0.251014 0.889838 0.459194
Si Si8 0.675170 0.608760 0.914137
O O1 0.360750 0.684353 0.407337
O O2 0.296968 0.790731 0.657644
O O3 0.192189 0.638166 0.775485
O O4 0.526279 0.607509 0.776540
O O5 0.277383 0.604865 0.174349
O O6 0.153493 0.487926 0.080363
O O7 0.951681 0.675149 0.051339
O O8 0.128819 0.161216 0.306180
O O9 0.329985 0.178944 0.960815
O O10 0.286910 0.291032 0.203239
O O11 0.260967 0.105822 0.693988
O O12 0.942683 0.092880 0.635146
O O13 0.245744 0.977319 0.538208
O O14 0.584040 0.127604 0.702499
O O15 0.500000 0.000000 0.000000
O O16 0.500000 0.500000 0.500000
O O17 0.394190 0.394168 0.846744
#
# Coordination Sequence:
#
# PCOD8029338 Si02
#       8
#     2   2   2   2   2   2   2   2
#     4  11  21  40  68  96 130 177 227 278 336 406
#     4  11  23  41  65  96 134 177 225 280 328 408
#     4  12  26  46  66 101 138 179 229 279 346 404
#     4  11  26  49  72 102 140 180 232 285 345 411
#     4  12  27  47  71 105 143 177 228 291 342 411
#     4  11  20  40  67  95 135 173 226 280 336 402
#     4  11  24  47  75 100 137 188 226 282 352 403
#     4  11  23  40  66  96 132 182 225 274 345 400
#
# _framework density 21.914007000000002
#
# number of rings (size 3 to 8) (size 9 to 14) (size 15 to 20)
#    0.000    0.750    5.000    3.000    3.500    0.500 
#    0.000    0.625    0.000    0.000    0.000    0.000 
#    0.000    0.000    0.000    0.000    0.000    0.000 
#
# Total GULP energy -198307.840766 kJ/mol
# GULP energy per Si atom -12394.240048 kJ/mol
# Density = 2.186413 g / cm^3
# Si number density = 21.914007 Si / 1000 Ang^3
#
#
#
# Elastic Constant Matrix: (Units=GPa)
#
#
# Indices 1 2 3 4 5 6 
#
# 1 108.7607 25.2076 31.5076 17.8460 -6.1234 -9.9124
# 2 25.2076 159.2470 30.0702 14.1196 -3.2793 -10.5467
# 3 31.5076 30.0702 76.5435 10.2652 4.3516 -2.1373
# 4 17.8460 14.1196 10.2652 16.6003 -1.7087 1.0532
# 5 -6.1234 -3.2793 4.3516 -1.7087 24.7203 -4.6209
# 6 -9.9124 -10.5467 -2.1373 1.0532 -4.6209 38.3659
#
#
#
# Elastic Compliance Matrix: (Units=1/GPa)
#
#
# Indices 1 2 3 4 5 6 
#
# 1 0.012693 0.000039 -0.003852 -0.011152 0.003774 0.003836
# 2 0.000039 0.007305 -0.002256 -0.004850 0.001452 0.002200
# 3 -0.003852 -0.002256 0.016369 -0.004469 -0.004657 -0.001142
# 4 -0.011152 -0.004850 -0.004469 0.079699 0.001685 -0.006448
# 5 0.003774 0.001452 -0.004657 0.001685 0.043700 0.006332
# 6 0.003836 0.002200 -0.001142 -0.006448 0.006332 0.028537
#
#
# Mechanical properties :
#
#
# Convention : Reuss Voigt Hill
#
# Bulk Modulus (GPa) = 41.27529 57.56911 49.42220
# Shear Modulus (GPa) = 23.97866 33.12169 28.55018
#
# Velocity S-wave (km/s) = 3.31148 3.89194 3.61339
# Velocity P-wave (km/s) = 5.78768 6.82083 6.32539
#
# Compressibility (1/GPa) = 0.02422757
#
# Stress axis : x y z
#
# Youngs Moduli (GPa) = 78.78116 136.88953 61.09229
#
# Poissons Ratio (x) = -0.00529 0.23533
# Poissons Ratio (y) = -0.00304 0.13785
# Poissons Ratio (z) = 0.30347 0.30888
#
# Static dielectric constant tensor:
#      x y z
#    x 4.083730 -0.081610 -0.124170 
#    y -0.081610 4.297110 0.000320 
#    z -0.124170 0.000320 3.939210 
# 
# 
# High freq. dielectric constant tensor:
#      x y z
#    x 1.865460 -0.004840 -0.003610 
#    y -0.004840 1.889990 -0.006540 
#    z -0.003610 -0.006540 1.841510 
# 
# From -- ./inp_files/37898.got.cif
#   From: 2010.06.25/outbox.cif.g09.slc.cpg/sg2_19_cif.got.tgz:37898.got - 2010.06.27 13:26:56.
