data_PCOD8029639
_publ_section_title
;
Structure prediction by ZEFSAII (Michael W. Deem and Ramdas Pophale) SiO2 
 PCOD8029639
Probable space group: P -1
;
_chemical_formula_sum "Si O2"
_cell_formula_units_Z 16
_cell_length_a 14.802968
_cell_length_b 14.272624
_cell_length_c 8.471571
_cell_angle_alpha 83.889307
_cell_angle_beta 96.937962
_cell_angle_gamma 29.226836
_cell_volume 780.259770
_symmetry_space_group_name_H-M "P -1"
_symmetry_group_IT_number 2
_symmetry_cell_setting 'triclinic'
loop_
_space_group_symop_operation_xyz
x,y,z
-x,-y,-z
loop_
_atom_site_type_symbol
_atom_site_label
_atom_site_fract_x
_atom_site_fract_y
_atom_site_fract_z
Si Si1 0.986868 0.297893 0.081767
Si Si2 0.875743 0.325549 0.599011
Si Si3 0.563784 0.016051 0.317462
Si Si4 0.937623 0.182741 0.322899
Si Si5 0.880974 0.745654 0.190199
Si Si6 0.791636 0.122242 0.297785
Si Si7 0.163316 0.305599 0.294026
Si Si8 0.582929 0.647405 0.749167
O O1 0.042617 0.324304 0.216959
O O2 0.011844 0.172542 0.189076
O O3 0.134693 0.173331 0.982954
O O4 0.752542 0.524547 0.932141
O O5 0.816815 0.360186 0.396325
O O6 0.677870 0.508559 0.639227
O O7 0.986409 0.324298 0.634138
O O8 0.041437 0.091681 0.732505
O O9 0.651621 0.940292 0.171714
O O10 0.733881 0.801694 0.493679
O O11 0.348955 0.158868 0.238803
O O12 0.536881 0.145842 0.363669
O O13 0.790662 0.232950 0.226869
O O14 0.141955 0.948479 0.489863
O O15 0.995987 0.542879 0.209186
O O16 0.564574 0.289313 0.203750
#
# Coordination Sequence:
#
# PCOD8029639 Si02
#       8
#     2   2   2   2   2   2   2   2
#     4  11  23  39  57  89 128 151 190 250 297 341
#     4   9  18  37  63  85 115 154 193 243 289 340
#     4  11  22  39  64  85 112 164 205 231 287 356
#     4   9  20  41  64  87 117 154 196 251 286 346
#     4  11  21  38  63  85 123 159 187 248 298 337
#     4   9  19  40  68  82 116 154 204 237 293 348
#     4  11  23  41  60  87 119 156 205 242 280 350
#     4  11  21  37  63  85 123 155 189 245 298 351
#
# _framework density 20.505991999999999
#
# number of rings (size 3 to 8) (size 9 to 14) (size 15 to 20)
#    0.750    1.000    3.750    2.250    0.000    1.500 
#    0.000    3.750    0.000    0.000    0.000    0.000 
#    0.000    0.000    0.000    0.000    0.000    0.000 
#
# Total GULP energy -198299.771090 kJ/mol
# GULP energy per Si atom -12393.735693 kJ/mol
# Density = 2.045932 g / cm^3
# Si number density = 20.505992 Si / 1000 Ang^3
#
#
#
# Elastic Constant Matrix: (Units=GPa)
#
#
# Indices 1 2 3 4 5 6 
#
# 1 148.4280 41.3323 31.3647 5.3284 -14.2739 -9.7326
# 2 41.3323 105.9287 24.5432 13.3964 -15.9228 -18.3163
# 3 31.3647 24.5432 49.6621 4.7290 -14.0975 -6.5383
# 4 5.3284 13.3964 4.7290 12.4381 -5.6881 -2.5664
# 5 -14.2739 -15.9228 -14.0975 -5.6881 35.0464 -0.3269
# 6 -9.7326 -18.3163 -6.5383 -2.5664 -0.3269 23.5382
#
#
#
# Elastic Compliance Matrix: (Units=1/GPa)
#
#
# Indices 1 2 3 4 5 6 
#
# 1 0.008268 -0.002160 -0.003855 0.000859 0.000982 0.000774
# 2 -0.002160 0.014047 -0.002724 -0.010179 0.002831 0.008210
# 3 -0.003855 -0.002724 0.026729 -0.001263 0.007773 0.003681
# 4 0.000859 -0.010179 -0.001263 0.097087 0.011001 0.002822
# 5 0.000982 0.002831 0.007773 0.011001 0.035192 0.006456
# 6 0.000774 0.008210 0.003681 0.002822 0.006456 0.050613
#
#
# Mechanical properties :
#
#
# Convention : Reuss Voigt Hill
#
# Bulk Modulus (GPa) = 31.68094 55.38881 43.53488
# Shear Modulus (GPa) = 19.23558 27.98977 23.61268
#
# Velocity S-wave (km/s) = 3.06608 3.69854 3.39706
# Velocity P-wave (km/s) = 5.29316 6.73117 6.05501
#
# Compressibility (1/GPa) = 0.03156472
#
# Stress axis : x y z
#
# Youngs Moduli (GPa) = 120.95167 71.19087 37.41309
#
# Poissons Ratio (x) = 0.15377 0.14424
# Poissons Ratio (y) = 0.26125 0.10191
# Poissons Ratio (z) = 0.46631 0.19392
#
# Static dielectric constant tensor:
#      x y z
#    x 3.890530 -0.057240 -0.000160 
#    y -0.057240 3.560310 0.079550 
#    z -0.000160 0.079550 3.422570 
# 
# 
# High freq. dielectric constant tensor:
#      x y z
#    x 1.816140 -0.003810 0.003280 
#    y -0.003810 1.782980 0.007110 
#    z 0.003280 0.007110 1.769200 
# 
# From -- ./inp_files/313386.got.cif
#   From: 2010.06.25/outbox.cif.g09.slc.cpg/sg2_157_cif.got.tgz:313386.got - 2010.06.27 13:26:56.
