data_PCOD8029724
_publ_section_title
;
Structure prediction by ZEFSAII (Michael W. Deem and Ramdas Pophale) SiO2 
 PCOD8029724
Probable space group: P -1
;
_chemical_formula_sum "Si O2"
_cell_formula_units_Z 14
_cell_length_a 10.308263
_cell_length_b 10.397154
_cell_length_c 12.645155
_cell_angle_alpha 141.276935
_cell_angle_beta 49.332167
_cell_angle_gamma 121.823794
_cell_volume 642.543106
_symmetry_space_group_name_H-M "P -1"
_symmetry_group_IT_number 2
_symmetry_cell_setting 'triclinic'
loop_
_space_group_symop_operation_xyz
x,y,z
-x,-y,-z
loop_
_atom_site_type_symbol
_atom_site_label
_atom_site_fract_x
_atom_site_fract_y
_atom_site_fract_z
Si Si1 0.840141 0.269522 0.507261
Si Si2 0.388249 0.085317 0.928837
Si Si3 0.985108 0.555105 0.920060
Si Si4 0.135614 0.066107 0.881561
Si Si5 0.794058 0.649706 0.652338
Si Si6 0.349757 0.653207 0.145351
Si Si7 0.322302 0.598028 0.639411
O O1 0.836967 0.515666 0.647079
O O2 0.708953 0.219819 0.639450
O O3 0.037983 0.230488 0.407341
O O4 0.789620 0.129713 0.343324
O O5 0.287144 0.177789 0.940386
O O6 0.581313 0.170957 0.861038
O O7 0.354864 0.841522 0.790273
O O8 0.332769 0.175533 0.129887
O O9 0.821530 0.442104 0.879544
O O10 0.168382 0.510238 0.740425
O O11 0.950049 0.794771 0.072913
O O12 0.000000 0.500000 0.000000
O O13 0.000000 0.000000 0.000000
O O14 0.717501 0.476711 0.504934
O O15 0.500000 0.500000 0.000000
O O16 0.500000 0.500000 0.500000
#
# Coordination Sequence:
#
# PCOD8029724 Si02
#       7
#     2   2   2   2   2   2   2
#     4  11  21  38  72 105 140 182 244 307 361 428
#     4  12  25  45  75 108 143 185 258 310 357 437
#     4  12  27  49  72 107 158 192 235 317 382 429
#     4  12  21  44  78 108 139 193 255 305 362 439
#     4  11  21  41  73 103 137 188 245 302 360 432
#     4  12  25  44  70 111 149 190 245 308 369 441
#     4  12  28  49  72 103 145 198 250 298 369 453
#
# _framework density 21.788423000000002
#
# number of rings (size 3 to 8) (size 9 to 14) (size 15 to 20)
#    0.000    0.286    8.571    0.000    2.000    2.286 
#    2.571    1.429    0.000    0.000    0.000    0.000 
#    0.000    0.000    0.000    0.000    0.000    0.000 
#
# Total GULP energy -173434.921424 kJ/mol
# GULP energy per Si atom -12388.208673 kJ/mol
# Density = 2.173883 g / cm^3
# Si number density = 21.788423 Si / 1000 Ang^3
#
#
#
# Elastic Constant Matrix: (Units=GPa)
#
#
# Indices 1 2 3 4 5 6 
#
# 1 84.5690 53.8057 44.1816 -9.2804 -4.8780 1.8744
# 2 53.8057 136.4297 77.4747 -21.1955 1.1672 16.0133
# 3 44.1816 77.4747 177.8232 -23.3972 19.5942 5.4793
# 4 -9.2804 -21.1955 -23.3972 39.2624 7.0960 -4.7766
# 5 -4.8780 1.1672 19.5942 7.0960 35.8564 -2.1695
# 6 1.8744 16.0133 5.4793 -4.7766 -2.1695 41.0036
#
#
#
# Elastic Compliance Matrix: (Units=1/GPa)
#
#
# Indices 1 2 3 4 5 6 
#
# 1 0.016739 -0.005699 -0.002310 -0.000998 0.004035 0.001866
# 2 -0.005699 0.012463 -0.003519 0.002829 -0.000048 -0.003809
# 3 -0.002310 -0.003519 0.008876 0.003947 -0.005804 0.000446
# 4 -0.000998 0.002829 0.003947 0.030819 -0.008389 0.001560
# 5 0.004035 -0.000048 -0.005804 -0.008389 0.033356 0.001398
# 6 0.001866 -0.003809 0.000446 0.001560 0.001398 0.025986
#
#
# Mechanical properties :
#
#
# Convention : Reuss Voigt Hill
#
# Bulk Modulus (GPa) = 66.56602 83.30510 74.93556
# Shear Modulus (GPa) = 31.98972 38.11514 35.05243
#
# Velocity S-wave (km/s) = 3.83586 4.18704 4.01529
# Velocity P-wave (km/s) = 7.08773 7.85441 7.48089
#
# Compressibility (1/GPa) = 0.01502268
#
# Stress axis : x y z
#
# Youngs Moduli (GPa) = 59.74163 80.24018 112.66817
#
# Poissons Ratio (x) = 0.45726 0.26022
# Poissons Ratio (y) = 0.34044 0.39647
# Poissons Ratio (z) = 0.13798 0.28236
#
# Static dielectric constant tensor:
#      x y z
#    x 4.048870 0.232270 -0.537210 
#    y 0.232270 4.035050 -0.205210 
#    z -0.537210 -0.205210 3.450160 
# 
# 
# High freq. dielectric constant tensor:
#      x y z
#    x 1.843920 0.022190 0.009050 
#    y 0.022190 1.855930 -0.007700 
#    z 0.009050 -0.007700 1.866970 
# 
# From -- ./inp_files/517970.got.cif
#   From: 2010.06.25/outbox.cif.g09.slc.cpg/sg2_259_cif.got.tgz:517970.got - 2010.06.27 13:26:56.
