data_PCOD8029218
_publ_section_title
;
Structure prediction by ZEFSAII (Michael W. Deem and Ramdas Pophale) SiO2 
 PCOD8029218
Probable space group: P -1
;
_chemical_formula_sum "Si O2"
_cell_formula_units_Z 14
_cell_length_a 20.769962
_cell_length_b 6.876504
_cell_length_c 10.834000
_cell_angle_alpha 119.625156
_cell_angle_beta 139.563617
_cell_angle_gamma 47.774968
_cell_volume 742.719334
_symmetry_space_group_name_H-M "P -1"
_symmetry_group_IT_number 2
_symmetry_cell_setting 'triclinic'
loop_
_space_group_symop_operation_xyz
x,y,z
-x,-y,-z
loop_
_atom_site_type_symbol
_atom_site_label
_atom_site_fract_x
_atom_site_fract_y
_atom_site_fract_z
Si Si1 0.511000 0.906434 0.166766
Si Si2 0.865388 0.604148 0.835852
Si Si3 0.328215 0.368248 0.891883
Si Si4 0.491192 0.252319 0.622957
Si Si5 0.244620 0.689182 0.312136
Si Si6 0.719412 0.201833 0.871234
Si Si7 0.749138 0.823466 0.486081
O O1 0.566508 0.690065 0.068332
O O2 0.483030 0.785676 0.205125
O O3 0.610313 0.977152 0.367849
O O4 0.389253 0.162320 0.028771
O O5 0.848999 0.391452 0.818583
O O6 0.820958 0.619710 0.636316
O O7 0.796728 0.886399 0.892977
O O8 0.000000 0.500000 0.000000
O O9 0.233768 0.326614 0.666605
O O10 0.257999 0.663898 0.935653
O O11 0.363957 0.495809 0.493098
O O12 0.583092 0.303637 0.706499
O O13 0.500000 0.000000 0.500000
O O14 0.255185 0.688335 0.180090
O O15 0.204866 0.977415 0.396784
#
# Coordination Sequence:
#
# PCOD8029218 Si02
#       7
#     2   2   2   2   2   2   2
#     4   9  18  34  55  84 130 158 180 224 283 362
#     4  11  24  43  62  84 109 152 209 249 289 334
#     4   9  19  37  53  88 126 156 190 222 291 360
#     4  12  19  32  56  92 125 154 189 232 290 351
#     4  11  20  38  60  84 117 154 187 243 296 343
#     4  11  23  35  58  90 121 152 192 241 288 350
#     4   9  19  39  58  82 116 154 192 230 284 348
#
# _framework density 18.849651000000001
#
# number of rings (size 3 to 8) (size 9 to 14) (size 15 to 20)
#    0.857    0.857    2.857    3.000    0.000    2.857 
#    2.571    0.714    0.000    1.714    0.000    0.000 
#    0.000    0.000    0.000    0.000    0.000    0.000 
#
# Total GULP energy -173513.363541 kJ/mol
# GULP energy per Si atom -12393.811681 kJ/mol
# Density = 1.880675 g / cm^3
# Si number density = 18.849651 Si / 1000 Ang^3
#
#
#
# Elastic Constant Matrix: (Units=GPa)
#
#
# Indices 1 2 3 4 5 6 
#
# 1 84.6463 42.8296 52.7305 14.1744 4.9761 20.1266
# 2 42.8296 70.2863 40.4004 23.7721 -8.8880 12.7508
# 3 52.7305 40.4004 98.4924 16.0193 -5.3770 0.3417
# 4 14.1744 23.7721 16.0193 29.0457 -3.9515 -2.5327
# 5 4.9761 -8.8880 -5.3770 -3.9515 34.9425 5.2642
# 6 20.1266 12.7508 0.3417 -2.5327 5.2642 32.1411
#
#
#
# Elastic Compliance Matrix: (Units=1/GPa)
#
#
# Indices 1 2 3 4 5 6 
#
# 1 0.025881 -0.007063 -0.010769 -0.002765 -0.005554 -0.012598
# 2 -0.007063 0.030754 -0.005355 -0.018663 0.007463 -0.010414
# 3 -0.010769 -0.005355 0.018077 0.000643 0.001755 0.008439
# 4 -0.002765 -0.018663 0.000643 0.051802 -0.000397 0.013275
# 5 -0.005554 0.007463 0.001755 -0.000397 0.032258 -0.004816
# 6 -0.012598 -0.010414 0.008439 0.013275 -0.004816 0.044878
#
#
# Mechanical properties :
#
#
# Convention : Reuss Voigt Hill
#
# Bulk Modulus (GPa) = 35.28642 58.37179 46.82911
# Shear Modulus (GPa) = 19.27005 27.05683 23.16344
#
# Velocity S-wave (km/s) = 3.20082 3.79278 3.50930
# Velocity P-wave (km/s) = 5.69393 7.08622 6.42788
#
# Compressibility (1/GPa) = 0.02833951
#
# Stress axis : x y z
#
# Youngs Moduli (GPa) = 38.63851 32.51558 55.31903
#
# Poissons Ratio (x) = 0.22965 0.59572
# Poissons Ratio (y) = 0.27289 0.29623
# Poissons Ratio (z) = 0.41609 0.17412
#
# Static dielectric constant tensor:
#      x y z
#    x 3.314070 0.061780 -0.139490 
#    y 0.061780 3.359200 0.217850 
#    z -0.139490 0.217850 3.352020 
# 
# 
# High freq. dielectric constant tensor:
#      x y z
#    x 1.713120 0.014150 -0.022330 
#    y 0.014150 1.723680 0.010020 
#    z -0.022330 0.010020 1.720020 
# 
# From -- ./inp_files/369475.got.cif
#   From: 2010.06.25/outbox.cif.g09.slc.cpg/sg2_185_cif.got.tgz:369475.got - 2010.06.27 13:26:56.
