data_PCOD8029924
_publ_section_title
;
Structure prediction by ZEFSAII (Michael W. Deem and Ramdas Pophale) SiO2 
 PCOD8029924
Probable space group: P -1
;
_chemical_formula_sum "Si O2"
_cell_formula_units_Z 12
_cell_length_a 9.293275
_cell_length_b 14.470386
_cell_length_c 14.498742
_cell_angle_alpha 19.807998
_cell_angle_beta 86.786228
_cell_angle_gamma 78.180212
_cell_volume 589.264492
_symmetry_space_group_name_H-M "P -1"
_symmetry_group_IT_number 2
_symmetry_cell_setting 'triclinic'
loop_
_space_group_symop_operation_xyz
x,y,z
-x,-y,-z
loop_
_atom_site_type_symbol
_atom_site_label
_atom_site_fract_x
_atom_site_fract_y
_atom_site_fract_z
Si Si1 0.607801 0.675055 0.340730
Si Si2 0.017271 0.200985 0.231248
Si Si3 0.180658 0.616036 0.555273
Si Si4 0.161373 0.906588 0.824176
Si Si5 0.287812 0.053464 0.217012
Si Si6 0.649912 0.729290 0.499892
O O1 0.500000 0.500000 0.500000
O O2 0.772495 0.529922 0.410569
O O3 0.660729 0.717366 0.400660
O O4 0.500000 0.000000 0.000000
O O5 0.189650 0.062151 0.304675
O O6 0.878438 0.237325 0.129699
O O7 0.000000 0.000000 0.500000
O O8 0.000000 0.500000 0.000000
O O9 0.300693 0.767598 0.425057
O O10 0.202492 0.369604 0.865924
O O11 0.000510 0.890830 0.302671
O O12 0.237980 0.135383 0.585035
O O13 0.290179 0.620584 0.144629
O O14 0.471528 0.961345 0.323878
#
# Coordination Sequence:
#
# PCOD8029924 Si02
#       6
#     2   2   2   2   2   2
#     4  12  22  38  63  94 128 171 225 245 287 372
#     4  11  23  45  69  91 118 164 213 256 313 402
#     4  11  21  41  62  91 127 178 215 246 295 382
#     4  11  25  40  63  95 131 160 205 268 328 354
#     4  11  22  40  68  91 123 171 212 248 319 378
#     4  12  23  40  62  97 133 164 203 270 311 351
#
# _framework density 20.364370000000001
#
# number of rings (size 3 to 8) (size 9 to 14) (size 15 to 20)
#    0.000    0.667    3.333    7.000    0.000    1.333 
#    0.000    5.000    0.000    0.000    0.000    0.000 
#    0.000    0.000    0.000    0.000    0.000    0.000 
#
# Total GULP energy -148762.823395 kJ/mol
# GULP energy per Si atom -12396.901950 kJ/mol
# Density = 2.031802 g / cm^3
# Si number density = 20.364370 Si / 1000 Ang^3
#
#
#
# Elastic Constant Matrix: (Units=GPa)
#
#
# Indices 1 2 3 4 5 6 
#
# 1 105.3269 43.2639 22.1015 -7.4175 -4.9973 2.2388
# 2 43.2639 118.2060 35.5852 -6.2629 6.2846 -2.4167
# 3 22.1015 35.5852 130.6366 1.1449 -6.3062 -4.1542
# 4 -7.4175 -6.2629 1.1449 31.3024 3.0454 -5.7978
# 5 -4.9973 6.2846 -6.3062 3.0454 42.2369 -8.6344
# 6 2.2388 -2.4167 -4.1542 -5.7978 -8.6344 31.7575
#
#
#
# Elastic Compliance Matrix: (Units=1/GPa)
#
#
# Indices 1 2 3 4 5 6 
#
# 1 0.011503 -0.003968 -0.000817 0.001718 0.001610 -0.000468
# 2 -0.003968 0.010865 -0.002409 0.001640 -0.002479 0.000417
# 3 -0.000817 -0.002409 0.008591 -0.000925 0.001885 0.001342
# 4 0.001718 0.001640 -0.000925 0.033909 -0.001464 0.005675
# 5 0.001610 -0.002479 0.001885 -0.001464 0.026002 0.006747
# 6 -0.000468 0.000417 0.001342 0.005675 0.006747 0.034599
#
#
# Mechanical properties :
#
#
# Convention : Reuss Voigt Hill
#
# Bulk Modulus (GPa) = 60.35139 61.78565 61.06852
# Shear Modulus (GPa) = 34.39236 37.94063 36.16649
#
# Velocity S-wave (km/s) = 4.11402 4.32103 4.21880
# Velocity P-wave (km/s) = 7.22959 7.43647 7.33376
#
# Compressibility (1/GPa) = 0.01656963
#
# Stress axis : x y z
#
# Youngs Moduli (GPa) = 86.93304 92.04223 116.39962
#
# Poissons Ratio (x) = 0.36524 0.09515
# Poissons Ratio (y) = 0.34497 0.28040
# Poissons Ratio (z) = 0.07106 0.22172
#
# Static dielectric constant tensor:
#      x y z
#    x 3.764830 -0.030350 -0.155510 
#    y -0.030350 3.847440 -0.194450 
#    z -0.155510 -0.194450 3.725580 
# 
# 
# High freq. dielectric constant tensor:
#      x y z
#    x 1.804130 -0.005390 -0.014760 
#    y -0.005390 1.792620 -0.011600 
#    z -0.014760 -0.011600 1.810690 
# 
# From -- ./inp_files/43465.got.cif
#   From: 2010.06.25/outbox.cif.g09.slc.cpg/sg2_22_cif.got.tgz:43465.got - 2010.06.27 13:26:56.
