data_PCOD8029505
_publ_section_title
;
Structure prediction by ZEFSAII (Michael W. Deem and Ramdas Pophale) SiO2 
 PCOD8029505
Probable space group: P -1
;
_chemical_formula_sum "Si O2"
_cell_formula_units_Z 12
_cell_length_a 8.365288
_cell_length_b 12.783770
_cell_length_c 6.913557
_cell_angle_alpha 51.262980
_cell_angle_beta 73.764246
_cell_angle_gamma 50.782735
_cell_volume 438.486373
_symmetry_space_group_name_H-M "P -1"
_symmetry_group_IT_number 2
_symmetry_cell_setting 'triclinic'
loop_
_space_group_symop_operation_xyz
x,y,z
-x,-y,-z
loop_
_atom_site_type_symbol
_atom_site_label
_atom_site_fract_x
_atom_site_fract_y
_atom_site_fract_z
Si Si1 0.891672 0.841954 0.005401
Si Si2 0.739755 0.372523 0.129800
Si Si3 0.364604 0.952670 0.504224
Si Si4 0.274165 0.321552 0.529873
Si Si5 0.036942 0.899309 0.322869
Si Si6 0.137838 0.560243 0.616801
O O1 0.778455 0.902593 0.768593
O O2 0.125168 0.672779 0.060413
O O3 0.892083 0.994452 0.922651
O O4 0.747955 0.814852 0.212097
O O5 0.818154 0.197290 0.419112
O O6 0.777564 0.476201 0.151570
O O7 0.500000 0.500000 0.000000
O O8 0.208548 0.960621 0.701973
O O9 0.500000 0.000000 0.500000
O O10 0.522721 0.765175 0.574528
O O11 0.308001 0.418260 0.572525
O O12 0.061137 0.443717 0.331825
O O13 0.068512 0.748420 0.352186
#
# Coordination Sequence:
#
# PCOD8029505 Si02
#       6
#     2   2   2   2   2   2
#     4  11  23  42  68 103 135 172 230 291 330 396
#     4   9  19  43  68  97 135 183 227 269 342 410
#     4  11  20  43  70  96 131 187 227 269 339 411
#     4  11  22  43  68 102 140 173 225 287 339 404
#     4   9  21  45  71  98 131 180 227 277 334 404
#     4   9  22  44  64  98 141 183 216 280 345 404
#
# _framework density 27.366871
#
# number of rings (size 3 to 8) (size 9 to 14) (size 15 to 20)
#    1.000    1.000    1.667    2.500    0.000    1.333 
#   18.000    3.333    0.000    1.000    0.000    0.000 
#    0.000    0.000    0.000    0.000    0.000    0.000 
#
# Total GULP energy -148713.877198 kJ/mol
# GULP energy per Si atom -12392.823100 kJ/mol
# Density = 2.730458 g / cm^3
# Si number density = 27.366871 Si / 1000 Ang^3
#
#
#
# Elastic Constant Matrix: (Units=GPa)
#
#
# Indices 1 2 3 4 5 6 
#
# 1 124.5500 69.4593 25.5762 0.1887 10.7731 20.9085
# 2 69.4593 216.0447 23.8462 23.0720 2.0328 8.9662
# 3 25.5762 23.8462 84.3134 -5.4044 -26.7814 10.5342
# 4 0.1887 23.0720 -5.4044 25.2778 4.8506 6.0631
# 5 10.7731 2.0328 -26.7814 4.8506 41.8375 -4.4978
# 6 20.9085 8.9662 10.5342 6.0631 -4.4978 59.8176
#
#
#
# Elastic Compliance Matrix: (Units=1/GPa)
#
#
# Indices 1 2 3 4 5 6 
#
# 1 0.012113 -0.003746 -0.003844 0.004675 -0.006364 -0.003948
# 2 -0.003746 0.006601 -0.001031 -0.006688 0.000893 0.001247
# 3 -0.003844 -0.001031 0.017330 0.002651 0.011725 -0.000941
# 4 0.004675 -0.006688 0.002651 0.048809 -0.005535 -0.006462
# 5 -0.006364 0.000893 0.011725 -0.005535 0.033982 0.003142
# 6 -0.003948 0.001247 -0.000941 -0.006462 0.003142 0.018968
#
#
# Mechanical properties :
#
#
# Convention : Reuss Voigt Hill
#
# Bulk Modulus (GPa) = 53.18476 73.63015 63.40745
# Shear Modulus (GPa) = 30.99589 45.78833 38.39211
#
# Velocity S-wave (km/s) = 3.36907 4.09483 3.74955
# Velocity P-wave (km/s) = 5.88306 7.02283 6.47806
#
# Compressibility (1/GPa) = 0.01880238
#
# Stress axis : x y z
#
# Youngs Moduli (GPa) = 82.55396 151.49551 57.70359
#
# Poissons Ratio (x) = 0.56746 0.22179
# Poissons Ratio (y) = 0.30923 0.05952
# Poissons Ratio (z) = 0.31731 0.15626
#
# Static dielectric constant tensor:
#      x y z
#    x 5.107430 0.238300 0.333830 
#    y 0.238300 5.510610 0.224030 
#    z 0.333830 0.224030 4.931360 
# 
# 
# High freq. dielectric constant tensor:
#      x y z
#    x 2.118050 0.021920 0.015060 
#    y 0.021920 2.105320 0.001540 
#    z 0.015060 0.001540 2.103560 
# 
# From -- ./inp_files/191858.got.cif
#   From: 2010.06.25/outbox.cif.g09.slc.cpg/sg2_96_cif.got.tgz:191858.got - 2010.06.27 13:26:56.
