data_PCOD8029820
_publ_section_title
;
Structure prediction by ZEFSAII (Michael W. Deem and Ramdas Pophale) SiO2 
 PCOD8029820
Probable space group: P -1
;
_chemical_formula_sum "Si O2"
_cell_formula_units_Z 16
_cell_length_a 11.928216
_cell_length_b 12.442990
_cell_length_c 8.427760
_cell_angle_alpha 117.763880
_cell_angle_beta 112.036019
_cell_angle_gamma 111.318570
_cell_volume 774.112214
_symmetry_space_group_name_H-M "P -1"
_symmetry_group_IT_number 2
_symmetry_cell_setting 'triclinic'
loop_
_space_group_symop_operation_xyz
x,y,z
-x,-y,-z
loop_
_atom_site_type_symbol
_atom_site_label
_atom_site_fract_x
_atom_site_fract_y
_atom_site_fract_z
Si Si1 0.642957 0.497639 0.570069
Si Si2 0.002549 0.873054 0.508721
Si Si3 0.306006 0.420862 0.999427
Si Si4 0.577715 0.740503 0.199807
Si Si5 0.918595 0.800422 0.778449
Si Si6 0.492550 0.141745 0.267107
Si Si7 0.656361 0.010271 0.241080
Si Si8 0.221595 0.056019 0.267854
O O1 0.500000 0.500000 0.500000
O O2 0.779610 0.606697 0.582038
O O3 0.580787 0.322041 0.386161
O O4 0.732617 0.573914 0.836768
O O5 0.163007 0.908429 0.570109
O O6 0.860819 0.689504 0.256664
O O7 0.993495 0.874776 0.695841
O O8 0.000000 0.000000 0.500000
O O9 0.389068 0.343713 0.968517
O O10 0.422934 0.604187 0.126379
O O11 0.738003 0.864909 0.480554
O O12 0.540142 0.839315 0.153871
O O13 0.819658 0.857869 0.811545
O O14 0.059960 0.867273 0.030593
O O15 0.622593 0.123699 0.365922
O O16 0.380426 0.089273 0.323490
O O17 0.377290 0.017299 0.982257
#
# Coordination Sequence:
#
# PCOD8029820 Si02
#       8
#     2   2   2   2   2   2   2   2
#     4  12  24  40  66  94 132 170 212 271 316 382
#     4  12  24  42  65  99 132 165 216 270 322 378
#     4  11  24  37  63 101 128 160 215 269 324 376
#     4  11  22  40  64  96 129 164 212 269 323 378
#     4  11  24  37  66  99 127 166 210 274 323 370
#     4  11  24  45  64  94 130 175 222 248 327 391
#     4  11  25  43  68  90 133 179 208 265 316 394
#     4  11  21  40  63  97 127 162 218 261 319 385
#
# _framework density 20.668838000000001
#
# number of rings (size 3 to 8) (size 9 to 14) (size 15 to 20)
#    0.000    0.750    6.250    0.750    8.750    0.500 
#    0.000    2.500    0.000    0.000    0.000    0.000 
#    0.000    0.000    0.000    0.000    0.000    0.000 
#
# Total GULP energy -198309.621866 kJ/mol
# GULP energy per Si atom -12394.351367 kJ/mol
# Density = 2.062179 g / cm^3
# Si number density = 20.668838 Si / 1000 Ang^3
#
#
#
# Elastic Constant Matrix: (Units=GPa)
#
#
# Indices 1 2 3 4 5 6 
#
# 1 114.4551 48.1506 23.3013 15.5032 8.1890 -13.1668
# 2 48.1506 94.7390 13.7236 19.3661 4.8440 -0.5668
# 3 23.3013 13.7236 83.6254 8.5525 9.3900 -0.7375
# 4 15.5032 19.3661 8.5525 31.9999 5.3004 -2.2183
# 5 8.1890 4.8440 9.3900 5.3004 32.6779 0.4310
# 6 -13.1668 -0.5668 -0.7375 -2.2183 0.4310 35.2263
#
#
#
# Elastic Compliance Matrix: (Units=1/GPa)
#
#
# Indices 1 2 3 4 5 6 
#
# 1 0.012322 -0.005543 -0.002169 -0.001489 -0.001459 0.004395
# 2 -0.005543 0.014676 -0.000275 -0.006337 0.000350 -0.002245
# 3 -0.002169 -0.000275 0.013115 -0.001855 -0.002875 -0.000622
# 4 -0.001489 -0.006337 -0.001855 0.037115 -0.004197 0.001691
# 5 -0.001459 0.000350 -0.002875 -0.004197 0.032439 -0.001261
# 6 0.004395 -0.002245 -0.000622 0.001691 -0.001261 0.030104
#
#
# Mechanical properties :
#
#
# Convention : Reuss Voigt Hill
#
# Bulk Modulus (GPa) = 41.42653 51.46338 46.44495
# Shear Modulus (GPa) = 30.52663 33.82374 32.17518
#
# Velocity S-wave (km/s) = 3.84727 4.04971 3.94978
# Velocity P-wave (km/s) = 6.31045 6.84251 6.58186
#
# Compressibility (1/GPa) = 0.02413912
#
# Stress axis : x y z
#
# Youngs Moduli (GPa) = 81.15302 68.13619 76.25096
#
# Poissons Ratio (x) = 0.37770 0.16538
# Poissons Ratio (y) = 0.44986 0.02097
# Poissons Ratio (z) = 0.17601 0.01874
#
# Static dielectric constant tensor:
#      x y z
#    x 3.678560 0.116880 0.078970 
#    y 0.116880 3.705940 0.046410 
#    z 0.078970 0.046410 3.919830 
# 
# 
# High freq. dielectric constant tensor:
#      x y z
#    x 1.787760 0.021240 0.005780 
#    y 0.021240 1.795230 -0.000190 
#    z 0.005780 -0.000190 1.820590 
# 
# From -- ./inp_files/257440.got.cif
#   From: 2010.06.25/outbox.cif.g09.slc.cpg/sg2_129_cif.got.tgz:257440.got - 2010.06.27 13:26:56.
