data_PCOD8029179
_publ_section_title
;
Structure prediction by ZEFSAII (Michael W. Deem and Ramdas Pophale) SiO2 
 PCOD8029179
Probable space group: P -1
;
_chemical_formula_sum "Si O2"
_cell_formula_units_Z 16
_cell_length_a 9.636106
_cell_length_b 15.291134
_cell_length_c 13.769356
_cell_angle_alpha 44.942302
_cell_angle_beta 66.984779
_cell_angle_gamma 103.556749
_cell_volume 815.201924
_symmetry_space_group_name_H-M "P -1"
_symmetry_group_IT_number 2
_symmetry_cell_setting 'triclinic'
loop_
_space_group_symop_operation_xyz
x,y,z
-x,-y,-z
loop_
_atom_site_type_symbol
_atom_site_label
_atom_site_fract_x
_atom_site_fract_y
_atom_site_fract_z
Si Si1 0.101541 0.703329 0.837006
Si Si2 0.531191 0.966594 0.662741
Si Si3 0.442482 0.095483 0.897867
Si Si4 0.999970 0.723395 0.203705
Si Si5 0.310915 0.716071 0.508496
Si Si6 0.760128 0.591102 0.171849
Si Si7 0.601101 0.421725 0.708872
Si Si8 0.205067 0.609439 0.158467
O O1 0.336288 0.838372 0.732546
O O2 0.195421 0.842978 0.606923
O O3 0.000000 0.500000 0.000000
O O4 0.911889 0.669454 0.969876
O O5 0.507840 0.070521 0.658103
O O6 0.460372 0.802822 0.878504
O O7 0.657881 0.265678 0.630109
O O8 0.439941 0.197067 0.902771
O O9 0.500000 0.000000 0.000000
O O10 0.185604 0.937632 0.035900
O O11 0.134292 0.678025 0.194055
O O12 0.927832 0.727028 0.113600
O O13 0.763365 0.566420 0.459887
O O14 0.384878 0.630222 0.597229
O O15 0.018248 0.553400 0.729893
O O16 0.574139 0.580479 0.211127
O O17 0.760908 0.490395 0.706276
#
# Coordination Sequence:
#
# PCOD8029179 Si02
#       8
#     2   2   2   2   2   2   2   2
#     4  11  21  39  65  93 112 149 196 250 296 351
#     4  11  20  37  67  92 108 146 207 245 286 343
#     4  12  21  34  61  87 113 163 205 233 280 346
#     4  11  21  38  58  86 117 162 201 230 284 353
#     4  11  20  37  61  83 122 149 196 245 284 349
#     4  11  23  41  55  88 122 155 190 248 305 337
#     4  12  24  38  56  85 130 156 192 244 291 343
#     4  11  20  37  60  86 116 159 197 239 282 346
#
# _framework density 19.627040000000001
#
# number of rings (size 3 to 8) (size 9 to 14) (size 15 to 20)
#    0.000    0.750    8.750    1.500    0.000    0.500 
#    2.250    0.625    0.000    3.000    0.000    0.000 
#    0.000    0.000    0.000    0.000    0.000    0.000 
#
# Total GULP energy -198273.391366 kJ/mol
# GULP energy per Si atom -12392.086960 kJ/mol
# Density = 1.958237 g / cm^3
# Si number density = 19.627040 Si / 1000 Ang^3
#
#
#
# Elastic Constant Matrix: (Units=GPa)
#
#
# Indices 1 2 3 4 5 6 
#
# 1 97.9015 36.8358 26.9401 3.6654 -0.8823 -20.8244
# 2 36.8358 85.8935 36.6664 -1.5497 -7.3313 -0.8326
# 3 26.9401 36.6664 107.9863 13.3679 -1.3023 -11.5984
# 4 3.6654 -1.5497 13.3679 44.9706 6.5145 -12.1026
# 5 -0.8823 -7.3313 -1.3023 6.5145 20.6221 -0.2950
# 6 -20.8244 -0.8326 -11.5984 -12.1026 -0.2950 21.6337
#
#
#
# Elastic Compliance Matrix: (Units=1/GPa)
#
#
# Indices 1 2 3 4 5 6 
#
# 1 0.016432 -0.006879 -0.000379 0.003580 -0.002650 0.017316
# 2 -0.006879 0.017052 -0.004885 -0.000575 0.005515 -0.008831
# 3 -0.000379 -0.004885 0.011785 -0.002430 -0.000178 0.004404
# 4 0.003580 -0.000575 -0.002430 0.028839 -0.009055 0.018131
# 5 -0.002650 0.005515 -0.000178 -0.009055 0.053091 -0.006776
# 6 0.017316 -0.008831 0.004404 0.018131 -0.006776 0.074965
#
#
# Mechanical properties :
#
#
# Convention : Reuss Voigt Hill
#
# Bulk Modulus (GPa) = 47.65433 54.74066 51.19749
# Shear Modulus (GPa) = 21.41834 30.20120 25.80977
#
# Velocity S-wave (km/s) = 3.30702 3.92695 3.63024
# Velocity P-wave (km/s) = 6.23815 6.96507 6.61161
#
# Compressibility (1/GPa) = 0.02098445
#
# Stress axis : x y z
#
# Youngs Moduli (GPa) = 60.85591 58.64321 84.85209
#
# Poissons Ratio (x) = 0.40340 0.03216
# Poissons Ratio (y) = 0.41862 0.41447
# Poissons Ratio (z) = 0.02307 0.28645
#
# Static dielectric constant tensor:
#      x y z
#    x 3.193590 0.218110 0.037020 
#    y 0.218110 3.680680 0.036500 
#    z 0.037020 0.036500 4.311000 
# 
# 
# High freq. dielectric constant tensor:
#      x y z
#    x 1.720550 0.025400 0.007430 
#    y 0.025400 1.762030 -0.003800 
#    z 0.007430 -0.003800 1.784910 
# 
# From -- ./inp_files/327964.got.cif
#   From: 2010.06.25/outbox.cif.g09.slc.cpg/sg2_164_cif.got.tgz:327964.got - 2010.06.27 13:26:56.
