data_PCOD8029727
_publ_section_title
;
Structure prediction by ZEFSAII (Michael W. Deem and Ramdas Pophale) SiO2 
 PCOD8029727
Probable space group: P -1
;
_chemical_formula_sum "Si O2"
_cell_formula_units_Z 16
_cell_length_a 8.652003
_cell_length_b 9.315206
_cell_length_c 14.772666
_cell_angle_alpha 64.488494
_cell_angle_beta 88.345968
_cell_angle_gamma 50.458315
_cell_volume 775.440135
_symmetry_space_group_name_H-M "P -1"
_symmetry_group_IT_number 2
_symmetry_cell_setting 'triclinic'
loop_
_space_group_symop_operation_xyz
x,y,z
-x,-y,-z
loop_
_atom_site_type_symbol
_atom_site_label
_atom_site_fract_x
_atom_site_fract_y
_atom_site_fract_z
Si Si1 0.099533 0.133362 0.030639
Si Si2 0.169171 0.509944 0.627185
Si Si3 0.510191 0.858790 0.405935
Si Si4 0.736931 0.310926 0.277481
Si Si5 0.267161 0.676367 0.136103
Si Si6 0.027130 0.372592 0.806151
Si Si7 0.114896 0.215536 0.204289
Si Si8 0.730362 0.987507 0.453344
O O1 0.112120 0.234975 0.090930
O O2 0.240152 0.876432 0.116045
O O3 0.851566 0.259624 0.977134
O O4 0.186129 0.174420 0.931132
O O5 0.293963 0.391583 0.563477
O O6 0.295464 0.546059 0.676783
O O7 0.152548 0.351562 0.723204
O O8 0.931878 0.742357 0.550185
O O9 0.410114 0.858234 0.499539
O O10 0.337961 0.980816 0.295552
O O11 0.589440 0.981225 0.390329
O O12 0.517100 0.457823 0.184831
O O13 0.807552 0.088687 0.372832
O O14 0.922298 0.235819 0.228536
O O15 0.152190 0.631428 0.219336
O O16 0.906059 0.600084 0.798457
#
# Coordination Sequence:
#
# PCOD8029727 Si02
#       8
#     2   2   2   2   2   2   2   2
#     4   9  20  38  64  86 126 159 205 250 307 363
#     4  11  23  42  64  94 125 161 211 249 312 367
#     4  11  24  40  66  88 125 164 207 256 305 365
#     4  11  23  39  63  89 130 161 202 263 302 364
#     4   9  20  39  60  88 120 164 200 252 306 356
#     4   9  19  39  62  86 124 162 196 261 293 367
#     4  11  21  39  59  93 123 160 210 246 304 372
#     4  11  24  45  61  91 128 160 210 258 308 364
#
# _framework density 20.633443
#
# number of rings (size 3 to 8) (size 9 to 14) (size 15 to 20)
#    0.750    1.000    2.500    2.625    1.750    2.000 
#    2.250    6.875    0.000    0.000    0.000    0.000 
#    0.000    0.000    0.000    0.000    0.000    0.000 
#
# Total GULP energy -198332.236537 kJ/mol
# GULP energy per Si atom -12395.764784 kJ/mol
# Density = 2.058648 g / cm^3
# Si number density = 20.633443 Si / 1000 Ang^3
#
#
#
# Elastic Constant Matrix: (Units=GPa)
#
#
# Indices 1 2 3 4 5 6 
#
# 1 68.2057 8.9360 40.5966 -12.1489 -3.0375 -7.7582
# 2 8.9360 81.8950 28.5299 1.9316 0.5062 -13.9767
# 3 40.5966 28.5299 91.6622 -3.0731 -5.2651 -2.9747
# 4 -12.1489 1.9316 -3.0731 21.0571 11.6932 -1.5185
# 5 -3.0375 0.5062 -5.2651 11.6932 40.8477 -1.7739
# 6 -7.7582 -13.9767 -2.9747 -1.5185 -1.7739 19.9219
#
#
#
# Elastic Compliance Matrix: (Units=1/GPa)
#
#
# Indices 1 2 3 4 5 6 
#
# 1 0.024658 0.002659 -0.011098 0.015063 -0.003479 0.010649
# 2 0.002659 0.015848 -0.005755 0.000230 -0.000316 0.011284
# 3 -0.011098 -0.005755 0.017404 -0.005287 0.002746 -0.005919
# 4 0.015063 0.000230 -0.005287 0.066063 -0.018099 0.008662
# 5 -0.003479 -0.000316 0.002746 -0.018099 0.029766 0.000104
# 6 0.010649 0.011284 -0.005919 0.008662 0.000104 0.062045
#
#
# Mechanical properties :
#
#
# Convention : Reuss Voigt Hill
#
# Bulk Modulus (GPa) = 33.87106 44.20976 39.04041
# Shear Modulus (GPa) = 19.68408 27.27870 23.48139
#
# Velocity S-wave (km/s) = 3.09202 3.63996 3.37712
# Velocity P-wave (km/s) = 5.40358 6.25608 5.84539
#
# Compressibility (1/GPa) = 0.02952373
#
# Stress axis : x y z
#
# Youngs Moduli (GPa) = 40.55471 63.10070 57.45706
#
# Poissons Ratio (x) = -0.16780 0.63765
# Poissons Ratio (y) = -0.10785 0.33064
# Poissons Ratio (z) = 0.45007 0.36312
#
# Static dielectric constant tensor:
#      x y z
#    x 3.761140 0.130280 -0.026750 
#    y 0.130280 3.422810 -0.013790 
#    z -0.026750 -0.013790 3.704920 
# 
# 
# High freq. dielectric constant tensor:
#      x y z
#    x 1.808320 0.012680 0.003220 
#    y 0.012680 1.784820 -0.005570 
#    z 0.003220 -0.005570 1.808130 
# 
# From -- ./inp_files/557002.got.cif
#   From: 2010.06.25/outbox.cif.g09.slc.cpg/sg2_279_cif.got.tgz:557002.got - 2010.06.27 13:26:56.
