data_PCOD8029890
_publ_section_title
;
Structure prediction by ZEFSAII (Michael W. Deem and Ramdas Pophale) SiO2 
 PCOD8029890
Probable space group: P -1
;
_chemical_formula_sum "Si O2"
_cell_formula_units_Z 16
_cell_length_a 6.318532
_cell_length_b 16.637503
_cell_length_c 14.536493
_cell_angle_alpha 31.470202
_cell_angle_beta 108.518537
_cell_angle_gamma 98.466068
_cell_volume 732.479289
_symmetry_space_group_name_H-M "P -1"
_symmetry_group_IT_number 2
_symmetry_cell_setting 'triclinic'
loop_
_space_group_symop_operation_xyz
x,y,z
-x,-y,-z
loop_
_atom_site_type_symbol
_atom_site_label
_atom_site_fract_x
_atom_site_fract_y
_atom_site_fract_z
Si Si1 0.637398 0.607728 0.858557
Si Si2 0.370103 0.763363 0.206003
Si Si3 0.313006 0.826151 0.478627
Si Si4 0.119356 0.902928 0.863186
Si Si5 0.964545 0.406303 0.371780
Si Si6 0.251043 0.491702 0.574879
Si Si7 0.590359 0.848959 0.315608
Si Si8 0.931687 0.382503 0.974353
O O1 0.485030 0.780152 0.634344
O O2 0.733687 0.505860 0.880900
O O3 0.500000 0.500000 0.000000
O O4 0.835737 0.657743 0.894557
O O5 0.330396 0.629278 0.399326
O O6 0.578852 0.681762 0.246357
O O7 0.431984 0.894130 0.157251
O O8 0.152159 0.838495 0.036612
O O9 0.146326 0.710359 0.588878
O O10 0.451411 0.796704 0.430963
O O11 0.147378 0.003149 0.280231
O O12 0.305386 0.007573 0.775086
O O13 0.161841 0.770094 0.918440
O O14 0.769440 0.476574 0.350795
O O15 0.210165 0.302717 0.544241
O O16 0.011077 0.549093 0.180756
O O17 0.000000 0.500000 0.500000
#
# Coordination Sequence:
#
# PCOD8029890 Si02
#       8
#     2   2   2   2   2   2   2   2
#     4  11  24  45  78 100 126 168 222 278 343 400
#     4  11  24  40  62 100 134 185 228 272 320 390
#     4  11  24  45  68  97 133 183 212 270 343 400
#     4  11  28  42  64 100 143 176 220 273 332 394
#     4  11  21  40  69  97 132 173 225 278 326 388
#     4  11  22  36  65  98 131 173 233 283 320 371
#     4  11  23  44  64  93 143 183 219 267 328 398
#     4  11  25  44  70 106 129 163 228 285 327 403
#
# _framework density 21.843620999999999
#
# number of rings (size 3 to 8) (size 9 to 14) (size 15 to 20)
#    0.000    1.000    5.000    1.125    3.500    4.000 
#    0.000    1.250    0.000    0.000    0.000    0.000 
#    0.000    0.000    0.000    0.000    0.000    0.000 
#
# Total GULP energy -198291.831843 kJ/mol
# GULP energy per Si atom -12393.239490 kJ/mol
# Density = 2.179390 g / cm^3
# Si number density = 21.843621 Si / 1000 Ang^3
#
#
#
# Elastic Constant Matrix: (Units=GPa)
#
#
# Indices 1 2 3 4 5 6 
#
# 1 86.1536 31.3868 32.5914 -1.8221 -1.9954 -4.0625
# 2 31.3868 121.7805 51.1763 2.4863 6.7027 15.4633
# 3 32.5914 51.1763 123.3302 16.0194 11.9632 -1.7298
# 4 -1.8221 2.4863 16.0194 31.6768 3.4610 -0.4162
# 5 -1.9954 6.7027 11.9632 3.4610 27.2375 8.2696
# 6 -4.0625 15.4633 -1.7298 -0.4162 8.2696 32.6884
#
#
#
# Elastic Compliance Matrix: (Units=1/GPa)
#
#
# Indices 1 2 3 4 5 6 
#
# 1 0.013973 -0.002811 -0.002990 0.002351 0.001991 0.002435
# 2 -0.002811 0.011462 -0.004282 0.000958 0.000595 -0.006137
# 3 -0.002990 -0.004282 0.011869 -0.005275 -0.004745 0.003415
# 4 0.002351 0.000958 -0.005275 0.034557 -0.002316 0.000586
# 5 0.001991 0.000595 -0.004745 -0.002316 0.042448 -0.011053
# 6 0.002435 -0.006137 0.003415 0.000586 -0.011053 0.036782
#
#
# Mechanical properties :
#
#
# Convention : Reuss Voigt Hill
#
# Bulk Modulus (GPa) = 58.35255 62.39705 60.37480
# Shear Modulus (GPa) = 28.25337 32.72785 30.49061
#
# Velocity S-wave (km/s) = 3.60034 3.87496 3.74017
# Velocity P-wave (km/s) = 6.63740 6.97480 6.80819
#
# Compressibility (1/GPa) = 0.01713721
#
# Stress axis : x y z
#
# Youngs Moduli (GPa) = 71.56503 87.24278 84.25646
#
# Poissons Ratio (x) = 0.24528 0.25196
# Poissons Ratio (y) = 0.20120 0.36076
# Poissons Ratio (z) = 0.21401 0.37354
#
# Static dielectric constant tensor:
#      x y z
#    x 4.009870 0.021070 0.206840 
#    y 0.021070 4.215240 -0.040670 
#    z 0.206840 -0.040670 4.021470 
# 
# 
# High freq. dielectric constant tensor:
#      x y z
#    x 1.865930 0.010000 0.004140 
#    y 0.010000 1.853430 0.009920 
#    z 0.004140 0.009920 1.856220 
# 
# From -- ./inp_files/37571.got.cif
#   From: 2010.06.25/outbox.cif.g09.slc.cpg/sg2_19_cif.got.tgz:37571.got - 2010.06.27 13:26:56.
