data_PCOD8029026
_publ_section_title
;
Structure prediction by ZEFSAII (Michael W. Deem and Ramdas Pophale) SiO2 
 PCOD8029026
Probable space group: P -1
;
_chemical_formula_sum "Si O2"
_cell_formula_units_Z 16
_cell_length_a 11.651377
_cell_length_b 11.259110
_cell_length_c 13.352163
_cell_angle_alpha 56.535169
_cell_angle_beta 104.399202
_cell_angle_gamma 57.158527
_cell_volume 766.011610
_symmetry_space_group_name_H-M "P -1"
_symmetry_group_IT_number 2
_symmetry_cell_setting 'triclinic'
loop_
_space_group_symop_operation_xyz
x,y,z
-x,-y,-z
loop_
_atom_site_type_symbol
_atom_site_label
_atom_site_fract_x
_atom_site_fract_y
_atom_site_fract_z
Si Si1 0.973277 0.157067 0.997898
Si Si2 0.362373 0.759624 0.403438
Si Si3 0.199921 0.435681 0.707936
Si Si4 0.508359 0.313588 0.951679
Si Si5 0.350353 0.284117 0.593023
Si Si6 0.303578 0.010093 0.664839
Si Si7 0.892712 0.789590 0.164094
Si Si8 0.526632 0.350135 0.295467
O O1 0.725776 0.432897 0.846729
O O2 0.112599 0.994157 0.204546
O O3 0.062510 0.210595 0.940134
O O4 0.000000 0.000000 0.000000
O O5 0.500000 0.500000 0.500000
O O6 0.458740 0.815501 0.368194
O O7 0.361134 0.737582 0.532188
O O8 0.300574 0.429765 0.819658
O O9 0.355762 0.287331 0.713303
O O10 0.202281 0.272583 0.824186
O O11 0.955565 0.732814 0.489235
O O12 0.440706 0.545558 0.816086
O O13 0.567058 0.220122 0.122208
O O14 0.719308 0.073988 0.040167
O O15 0.115887 0.579914 0.371413
O O16 0.389301 0.084228 0.657877
O O17 0.354001 0.902881 0.614411
#
# Coordination Sequence:
#
# PCOD8029026 Si02
#       8
#     2   2   2   2   2   2   2   2
#     4  12  23  41  67  97 126 165 216 269 319 380
#     4  12  24  42  69  98 126 169 220 268 321 378
#     4  11  23  40  69  98 125 168 219 272 316 376
#     4  12  23  40  70  95 129 168 219 269 317 382
#     4  11  21  42  70  96 131 170 213 272 318 379
#     4  11  26  44  62  96 137 173 211 260 329 382
#     4  11  19  39  67  99 126 159 217 275 317 369
#     4  12  27  44  63  97 136 174 210 264 324 386
#
# _framework density 20.887412000000001
#
# number of rings (size 3 to 8) (size 9 to 14) (size 15 to 20)
#    0.000    0.500    6.250    3.000    1.750    3.000 
#    0.000    0.625    0.000    0.000    0.000    0.000 
#    0.000    0.000    0.000    0.000    0.000    0.000 
#
# Total GULP energy -198499.138047 kJ/mol
# GULP energy per Si atom -12406.196128 kJ/mol
# Density = 2.083987 g / cm^3
# Si number density = 20.887412 Si / 1000 Ang^3
#
#
#
# Elastic Constant Matrix: (Units=GPa)
#
#
# Indices 1 2 3 4 5 6 
#
# 1 74.2902 18.2917 20.8043 5.0202 -11.9265 4.7592
# 2 18.2917 104.6187 24.8286 8.7040 -8.3977 18.6431
# 3 20.8043 24.8286 107.0718 21.8176 -4.2018 7.9928
# 4 5.0202 8.7040 21.8176 30.3283 -1.0578 -1.0049
# 5 -11.9265 -8.3977 -4.2018 -1.0578 34.1336 3.5771
# 6 4.7592 18.6431 7.9928 -1.0049 3.5771 17.5388
#
#
#
# Elastic Compliance Matrix: (Units=1/GPa)
#
#
# Indices 1 2 3 4 5 6 
#
# 1 0.015416 -0.001183 -0.002180 -0.000565 0.005125 -0.003009
# 2 -0.001183 0.013116 -0.000933 -0.003226 0.004088 -0.014215
# 3 -0.002180 -0.000933 0.011999 -0.008127 0.000705 -0.004495
# 4 -0.000565 -0.003226 -0.008127 0.040106 -0.001791 0.009949
# 5 0.005125 0.004088 0.000705 -0.001791 0.033486 -0.012990
# 6 -0.003009 -0.014215 -0.004495 0.009949 -0.012990 0.078210
#
#
# Mechanical properties :
#
#
# Convention : Reuss Voigt Hill
#
# Bulk Modulus (GPa) = 31.30977 45.98110 38.64544
# Shear Modulus (GPa) = 23.63262 31.20388 27.41825
#
# Velocity S-wave (km/s) = 3.36732 3.86930 3.62701
# Velocity P-wave (km/s) = 5.49006 6.48256 6.00685
#
# Compressibility (1/GPa) = 0.03193891
#
# Stress axis : x y z
#
# Youngs Moduli (GPa) = 64.86630 76.24047 83.34235
#
# Poissons Ratio (x) = 0.09022 0.18170
# Poissons Ratio (y) = 0.07676 0.07773
# Poissons Ratio (z) = 0.14142 0.07111
#
# Static dielectric constant tensor:
#      x y z
#    x 3.909110 -0.007510 -0.061780 
#    y -0.007510 3.534450 0.088880 
#    z -0.061780 0.088880 4.011780 
# 
# 
# High freq. dielectric constant tensor:
#      x y z
#    x 1.828380 0.002080 -0.002230 
#    y 0.002080 1.791920 0.006640 
#    z -0.002230 0.006640 1.834640 
# 
# From -- ./inp_files/405758.got.cif
#   From: 2010.06.25/outbox.cif.g09.slc.cpg/sg2_203_cif.got.tgz:405758.got - 2010.06.27 13:26:56.
