data_PCOD8029777
_publ_section_title
;
Structure prediction by ZEFSAII (Michael W. Deem and Ramdas Pophale) SiO2 
 PCOD8029777
Probable space group: P -1
;
_chemical_formula_sum "Si O2"
_cell_formula_units_Z 12
_cell_length_a 4.926632
_cell_length_b 9.287847
_cell_length_c 12.804926
_cell_angle_alpha 81.207770
_cell_angle_beta 80.389468
_cell_angle_gamma 91.981375
_cell_volume 569.826744
_symmetry_space_group_name_H-M "P -1"
_symmetry_group_IT_number 2
_symmetry_cell_setting 'triclinic'
loop_
_space_group_symop_operation_xyz
x,y,z
-x,-y,-z
loop_
_atom_site_type_symbol
_atom_site_label
_atom_site_fract_x
_atom_site_fract_y
_atom_site_fract_z
Si Si1 0.934786 0.875744 0.437158
Si Si2 0.507373 0.162827 0.935134
Si Si3 0.634926 0.517952 0.295651
Si Si4 0.511052 0.824447 0.310543
Si Si5 0.073117 0.402323 0.409816
Si Si6 0.053367 0.363614 0.938162
O O1 0.830391 0.747777 0.535785
O O2 0.194872 0.831335 0.359033
O O3 0.295553 0.073257 0.636240
O O4 0.000000 0.000000 0.500000
O O5 0.458027 0.138530 0.817451
O O6 0.782176 0.266177 0.929408
O O7 0.253249 0.248043 0.990465
O O8 0.500000 0.000000 0.000000
O O9 0.626090 0.666555 0.347250
O O10 0.316026 0.463455 0.309953
O O11 0.799430 0.394205 0.356733
O O12 0.774727 0.557057 0.173503
O O13 0.000000 0.500000 0.500000
O O14 0.000000 0.500000 0.000000
#
# Coordination Sequence:
#
# PCOD8029777 Si02
#       6
#     2   2   2   2   2   2
#     4  12  25  40  59  93 134 166 208 268 329 369
#     4  11  24  45  73  97 129 181 230 266 330 415
#     4  11  21  39  67  94 120 170 217 256 320 386
#     4  11  21  42  66  87 128 172 214 259 322 393
#     4  12  21  38  65  92 122 163 222 259 300 401
#     4  11  24  45  70 100 139 167 216 293 342 377
#
# _framework density 21.059032999999999
#
# number of rings (size 3 to 8) (size 9 to 14) (size 15 to 20)
#    0.000    0.667    3.333    7.000    0.000    0.000 
#    9.000    0.000    0.000    0.000    0.000    0.000 
#    0.000    0.000    0.000    0.000    0.000    0.000 
#
# Total GULP energy -148682.784327 kJ/mol
# GULP energy per Si atom -12390.232027 kJ/mol
# Density = 2.101110 g / cm^3
# Si number density = 21.059033 Si / 1000 Ang^3
#
#
#
# Elastic Constant Matrix: (Units=GPa)
#
#
# Indices 1 2 3 4 5 6 
#
# 1 138.4819 44.4115 47.5880 -8.7143 -3.1458 -4.0751
# 2 44.4115 118.3796 62.5666 -8.3156 5.6953 2.0128
# 3 47.5880 62.5666 95.0773 -6.4897 -10.0844 4.5271
# 4 -8.7143 -8.3156 -6.4897 25.9362 -4.6615 3.2727
# 5 -3.1458 5.6953 -10.0844 -4.6615 37.6608 0.9789
# 6 -4.0751 2.0128 4.5271 3.2727 0.9789 36.2239
#
#
#
# Elastic Compliance Matrix: (Units=1/GPa)
#
#
# Indices 1 2 3 4 5 6 
#
# 1 0.009036 -0.001465 -0.003498 0.001551 0.000196 0.001390
# 2 -0.001465 0.013971 -0.008885 0.000928 -0.004505 0.000207
# 3 -0.003498 -0.008885 0.019087 0.002259 0.006511 -0.002665
# 4 0.001551 0.000928 0.002259 0.041502 0.005837 -0.004067
# 5 0.000196 -0.004505 0.006511 0.005837 0.029765 -0.001873
# 6 0.001390 0.000207 -0.002665 -0.004067 -0.001873 0.028502
#
#
# Mechanical properties :
#
#
# Convention : Reuss Voigt Hill
#
# Bulk Modulus (GPa) = 69.45400 73.45234 71.45317
# Shear Modulus (GPa) = 28.67633 33.12236 30.89934
#
# Velocity S-wave (km/s) = 3.69414 3.97020 3.83466
# Velocity P-wave (km/s) = 7.15876 7.48142 7.32186
#
# Compressibility (1/GPa) = 0.01439802
#
# Stress axis : x y z
#
# Youngs Moduli (GPa) = 110.66742 71.57437 52.39123
#
# Poissons Ratio (x) = 0.10488 0.18327
# Poissons Ratio (y) = 0.16216 0.46550
# Poissons Ratio (z) = 0.38712 0.63594
#
# Static dielectric constant tensor:
#      x y z
#    x 4.308090 -0.456000 -0.066100 
#    y -0.456000 3.932110 0.118050 
#    z -0.066100 0.118050 3.738130 
# 
# 
# High freq. dielectric constant tensor:
#      x y z
#    x 1.844590 -0.013870 -0.007810 
#    y -0.013870 1.816090 -0.001620 
#    z -0.007810 -0.001620 1.823190 
# 
# From -- ./inp_files/479033.got.cif
#   From: 2010.06.25/outbox.cif.g09.slc.cpg/sg2_240_cif.got.tgz:479033.got - 2010.06.27 13:26:56.
