data_PCOD8029495
_publ_section_title
;
Structure prediction by ZEFSAII (Michael W. Deem and Ramdas Pophale) SiO2 
 PCOD8029495
Probable space group: P -1
;
_chemical_formula_sum "Si O2"
_cell_formula_units_Z 14
_cell_length_a 5.240754
_cell_length_b 13.539481
_cell_length_c 14.506785
_cell_angle_alpha 137.344473
_cell_angle_beta 83.429406
_cell_angle_gamma 111.918058
_cell_volume 625.729858
_symmetry_space_group_name_H-M "P -1"
_symmetry_group_IT_number 2
_symmetry_cell_setting 'triclinic'
loop_
_space_group_symop_operation_xyz
x,y,z
-x,-y,-z
loop_
_atom_site_type_symbol
_atom_site_label
_atom_site_fract_x
_atom_site_fract_y
_atom_site_fract_z
Si Si1 0.847910 0.455482 0.618185
Si Si2 0.680442 0.563373 0.285232
Si Si3 0.223238 0.829202 0.671342
Si Si4 0.911483 0.844599 0.330349
Si Si5 0.196651 0.249149 0.122439
Si Si6 0.513708 0.962039 0.365386
Si Si7 0.224586 0.058257 0.156165
O O1 0.512491 0.369133 0.602156
O O2 0.870538 0.365359 0.460956
O O3 0.934215 0.648834 0.738590
O O4 0.048461 0.429007 0.666766
O O5 0.792091 0.672205 0.265801
O O6 0.468108 0.375962 0.140667
O O7 0.482726 0.917393 0.791145
O O8 0.957435 0.867747 0.729278
O O9 0.320866 0.882173 0.597899
O O10 0.674299 0.845793 0.270114
O O11 0.191407 0.865907 0.275980
O O12 0.000000 0.000000 0.500000
O O13 0.301341 0.144969 0.113077
O O14 0.959943 0.133220 0.981912
O O15 0.500000 0.000000 0.500000
#
# Coordination Sequence:
#
# PCOD8029495 Si02
#       7
#     2   2   2   2   2   2   2
#     4  10  21  37  63  91 128 157 207 261 314 361
#     4  10  20  36  63  95 121 160 216 251 304 377
#     4  12  24  40  65 100 127 158 214 277 306 358
#     4  10  17  30  57  86 118 153 198 251 300 371
#     4   9  26  43  67  87 129 180 210 242 318 392
#     4  10  20  34  58  89 123 159 198 252 317 377
#     4  11  26  43  65  90 131 172 213 251 315 381
#
# _framework density 22.373875000000002
#
# number of rings (size 3 to 8) (size 9 to 14) (size 15 to 20)
#    0.857    0.857    0.000    6.000    4.000    2.286 
#    0.000    0.000    0.000    5.143    0.000    0.000 
#    0.000    0.000    0.000    0.000    0.000    0.000 
#
# Total GULP energy -173435.699500 kJ/mol
# GULP energy per Si atom -12388.264250 kJ/mol
# Density = 2.232295 g / cm^3
# Si number density = 22.373875 Si / 1000 Ang^3
#
#
#
# Elastic Constant Matrix: (Units=GPa)
#
#
# Indices 1 2 3 4 5 6 
#
# 1 125.1602 -2.5352 -7.6226 7.7165 1.5985 -13.8585
# 2 -2.5352 53.0278 17.0851 28.6187 12.1096 -3.4112
# 3 -7.6226 17.0851 75.7532 18.7582 1.2637 2.2920
# 4 7.7165 28.6187 18.7582 28.4301 2.9334 7.1466
# 5 1.5985 12.1096 1.2637 2.9334 23.0360 -6.0080
# 6 -13.8585 -3.4112 2.2920 7.1466 -6.0080 34.0527
#
#
#
# Elastic Compliance Matrix: (Units=1/GPa)
#
#
# Indices 1 2 3 4 5 6 
#
# 1 0.010061 0.008299 0.002528 -0.014510 -0.001381 0.007557
# 2 0.008299 0.061202 0.003989 -0.069731 -0.018723 0.020571
# 3 0.002528 0.003989 0.016542 -0.016556 -0.000087 0.003774
# 4 -0.014510 -0.069731 -0.016556 0.128062 0.012771 -0.036399
# 5 -0.001381 -0.018723 -0.000087 0.012771 0.052824 0.004208
# 6 0.007557 0.020571 0.003774 -0.036399 0.004208 0.042630
#
#
# Mechanical properties :
#
#
# Convention : Reuss Voigt Hill
#
# Bulk Modulus (GPa) = 8.51530 29.75510 19.13520
# Shear Modulus (GPa) = 15.58432 33.57136 24.57784
#
# Velocity S-wave (km/s) = 2.64207 3.87779 3.31797
# Velocity P-wave (km/s) = 3.62237 5.77734 4.82178
#
# Compressibility (1/GPa) = 0.11743574
#
# Stress axis : x y z
#
# Youngs Moduli (GPa) = 99.39590 16.33937 60.45085
#
# Poissons Ratio (x) = -0.13559 -0.15282
# Poissons Ratio (y) = -0.82485 -0.24112
# Poissons Ratio (z) = -0.25127 -0.06517
#
# Static dielectric constant tensor:
#      x y z
#    x 5.891700 -0.063170 0.097760 
#    y -0.063170 3.901940 0.277270 
#    z 0.097760 0.277270 3.766690 
# 
# 
# High freq. dielectric constant tensor:
#      x y z
#    x 1.908200 -0.004480 0.002930 
#    y -0.004480 1.873410 0.026470 
#    z 0.002930 0.026470 1.836420 
# 
# From -- ./inp_files/288878.got.cif
#   From: 2010.06.25/outbox.cif.g09.slc.cpg/sg2_145_cif.got.tgz:288878.got - 2010.06.27 13:26:56.
