data_PCOD8029446
_publ_section_title
;
Structure prediction by ZEFSAII (Michael W. Deem and Ramdas Pophale) SiO2 
 PCOD8029446
Probable space group: P -1
;
_chemical_formula_sum "Si O2"
_cell_formula_units_Z 16
_cell_length_a 17.451199
_cell_length_b 14.508785
_cell_length_c 22.866992
_cell_angle_alpha 160.100147
_cell_angle_beta 156.925474
_cell_angle_gamma 32.585075
_cell_volume 761.347362
_symmetry_space_group_name_H-M "P -1"
_symmetry_group_IT_number 2
_symmetry_cell_setting 'triclinic'
loop_
_space_group_symop_operation_xyz
x,y,z
-x,-y,-z
loop_
_atom_site_type_symbol
_atom_site_label
_atom_site_fract_x
_atom_site_fract_y
_atom_site_fract_z
Si Si1 0.179353 0.873456 0.675863
Si Si2 0.692789 0.894767 0.972600
Si Si3 0.395654 0.238769 0.546103
Si Si4 0.417672 0.408729 0.533263
Si Si5 0.374841 0.221970 0.923164
Si Si6 0.962529 0.219364 0.270108
Si Si7 0.254600 0.312247 0.769330
Si Si8 0.349374 0.849102 0.090844
O O1 0.256488 0.610290 0.545624
O O2 0.943415 0.818280 0.481594
O O3 0.272784 0.927384 0.837592
O O4 0.242221 0.140800 0.839054
O O5 0.885185 0.960886 0.105249
O O6 0.625010 0.573548 0.749763
O O7 0.509914 0.990474 0.866662
O O8 0.460018 0.289489 0.554612
O O9 0.158753 0.159787 0.340057
O O10 0.500000 0.000000 0.500000
O O11 0.470925 0.501050 0.794773
O O12 0.329564 0.157034 0.279316
O O13 0.230422 0.257921 0.789276
O O14 0.000000 0.500000 0.500000
O O15 0.799081 0.249029 0.124580
O O16 0.426312 0.158475 0.774575
O O17 0.297819 0.639055 0.983333
#
# Coordination Sequence:
#
# PCOD8029446 Si02
#       8
#     2   2   2   2   2   2   2   2
#     4  11  22  41  71  94 129 175 220 265 325 390
#     4  11  21  43  72  92 128 180 224 261 319 398
#     4  12  24  40  65  97 133 167 217 276 324 381
#     4  11  23  43  65  95 133 174 216 271 326 385
#     4  11  20  42  65  95 127 173 221 263 322 394
#     4  12  23  44  70  95 125 180 225 257 324 401
#     4  11  23  41  64  97 131 170 215 271 327 384
#     4  11  25  42  65  94 137 169 215 271 328 387
#
# _framework density 21.015376
#
# number of rings (size 3 to 8) (size 9 to 14) (size 15 to 20)
#    0.000    0.750    5.000    3.375    0.000    6.500 
#    2.250    1.250    0.000    0.000    0.000    0.000 
#    0.000    0.000    0.000    0.000    0.000    0.000 
#
# Total GULP energy -198435.458219 kJ/mol
# GULP energy per Si atom -12402.216139 kJ/mol
# Density = 2.096754 g / cm^3
# Si number density = 21.015376 Si / 1000 Ang^3
#
#
#
# Elastic Constant Matrix: (Units=GPa)
#
#
# Indices 1 2 3 4 5 6 
#
# 1 90.2288 44.0155 38.9153 12.4484 14.5124 26.8372
# 2 44.0155 101.1707 54.3998 1.3186 8.1098 13.9779
# 3 38.9153 54.3998 107.7901 2.3432 5.9989 1.8902
# 4 12.4484 1.3186 2.3432 29.5302 1.0724 2.4867
# 5 14.5124 8.1098 5.9989 1.0724 47.6908 1.1487
# 6 26.8372 13.9779 1.8902 2.4867 1.1487 34.1711
#
#
#
# Elastic Compliance Matrix: (Units=1/GPa)
#
#
# Indices 1 2 3 4 5 6 
#
# 1 0.021033 -0.004173 -0.004837 -0.006960 -0.004591 -0.013884
# 2 -0.004173 0.015478 -0.006265 0.001822 -0.000547 -0.002822
# 3 -0.004837 -0.006265 0.014039 0.000718 0.000623 0.005512
# 4 -0.006960 0.001822 0.000718 0.036460 0.000850 0.001999
# 5 -0.004591 -0.000547 0.000623 0.000850 0.022289 0.002984
# 6 -0.013884 -0.002822 0.005512 0.001999 0.002984 0.040772
#
#
# Mechanical properties :
#
#
# Convention : Reuss Voigt Hill
#
# Bulk Modulus (GPa) = 49.99967 63.76121 56.88044
# Shear Modulus (GPa) = 26.69690 33.06903 29.88296
#
# Velocity S-wave (km/s) = 3.56806 3.97112 3.77498
# Velocity P-wave (km/s) = 6.38893 7.17165 6.79157
#
# Compressibility (1/GPa) = 0.02000013
#
# Stress axis : x y z
#
# Youngs Moduli (GPa) = 47.54437 64.60662 71.23244
#
# Poissons Ratio (x) = 0.26958 0.34457
# Poissons Ratio (y) = 0.19839 0.44626
# Poissons Ratio (z) = 0.22999 0.40475
#
# Static dielectric constant tensor:
#      x y z
#    x 4.161240 0.462120 0.603450 
#    y 0.462120 3.799410 0.216590 
#    z 0.603450 0.216590 4.255510 
# 
# 
# High freq. dielectric constant tensor:
#      x y z
#    x 1.826410 0.024800 0.016160 
#    y 0.024800 1.810150 -0.002150 
#    z 0.016160 -0.002150 1.829420 
# 
# From -- ./inp_files/176625.got.cif
#   From: 2010.06.25/outbox.cif.g09.slc.cpg/sg2_89_cif.got.tgz:176625.got - 2010.06.27 13:26:56.
