data_PCOD8029707
_publ_section_title
;
Structure prediction by ZEFSAII (Michael W. Deem and Ramdas Pophale) SiO2 
 PCOD8029707
Probable space group: P -1
;
_chemical_formula_sum "Si O2"
_cell_formula_units_Z 14
_cell_length_a 21.604234
_cell_length_b 8.568705
_cell_length_c 11.853494
_cell_angle_alpha 125.579974
_cell_angle_beta 148.599166
_cell_angle_gamma 33.953055
_cell_volume 575.400097
_symmetry_space_group_name_H-M "P -1"
_symmetry_group_IT_number 2
_symmetry_cell_setting 'triclinic'
loop_
_space_group_symop_operation_xyz
x,y,z
-x,-y,-z
loop_
_atom_site_type_symbol
_atom_site_label
_atom_site_fract_x
_atom_site_fract_y
_atom_site_fract_z
Si Si1 0.606711 0.635520 0.063653
Si Si2 0.529739 0.843468 0.278518
Si Si3 0.211929 0.991553 0.887319
Si Si4 0.164094 0.903197 0.147852
Si Si5 0.070696 0.783873 0.284972
Si Si6 0.525274 0.233316 0.327556
Si Si7 0.996530 0.290875 0.458229
O O1 0.504516 0.797633 0.091987
O O2 0.651925 0.353691 0.008235
O O3 0.795317 0.527471 0.308933
O O4 0.477799 0.846572 0.839652
O O5 0.702157 0.536144 0.491113
O O6 0.549427 0.045595 0.384767
O O7 0.333710 0.031343 0.117862
O O8 0.168293 0.043439 0.708866
O O9 0.010893 0.225372 0.737208
O O10 0.320810 0.588038 0.185478
O O11 0.284844 0.876788 0.412940
O O12 0.000000 0.000000 0.000000
O O13 0.035239 0.180889 0.971932
O O14 0.023422 0.074347 0.324649
O O15 0.000000 0.500000 0.500000
#
# Coordination Sequence:
#
# PCOD8029707 Si02
#       7
#     2   2   2   2   2   2   2
#     4  11  21  44  66 104 143 175 219 284 345 415
#     4  12  25  40  72 108 136 177 221 282 358 406
#     4  11  22  40  65 102 145 177 218 276 350 404
#     4  11  27  48  75  92 131 193 234 280 340 395
#     4  11  24  46  66  98 140 179 232 286 336 404
#     4  11  26  47  68 103 139 173 238 287 326 416
#     4  11  21  38  67 101 142 184 219 275 341 411
#
# _framework density 24.330895000000002
#
# number of rings (size 3 to 8) (size 9 to 14) (size 15 to 20)
#    0.000    0.857    5.714    2.571    2.000    2.857 
#    0.000    1.429    0.000    0.000    0.000    0.000 
#    0.000    0.000    0.000    0.000    0.000    0.000 
#
# Total GULP energy -173468.713740 kJ/mol
# GULP energy per Si atom -12390.622410 kJ/mol
# Density = 2.427552 g / cm^3
# Si number density = 24.330895 Si / 1000 Ang^3
#
#
#
# Elastic Constant Matrix: (Units=GPa)
#
#
# Indices 1 2 3 4 5 6 
#
# 1 85.6318 16.0405 55.3874 -4.1109 8.6037 23.5881
# 2 16.0405 32.6611 27.1334 -5.4505 4.7737 20.7044
# 3 55.3874 27.1334 173.0831 -13.7319 11.8444 6.0029
# 4 -4.1109 -5.4505 -13.7319 15.2169 9.7877 -5.3498
# 5 8.6037 4.7737 11.8444 9.7877 52.1872 2.5606
# 6 23.5881 20.7044 6.0029 -5.3498 2.5606 37.4765
#
#
#
# Elastic Compliance Matrix: (Units=1/GPa)
#
#
# Indices 1 2 3 4 5 6 
#
# 1 0.018638 0.004224 -0.006391 -0.003523 -0.000686 -0.013497
# 2 0.004224 0.057271 -0.008617 0.004744 -0.003298 -0.032016
# 3 -0.006391 -0.008617 0.009713 0.008508 -0.002381 0.008605
# 4 -0.003523 0.004744 0.008508 0.091094 -0.019486 0.012569
# 5 -0.000686 -0.003298 -0.002381 -0.019486 0.023858 -0.001777
# 6 -0.013497 -0.032016 0.008605 0.012569 -0.001777 0.053404
#
#
# Mechanical properties :
#
#
# Convention : Reuss Voigt Hill
#
# Bulk Modulus (GPa) = 15.61195 54.27761 34.94478
# Shear Modulus (GPa) = 16.84080 33.83045 25.33562
#
# Velocity S-wave (km/s) = 2.63374 3.73289 3.23041
# Velocity P-wave (km/s) = 3.95970 6.39811 5.32048
#
# Compressibility (1/GPa) = 0.06405348
#
# Stress axis : x y z
#
# Youngs Moduli (GPa) = 53.65389 17.46086 102.95366
#
# Poissons Ratio (x) = -0.07375 0.65797
# Poissons Ratio (y) = -0.22663 0.88719
# Poissons Ratio (z) = 0.34290 0.15047
#
# Static dielectric constant tensor:
#      x y z
#    x 4.570380 0.165480 -0.022720 
#    y 0.165480 4.073850 -0.040290 
#    z -0.022720 -0.040290 4.561310 
# 
# 
# High freq. dielectric constant tensor:
#      x y z
#    x 1.969530 0.017790 0.005710 
#    y 0.017790 1.933930 -0.015580 
#    z 0.005710 -0.015580 1.986690 
# 
# From -- ./inp_files/188268.got.cif
#   From: 2010.06.25/outbox.cif.g09.slc.cpg/sg2_95_cif.got.tgz:188268.got - 2010.06.27 13:26:56.
