data_PCOD8029215
_publ_section_title
;
Structure prediction by ZEFSAII (Michael W. Deem and Ramdas Pophale) SiO2 
 PCOD8029215
Probable space group: P -1
;
_chemical_formula_sum "Si O2"
_cell_formula_units_Z 16
_cell_length_a 14.107148
_cell_length_b 9.682692
_cell_length_c 9.242131
_cell_angle_alpha 133.137212
_cell_angle_beta 114.824270
_cell_angle_gamma 87.077916
_cell_volume 781.173199
_symmetry_space_group_name_H-M "P -1"
_symmetry_group_IT_number 2
_symmetry_cell_setting 'triclinic'
loop_
_space_group_symop_operation_xyz
x,y,z
-x,-y,-z
loop_
_atom_site_type_symbol
_atom_site_label
_atom_site_fract_x
_atom_site_fract_y
_atom_site_fract_z
Si Si1 0.234398 0.045869 0.692135
Si Si2 0.813736 0.393202 0.675146
Si Si3 0.984418 0.550011 0.361868
Si Si4 0.958467 0.972956 0.650430
Si Si5 0.800613 0.788442 0.926904
Si Si6 0.631737 0.591717 0.153008
Si Si7 0.237541 0.679816 0.080661
Si Si8 0.245044 0.104083 0.334623
O O1 0.105403 0.994557 0.514092
O O2 0.262042 0.152041 0.939762
O O3 0.322699 0.194213 0.747071
O O4 0.257867 0.837946 0.577107
O O5 0.820256 0.399666 0.858659
O O6 0.929659 0.475341 0.719554
O O7 0.750652 0.545348 0.697188
O O8 0.990796 0.777609 0.511115
O O9 0.000000 0.500000 0.500000
O O10 0.863174 0.386607 0.142346
O O11 0.876215 0.946480 0.711983
O O12 0.070149 0.156579 0.899496
O O13 0.775069 0.898969 0.851361
O O14 0.674528 0.669799 0.399139
O O15 0.500000 0.500000 0.000000
O O16 0.676117 0.427023 0.991297
O O17 0.292866 0.925615 0.281499
#
# Coordination Sequence:
#
# PCOD8029215 Si02
#       8
#     2   2   2   2   2   2   2   2
#     4  11  23  40  60  93 126 162 224 265 313 383
#     4  12  24  37  64  94 133 177 212 248 314 389
#     4  12  23  35  60  98 140 179 205 247 317 385
#     4  11  20  38  57  88 140 177 207 249 304 386
#     4  12  23  37  63  94 136 174 201 262 319 381
#     4  11  25  48  71  91 122 165 223 287 326 374
#     4  12  23  42  66  94 129 172 220 260 316 389
#     4  11  24  42  63  96 131 165 219 265 324 382
#
# _framework density 20.482012999999998
#
# number of rings (size 3 to 8) (size 9 to 14) (size 15 to 20)
#    0.000    0.500    7.500    3.375    1.750    0.500 
#    0.000    0.625    0.000    1.500    0.000    0.000 
#    0.000    0.000    0.000    0.000    0.000    0.000 
#
# Total GULP energy -198262.090078 kJ/mol
# GULP energy per Si atom -12391.380630 kJ/mol
# Density = 2.043540 g / cm^3
# Si number density = 20.482013 Si / 1000 Ang^3
#
#
#
# Elastic Constant Matrix: (Units=GPa)
#
#
# Indices 1 2 3 4 5 6 
#
# 1 88.1851 31.8489 57.9491 -1.9211 -11.5459 0.8385
# 2 31.8489 110.7799 48.6237 2.2188 -14.5228 4.6891
# 3 57.9491 48.6237 93.1934 12.3756 -22.0113 -6.3369
# 4 -1.9211 2.2188 12.3756 41.6175 0.1179 -12.3783
# 5 -11.5459 -14.5228 -22.0113 0.1179 32.0795 5.3133
# 6 0.8385 4.6891 -6.3369 -12.3783 5.3133 10.1886
#
#
#
# Elastic Compliance Matrix: (Units=1/GPa)
#
#
# Indices 1 2 3 4 5 6 
#
# 1 0.020361 0.000284 -0.013917 0.003338 -0.001142 -0.005812
# 2 0.000284 0.013284 -0.006741 -0.003840 0.004366 -0.017272
# 3 -0.013917 -0.006741 0.026222 -0.005130 0.008294 0.009999
# 4 0.003338 -0.003840 -0.005130 0.043201 -0.013821 0.057995
# 5 -0.001142 0.004366 0.008294 -0.013821 0.044573 -0.036793
# 6 -0.005812 -0.017272 0.009999 0.057995 -0.036793 0.202441
#
#
# Mechanical properties :
#
#
# Convention : Reuss Voigt Hill
#
# Bulk Modulus (GPa) = 52.30547 63.22240 57.76394
# Shear Modulus (GPa) = 12.58799 27.02625 19.80712
#
# Velocity S-wave (km/s) = 2.48178 3.63645 3.11312
# Velocity P-wave (km/s) = 5.81421 6.96893 6.41759
#
# Compressibility (1/GPa) = 0.01911846
#
# Stress axis : x y z
#
# Youngs Moduli (GPa) = 49.11343 75.27628 38.13637
#
# Poissons Ratio (x) = -0.02140 0.53076
# Poissons Ratio (y) = -0.01396 0.25709
# Poissons Ratio (z) = 0.68353 0.50746
#
# Static dielectric constant tensor:
#      x y z
#    x 3.451650 -0.088230 -0.324380 
#    y -0.088230 3.365550 0.767150 
#    z -0.324380 0.767150 3.358090 
# 
# 
# High freq. dielectric constant tensor:
#      x y z
#    x 1.762950 0.012150 -0.044680 
#    y 0.012150 1.807580 0.012290 
#    z -0.044680 0.012290 1.809140 
# 
# From -- ./inp_files/217730.got.cif
#   From: 2010.06.25/outbox.cif.g09.slc.cpg/sg2_109_cif.got.tgz:217730.got - 2010.06.27 13:26:56.
