data_PCOD8029141
_publ_section_title
;
Structure prediction by ZEFSAII (Michael W. Deem and Ramdas Pophale) SiO2 
 PCOD8029141
Probable space group: P -1
;
_chemical_formula_sum "Si O2"
_cell_formula_units_Z 14
_cell_length_a 9.921153
_cell_length_b 17.572818
_cell_length_c 11.073822
_cell_angle_alpha 148.392204
_cell_angle_beta 62.924700
_cell_angle_gamma 135.657237
_cell_volume 641.773687
_symmetry_space_group_name_H-M "P -1"
_symmetry_group_IT_number 2
_symmetry_cell_setting 'triclinic'
loop_
_space_group_symop_operation_xyz
x,y,z
-x,-y,-z
loop_
_atom_site_type_symbol
_atom_site_label
_atom_site_fract_x
_atom_site_fract_y
_atom_site_fract_z
Si Si1 0.934929 0.610591 0.121116
Si Si2 0.397203 0.584491 0.189038
Si Si3 0.999276 0.171208 0.210818
Si Si4 0.645897 0.437731 0.541519
Si Si5 0.510698 0.852469 0.987241
Si Si6 0.671622 0.533358 0.332613
Si Si7 0.615064 0.006652 0.576453
O O1 0.739831 0.550050 0.191035
O O2 0.139838 0.849534 0.363600
O O3 0.843985 0.549887 0.940018
O O4 0.000000 0.500000 0.000000
O O5 0.387581 0.611414 0.370950
O O6 0.539592 0.795208 0.345616
O O7 0.500000 0.500000 0.000000
O O8 0.135095 0.324330 0.247978
O O9 0.110460 0.321656 0.483721
O O10 0.756761 0.059917 0.143888
O O11 0.000000 0.000000 0.000000
O O12 0.620936 0.269245 0.248600
O O13 0.448032 0.395148 0.510549
O O14 0.494028 0.700356 0.873844
O O15 0.403162 0.911486 0.183185
O O16 0.500000 0.000000 0.500000
#
# Coordination Sequence:
#
# PCOD8029141 Si02
#       7
#     2   2   2   2   2   2   2
#     4  12  24  45  75 101 137 186 237 289 347 419
#     4  12  28  48  69 105 147 181 231 299 353 412
#     4  11  20  35  67 101 132 183 231 272 347 416
#     4  11  24  41  64 103 145 177 223 297 351 402
#     4  11  22  41  66 101 140 179 234 283 339 419
#     4  11  20  39  67 101 137 175 231 292 333 410
#     4  12  26  46  75 102 137 190 240 284 349 421
#
# _framework density 21.814543
#
# number of rings (size 3 to 8) (size 9 to 14) (size 15 to 20)
#    0.000    0.571    7.143    1.714    0.000    3.429 
#    0.000    1.429    0.000    0.000    0.000    0.000 
#    0.000    0.000    0.000    0.000    0.000    0.000 
#
# Total GULP energy -173557.801225 kJ/mol
# GULP energy per Si atom -12396.985802 kJ/mol
# Density = 2.176489 g / cm^3
# Si number density = 21.814543 Si / 1000 Ang^3
#
#
#
# Elastic Constant Matrix: (Units=GPa)
#
#
# Indices 1 2 3 4 5 6 
#
# 1 86.3594 37.5376 43.4853 6.1143 5.5630 -11.8297
# 2 37.5376 133.8158 53.1869 11.6124 12.1205 -5.1271
# 3 43.4853 53.1869 118.3367 12.5387 4.8156 -6.5154
# 4 6.1143 11.6124 12.5387 50.6343 7.6918 1.3829
# 5 5.5630 12.1205 4.8156 7.6918 38.9514 0.6372
# 6 -11.8297 -5.1271 -6.5154 1.3829 0.6372 34.6944
#
#
#
# Elastic Compliance Matrix: (Units=1/GPa)
#
#
# Indices 1 2 3 4 5 6 
#
# 1 0.015417 -0.002342 -0.004323 -0.000220 -0.000963 0.004125
# 2 -0.002342 0.009719 -0.003332 -0.000801 -0.002121 0.000083
# 3 -0.004323 -0.003332 0.011711 -0.001704 0.000538 0.000291
# 4 -0.000220 -0.000801 -0.001704 0.020968 -0.003628 -0.001283
# 5 -0.000963 -0.002121 0.000538 -0.003628 0.027135 -0.000894
# 6 0.004125 0.000083 0.000291 -0.001283 -0.000894 0.030364
#
#
# Mechanical properties :
#
#
# Convention : Reuss Voigt Hill
#
# Bulk Modulus (GPa) = 59.33532 67.43683 63.38607
# Shear Modulus (GPa) = 35.47959 38.47615 36.97787
#
# Velocity S-wave (km/s) = 4.03726 4.20430 4.12163
# Velocity P-wave (km/s) = 6.99940 7.38573 7.19516
#
# Compressibility (1/GPa) = 0.01685337
#
# Stress axis : x y z
#
# Youngs Moduli (GPa) = 64.86325 102.89055 85.38848
#
# Poissons Ratio (x) = 0.24099 0.36913
# Poissons Ratio (y) = 0.15192 0.28450
# Poissons Ratio (z) = 0.28040 0.34281
#
# Static dielectric constant tensor:
#      x y z
#    x 3.638310 0.070280 0.131180 
#    y 0.070280 4.249210 0.089240 
#    z 0.131180 0.089240 4.152650 
# 
# 
# High freq. dielectric constant tensor:
#      x y z
#    x 1.835030 0.001550 0.007500 
#    y 0.001550 1.869970 0.002050 
#    z 0.007500 0.002050 1.869740 
# 
# From -- ./inp_files/403554.got.cif
#   From: 2010.06.25/outbox.cif.g09.slc.cpg/sg2_202_cif.got.tgz:403554.got - 2010.06.27 13:26:56.
