data_PCOD8029501
_publ_section_title
;
Structure prediction by ZEFSAII (Michael W. Deem and Ramdas Pophale) SiO2 
 PCOD8029501
Probable space group: P -1
;
_chemical_formula_sum "Si O2"
_cell_formula_units_Z 16
_cell_length_a 9.658930
_cell_length_b 12.831522
_cell_length_c 18.074700
_cell_angle_alpha 39.176555
_cell_angle_beta 37.942723
_cell_angle_gamma 34.925142
_cell_volume 734.063977
_symmetry_space_group_name_H-M "P -1"
_symmetry_group_IT_number 2
_symmetry_cell_setting 'triclinic'
loop_
_space_group_symop_operation_xyz
x,y,z
-x,-y,-z
loop_
_atom_site_type_symbol
_atom_site_label
_atom_site_fract_x
_atom_site_fract_y
_atom_site_fract_z
Si Si1 0.280183 0.811893 0.365238
Si Si2 0.048059 0.792780 0.174779
Si Si3 0.186988 0.761731 0.700279
Si Si4 0.883475 0.716513 0.640135
Si Si5 0.498561 0.381631 0.209134
Si Si6 0.806023 0.568911 0.201827
Si Si7 0.496143 0.845213 0.405565
Si Si8 0.065067 0.794049 0.990692
O O1 0.488835 0.698722 0.274745
O O2 0.450928 0.763781 0.394384
O O3 0.104164 0.718075 0.496623
O O4 0.098820 0.041323 0.298405
O O5 0.334878 0.607584 0.179890
O O6 0.802544 0.783406 0.317158
O O7 0.042413 0.782061 0.094452
O O8 0.039065 0.980938 0.107384
O O9 0.275782 0.749056 0.754305
O O10 0.143216 0.585383 0.798491
O O11 0.412823 0.757674 0.555870
O O12 0.714505 0.680755 0.672000
O O13 0.021650 0.546361 0.735522
O O14 0.697000 0.921469 0.646975
O O15 0.634746 0.344874 0.090919
O O16 0.893238 0.721278 0.060554
#
# Coordination Sequence:
#
# PCOD8029501 Si02
#       8
#     2   2   2   2   2   2   2   2
#     4  11  22  41  68 101 131 167 222 271 323 382
#     4  11  24  42  70 101 124 172 225 278 309 384
#     4  11  27  42  64 102 139 168 207 275 336 387
#     4  11  21  40  70  97 134 166 219 272 322 390
#     4  12  26  44  63 101 136 175 211 264 339 387
#     4  12  23  41  72  96 123 180 222 266 317 389
#     4  11  20  43  70 100 134 162 222 277 321 381
#     4  11  25  43  69  94 130 174 226 269 312 383
#
# _framework density 21.796465000000001
#
# number of rings (size 3 to 8) (size 9 to 14) (size 15 to 20)
#    0.000    0.750    6.250    1.500    1.750    5.000 
#    0.000    1.250    0.000    0.000    0.000    0.000 
#    0.000    0.000    0.000    0.000    0.000    0.000 
#
# Total GULP energy -198407.427878 kJ/mol
# GULP energy per Si atom -12400.464242 kJ/mol
# Density = 2.174686 g / cm^3
# Si number density = 21.796465 Si / 1000 Ang^3
#
#
#
# Elastic Constant Matrix: (Units=GPa)
#
#
# Indices 1 2 3 4 5 6 
#
# 1 83.8459 13.7200 25.9855 -9.0545 -16.3514 10.0932
# 2 13.7200 98.0247 39.0993 3.1374 -20.0048 2.5870
# 3 25.9855 39.0993 85.6435 -2.5523 -30.1357 6.9315
# 4 -9.0545 3.1374 -2.5523 26.9631 4.6971 -12.5767
# 5 -16.3514 -20.0048 -30.1357 4.6971 31.3895 -8.8433
# 6 10.0932 2.5870 6.9315 -12.5767 -8.8433 22.0762
#
#
#
# Elastic Compliance Matrix: (Units=1/GPa)
#
#
# Indices 1 2 3 4 5 6 
#
# 1 0.014072 -0.000213 -0.002642 0.002645 0.003511 -0.002666
# 2 -0.000213 0.012963 -0.004411 -0.002668 0.004369 0.000193
# 3 -0.002642 -0.004411 0.019714 -0.000543 0.015190 0.001310
# 4 0.002645 -0.002668 -0.000543 0.051601 -0.000550 0.028450
# 5 0.003511 0.004369 0.015190 -0.000550 0.055355 0.014974
# 6 -0.002666 0.000193 0.001310 0.028450 0.014974 0.068289
#
#
# Mechanical properties :
#
#
# Convention : Reuss Voigt Hill
#
# Bulk Modulus (GPa) = 31.04104 47.23596 39.13850
# Shear Modulus (GPa) = 20.22117 28.66638 24.44377
#
# Velocity S-wave (km/s) = 3.04917 3.63048 3.35245
# Velocity P-wave (km/s) = 5.16418 6.26836 5.74287
#
# Compressibility (1/GPa) = 0.03221542
#
# Stress axis : x y z
#
# Youngs Moduli (GPa) = 71.06499 77.14418 50.72428
#
# Poissons Ratio (x) = 0.01647 0.13402
# Poissons Ratio (y) = 0.01517 0.22374
# Poissons Ratio (z) = 0.18777 0.34028
#
# Static dielectric constant tensor:
#      x y z
#    x 3.595730 0.017880 -0.291610 
#    y 0.017880 4.255020 -0.065130 
#    z -0.291610 -0.065130 3.991490 
# 
# 
# High freq. dielectric constant tensor:
#      x y z
#    x 1.828310 0.005910 -0.024650 
#    y 0.005910 1.878460 -0.002740 
#    z -0.024650 -0.002740 1.853230 
# 
# From -- ./inp_files/344986.got.cif
#   From: 2010.06.25/outbox.cif.g09.slc.cpg/sg2_173_cif.got.tgz:344986.got - 2010.06.27 13:26:56.
