data_PCOD8029267
_publ_section_title
;
Structure prediction by ZEFSAII (Michael W. Deem and Ramdas Pophale) SiO2 
 PCOD8029267
Probable space group: P -1
;
_chemical_formula_sum "Si O2"
_cell_formula_units_Z 14
_cell_length_a 11.173777
_cell_length_b 15.320281
_cell_length_c 8.247994
_cell_angle_alpha 33.710581
_cell_angle_beta 121.304129
_cell_angle_gamma 110.977411
_cell_volume 661.292773
_symmetry_space_group_name_H-M "P -1"
_symmetry_group_IT_number 2
_symmetry_cell_setting 'triclinic'
loop_
_space_group_symop_operation_xyz
x,y,z
-x,-y,-z
loop_
_atom_site_type_symbol
_atom_site_label
_atom_site_fract_x
_atom_site_fract_y
_atom_site_fract_z
Si Si1 0.123974 0.451051 0.294653
Si Si2 0.573194 0.560513 0.612488
Si Si3 0.406623 0.866593 0.172050
Si Si4 0.887866 0.388408 0.633655
Si Si5 0.912551 0.032449 0.232180
Si Si6 0.979233 0.174233 0.645314
Si Si7 0.313737 0.669843 0.679643
O O1 0.269743 0.405737 0.370348
O O2 0.144794 0.585189 0.237666
O O3 0.078954 0.297708 0.593901
O O4 0.000000 0.500000 0.000000
O O5 0.500000 0.500000 0.500000
O O6 0.471482 0.720821 0.333294
O O7 0.578585 0.444219 0.953182
O O8 0.393673 0.806558 0.443041
O O9 0.252891 0.942451 0.882086
O O10 0.500000 0.000000 0.000000
O O11 0.747572 0.430363 0.356116
O O12 0.000000 0.500000 0.500000
O O13 0.944152 0.201326 0.914893
O O14 0.000000 0.000000 0.500000
O O15 0.963695 0.867420 0.430464
O O16 0.814115 0.249849 0.418073
O O17 0.000000 0.000000 0.000000
#
# Coordination Sequence:
#
# PCOD8029267 Si02
#       7
#     2   2   2   2   2   2   2
#     4  12  23  41  69 102 133 174 233 280 332 400
#     4  12  26  45  69  98 141 181 225 280 341 413
#     4  11  25  46  66  97 135 181 223 274 346 407
#     4  11  20  39  64 102 131 167 223 277 334 393
#     4  11  24  40  67  97 133 171 221 277 335 393
#     4  12  21  41  68 100 133 170 225 289 332 389
#     4  11  24  44  70  96 138 183 227 278 343 403
#
# _framework density 21.170653999999999
#
# number of rings (size 3 to 8) (size 9 to 14) (size 15 to 20)
#    0.000    0.571    5.714    3.857    2.000    1.143 
#    0.000    2.143    0.000    0.000    0.000    0.000 
#    0.000    0.000    0.000    0.000    0.000    0.000 
#
# Total GULP energy -173446.758634 kJ/mol
# GULP energy per Si atom -12389.054188 kJ/mol
# Density = 2.112247 g / cm^3
# Si number density = 21.170654 Si / 1000 Ang^3
#
#
#
# Elastic Constant Matrix: (Units=GPa)
#
#
# Indices 1 2 3 4 5 6 
#
# 1 139.8384 49.5842 44.7886 -7.7837 7.8376 14.4151
# 2 49.5842 132.5382 69.6904 3.1892 7.3668 -3.7687
# 3 44.7886 69.6904 93.2946 9.3518 -5.6024 9.6815
# 4 -7.7837 3.1892 9.3518 47.6878 -1.3045 -0.8488
# 5 7.8376 7.3668 -5.6024 -1.3045 41.8004 -20.3120
# 6 14.4151 -3.7687 9.6815 -0.8488 -20.3120 44.2184
#
#
#
# Elastic Compliance Matrix: (Units=1/GPa)
#
#
# Indices 1 2 3 4 5 6 
#
# 1 0.009641 -0.001859 -0.003240 0.002147 -0.003974 -0.004376
# 2 -0.001859 0.013511 -0.009697 0.000699 -0.001826 0.003055
# 3 -0.003240 -0.009697 0.020394 -0.003827 0.003652 -0.002631
# 4 0.002147 0.000699 -0.003827 0.022033 -0.000064 0.000591
# 5 -0.003974 -0.001826 0.003652 -0.000064 0.033011 0.015503
# 6 -0.004376 0.003055 -0.002631 0.000591 0.015503 0.032011
#
#
# Mechanical properties :
#
#
# Convention : Reuss Voigt Hill
#
# Bulk Modulus (GPa) = 71.66009 77.08862 74.37436
# Shear Modulus (GPa) = 30.33219 40.18185 35.25702
#
# Velocity S-wave (km/s) = 3.78927 4.36133 4.08532
# Velocity P-wave (km/s) = 7.28471 7.86470 7.58026
#
# Compressibility (1/GPa) = 0.01395477
#
# Stress axis : x y z
#
# Youngs Moduli (GPa) = 103.72208 74.01626 49.03519
#
# Poissons Ratio (x) = 0.13756 0.15887
# Poissons Ratio (y) = 0.19277 0.47549
# Poissons Ratio (z) = 0.33605 0.71772
#
# Static dielectric constant tensor:
#      x y z
#    x 4.365480 -0.464630 -0.044560 
#    y -0.464630 4.603600 -0.058150 
#    z -0.044560 -0.058150 3.666660 
# 
# 
# High freq. dielectric constant tensor:
#      x y z
#    x 1.849050 -0.011280 -0.003300 
#    y -0.011280 1.826630 -0.009250 
#    z -0.003300 -0.009250 1.829610 
# 
# From -- ./inp_files/174072.got.cif
#   From: 2010.06.25/outbox.cif.g09.slc.cpg/sg2_88_cif.got.tgz:174072.got - 2010.06.27 13:26:56.
