data_PCOD8029333
_publ_section_title
;
Structure prediction by ZEFSAII (Michael W. Deem and Ramdas Pophale) SiO2 
 PCOD8029333
Probable space group: P -1
;
_chemical_formula_sum "Si O2"
_cell_formula_units_Z 14
_cell_length_a 9.029106
_cell_length_b 11.846363
_cell_length_c 17.285813
_cell_angle_alpha 22.611916
_cell_angle_beta 57.880993
_cell_angle_gamma 61.085782
_cell_volume 601.932344
_symmetry_space_group_name_H-M "P -1"
_symmetry_group_IT_number 2
_symmetry_cell_setting 'triclinic'
loop_
_space_group_symop_operation_xyz
x,y,z
-x,-y,-z
loop_
_atom_site_type_symbol
_atom_site_label
_atom_site_fract_x
_atom_site_fract_y
_atom_site_fract_z
Si Si1 0.764980 0.804113 0.522265
Si Si2 0.113318 0.081517 0.043216
Si Si3 0.648239 0.383224 0.701521
Si Si4 0.089630 0.472891 0.587373
Si Si5 0.807894 0.861085 0.650718
Si Si6 0.305998 0.572412 0.601067
Si Si7 0.889842 0.337134 0.069083
O O1 0.627383 0.578167 0.661797
O O2 0.724753 0.805685 0.623977
O O3 0.962901 0.708689 0.511611
O O4 0.744528 0.129349 0.284166
O O5 0.023508 0.126592 0.121847
O O6 0.312906 0.957437 0.075142
O O7 0.139234 0.398078 0.796239
O O8 0.990851 0.856298 0.169844
O O9 0.842744 0.479550 0.550399
O O10 0.488516 0.425020 0.662905
O O11 0.273609 0.526463 0.548133
O O12 0.689739 0.091787 0.583874
O O13 0.801380 0.559958 0.892348
O O14 0.000000 0.000000 0.500000
O O15 0.000000 0.500000 0.000000
#
# Coordination Sequence:
#
# PCOD8029333 Si02
#       7
#     2   2   2   2   2   2   2
#     4  11  21  43  66  91 127 165 220 260 300 384
#     4  11  21  39  65  92 117 168 216 250 316 373
#     4  11  24  40  63  93 132 163 197 264 338 363
#     4  11  20  40  67  92 121 165 213 258 309 380
#     4  12  23  38  64  96 123 171 215 258 306 372
#     4  12  24  40  60  98 131 158 206 268 317 374
#     4  12  20  37  67  93 121 161 220 259 299 368
#
# _framework density 23.258426
#
# number of rings (size 3 to 8) (size 9 to 14) (size 15 to 20)
#    0.000    0.571    7.143    2.143    0.000    1.714 
#    0.000    0.714    0.000    0.000    0.000    0.000 
#    0.000    0.000    0.000    0.000    0.000    0.000 
#
# Total GULP energy -173558.259538 kJ/mol
# GULP energy per Si atom -12397.018538 kJ/mol
# Density = 2.320549 g / cm^3
# Si number density = 23.258426 Si / 1000 Ang^3
#
#
#
# Elastic Constant Matrix: (Units=GPa)
#
#
# Indices 1 2 3 4 5 6 
#
# 1 56.3424 13.9347 7.0464 -14.4054 13.6155 3.0969
# 2 13.9347 94.1100 36.2308 -15.6230 7.1761 20.5187
# 3 7.0464 36.2308 126.6585 -7.0580 25.5159 10.5003
# 4 -14.4054 -15.6230 -7.0580 38.6196 5.2481 0.2444
# 5 13.6155 7.1761 25.5159 5.2481 19.9054 3.8849
# 6 3.0969 20.5187 10.5003 0.2444 3.8849 25.1651
#
#
#
# Elastic Compliance Matrix: (Units=1/GPa)
#
#
# Indices 1 2 3 4 5 6 
#
# 1 0.028740 -0.001631 0.005904 0.015306 -0.030657 -0.000086
# 2 -0.001631 0.015300 -0.003200 0.004992 0.000546 -0.011072
# 3 0.005904 -0.003200 0.013152 0.006209 -0.021307 -0.000376
# 4 0.015306 0.004992 0.006209 0.038809 -0.029611 -0.004350
# 5 -0.030657 0.000546 -0.021307 -0.029611 0.106910 -0.003999
# 6 -0.000086 -0.011072 -0.000376 -0.004350 -0.003999 0.049593
#
#
# Mechanical properties :
#
#
# Convention : Reuss Voigt Hill
#
# Bulk Modulus (GPa) = 16.85259 43.50384 30.17822
# Shear Modulus (GPa) = 18.50911 31.39797 24.95354
#
# Velocity S-wave (km/s) = 2.82406 3.67817 3.27904
# Velocity P-wave (km/s) = 4.23028 6.06496 5.22872
#
# Compressibility (1/GPa) = 0.05933805
#
# Stress axis : x y z
#
# Youngs Moduli (GPa) = 34.79443 65.35757 76.03611
#
# Poissons Ratio (x) = 0.10659 -0.44889
# Poissons Ratio (y) = 0.05675 0.24331
# Poissons Ratio (z) = -0.20542 0.20914
#
# Static dielectric constant tensor:
#      x y z
#    x 3.856040 0.270120 0.189900 
#    y 0.270120 4.215540 -0.180160 
#    z 0.189900 -0.180160 4.471230 
# 
# 
# High freq. dielectric constant tensor:
#      x y z
#    x 1.903940 0.023310 0.010790 
#    y 0.023310 1.918400 -0.009930 
#    z 0.010790 -0.009930 1.925690 
# 
# From -- ./inp_files/175991.got.cif
#   From: 2010.06.25/outbox.cif.g09.slc.cpg/sg2_88_cif.got.tgz:175991.got - 2010.06.27 13:26:56.
