data_PCOD8029559
_publ_section_title
;
Structure prediction by ZEFSAII (Michael W. Deem and Ramdas Pophale) SiO2 
 PCOD8029559
Probable space group: P -1
;
_chemical_formula_sum "Si O2"
_cell_formula_units_Z 16
_cell_length_a 9.392995
_cell_length_b 11.951373
_cell_length_c 7.813622
_cell_angle_alpha 89.985382
_cell_angle_beta 82.897107
_cell_angle_gamma 129.505610
_cell_volume 668.005785
_symmetry_space_group_name_H-M "P -1"
_symmetry_group_IT_number 2
_symmetry_cell_setting 'triclinic'
loop_
_space_group_symop_operation_xyz
x,y,z
-x,-y,-z
loop_
_atom_site_type_symbol
_atom_site_label
_atom_site_fract_x
_atom_site_fract_y
_atom_site_fract_z
Si Si1 0.961340 0.980784 0.781413
Si Si2 0.410563 0.890515 0.259894
Si Si3 0.343153 0.797827 0.651499
Si Si4 0.410067 0.519619 0.259914
Si Si5 0.981379 0.750149 0.799767
Si Si6 0.019194 0.768890 0.200131
Si Si7 0.658971 0.829289 0.065212
Si Si8 0.657045 0.454716 0.348647
O O1 0.985918 0.870199 0.689369
O O2 0.985162 0.115615 0.689323
O O3 0.738240 0.869050 0.861229
O O4 0.137421 0.069215 0.880938
O O5 0.397127 0.823530 0.444514
O O6 0.211018 0.798799 0.199982
O O7 0.543164 0.882761 0.120344
O O8 0.503096 0.058674 0.262752
O O9 0.337766 0.668882 0.722788
O O10 0.141149 0.751626 0.702753
O O11 0.210864 0.411624 0.199400
O O12 0.542805 0.659890 0.120151
O O13 0.502567 0.444055 0.263826
O O14 0.395755 0.573151 0.444255
O O15 0.000780 0.785290 0.999845
O O16 0.858819 0.610469 0.296509
#
# Coordination Sequence:
#
# PCOD8029559 Si02
#       8
#     2   2   2   2   2   2   2   2
#     4  11  22  44  68  96 138 175 222 285 329 392
#     4  11  25  44  72 100 133 184 226 275 337 402
#     4  11  25  46  68 101 139 176 228 279 335 400
#     4  11  25  44  72 100 133 184 226 275 337 402
#     4  12  25  45  67 104 138 178 224 277 338 402
#     4  12  25  45  67 104 138 178 224 277 338 402
#     4  11  20  46  69  93 137 181 222 274 337 391
#     4  11  25  46  68 101 139 176 228 279 335 400
#
# _framework density 23.951888
#
# number of rings (size 3 to 8) (size 9 to 14) (size 15 to 20)
#    0.000    0.750    6.250    0.750    3.500    5.500 
#    0.000    1.250    0.000    0.000    0.000    0.000 
#    0.000    0.000    0.000    0.000    0.000    0.000 
#
# Total GULP energy -198233.881851 kJ/mol
# GULP energy per Si atom -12389.617616 kJ/mol
# Density = 2.389737 g / cm^3
# Si number density = 23.951888 Si / 1000 Ang^3
#
#
#
# Elastic Constant Matrix: (Units=GPa)
#
#
# Indices 1 2 3 4 5 6 
#
# 1 156.9568 40.0431 21.3789 15.4156 -45.1630 -8.6825
# 2 40.0431 182.1865 22.2442 -59.4537 17.2588 -7.6522
# 3 21.3789 22.2442 28.6477 -6.5137 -6.5757 -1.2790
# 4 15.4156 -59.4537 -6.5137 56.3566 -17.4447 -6.1549
# 5 -45.1630 17.2588 -6.5757 -17.4447 48.3049 4.6929
# 6 -8.6825 -7.6522 -1.2790 -6.1549 4.6929 62.7335
#
#
#
# Elastic Compliance Matrix: (Units=1/GPa)
#
#
# Indices 1 2 3 4 5 6 
#
# 1 0.011571 -0.004909 -0.003844 -0.005729 0.010017 -0.000387
# 2 -0.004909 0.011356 -0.003626 0.011534 -0.005184 0.002151
# 3 -0.003844 -0.003626 0.042510 0.003615 0.004805 -0.000112
# 4 -0.005729 0.011534 0.003615 0.033113 0.002609 0.003741
# 5 0.010017 -0.005184 0.004805 0.002609 0.033653 -0.001409
# 6 -0.000387 0.002151 -0.000112 0.003741 -0.001409 0.016619
#
#
# Mechanical properties :
#
#
# Convention : Reuss Voigt Hill
#
# Bulk Modulus (GPa) = 24.58198 59.45816 42.02007
# Shear Modulus (GPa) = 26.71805 52.42065 39.56935
#
# Velocity S-wave (km/s) = 3.34352 4.68330 4.06893
# Velocity P-wave (km/s) = 5.01904 7.35679 6.29735
#
# Compressibility (1/GPa) = 0.04068020
#
# Stress axis : x y z
#
# Youngs Moduli (GPa) = 86.42486 88.06114 23.52361
#
# Poissons Ratio (x) = 0.43226 0.09043
# Poissons Ratio (y) = 0.42423 0.08529
# Poissons Ratio (z) = 0.33222 0.31928
#
# Static dielectric constant tensor:
#      x y z
#    x 4.637890 -0.262480 -0.201410 
#    y -0.262480 4.715720 -0.176390 
#    z -0.201410 -0.176390 4.170880 
# 
# 
# High freq. dielectric constant tensor:
#      x y z
#    x 1.969410 0.000560 -0.014680 
#    y 0.000560 1.969350 -0.012420 
#    z -0.014680 -0.012420 1.918900 
# 
# From -- ./inp_files/187515.got.cif
#   From: 2010.06.25/outbox.cif.g09.slc.cpg/sg2_94_cif.got.tgz:187515.got - 2010.06.27 13:26:56.
