data_PCOD8029254
_publ_section_title
;
Structure prediction by ZEFSAII (Michael W. Deem and Ramdas Pophale) SiO2 
 PCOD8029254
Probable space group: P -1
;
_chemical_formula_sum "Si O2"
_cell_formula_units_Z 16
_cell_length_a 14.848198
_cell_length_b 8.733636
_cell_length_c 14.461575
_cell_angle_alpha 99.552700
_cell_angle_beta 50.239486
_cell_angle_gamma 139.466358
_cell_volume 719.265928
_symmetry_space_group_name_H-M "P -1"
_symmetry_group_IT_number 2
_symmetry_cell_setting 'triclinic'
loop_
_space_group_symop_operation_xyz
x,y,z
-x,-y,-z
loop_
_atom_site_type_symbol
_atom_site_label
_atom_site_fract_x
_atom_site_fract_y
_atom_site_fract_z
Si Si1 0.352644 0.258608 0.153146
Si Si2 0.554035 0.264437 0.371563
Si Si3 0.887854 0.073397 0.326339
Si Si4 0.643777 0.293391 0.987864
Si Si5 0.259925 0.759406 0.890703
Si Si6 0.440546 0.614512 0.270054
Si Si7 0.220965 0.199347 0.820807
Si Si8 0.843047 0.688386 0.397691
O O1 0.303382 0.342315 0.265141
O O2 0.500000 0.500000 0.000000
O O3 0.485781 0.263693 0.109986
O O4 0.103242 0.918837 0.244519
O O5 0.604611 0.161782 0.276877
O O6 0.631023 0.485260 0.273702
O O7 0.694626 0.430790 0.391771
O O8 0.280041 0.975946 0.540342
O O9 0.153114 0.431638 0.190918
O O10 0.839085 0.973112 0.243821
O O11 0.839967 0.871015 0.403216
O O12 0.748883 0.356051 0.022978
O O13 0.500000 0.000000 0.000000
O O14 0.422098 0.091403 0.843816
O O15 0.000000 0.500000 0.000000
O O16 0.644940 0.751864 0.192446
O O17 0.261700 0.472647 0.449766
O O18 0.000000 0.000000 0.000000
#
# Coordination Sequence:
#
# PCOD8029254 Si02
#       8
#     2   2   2   2   2   2   2   2
#     4  12  26  46  74 104 138 195 246 293 358 431
#     4  11  23  43  73 107 143 182 243 300 372 409
#     4  11  21  44  72 105 140 179 239 304 355 423
#     4  12  28  49  72 107 148 193 240 295 364 433
#     4  12  29  46  71 108 150 193 237 299 359 433
#     4  12  24  45  67 102 143 180 245 289 358 429
#     4  11  20  38  70 104 134 182 235 298 352 417
#     4  11  24  43  74 105 139 188 240 302 353 432
#
# _framework density 22.244902
#
# number of rings (size 3 to 8) (size 9 to 14) (size 15 to 20)
#    0.000    0.500    3.750    5.625    5.250    1.500 
#    0.000    1.250    0.000    0.000    0.000    0.000 
#    0.000    0.000    0.000    0.000    0.000    0.000 
#
# Total GULP energy -198418.983049 kJ/mol
# GULP energy per Si atom -12401.186441 kJ/mol
# Density = 2.219427 g / cm^3
# Si number density = 22.244902 Si / 1000 Ang^3
#
#
#
# Elastic Constant Matrix: (Units=GPa)
#
#
# Indices 1 2 3 4 5 6 
#
# 1 98.9481 13.3743 31.4150 -2.7579 -11.4586 2.4328
# 2 13.3743 90.3903 22.3331 -1.5469 -6.7196 -9.3151
# 3 31.4150 22.3331 145.4362 -4.9326 -22.4631 -8.7284
# 4 -2.7579 -1.5469 -4.9326 45.0355 3.3605 5.1898
# 5 -11.4586 -6.7196 -22.4631 3.3605 45.2899 -1.7714
# 6 2.4328 -9.3151 -8.7284 5.1898 -1.7714 35.5260
#
#
#
# Elastic Compliance Matrix: (Units=1/GPa)
#
#
# Indices 1 2 3 4 5 6 
#
# 1 0.011152 -0.001179 -0.002071 0.000484 0.001522 -0.001576
# 2 -0.001179 0.011924 -0.001253 -0.000217 0.000982 0.002980
# 3 -0.002071 -0.001253 0.008166 0.000246 0.003399 0.001953
# 4 0.000484 -0.000217 0.000246 0.022770 -0.001612 -0.003436
# 5 0.001522 0.000982 0.003399 -0.001612 0.024512 0.002446
# 6 -0.001576 0.002980 0.001953 -0.003436 0.002446 0.030141
#
#
# Mechanical properties :
#
#
# Convention : Reuss Voigt Hill
#
# Bulk Modulus (GPa) = 44.97490 52.11327 48.54408
# Shear Modulus (GPa) = 39.97353 43.01376 41.49365
#
# Velocity S-wave (km/s) = 4.24367 4.40209 4.32361
# Velocity P-wave (km/s) = 6.65384 7.02252 6.84067
#
# Compressibility (1/GPa) = 0.02223463
#
# Stress axis : x y z
#
# Youngs Moduli (GPa) = 89.67267 83.86716 122.45771
#
# Poissons Ratio (x) = 0.09891 0.25359
# Poissons Ratio (y) = 0.10576 0.15345
# Poissons Ratio (z) = 0.18570 0.10509
#
# Static dielectric constant tensor:
#      x y z
#    x 4.027280 -0.230170 -0.198290 
#    y -0.230170 3.130590 -0.456110 
#    z -0.198290 -0.456110 4.058490 
# 
# 
# High freq. dielectric constant tensor:
#      x y z
#    x 1.878190 0.003530 -0.000780 
#    y 0.003530 1.870950 -0.002230 
#    z -0.000780 -0.002230 1.891100 
# 
# From -- ./inp_files/188466.got.cif
#   From: 2010.06.25/outbox.cif.g09.slc.cpg/sg2_95_cif.got.tgz:188466.got - 2010.06.27 13:26:56.
