data_PCOD8029203
_publ_section_title
;
Structure prediction by ZEFSAII (Michael W. Deem and Ramdas Pophale) SiO2 
 PCOD8029203
Probable space group: P -1
;
_chemical_formula_sum "Si O2"
_cell_formula_units_Z 16
_cell_length_a 21.923862
_cell_length_b 11.979668
_cell_length_c 8.530244
_cell_angle_alpha 52.089811
_cell_angle_beta 37.410879
_cell_angle_gamma 28.450574
_cell_volume 620.553776
_symmetry_space_group_name_H-M "P -1"
_symmetry_group_IT_number 2
_symmetry_cell_setting 'triclinic'
loop_
_space_group_symop_operation_xyz
x,y,z
-x,-y,-z
loop_
_atom_site_type_symbol
_atom_site_label
_atom_site_fract_x
_atom_site_fract_y
_atom_site_fract_z
Si Si1 0.203581 0.864621 0.372673
Si Si2 0.376836 0.946984 0.916812
Si Si3 0.131031 0.292015 0.547346
Si Si4 0.390627 0.408048 0.523370
Si Si5 0.844007 0.547986 0.148164
Si Si6 0.641336 0.216131 0.417456
Si Si7 0.808282 0.236347 0.850396
Si Si8 0.694534 0.660619 0.681456
O O1 0.294152 0.671407 0.494340
O O2 0.265046 0.742747 0.180867
O O3 0.251203 0.971683 0.224002
O O4 0.000810 0.073038 0.605251
O O5 0.518333 0.706724 0.730930
O O6 0.490905 0.912842 0.832848
O O7 0.257199 0.188654 0.853404
O O8 0.255662 0.279407 0.345546
O O9 0.000000 0.500000 0.500000
O O10 0.251777 0.016648 0.484415
O O11 0.033201 0.360496 0.850406
O O12 0.247768 0.449195 0.793472
O O13 0.535843 0.227213 0.515244
O O14 0.833863 0.495564 0.390852
O O15 0.500000 0.500000 0.500000
O O16 0.794022 0.126079 0.097714
O O17 0.693957 0.505217 0.896392
#
# Coordination Sequence:
#
# PCOD8029203 Si02
#       8
#     2   2   2   2   2   2   2   2
#     4  11  21  37  67 109 147 178 221 305 367 423
#     4  11  20  37  67 108 143 177 227 299 364 429
#     4  12  29  51  70 102 149 199 247 300 366 437
#     4  11  21  42  67 104 143 179 239 296 365 423
#     4  11  23  42  72 104 140 184 236 304 370 429
#     4  12  28  48  72 101 146 203 249 292 351 447
#     4  11  23  40  70 109 145 183 238 294 372 424
#     4  11  23  42  74 109 141 184 243 303 372 434
#
# _framework density 25.783422999999999
#
# number of rings (size 3 to 8) (size 9 to 14) (size 15 to 20)
#    0.000    0.750    3.750    6.000    1.750    4.000 
#    0.000    3.750    0.000    0.000    0.000    0.000 
#    0.000    0.000    0.000    0.000    0.000    0.000 
#
# Total GULP energy -198209.338937 kJ/mol
# GULP energy per Si atom -12388.083684 kJ/mol
# Density = 2.572474 g / cm^3
# Si number density = 25.783423 Si / 1000 Ang^3
#
#
#
# Elastic Constant Matrix: (Units=GPa)
#
#
# Indices 1 2 3 4 5 6 
#
# 1 101.3090 31.0177 44.1096 -4.2664 -33.4596 -12.8489
# 2 31.0177 151.4672 7.5929 -24.2916 -2.0335 -7.7981
# 3 44.1096 7.5929 56.2273 -5.3402 -30.1541 -1.4225
# 4 -4.2664 -24.2916 -5.3402 27.5423 -0.1844 -2.6546
# 5 -33.4596 -2.0335 -30.1541 -0.1844 39.7335 -0.7536
# 6 -12.8489 -7.7981 -1.4225 -2.6546 -0.7536 29.0873
#
#
#
# Elastic Compliance Matrix: (Units=1/GPa)
#
#
# Indices 1 2 3 4 5 6 
#
# 1 0.018582 -0.002989 -0.009611 -0.000884 0.008331 0.007072
# 2 -0.002989 0.008397 0.001466 0.007381 -0.000909 0.001653
# 3 -0.009611 0.001466 0.036191 0.006860 0.019461 -0.000952
# 4 -0.000884 0.007381 0.006860 0.044636 0.005163 0.006131
# 5 0.008331 -0.000909 0.019461 0.005163 0.047045 0.006078
# 6 0.007072 0.001653 -0.000952 0.006131 0.006078 0.038617
#
#
# Mechanical properties :
#
#
# Convention : Reuss Voigt Hill
#
# Bulk Modulus (GPa) = 24.44838 52.71600 38.58219
# Shear Modulus (GPa) = 21.79897 34.35816 28.07856
#
# Velocity S-wave (km/s) = 2.91084 3.65440 3.30360
# Velocity P-wave (km/s) = 4.56072 6.18839 5.43582
#
# Compressibility (1/GPa) = 0.04090250
#
# Stress axis : x y z
#
# Youngs Moduli (GPa) = 53.81660 119.08626 27.63152
#
# Poissons Ratio (x) = 0.35598 0.26555
# Poissons Ratio (y) = 0.16087 -0.04052
# Poissons Ratio (z) = 0.51721 -0.17462
#
# Static dielectric constant tensor:
#      x y z
#    x 4.630220 -0.042040 -0.427530 
#    y -0.042040 4.625860 -0.120860 
#    z -0.427530 -0.120860 4.766560 
# 
# 
# High freq. dielectric constant tensor:
#      x y z
#    x 2.017210 -0.003470 -0.036100 
#    y -0.003470 2.041550 -0.010330 
#    z -0.036100 -0.010330 2.023900 
# 
# From -- ./inp_files/345933.got.cif
#   From: 2010.06.25/outbox.cif.g09.slc.cpg/sg2_173_cif.got.tgz:345933.got - 2010.06.27 13:26:56.
