data_PCOD8029841
_publ_section_title
;
Structure prediction by ZEFSAII (Michael W. Deem and Ramdas Pophale) SiO2 
 PCOD8029841
Probable space group: P -1
;
_chemical_formula_sum "Si O2"
_cell_formula_units_Z 10
_cell_length_a 12.281040
_cell_length_b 10.170295
_cell_length_c 17.284808
_cell_angle_alpha 151.389209
_cell_angle_beta 23.822705
_cell_angle_gamma 143.210721
_cell_volume 417.534257
_symmetry_space_group_name_H-M "P -1"
_symmetry_group_IT_number 2
_symmetry_cell_setting 'triclinic'
loop_
_space_group_symop_operation_xyz
x,y,z
-x,-y,-z
loop_
_atom_site_type_symbol
_atom_site_label
_atom_site_fract_x
_atom_site_fract_y
_atom_site_fract_z
Si Si1 0.138828 0.792311 0.075245
Si Si2 0.051945 0.468644 0.255389
Si Si3 0.760543 0.178640 0.423548
Si Si4 0.301181 0.044804 0.253726
Si Si5 0.527135 0.501430 0.874106
O O1 0.120463 0.889918 0.226498
O O2 0.457692 0.768330 0.839688
O O3 0.004761 0.023674 0.227199
O O4 0.000000 0.500000 0.000000
O O5 0.248408 0.579901 0.252091
O O6 0.850254 0.255680 0.317764
O O7 0.891254 0.734940 0.463120
O O8 0.244430 0.340164 0.995690
O O9 0.657002 0.445924 0.677126
O O10 0.500000 0.000000 0.500000
O O11 0.437644 0.820836 0.105761
#
# Coordination Sequence:
#
# PCOD8029841 Si02
#       5
#     2   2   2   2   2
#     4  11  22  38  63  98 127 168 217 260 323 380
#     4  11  23  41  66  94 126 167 214 260 317 384
#     4  12  23  42  66  91 133 169 209 270 317 378
#     4  11  21  40  66  91 133 166 209 269 314 383
#     4  11  23  41  66  94 126 167 214 260 317 384
#
# _framework density 23.950130000000001
#
# number of rings (size 3 to 8) (size 9 to 14) (size 15 to 20)
#    0.000    0.800    4.000    6.000    0.000    0.800 
#    0.000    0.000    0.000    6.000    0.000    0.000 
#    0.000    0.000    0.000    0.000    0.000    0.000 
#
# Total GULP energy -123885.397127 kJ/mol
# GULP energy per Si atom -12388.539713 kJ/mol
# Density = 2.389562 g / cm^3
# Si number density = 23.950130 Si / 1000 Ang^3
#
#
#
# Elastic Constant Matrix: (Units=GPa)
#
#
# Indices 1 2 3 4 5 6 
#
# 1 44.5073 11.1124 7.1596 7.2710 -20.0835 1.3768
# 2 11.1124 124.2776 30.6714 -11.1573 3.6221 5.0619
# 3 7.1596 30.6714 92.8790 1.5099 -23.0983 -0.7883
# 4 7.2710 -11.1573 1.5099 38.3966 -11.4255 -3.9100
# 5 -20.0835 3.6221 -23.0983 -11.4255 33.9881 0.4373
# 6 1.3768 5.0619 -0.7883 -3.9100 0.4373 41.9563
#
#
#
# Elastic Compliance Matrix: (Units=1/GPa)
#
#
# Indices 1 2 3 4 5 6 
#
# 1 0.033676 -0.004964 0.004865 -0.001137 0.023362 -0.000764
# 2 -0.004964 0.010021 -0.004560 0.002036 -0.006404 -0.000875
# 3 0.004865 -0.004560 0.015447 0.001484 0.014349 0.000669
# 4 -0.001137 0.002036 0.001484 0.030084 0.010201 0.002517
# 5 0.023362 -0.006404 0.014349 0.010201 0.057082 0.000631
# 6 -0.000764 -0.000875 0.000669 0.002517 0.000631 0.024206
#
#
# Mechanical properties :
#
#
# Convention : Reuss Voigt Hill
#
# Bulk Modulus (GPa) = 20.06892 39.95006 30.00949
# Shear Modulus (GPa) = 25.45277 37.04957 31.25117
#
# Velocity S-wave (km/s) = 3.26351 3.93739 3.61618
# Velocity P-wave (km/s) = 4.75377 6.11453 5.47657
#
# Compressibility (1/GPa) = 0.04982829
#
# Stress axis : x y z
#
# Youngs Moduli (GPa) = 29.69446 99.79281 64.73548
#
# Poissons Ratio (x) = 0.49535 -0.31496
# Poissons Ratio (y) = 0.14740 0.29517
# Poissons Ratio (z) = -0.14447 0.45502
#
# Static dielectric constant tensor:
#      x y z
#    x 3.877950 -0.690320 0.691790 
#    y -0.690320 4.070630 -0.041750 
#    z 0.691790 -0.041750 4.375060 
# 
# 
# High freq. dielectric constant tensor:
#      x y z
#    x 1.921710 -0.019120 -0.030940 
#    y -0.019120 1.955910 -0.025390 
#    z -0.030940 -0.025390 1.963490 
# 
# From -- ./inp_files/129130.got.cif
#   From: 2010.06.25/outbox.cif.g09.slc.cpg/sg2_65_cif.got.tgz:129130.got - 2010.06.27 13:26:56.
