data_PCOD8029990
_publ_section_title
;
Structure prediction by ZEFSAII (Michael W. Deem and Ramdas Pophale) SiO2 
 PCOD8029990
Probable space group: P -1
;
_chemical_formula_sum "Si O2"
_cell_formula_units_Z 16
_cell_length_a 11.428344
_cell_length_b 9.705927
_cell_length_c 19.950416
_cell_angle_alpha 28.798488
_cell_angle_beta 44.911694
_cell_angle_gamma 56.381797
_cell_volume 737.920463
_symmetry_space_group_name_H-M "P -1"
_symmetry_group_IT_number 2
_symmetry_cell_setting 'triclinic'
loop_
_space_group_symop_operation_xyz
x,y,z
-x,-y,-z
loop_
_atom_site_type_symbol
_atom_site_label
_atom_site_fract_x
_atom_site_fract_y
_atom_site_fract_z
Si Si1 0.052325 0.100718 0.239461
Si Si2 0.313622 0.810415 0.653747
Si Si3 0.965868 0.537885 0.723746
Si Si4 0.544166 0.839061 0.314247
Si Si5 0.799413 0.686513 0.178128
Si Si6 0.060497 0.946865 0.157517
Si Si7 0.206438 0.007675 0.351178
Si Si8 0.236254 0.738878 0.861147
O O1 0.847580 0.030253 0.355724
O O2 0.124085 0.973646 0.197195
O O3 0.115625 0.939291 0.345555
O O4 0.128568 0.450687 0.063503
O O5 0.312533 0.624630 0.664992
O O6 0.284457 0.639575 0.809771
O O7 0.500000 0.000000 0.500000
O O8 0.029004 0.336767 0.841083
O O9 0.119465 0.805929 0.533059
O O10 0.929019 0.370802 0.739576
O O11 0.803296 0.659523 0.764824
O O12 0.500000 0.500000 0.500000
O O13 0.695988 0.873358 0.185134
O O14 0.391297 0.942573 0.294497
O O15 0.596543 0.089255 0.242606
O O16 0.829684 0.827367 0.033180
O O17 0.871988 0.007729 0.208148
#
# Coordination Sequence:
#
# PCOD8029990 Si02
#       8
#     2   2   2   2   2   2   2   2
#     4  11  23  44  66  97 141 179 225 266 339 407
#     4  11  22  37  69 102 133 175 222 278 329 389
#     4  11  23  40  69  95 131 175 223 273 335 397
#     4  12  25  42  67 101 136 168 229 284 332 386
#     4  12  21  41  68  99 129 167 231 274 321 401
#     4  11  21  41  68  99 125 180 224 271 326 404
#     4  11  25  44  64  97 137 177 214 280 338 400
#     4  11  21  41  68  99 138 177 224 274 327 396
#
# _framework density 21.682552000000001
#
# number of rings (size 3 to 8) (size 9 to 14) (size 15 to 20)
#    0.000    0.750    6.250    1.875    1.750    2.000 
#    0.000    1.875    0.000    0.000    0.000    0.000 
#    0.000    0.000    0.000    0.000    0.000    0.000 
#
# Total GULP energy -198260.602208 kJ/mol
# GULP energy per Si atom -12391.287638 kJ/mol
# Density = 2.163320 g / cm^3
# Si number density = 21.682552 Si / 1000 Ang^3
#
#
#
# Elastic Constant Matrix: (Units=GPa)
#
#
# Indices 1 2 3 4 5 6 
#
# 1 119.1363 59.1392 21.7229 3.4535 -0.6234 -3.2771
# 2 59.1392 135.1445 18.9972 -8.8595 3.9620 4.9991
# 3 21.7229 18.9972 50.0287 5.4645 -5.1507 -10.3697
# 4 3.4535 -8.8595 5.4645 31.2226 7.4133 -4.8150
# 5 -0.6234 3.9620 -5.1507 7.4133 29.6847 0.5176
# 6 -3.2771 4.9991 -10.3697 -4.8150 0.5176 45.7420
#
#
#
# Elastic Compliance Matrix: (Units=1/GPa)
#
#
# Indices 1 2 3 4 5 6 
#
# 1 0.011339 -0.004787 -0.002653 -0.002308 0.000985 0.000480
# 2 -0.004787 0.010362 -0.003006 0.004476 -0.003094 -0.001651
# 3 -0.002653 -0.003006 0.024533 -0.005469 0.005880 0.005058
# 4 -0.002308 0.004476 -0.005469 0.037454 -0.010986 0.002172
# 5 0.000985 -0.003094 0.005880 -0.010986 0.037882 0.000157
# 6 0.000480 -0.001651 0.005058 0.002172 0.000157 0.023450
#
#
# Mechanical properties :
#
#
# Convention : Reuss Voigt Hill
#
# Bulk Modulus (GPa) = 39.45884 56.00312 47.73098
# Shear Modulus (GPa) = 28.67653 34.95988 31.81820
#
# Velocity S-wave (km/s) = 3.64065 4.01977 3.83490
# Velocity P-wave (km/s) = 5.99253 6.88690 6.45522
#
# Compressibility (1/GPa) = 0.02534286
#
# Stress axis : x y z
#
# Youngs Moduli (GPa) = 88.19157 96.50680 40.76164
#
# Poissons Ratio (x) = 0.46197 0.10813
# Poissons Ratio (y) = 0.42217 0.12252
# Poissons Ratio (z) = 0.23395 0.29008
#
# Static dielectric constant tensor:
#      x y z
#    x 3.968750 0.533210 0.000680 
#    y 0.533210 4.878170 -0.192510 
#    z 0.000680 -0.192510 3.832070 
# 
# 
# High freq. dielectric constant tensor:
#      x y z
#    x 1.841350 0.027060 0.002350 
#    y 0.027060 1.859890 0.006960 
#    z 0.002350 0.006960 1.837110 
# 
# From -- ./inp_files/397493.got.cif
#   From: 2010.06.25/outbox.cif.g09.slc.cpg/sg2_199_cif.got.tgz:397493.got - 2010.06.27 13:26:56.
