data_PCOD8029704
_publ_section_title
;
Structure prediction by ZEFSAII (Michael W. Deem and Ramdas Pophale) SiO2 
 PCOD8029704
Probable space group: P -1
;
_chemical_formula_sum "Si O2"
_cell_formula_units_Z 16
_cell_length_a 9.556270
_cell_length_b 17.918983
_cell_length_c 10.891683
_cell_angle_alpha 127.031395
_cell_angle_beta 114.801892
_cell_angle_gamma 29.490226
_cell_volume 706.435887
_symmetry_space_group_name_H-M "P -1"
_symmetry_group_IT_number 2
_symmetry_cell_setting 'triclinic'
loop_
_space_group_symop_operation_xyz
x,y,z
-x,-y,-z
loop_
_atom_site_type_symbol
_atom_site_label
_atom_site_fract_x
_atom_site_fract_y
_atom_site_fract_z
Si Si1 0.744595 0.559014 0.490376
Si Si2 0.788021 0.806218 0.599674
Si Si3 0.815037 0.690432 0.992941
Si Si4 0.199929 0.092680 0.818074
Si Si5 0.878945 0.962190 0.700827
Si Si6 0.751923 0.690865 0.246412
Si Si7 0.672756 0.128314 0.161767
Si Si8 0.828395 0.182286 0.585581
O O1 0.562317 0.692376 0.668946
O O2 0.524727 0.655129 0.388733
O O3 0.000000 0.500000 0.500000
O O4 0.907785 0.377371 0.402193
O O5 0.779943 0.921833 0.698786
O O6 0.784561 0.759132 0.419542
O O7 0.501261 0.921317 0.683096
O O8 0.843613 0.777623 0.028150
O O9 0.866785 0.670088 0.137164
O O10 0.486028 0.820494 0.972047
O O11 0.058311 0.497105 0.829003
O O12 0.915247 0.213397 0.750318
O O13 0.211859 0.022841 0.873843
O O14 0.053242 0.944063 0.835724
O O15 0.079319 0.829263 0.526945
O O16 0.587702 0.165194 0.744864
O O17 0.000000 0.000000 0.500000
#
# Coordination Sequence:
#
# PCOD8029704 Si02
#       8
#     2   2   2   2   2   2   2   2
#     4  11  22  39  66 100 132 166 209 273 326 373
#     4  12  22  42  71  98 125 167 226 263 323 381
#     4  11  25  43  63  94 132 176 215 253 327 388
#     4  12  22  44  69  97 126 172 215 266 318 390
#     4  11  23  40  66  99 124 171 215 273 320 374
#     4  11  23  42  66  92 131 170 212 270 314 384
#     4  11  24  42  65  92 138 169 209 267 325 382
#     4  11  21  38  66  99 131 161 212 274 324 367
#
# _framework density 22.648904999999999
#
# number of rings (size 3 to 8) (size 9 to 14) (size 15 to 20)
#    0.000    0.750    7.500    1.500    0.000    2.500 
#    4.500    0.625    0.000    0.000    0.000    0.000 
#    0.000    0.000    0.000    0.000    0.000    0.000 
#
# Total GULP energy -198428.381090 kJ/mol
# GULP energy per Si atom -12401.773818 kJ/mol
# Density = 2.259736 g / cm^3
# Si number density = 22.648905 Si / 1000 Ang^3
#
#
#
# Elastic Constant Matrix: (Units=GPa)
#
#
# Indices 1 2 3 4 5 6 
#
# 1 72.1562 41.1313 21.3481 0.7366 26.1616 -13.5450
# 2 41.1313 181.0802 40.7032 -11.6299 31.3309 -18.0699
# 3 21.3481 40.7032 66.3661 -3.1855 30.4256 1.3444
# 4 0.7366 -11.6299 -3.1855 36.0666 -0.2517 5.7392
# 5 26.1616 31.3309 30.4256 -0.2517 35.2999 -3.5446
# 6 -13.5450 -18.0699 1.3444 5.7392 -3.5446 38.5103
#
#
#
# Elastic Compliance Matrix: (Units=1/GPa)
#
#
# Indices 1 2 3 4 5 6 
#
# 1 0.020827 -0.002115 0.000609 -0.002001 -0.013559 0.005362
# 2 -0.002115 0.007373 -0.002701 0.001796 -0.002402 0.002321
# 3 0.000609 -0.002701 0.026461 0.001978 -0.021273 -0.004230
# 4 -0.002001 0.001796 0.001978 0.029219 -0.002057 -0.004474
# 5 -0.013559 -0.002402 -0.021273 -0.002057 0.058888 0.000573
# 6 0.005362 0.002321 -0.004230 -0.004474 0.000573 0.029809
#
#
# Mechanical properties :
#
#
# Convention : Reuss Voigt Hill
#
# Bulk Modulus (GPa) = 21.62253 58.44086 40.03170
# Shear Modulus (GPa) = 25.45733 36.40335 30.93034
#
# Velocity S-wave (km/s) = 3.35625 4.01345 3.69947
# Velocity P-wave (km/s) = 4.95850 6.88012 5.99678
#
# Compressibility (1/GPa) = 0.04624806
#
# Stress axis : x y z
#
# Youngs Moduli (GPa) = 48.01356 135.63854 37.79079
#
# Poissons Ratio (x) = 0.28690 -0.02302
# Poissons Ratio (y) = 0.10156 0.10206
# Poissons Ratio (z) = -0.02925 0.36633
#
# Static dielectric constant tensor:
#      x y z
#    x 3.977940 -0.203050 0.165550 
#    y -0.203050 5.125770 -0.129820 
#    z 0.165550 -0.129820 3.961020 
# 
# 
# High freq. dielectric constant tensor:
#      x y z
#    x 1.882680 -0.002140 0.007000 
#    y -0.002140 1.909450 -0.006630 
#    z 0.007000 -0.006630 1.880220 
# 
# From -- ./inp_files/267788.got.cif
#   From: 2010.06.25/outbox.cif.g09.slc.cpg/sg2_134_cif.got.tgz:267788.got - 2010.06.27 13:26:56.
