data_PCOD8029987
_publ_section_title
;
Structure prediction by ZEFSAII (Michael W. Deem and Ramdas Pophale) SiO2 
 PCOD8029987
Probable space group: P -1
;
_chemical_formula_sum "Si O2"
_cell_formula_units_Z 14
_cell_length_a 7.244325
_cell_length_b 13.018555
_cell_length_c 8.939966
_cell_angle_alpha 90.563829
_cell_angle_beta 95.160407
_cell_angle_gamma 42.979405
_cell_volume 570.516692
_symmetry_space_group_name_H-M "P -1"
_symmetry_group_IT_number 2
_symmetry_cell_setting 'triclinic'
loop_
_space_group_symop_operation_xyz
x,y,z
-x,-y,-z
loop_
_atom_site_type_symbol
_atom_site_label
_atom_site_fract_x
_atom_site_fract_y
_atom_site_fract_z
Si Si1 0.201531 0.700807 0.420328
Si Si2 0.303176 0.219335 0.438206
Si Si3 0.200205 0.043506 0.334876
Si Si4 0.263699 0.457891 0.378013
Si Si5 0.181919 0.978898 0.706323
Si Si6 0.198648 0.086139 0.000108
Si Si7 0.719798 0.415226 0.881699
O O1 0.092697 0.624859 0.443911
O O2 0.422758 0.652141 0.551505
O O3 0.343899 0.637182 0.263572
O O4 0.932905 0.880289 0.402232
O O5 0.120511 0.191930 0.388087
O O6 0.151346 0.393348 0.426337
O O7 0.497554 0.154325 0.304870
O O8 0.501839 0.118238 0.593497
O O9 0.960761 0.064756 0.367906
O O10 0.180685 0.042206 0.157472
O O11 0.255924 0.480886 0.195625
O O12 0.124746 0.026692 0.875667
O O13 0.004501 0.264617 0.972755
O O14 0.500000 0.000000 0.000000
O O15 0.500000 0.500000 0.000000
#
# Coordination Sequence:
#
# PCOD8029987 Si02
#       7
#     2   2   2   2   2   2   2
#     4   8  18  35  63  91 126 170 220 264 336 398
#     4  11  23  39  66  97 136 171 231 285 332 396
#     4  11  24  38  62 102 131 176 229 273 338 406
#     4   9  18  38  61  92 132 170 212 280 339 388
#     4  11  21  41  68  96 131 181 223 279 341 397
#     4  11  23  44  66  95 140 180 222 279 338 406
#     4   9  20  36  66 100 129 171 228 274 336 405
#
# _framework density 24.539159000000001
#
# number of rings (size 3 to 8) (size 9 to 14) (size 15 to 20)
#    0.857    1.143    2.857    0.857    2.000    0.000 
#    0.000    0.714    0.000   11.143    0.000    0.000 
#    0.000    0.000    0.000    0.000    0.000    0.000 
#
# Total GULP energy -173444.474971 kJ/mol
# GULP energy per Si atom -12388.891069 kJ/mol
# Density = 2.448331 g / cm^3
# Si number density = 24.539159 Si / 1000 Ang^3
#
#
#
# Elastic Constant Matrix: (Units=GPa)
#
#
# Indices 1 2 3 4 5 6 
#
# 1 116.9379 58.0950 33.0885 1.0281 1.2793 42.0527
# 2 58.0950 148.1284 42.7656 -1.5234 1.3807 13.9945
# 3 33.0885 42.7656 137.6927 -11.3936 -7.2741 15.8342
# 4 1.0281 -1.5234 -11.3936 35.2282 3.1478 1.7573
# 5 1.2793 1.3807 -7.2741 3.1478 26.1722 -6.6937
# 6 42.0527 13.9945 15.8342 1.7573 -6.6937 43.4609
#
#
#
# Elastic Compliance Matrix: (Units=1/GPa)
#
#
# Indices 1 2 3 4 5 6 
#
# 1 0.016618 -0.004767 -0.001036 0.000134 -0.004674 -0.014893
# 2 -0.004767 0.008950 -0.001937 -0.000210 -0.000132 0.002424
# 3 -0.001036 -0.001937 0.008581 0.002619 0.001886 -0.001315
# 4 0.000134 -0.000210 0.002619 0.029675 -0.003543 -0.002762
# 5 -0.004674 -0.000132 0.001886 -0.003543 0.042080 0.010502
# 6 -0.014893 0.002424 -0.001315 -0.002762 0.010502 0.038847
#
#
# Mechanical properties :
#
#
# Convention : Reuss Voigt Hill
#
# Bulk Modulus (GPa) = 53.56542 74.51746 64.04144
# Shear Modulus (GPa) = 30.03823 38.89292 34.46557
#
# Velocity S-wave (km/s) = 3.50250 3.98544 3.75175
# Velocity P-wave (km/s) = 6.18325 7.18408 6.70237
#
# Compressibility (1/GPa) = 0.01866876
#
# Stress axis : x y z
#
# Youngs Moduli (GPa) = 60.17402 111.73599 116.53827
#
# Poissons Ratio (x) = 0.53259 0.12077
# Poissons Ratio (y) = 0.28682 0.22577
# Poissons Ratio (z) = 0.06236 0.21647
#
# Static dielectric constant tensor:
#      x y z
#    x 4.204280 -0.100640 -0.338650 
#    y -0.100640 5.157950 0.548800 
#    z -0.338650 0.548800 5.249650 
# 
# 
# High freq. dielectric constant tensor:
#      x y z
#    x 1.963300 -0.000340 -0.023530 
#    y -0.000340 1.992610 0.004270 
#    z -0.023530 0.004270 1.990760 
# 
# From -- ./inp_files/187759.got.cif
#   From: 2010.06.25/outbox.cif.g09.slc.cpg/sg2_94_cif.got.tgz:187759.got - 2010.06.27 13:26:56.
