data_PCOD8029831
_publ_section_title
;
Structure prediction by ZEFSAII (Michael W. Deem and Ramdas Pophale) SiO2 
 PCOD8029831
Probable space group: P -1
;
_chemical_formula_sum "Si O2"
_cell_formula_units_Z 10
_cell_length_a 23.021298
_cell_length_b 9.288808
_cell_length_c 7.140776
_cell_angle_alpha 51.157486
_cell_angle_beta 143.163831
_cell_angle_gamma 147.707241
_cell_volume 483.239781
_symmetry_space_group_name_H-M "P -1"
_symmetry_group_IT_number 2
_symmetry_cell_setting 'triclinic'
loop_
_space_group_symop_operation_xyz
x,y,z
-x,-y,-z
loop_
_atom_site_type_symbol
_atom_site_label
_atom_site_fract_x
_atom_site_fract_y
_atom_site_fract_z
Si Si1 0.145433 0.147054 0.851224
Si Si2 0.365802 0.098480 0.960194
Si Si3 0.095244 0.799063 0.312405
Si Si4 0.839555 0.488058 0.156306
Si Si5 0.571013 0.556086 0.836395
O O1 0.194560 0.370404 0.943923
O O2 0.269555 0.298445 0.895895
O O3 0.000000 0.000000 0.500000
O O4 0.122719 0.919323 0.080476
O O5 0.483696 0.278979 0.952483
O O6 0.230021 0.037624 0.600561
O O7 0.310519 0.807813 0.068253
O O8 0.426185 0.251840 0.189832
O O9 0.086174 0.560797 0.473071
O O10 0.949132 0.681008 0.112060
O O11 0.500000 0.500000 0.500000
#
# Coordination Sequence:
#
# PCOD8029831 Si02
#       5
#     2   2   2   2   2
#     4  12  24  37  64  99 123 158 216 259 299 368
#     4   9  20  41  64  84 124 173 197 247 318 369
#     4   9  19  41  64  86 130 162 201 254 316 361
#     4   9  20  40  63  90 124 164 209 248 315 368
#     4  11  21  40  65  89 127 165 203 256 314 365
#
# _framework density 20.693660999999999
#
# number of rings (size 3 to 8) (size 9 to 14) (size 15 to 20)
#    1.200    0.800    2.000    1.800    0.000    1.600 
#    3.600    1.000    0.000    0.000    0.000    0.000 
#    0.000    0.000    0.000    0.000    0.000    0.000 
#
# Total GULP energy -123937.818794 kJ/mol
# GULP energy per Si atom -12393.781879 kJ/mol
# Density = 2.064656 g / cm^3
# Si number density = 20.693661 Si / 1000 Ang^3
#
#
#
# Elastic Constant Matrix: (Units=GPa)
#
#
# Indices 1 2 3 4 5 6 
#
# 1 109.1092 45.1540 11.9371 2.4003 -3.4817 34.0043
# 2 45.1540 98.0536 13.1342 10.3257 -2.7577 29.4451
# 3 11.9371 13.1342 74.8145 9.0547 -9.0120 13.4553
# 4 2.4003 10.3257 9.0547 28.3163 0.2827 5.7727
# 5 -3.4817 -2.7577 -9.0120 0.2827 25.4539 3.0837
# 6 34.0043 29.4451 13.4553 5.7727 3.0837 39.0658
#
#
#
# Elastic Compliance Matrix: (Units=1/GPa)
#
#
# Indices 1 2 3 4 5 6 
#
# 1 0.013722 -0.003516 0.000302 0.002016 0.002782 -0.009915
# 2 -0.003516 0.014498 0.000039 -0.003487 0.002054 -0.007527
# 3 0.000302 0.000039 0.015542 -0.003939 0.006266 -0.005558
# 4 0.002016 -0.003487 -0.003939 0.038367 -0.001521 -0.003319
# 5 0.002782 0.002054 0.006266 -0.001521 0.043254 -0.009317
# 6 -0.009915 -0.007527 -0.005558 -0.003319 -0.009317 0.043042
#
#
# Mechanical properties :
#
#
# Convention : Reuss Voigt Hill
#
# Bulk Modulus (GPa) = 26.72879 46.93644 36.83262
# Shear Modulus (GPa) = 26.70290 32.68402 29.69346
#
# Velocity S-wave (km/s) = 3.59610 3.97851 3.79212
# Velocity P-wave (km/s) = 5.49427 6.62084 6.08369
#
# Compressibility (1/GPa) = 0.03741284
#
# Stress axis : x y z
#
# Youngs Moduli (GPa) = 72.87755 68.97608 64.33988
#
# Poissons Ratio (x) = 0.24251 -0.01945
# Poissons Ratio (y) = 0.25623 -0.00251
# Poissons Ratio (z) = -0.02203 -0.00270
#
# Static dielectric constant tensor:
#      x y z
#    x 3.632190 0.228720 -0.014100 
#    y 0.228720 3.852810 0.145430 
#    z -0.014100 0.145430 3.399890 
# 
# 
# High freq. dielectric constant tensor:
#      x y z
#    x 1.800950 0.022640 -0.001390 
#    y 0.022640 1.817650 0.011680 
#    z -0.001390 0.011680 1.782300 
# 
# From -- ./inp_files/26679.got.cif
#   From: 2010.06.25/outbox.cif.g09.slc.cpg/sg2_14_cif.got.tgz:26679.got - 2010.06.27 13:26:56.
