data_PCOD8029342
_publ_section_title
;
Structure prediction by ZEFSAII (Michael W. Deem and Ramdas Pophale) SiO2 
 PCOD8029342
Probable space group: P -1
;
_chemical_formula_sum "Si O2"
_cell_formula_units_Z 16
_cell_length_a 17.804535
_cell_length_b 8.939297
_cell_length_c 11.444056
_cell_angle_alpha 60.882226
_cell_angle_beta 120.614671
_cell_angle_gamma 150.372613
_cell_volume 770.788247
_symmetry_space_group_name_H-M "P -1"
_symmetry_group_IT_number 2
_symmetry_cell_setting 'triclinic'
loop_
_space_group_symop_operation_xyz
x,y,z
-x,-y,-z
loop_
_atom_site_type_symbol
_atom_site_label
_atom_site_fract_x
_atom_site_fract_y
_atom_site_fract_z
Si Si1 0.345404 0.150986 0.048410
Si Si2 0.598650 0.922428 0.472287
Si Si3 0.775345 0.849149 0.824242
Si Si4 0.928616 0.385441 0.615783
Si Si5 0.494963 0.040591 0.178601
Si Si6 0.726245 0.419315 0.023014
Si Si7 0.548736 0.615256 0.339888
Si Si8 0.808521 0.165524 0.179249
O O1 0.268640 0.097996 0.123628
O O2 0.400276 0.045741 0.151917
O O3 0.500000 0.500000 0.000000
O O4 0.201158 0.913923 0.931621
O O5 0.635022 0.838190 0.434259
O O6 0.474679 0.629946 0.572933
O O7 0.765949 0.225728 0.550453
O O8 0.530376 0.984778 0.342175
O O9 0.618957 0.568143 0.733027
O O10 0.902771 0.147807 0.730300
O O11 0.836261 0.761457 0.949233
O O12 0.000000 0.500000 0.500000
O O13 0.045209 0.666631 0.694233
O O14 0.654240 0.347459 0.120881
O O15 0.401098 0.786935 0.101882
O O16 0.814704 0.382394 0.111919
O O17 0.648501 0.824240 0.227476
#
# Coordination Sequence:
#
# PCOD8029342 Si02
#       8
#     2   2   2   2   2   2   2   2
#     4  11  21  35  60  87 114 149 183 234 290 338
#     4  10  19  32  56  86 110 147 186 241 276 321
#     4  11  21  36  58  90 113 146 190 231 288 338
#     4  11  23  37  56  83 117 153 189 230 282 335
#     4  10  17  31  55  88 114 138 188 241 283 317
#     4  10  17  30  56  87 114 137 188 245 276 321
#     4  10  17  31  56  83 110 138 194 232 270 322
#     4  11  21  36  57  87 117 149 185 231 288 335
#
# _framework density 20.757971999999999
#
# number of rings (size 3 to 8) (size 9 to 14) (size 15 to 20)
#    0.000    1.500    6.250    0.750    0.000    1.000 
#    0.000    2.500    0.000    0.750    3.250    0.000 
#    0.000    0.000    0.000    0.000    0.000    0.000 
#
# Total GULP energy -198236.007640 kJ/mol
# GULP energy per Si atom -12389.750478 kJ/mol
# Density = 2.071073 g / cm^3
# Si number density = 20.757972 Si / 1000 Ang^3
#
#
#
# Elastic Constant Matrix: (Units=GPa)
#
#
# Indices 1 2 3 4 5 6 
#
# 1 52.5613 19.3997 34.4354 -8.5099 -3.1676 -12.9350
# 2 19.3997 88.4934 51.5573 0.1621 5.5393 0.6709
# 3 34.4354 51.5573 125.3945 -12.2683 14.9032 -10.4871
# 4 -8.5099 0.1621 -12.2683 54.6473 -0.2514 3.1995
# 5 -3.1676 5.5393 14.9032 -0.2514 21.3165 -1.0192
# 6 -12.9350 0.6709 -10.4871 3.1995 -1.0192 16.4555
#
#
#
# Elastic Compliance Matrix: (Units=1/GPa)
#
#
# Indices 1 2 3 4 5 6 
#
# 1 0.030570 -0.003980 -0.006112 0.002248 0.010858 0.020532
# 2 -0.003980 0.015835 -0.006096 -0.001606 -0.000817 -0.007398
# 3 -0.006112 -0.006096 0.013649 0.001901 -0.008690 0.003235
# 4 0.002248 -0.001606 0.001901 0.019120 -0.000386 -0.000697
# 5 0.010858 -0.000817 -0.008690 -0.000386 0.055120 0.006519
# 6 0.020532 -0.007398 0.003235 -0.000697 0.006519 0.079812
#
#
# Mechanical properties :
#
#
# Convention : Reuss Voigt Hill
#
# Bulk Modulus (GPa) = 36.13125 53.02598 44.57862
# Shear Modulus (GPa) = 19.55355 29.22100 24.38727
#
# Velocity S-wave (km/s) = 3.07250 3.75600 3.43131
# Velocity P-wave (km/s) = 5.48003 6.66411 6.10087
#
# Compressibility (1/GPa) = 0.02767687
#
# Stress axis : x y z
#
# Youngs Moduli (GPa) = 32.71209 63.15208 73.26458
#
# Poissons Ratio (x) = 0.25136 0.44778
# Poissons Ratio (y) = 0.13020 0.44665
# Poissons Ratio (z) = 0.19993 0.38500
#
# Static dielectric constant tensor:
#      x y z
#    x 3.252150 -0.085880 0.002220 
#    y -0.085880 3.834080 -0.097470 
#    z 0.002220 -0.097470 4.104620 
# 
# 
# High freq. dielectric constant tensor:
#      x y z
#    x 1.753000 -0.007770 -0.001060 
#    y -0.007770 1.811720 -0.004050 
#    z -0.001060 -0.004050 1.835960 
# 
# From -- ./inp_files/239541.got.cif
#   From: 2010.06.25/outbox.cif.g09.slc.cpg/sg2_120_cif.got.tgz:239541.got - 2010.06.27 13:26:56.
