data_PCOD8029632
_publ_section_title
;
Structure prediction by ZEFSAII (Michael W. Deem and Ramdas Pophale) SiO2 
 PCOD8029632
Probable space group: P -1
;
_chemical_formula_sum "Si O2"
_cell_formula_units_Z 16
_cell_length_a 9.198455
_cell_length_b 18.590996
_cell_length_c 8.341491
_cell_angle_alpha 96.924179
_cell_angle_beta 75.063026
_cell_angle_gamma 143.901559
_cell_volume 802.341290
_symmetry_space_group_name_H-M "P -1"
_symmetry_group_IT_number 2
_symmetry_cell_setting 'triclinic'
loop_
_space_group_symop_operation_xyz
x,y,z
-x,-y,-z
loop_
_atom_site_type_symbol
_atom_site_label
_atom_site_fract_x
_atom_site_fract_y
_atom_site_fract_z
Si Si1 0.737298 0.313024 0.976045
Si Si2 0.606859 0.555209 0.728713
Si Si3 0.894931 0.131150 0.810496
Si Si4 0.761688 0.961107 0.049762
Si Si5 0.418213 0.979245 0.698401
Si Si6 0.634575 0.657198 0.454093
Si Si7 0.727091 0.446832 0.214520
Si Si8 0.953060 0.268221 0.099532
O O1 0.499391 0.186888 0.914253
O O2 0.965318 0.424863 0.818190
O O3 0.641086 0.347224 0.101253
O O4 0.847598 0.302814 0.076186
O O5 0.742947 0.641708 0.552116
O O6 0.493951 0.432956 0.684465
O O7 0.373523 0.518335 0.832112
O O8 0.787837 0.617249 0.845799
O O9 0.663946 0.080214 0.770862
O O10 0.125977 0.201992 0.640640
O O11 0.004358 0.231381 0.933020
O O12 0.791111 0.017918 0.892318
O O13 0.746376 0.011041 0.218605
O O14 0.000000 0.000000 0.000000
O O15 0.500000 0.000000 0.500000
O O16 0.254599 0.844992 0.750018
O O17 0.413946 0.620230 0.591216
#
# Coordination Sequence:
#
# PCOD8029632 Si02
#       8
#     2   2   2   2   2   2   2   2
#     4  11  21  40  61  86 127 158 207 250 311 367
#     4   9  20  37  63  88 119 161 203 250 301 362
#     4  11  21  41  66  90 125 160 208 262 302 378
#     4  11  25  43  64  93 124 169 207 258 318 370
#     4  11  23  41  65  95 121 167 209 262 311 369
#     4   9  20  40  63  92 124 157 208 254 309 362
#     4   9  22  38  61  87 121 166 194 257 305 366
#     4  11  21  37  62  94 120 159 213 249 304 372
#
# _framework density 19.94164
#
# number of rings (size 3 to 8) (size 9 to 14) (size 15 to 20)
#    0.750    1.000    2.500    2.250    3.500    3.000 
#    4.500    1.875    0.000    0.000    0.000    0.000 
#    0.000    0.000    0.000    0.000    0.000    0.000 
#
# Total GULP energy -198324.213359 kJ/mol
# GULP energy per Si atom -12395.263335 kJ/mol
# Density = 1.989625 g / cm^3
# Si number density = 19.941640 Si / 1000 Ang^3
#
#
#
# Elastic Constant Matrix: (Units=GPa)
#
#
# Indices 1 2 3 4 5 6 
#
# 1 75.5110 17.7484 46.6646 11.6041 -17.4601 11.8830
# 2 17.7484 60.1651 21.6650 -3.5390 -14.1706 7.7262
# 3 46.6646 21.6650 99.8009 -10.8737 -22.7466 1.1557
# 4 11.6041 -3.5390 -10.8737 37.8073 7.2833 2.5565
# 5 -17.4601 -14.1706 -22.7466 7.2833 31.3167 5.6671
# 6 11.8830 7.7262 1.1557 2.5565 5.6671 29.8999
#
#
#
# Elastic Compliance Matrix: (Units=1/GPa)
#
#
# Indices 1 2 3 4 5 6 
#
# 1 0.026491 -0.000482 -0.010900 -0.012799 0.011618 -0.011090
# 2 -0.000482 0.020421 -0.002155 0.000241 0.008552 -0.006644
# 3 -0.010900 -0.002155 0.017044 0.007245 0.003095 0.003024
# 4 -0.012799 0.000241 0.007245 0.034234 -0.010412 0.003791
# 5 0.011618 0.008552 0.003095 -0.010412 0.049751 -0.015486
# 6 -0.011090 -0.006644 0.003024 0.003791 -0.015486 0.042063
#
#
# Mechanical properties :
#
#
# Convention : Reuss Voigt Hill
#
# Bulk Modulus (GPa) = 27.11383 45.29255 36.20319
# Shear Modulus (GPa) = 21.79854 29.76472 25.78163
#
# Velocity S-wave (km/s) = 3.30982 3.86760 3.59953
# Velocity P-wave (km/s) = 5.31344 6.53500 5.95562
#
# Compressibility (1/GPa) = 0.03688155
#
# Stress axis : x y z
#
# Youngs Moduli (GPa) = 37.74877 48.96962 58.67063
#
# Poissons Ratio (x) = 0.02360 0.63951
# Poissons Ratio (y) = 0.01820 0.12644
# Poissons Ratio (z) = 0.41146 0.10554
#
# Static dielectric constant tensor:
#      x y z
#    x 3.429120 -0.013900 -0.118960 
#    y -0.013900 3.660950 -0.179080 
#    z -0.118960 -0.179080 3.612120 
# 
# 
# High freq. dielectric constant tensor:
#      x y z
#    x 1.752020 0.003510 -0.012940 
#    y 0.003510 1.787410 -0.011140 
#    z -0.012940 -0.011140 1.776240 
# 
# From -- ./inp_files/217861.got.cif
#   From: 2010.06.25/outbox.cif.g09.slc.cpg/sg2_109_cif.got.tgz:217861.got - 2010.06.27 13:26:56.
