data_PCOD8029758
_publ_section_title
;
Structure prediction by ZEFSAII (Michael W. Deem and Ramdas Pophale) SiO2 
 PCOD8029758
Probable space group: P -1
;
_chemical_formula_sum "Si O2"
_cell_formula_units_Z 14
_cell_length_a 9.136914
_cell_length_b 11.999583
_cell_length_c 12.147777
_cell_angle_alpha 58.337901
_cell_angle_beta 79.778504
_cell_angle_gamma 38.336580
_cell_volume 630.151047
_symmetry_space_group_name_H-M "P -1"
_symmetry_group_IT_number 2
_symmetry_cell_setting 'triclinic'
loop_
_space_group_symop_operation_xyz
x,y,z
-x,-y,-z
loop_
_atom_site_type_symbol
_atom_site_label
_atom_site_fract_x
_atom_site_fract_y
_atom_site_fract_z
Si Si1 0.350931 0.754665 0.056283
Si Si2 0.500777 0.176287 0.703178
Si Si3 0.595865 0.613288 0.605163
Si Si4 0.195392 0.995615 0.625615
Si Si5 0.293405 0.575745 0.651263
Si Si6 0.208856 0.127002 0.771507
Si Si7 0.975587 0.951973 0.843182
O O1 0.648516 0.500000 0.186650
O O2 0.189400 0.849702 0.142881
O O3 0.328162 0.920043 0.932409
O O4 0.250542 0.724829 0.990384
O O5 0.463317 0.222333 0.553859
O O6 0.359856 0.403382 0.657276
O O7 0.370504 0.137012 0.780830
O O8 0.807552 0.950844 0.821071
O O9 0.464624 0.577792 0.591197
O O10 0.903944 0.371234 0.711856
O O11 0.466570 0.742196 0.673418
O O12 0.253519 0.070418 0.664552
O O13 0.015718 0.171832 0.455033
O O14 0.027137 0.008335 0.704753
#
# Coordination Sequence:
#
# PCOD8029758 Si02
#       7
#     2   2   2   2   2   2   2
#     4   9  20  38  66  88 127 167 204 255 318 366
#     4  11  22  37  68  92 127 166 207 259 314 365
#     4  12  23  39  66  97 123 165 209 265 313 362
#     4  11  23  40  67  93 128 160 212 263 313 365
#     4  11  21  39  65  97 121 159 212 264 306 373
#     4  11  24  44  60  93 132 168 208 250 311 391
#     4   9  18  37  60  93 114 159 207 253 303 361
#
# _framework density 22.216894
#
# number of rings (size 3 to 8) (size 9 to 14) (size 15 to 20)
#    0.000    1.429    2.857    5.571    0.000    2.857 
#    0.000    6.429    0.000    0.857    0.000    3.000 
#    0.000    0.000    0.000    0.000    0.000    0.000 
#
# Total GULP energy -173461.448214 kJ/mol
# GULP energy per Si atom -12390.103444 kJ/mol
# Density = 2.216633 g / cm^3
# Si number density = 22.216894 Si / 1000 Ang^3
#
#
#
# Elastic Constant Matrix: (Units=GPa)
#
#
# Indices 1 2 3 4 5 6 
#
# 1 138.6819 48.5317 37.2031 -2.5710 0.2937 -3.7413
# 2 48.5317 81.8001 33.6901 0.1938 4.4558 4.8966
# 3 37.2031 33.6901 152.5325 -6.3832 13.0964 -7.3432
# 4 -2.5710 0.1938 -6.3832 11.9845 -0.3463 -0.8584
# 5 0.2937 4.4558 13.0964 -0.3463 31.4362 2.7875
# 6 -3.7413 4.8966 -7.3432 -0.8584 2.7875 8.9347
#
#
#
# Elastic Compliance Matrix: (Units=1/GPa)
#
#
# Indices 1 2 3 4 5 6 
#
# 1 0.009684 -0.005908 -0.000670 0.002318 0.000446 0.006826
# 2 -0.005908 0.018134 -0.003547 -0.004577 0.000319 -0.015867
# 3 -0.000670 -0.003547 0.008554 0.005102 -0.003921 0.010407
# 4 0.002318 -0.004577 0.005102 0.087871 -0.002015 0.016743
# 5 0.000446 0.000319 -0.003921 -0.002015 0.034632 -0.014209
# 6 0.006826 -0.015867 0.010407 0.016743 -0.014209 0.138073
#
#
# Mechanical properties :
#
#
# Convention : Reuss Voigt Hill
#
# Bulk Modulus (GPa) = 62.02528 67.98494 65.00511
# Shear Modulus (GPa) = 15.50037 27.37705 21.43871
#
# Velocity S-wave (km/s) = 2.64424 3.51417 3.10977
# Velocity P-wave (km/s) = 6.10748 6.86534 6.49747
#
# Compressibility (1/GPa) = 0.01612246
#
# Stress axis : x y z
#
# Youngs Moduli (GPa) = 103.26164 55.14376 116.90414
#
# Poissons Ratio (x) = 0.32580 0.07829
# Poissons Ratio (y) = 0.61008 0.41468
# Poissons Ratio (z) = 0.06916 0.19561
#
# Static dielectric constant tensor:
#      x y z
#    x 3.981980 -0.064300 0.390210 
#    y -0.064300 3.725970 -0.061100 
#    z 0.390210 -0.061100 4.542410 
# 
# 
# High freq. dielectric constant tensor:
#      x y z
#    x 1.858100 -0.001260 0.018300 
#    y -0.001260 1.843870 0.001670 
#    z 0.018300 0.001670 1.890630 
# 
# From -- ./inp_files/386850.got.cif
#   From: 2010.06.25/outbox.cif.g09.slc.cpg/sg2_194_cif.got.tgz:386850.got - 2010.06.27 13:26:56.
