data_PCOD8029171
_publ_section_title
;
Structure prediction by ZEFSAII (Michael W. Deem and Ramdas Pophale) SiO2 
 PCOD8029171
Probable space group: P -1
;
_chemical_formula_sum "Si O2"
_cell_formula_units_Z 16
_cell_length_a 12.393550
_cell_length_b 14.473541
_cell_length_c 11.363466
_cell_angle_alpha 57.013995
_cell_angle_beta 48.748572
_cell_angle_gamma 96.138760
_cell_volume 866.287014
_symmetry_space_group_name_H-M "P -1"
_symmetry_group_IT_number 2
_symmetry_cell_setting 'triclinic'
loop_
_space_group_symop_operation_xyz
x,y,z
-x,-y,-z
loop_
_atom_site_type_symbol
_atom_site_label
_atom_site_fract_x
_atom_site_fract_y
_atom_site_fract_z
Si Si1 0.386343 0.957477 0.490372
Si Si2 0.193084 0.051855 0.634820
Si Si3 0.352582 0.474975 0.472029
Si Si4 0.287082 0.228723 0.845701
Si Si5 0.252407 0.562702 0.877010
Si Si6 0.636152 0.915713 0.279139
Si Si7 0.964541 0.591235 0.095447
Si Si8 0.450223 0.416271 0.216149
O O1 0.551015 0.992032 0.254971
O O2 0.500000 0.000000 0.500000
O O3 0.352351 0.069863 0.423647
O O4 0.151539 0.773180 0.786493
O O5 0.174018 0.988435 0.826561
O O6 0.270311 0.221170 0.463165
O O7 0.959470 0.906520 0.846835
O O8 0.352788 0.353382 0.612280
O O9 0.564220 0.664596 0.222570
O O10 0.142058 0.423847 0.697686
O O11 0.354623 0.456152 0.343588
O O12 0.320391 0.124191 0.843988
O O13 0.444514 0.757253 0.604751
O O14 0.216012 0.502668 0.810617
O O15 0.325614 0.503023 0.948227
O O16 0.043383 0.509143 0.113757
O O17 0.500000 0.500000 0.000000
#
# Coordination Sequence:
#
# PCOD8029171 Si02
#       8
#     2   2   2   2   2   2   2   2
#     4   9  18  27  46  78 114 135 162 207 280 335
#     4  10  19  32  51  77 106 142 175 222 269 321
#     4  11  20  32  52  82 111 141 174 225 273 322
#     4  11  18  30  53  86 111 130 170 228 290 320
#     4   9  17  32  54  80 111 138 171 217 271 327
#     4   9  16  28  46  81 113 131 159 211 283 336
#     4  10  17  30  55  86 109 132 166 225 289 317
#     4  11  24  40  53  72 110 156 191 215 253 320
#
# _framework density 18.469629000000001
#
# number of rings (size 3 to 8) (size 9 to 14) (size 15 to 20)
#    0.000    2.000    5.000    1.875    0.000    0.000 
#    0.000    1.250    0.000    0.000    0.000    1.750 
#    0.000    0.000    0.000    0.000    0.000    0.000 
#
# Total GULP energy -198218.630357 kJ/mol
# GULP energy per Si atom -12388.664397 kJ/mol
# Density = 1.842759 g / cm^3
# Si number density = 18.469629 Si / 1000 Ang^3
#
#
#
# Elastic Constant Matrix: (Units=GPa)
#
#
# Indices 1 2 3 4 5 6 
#
# 1 56.3898 23.7885 22.2828 14.0746 -5.8663 -3.3443
# 2 23.7885 110.4108 19.1984 21.2636 -2.1275 -20.2395
# 3 22.2828 19.1984 42.8587 3.5513 -11.6569 -2.5920
# 4 14.0746 21.2636 3.5513 33.2801 1.1685 -10.3372
# 5 -5.8663 -2.1275 -11.6569 1.1685 21.2270 7.0169
# 6 -3.3443 -20.2395 -2.5920 -10.3372 7.0169 20.1837
#
#
#
# Elastic Compliance Matrix: (Units=1/GPa)
#
#
# Indices 1 2 3 4 5 6 
#
# 1 0.025621 -0.002843 -0.010623 -0.009980 0.003605 -0.006334
# 2 -0.002843 0.013372 -0.005312 -0.002400 -0.006638 0.013334
# 3 -0.010623 -0.005312 0.035837 0.000667 0.019076 -0.008775
# 4 -0.009980 -0.002400 0.000667 0.043136 -0.012424 0.022437
# 5 0.003605 -0.006638 0.019076 -0.012424 0.069934 -0.034285
# 6 -0.006334 0.013334 -0.008775 0.022437 -0.034285 0.084151
#
#
# Mechanical properties :
#
#
# Convention : Reuss Voigt Hill
#
# Bulk Modulus (GPa) = 26.82783 37.79984 32.31384
# Shear Modulus (GPa) = 15.52648 24.56414 20.04531
#
# Velocity S-wave (km/s) = 2.90254 3.65084 3.29798
# Velocity P-wave (km/s) = 5.07838 6.18723 5.66002
#
# Compressibility (1/GPa) = 0.03727472
#
# Stress axis : x y z
#
# Youngs Moduli (GPa) = 39.03076 74.78425 27.90386
#
# Poissons Ratio (x) = 0.21259 0.29642
# Poissons Ratio (y) = 0.11095 0.14823
# Poissons Ratio (z) = 0.41461 0.39726
#
# Static dielectric constant tensor:
#      x y z
#    x 3.143670 -0.370000 -0.518240 
#    y -0.370000 3.926680 0.083890 
#    z -0.518240 0.083890 3.005380 
# 
# 
# High freq. dielectric constant tensor:
#      x y z
#    x 1.657320 -0.017620 -0.064300 
#    y -0.017620 1.749710 -0.008480 
#    z -0.064300 -0.008480 1.683650 
# 
# From -- ./inp_files/354740.got.cif
#   From: 2010.06.25/outbox.cif.g09.slc.cpg/sg2_178_cif.got.tgz:354740.got - 2010.06.27 13:26:56.
