data_PCOD8029805
_publ_section_title
;
Structure prediction by ZEFSAII (Michael W. Deem and Ramdas Pophale) SiO2 
 PCOD8029805
Probable space group: P -1
;
_chemical_formula_sum "Si O2"
_cell_formula_units_Z 12
_cell_length_a 12.071262
_cell_length_b 8.220021
_cell_length_c 10.425941
_cell_angle_alpha 54.480994
_cell_angle_beta 133.868852
_cell_angle_gamma 91.108916
_cell_volume 459.656009
_symmetry_space_group_name_H-M "P -1"
_symmetry_group_IT_number 2
_symmetry_cell_setting 'triclinic'
loop_
_space_group_symop_operation_xyz
x,y,z
-x,-y,-z
loop_
_atom_site_type_symbol
_atom_site_label
_atom_site_fract_x
_atom_site_fract_y
_atom_site_fract_z
Si Si1 0.077584 0.022329 0.859507
Si Si2 0.554339 0.247288 0.095842
Si Si3 0.485285 0.892697 0.322492
Si Si4 0.160487 0.518687 0.060194
Si Si5 0.051818 0.242620 0.471144
Si Si6 0.736051 0.533524 0.461954
O O1 0.994774 0.180821 0.584942
O O2 0.887818 0.214647 0.717078
O O3 0.268973 0.972376 0.099604
O O4 0.128832 0.749903 0.006701
O O5 0.462949 0.143407 0.153170
O O6 0.794652 0.020385 0.372176
O O7 0.500000 0.500000 0.000000
O O8 0.465808 0.320773 0.849000
O O9 0.604609 0.760527 0.613930
O O10 0.655995 0.632138 0.494670
O O11 0.000000 0.500000 0.000000
O O12 0.135761 0.562698 0.865852
O O13 0.145916 0.370615 0.534614
#
# Coordination Sequence:
#
# PCOD8029805 Si02
#       6
#     2   2   2   2   2   2
#     4  12  25  45  76 102 133 193 241 276 345 426
#     4  11  21  39  71 104 136 183 231 283 345 411
#     4  11  24  48  69 102 147 182 229 293 347 412
#     4  12  25  45  70 103 148 183 224 297 358 400
#     4  11  22  46  71 102 140 184 234 291 336 419
#     4  11  22  42  76 100 139 182 237 285 345 408
#
# _framework density 26.106480000000001
#
# number of rings (size 3 to 8) (size 9 to 14) (size 15 to 20)
#    0.000    0.667    6.667    3.500    0.000    0.667 
#    0.000    0.833    3.667    0.000    0.000    0.000 
#    0.000    0.000    0.000    0.000    0.000    0.000 
#
# Total GULP energy -148796.155479 kJ/mol
# GULP energy per Si atom -12399.679623 kJ/mol
# Density = 2.604706 g / cm^3
# Si number density = 26.106480 Si / 1000 Ang^3
#
#
#
# Elastic Constant Matrix: (Units=GPa)
#
#
# Indices 1 2 3 4 5 6 
#
# 1 33.8086 6.3731 31.1332 -3.0328 8.5591 5.5886
# 2 6.3731 101.6062 25.5826 -4.2351 -5.9757 11.5243
# 3 31.1332 25.5826 171.3668 23.9466 -18.0171 12.2506
# 4 -3.0328 -4.2351 23.9466 39.5663 2.2405 4.7679
# 5 8.5591 -5.9757 -18.0171 2.2405 27.5006 -9.5207
# 6 5.5886 11.5243 12.2506 4.7679 -9.5207 19.7464
#
#
#
# Elastic Compliance Matrix: (Units=1/GPa)
#
#
# Indices 1 2 3 4 5 6 
#
# 1 0.064957 0.002785 -0.017607 0.022940 -0.045709 -0.036663
# 2 0.002785 0.011226 -0.002508 0.004129 -0.003306 -0.008376
# 3 -0.017607 -0.002508 0.012053 -0.011081 0.017170 0.009923
# 4 0.022940 0.004129 -0.011081 0.038370 -0.024652 -0.023179
# 5 -0.045709 -0.003306 0.017170 -0.024652 0.080001 0.048739
# 6 -0.036663 -0.008376 0.009923 -0.023179 0.048739 0.088846
#
#
# Mechanical properties :
#
#
# Convention : Reuss Voigt Hill
#
# Bulk Modulus (GPa) = 18.66494 48.10661 33.38577
# Shear Modulus (GPa) = 14.36897 33.60884 23.98890
#
# Velocity S-wave (km/s) = 2.34860 3.59189 3.03460
# Velocity P-wave (km/s) = 3.81046 5.97238 5.00944
#
# Compressibility (1/GPa) = 0.05357640
#
# Stress axis : x y z
#
# Youngs Moduli (GPa) = 15.39475 89.07667 82.96792
#
# Poissons Ratio (x) = -0.24809 1.46084
# Poissons Ratio (y) = -0.04288 0.20807
# Poissons Ratio (z) = 0.27106 0.22339
#
# Static dielectric constant tensor:
#      x y z
#    x 4.396160 0.087590 -0.072450 
#    y 0.087590 4.850550 0.094260 
#    z -0.072450 0.094260 5.283370 
# 
# 
# High freq. dielectric constant tensor:
#      x y z
#    x 2.018250 0.003930 -0.009070 
#    y 0.003930 2.057800 0.002420 
#    z -0.009070 0.002420 2.073110 
# 
# From -- ./inp_files/333674.got.cif
#   From: 2010.06.25/outbox.cif.g09.slc.cpg/sg2_167_cif.got.tgz:333674.got - 2010.06.27 13:26:56.
