data_PCOD8029132
_publ_section_title
;
Structure prediction by ZEFSAII (Michael W. Deem and Ramdas Pophale) SiO2 
 PCOD8029132
Probable space group: P -1
;
_chemical_formula_sum "Si O2"
_cell_formula_units_Z 16
_cell_length_a 21.382676
_cell_length_b 15.339682
_cell_length_c 12.391651
_cell_angle_alpha 151.330503
_cell_angle_beta 152.637136
_cell_angle_gamma 23.731685
_cell_volume 704.826005
_symmetry_space_group_name_H-M "P -1"
_symmetry_group_IT_number 2
_symmetry_cell_setting 'triclinic'
loop_
_space_group_symop_operation_xyz
x,y,z
-x,-y,-z
loop_
_atom_site_type_symbol
_atom_site_label
_atom_site_fract_x
_atom_site_fract_y
_atom_site_fract_z
Si Si1 0.660840 0.912016 0.227371
Si Si2 0.288668 0.725042 0.341786
Si Si3 0.349265 0.713402 0.656457
Si Si4 0.188407 0.523500 0.321435
Si Si5 0.034793 0.769553 0.848278
Si Si6 0.464579 0.984415 0.204230
Si Si7 0.209030 0.298332 0.486377
Si Si8 0.000951 0.490445 0.808468
O O1 0.620438 0.850112 0.210419
O O2 0.836047 0.685264 0.205607
O O3 0.693811 0.096922 0.497793
O O4 0.500000 0.000000 0.000000
O O5 0.235419 0.801778 0.468873
O O6 0.464351 0.476384 0.314889
O O7 0.142209 0.713596 0.060575
O O8 0.281977 0.633964 0.559087
O O9 0.342886 0.910263 0.921614
O O10 0.071746 0.625292 0.361967
O O11 0.341846 0.255219 0.289185
O O12 0.061817 0.584713 0.093703
O O13 0.140236 0.557365 0.694204
O O14 0.863744 0.800720 0.654520
O O15 0.000000 0.000000 0.000000
O O16 0.579365 0.885352 0.382724
O O17 0.152652 0.308747 0.286506
#
# Coordination Sequence:
#
# PCOD8029132 Si02
#       8
#     2   2   2   2   2   2   2   2
#     4  12  20  39  70 100 128 163 212 273 327 373
#     4  11  20  35  63 101 125 161 216 269 322 374
#     4  11  22  37  65  96 125 161 215 268 314 378
#     4  11  25  45  67  90 130 173 219 265 319 386
#     4  11  22  37  60  97 135 167 207 269 328 380
#     4  12  23  41  68  98 129 168 215 268 324 381
#     4  11  24  40  62  93 136 171 211 268 325 382
#     4  11  24  45  66  93 129 175 215 265 326 384
#
# _framework density 22.700638999999999
#
# number of rings (size 3 to 8) (size 9 to 14) (size 15 to 20)
#    0.000    0.750    5.000    3.750    1.750    0.500 
#    0.000    8.750    0.000    0.000    0.000    0.000 
#    0.000    0.000    0.000    0.000    0.000    0.000 
#
# Total GULP energy -198291.408202 kJ/mol
# GULP energy per Si atom -12393.213013 kJ/mol
# Density = 2.264897 g / cm^3
# Si number density = 22.700639 Si / 1000 Ang^3
#
#
#
# Elastic Constant Matrix: (Units=GPa)
#
#
# Indices 1 2 3 4 5 6 
#
# 1 73.4505 49.2439 30.5672 2.2909 10.9229 5.6041
# 2 49.2439 29.8236 22.5952 -24.7073 10.7806 28.0083
# 3 30.5672 22.5952 107.3313 -15.3930 18.2020 18.4159
# 4 2.2909 -24.7073 -15.3930 45.0824 19.7515 5.2179
# 5 10.9229 10.7806 18.2020 19.7515 31.3932 -4.0280
# 6 5.6041 28.0083 18.4159 5.2179 -4.0280 28.7964
#
#
#
# Elastic Compliance Matrix: (Units=1/GPa)
#
#
# Indices 1 2 3 4 5 6 
#
# 1 0.012425 0.005052 0.001879 0.011192 -0.015829 -0.012775
# 2 0.005052 -0.007608 -0.008997 -0.018366 0.019973 0.018292
# 3 0.001879 -0.008997 0.011753 0.001271 -0.005190 -0.000088
# 4 0.011192 -0.018366 0.001271 0.012702 -0.004789 0.011901
# 5 -0.015829 0.019973 -0.005190 -0.004789 0.035603 -0.007180
# 6 -0.012775 0.018292 -0.000088 0.011901 -0.007180 0.016317
#
#
# Mechanical properties :
#
#
# Convention : Reuss Voigt Hill
#
# Bulk Modulus (GPa) = 80.39245 46.15756 63.27501
# Shear Modulus (GPa) = 55.88441 28.26766 42.07604
#
# Velocity S-wave (km/s) = 4.96703 3.53262 4.30992
# Velocity P-wave (km/s) = 8.26960 6.08412 7.25957
#
# Compressibility (1/GPa) = 0.01243898
#
# Stress axis : x y z
#
# Youngs Moduli (GPa) = 80.48116 -131.44560 85.08446
#
# Poissons Ratio (x) = 0.66400 -0.15991
# Poissons Ratio (y) = -0.40655 0.76548
# Poissons Ratio (z) = -0.15126 -1.18258
#
# Static dielectric constant tensor:
#      x y z
#    x 4.219990 0.168430 0.040070 
#    y 0.168430 4.190060 -0.350570 
#    z 0.040070 -0.350570 4.283030 
# 
# 
# High freq. dielectric constant tensor:
#      x y z
#    x 1.885630 0.014900 0.010370 
#    y 0.014900 1.893730 -0.020020 
#    z 0.010370 -0.020020 1.900050 
# 
# From -- ./inp_files/471813.got.cif
#   From: 2010.06.25/outbox.cif.g09.slc.cpg/sg2_236_cif.got.tgz:471813.got - 2010.06.27 13:26:56.
