data_PCOD8029604
_publ_section_title
;
Structure prediction by ZEFSAII (Michael W. Deem and Ramdas Pophale) SiO2 
 PCOD8029604
Probable space group: P -1
;
_chemical_formula_sum "Si O2"
_cell_formula_units_Z 12
_cell_length_a 14.330765
_cell_length_b 12.411314
_cell_length_c 13.924660
_cell_angle_alpha 138.284705
_cell_angle_beta 20.611787
_cell_angle_gamma 137.693770
_cell_volume 571.271774
_symmetry_space_group_name_H-M "P -1"
_symmetry_group_IT_number 2
_symmetry_cell_setting 'triclinic'
loop_
_space_group_symop_operation_xyz
x,y,z
-x,-y,-z
loop_
_atom_site_type_symbol
_atom_site_label
_atom_site_fract_x
_atom_site_fract_y
_atom_site_fract_z
Si Si1 0.488557 0.818543 0.080001
Si Si2 0.755589 0.853005 0.650362
Si Si3 0.982747 0.367332 0.013665
Si Si4 0.250181 0.444185 0.271905
Si Si5 0.582071 0.835475 0.599297
Si Si6 0.995512 0.568444 0.313013
O O1 0.239933 0.667017 0.207272
O O2 0.408037 0.974316 0.317851
O O3 0.579036 0.889104 0.934903
O O4 0.733130 0.750117 0.854095
O O5 0.563207 0.826525 0.726506
O O6 0.868309 0.686290 0.444040
O O7 0.000000 0.000000 0.500000
O O8 0.148080 0.223520 0.734888
O O9 0.000000 0.500000 0.000000
O O10 0.675278 0.284564 0.273519
O O11 0.092252 0.441182 0.060915
O O12 0.232716 0.515941 0.445712
O O13 0.000000 0.500000 0.500000
O O14 0.500000 0.500000 0.000000
#
# Coordination Sequence:
#
# PCOD8029604 Si02
#       6
#     2   2   2   2   2   2
#     4  11  24  40  69  97 127 172 229 269 330 379
#     4  11  21  36  61  97 136 175 219 262 312 383
#     4  12  26  40  60  95 144 182 212 248 321 395
#     4  11  24  44  72  99 123 159 226 297 332 371
#     4  12  25  40  61  93 142 179 208 261 315 393
#     4  11  24  40  68  98 129 173 225 266 322 394
#
# _framework density 21.005763999999999
#
# number of rings (size 3 to 8) (size 9 to 14) (size 15 to 20)
#    0.000    0.667    5.000    3.000    7.000    0.000 
#    0.000    0.000    0.000    6.000    0.000    0.000 
#    0.000    0.000    0.000    0.000    0.000    0.000 
#
# Total GULP energy -148664.873579 kJ/mol
# GULP energy per Si atom -12388.739465 kJ/mol
# Density = 2.095795 g / cm^3
# Si number density = 21.005764 Si / 1000 Ang^3
#
#
#
# Elastic Constant Matrix: (Units=GPa)
#
#
# Indices 1 2 3 4 5 6 
#
# 1 90.5482 55.7282 45.8247 12.7953 4.7153 -13.8187
# 2 55.7282 75.7569 38.9348 9.8468 9.2369 5.8967
# 3 45.8247 38.9348 125.6627 17.4831 6.7296 -9.6910
# 4 12.7953 9.8468 17.4831 53.8476 -8.5825 -4.5704
# 5 4.7153 9.2369 6.7296 -8.5825 47.1549 -5.5127
# 6 -13.8187 5.8967 -9.6910 -4.5704 -5.5127 29.8830
#
#
#
# Elastic Compliance Matrix: (Units=1/GPa)
#
#
# Indices 1 2 3 4 5 6 
#
# 1 0.027239 -0.020471 -0.002519 0.000060 0.003584 0.016489
# 2 -0.020471 0.032555 -0.003342 -0.002616 -0.006501 -0.018573
# 3 -0.002519 -0.003342 0.010424 -0.002076 -0.000675 0.002433
# 4 0.000060 -0.002616 -0.002076 0.020856 0.005066 0.003995
# 5 0.003584 -0.006501 -0.000675 0.005066 0.024068 0.007936
# 6 0.016489 -0.018573 0.002433 0.003995 0.007936 0.047618
#
#
# Mechanical properties :
#
#
# Convention : Reuss Voigt Hill
#
# Bulk Modulus (GPa) = 56.96568 63.66035 60.31301
# Shear Modulus (GPa) = 22.59637 36.27577 29.43607
#
# Velocity S-wave (km/s) = 3.28338 4.16016 3.74750
# Velocity P-wave (km/s) = 6.44609 7.31080 6.89202
#
# Compressibility (1/GPa) = 0.01755443
#
# Stress axis : x y z
#
# Youngs Moduli (GPa) = 36.71222 30.71739 95.92848
#
# Poissons Ratio (x) = 0.62881 0.24165
# Poissons Ratio (y) = 0.75153 0.32058
# Poissons Ratio (z) = 0.09248 0.10265
#
# Static dielectric constant tensor:
#      x y z
#    x 3.883540 -0.229360 0.079250 
#    y -0.229360 3.801190 0.283510 
#    z 0.079250 0.283510 3.879750 
# 
# 
# High freq. dielectric constant tensor:
#      x y z
#    x 1.800640 -0.013740 -0.002470 
#    y -0.013740 1.801960 0.011260 
#    z -0.002470 0.011260 1.852380 
# 
# From -- ./inp_files/23918.got.cif
#   From: 2010.06.25/outbox.cif.g09.slc.cpg/sg2_12_cif.got.tgz:23918.got - 2010.06.27 13:26:56.
