data_PCOD8029258
_publ_section_title
;
Structure prediction by ZEFSAII (Michael W. Deem and Ramdas Pophale) SiO2 
 PCOD8029258
Probable space group: P -1
;
_chemical_formula_sum "Si O2"
_cell_formula_units_Z 14
_cell_length_a 11.254151
_cell_length_b 11.453909
_cell_length_c 14.087311
_cell_angle_alpha 121.343813
_cell_angle_beta 150.556238
_cell_angle_gamma 47.996931
_cell_volume 653.530417
_symmetry_space_group_name_H-M "P -1"
_symmetry_group_IT_number 2
_symmetry_cell_setting 'triclinic'
loop_
_space_group_symop_operation_xyz
x,y,z
-x,-y,-z
loop_
_atom_site_type_symbol
_atom_site_label
_atom_site_fract_x
_atom_site_fract_y
_atom_site_fract_z
Si Si1 0.790019 0.958773 0.731718
Si Si2 0.643152 0.349863 0.968648
Si Si3 0.519477 0.896513 0.239851
Si Si4 0.139818 0.951450 0.475476
Si Si5 0.166383 0.575671 0.059615
Si Si6 0.612948 0.595179 0.677602
Si Si7 0.087683 0.096694 0.885820
O O1 0.500000 0.000000 0.500000
O O2 0.739781 0.995632 0.823960
O O3 0.860003 0.078036 0.778922
O O4 0.049959 0.776605 0.827263
O O5 0.429562 0.281047 0.790608
O O6 0.670443 0.400246 0.902695
O O7 0.500000 0.500000 0.000000
O O8 0.791474 0.912820 0.455953
O O9 0.405647 0.970020 0.087105
O O10 0.427225 0.782445 0.607077
O O11 0.926171 0.939923 0.249887
O O12 0.000000 0.000000 0.500000
O O13 0.394587 0.434837 0.226972
O O14 0.994602 0.723628 0.075437
O O15 0.932516 0.537125 0.841147
O O16 0.500000 0.500000 0.500000
#
# Coordination Sequence:
#
# PCOD8029258 Si02
#       7
#     2   2   2   2   2   2   2
#     4  11  20  38  73  98 124 172 225 262 319 408
#     4  11  24  42  67 102 135 166 212 283 342 375
#     4  11  22  44  67  95 130 176 221 261 328 408
#     4  12  26  41  63 101 132 168 219 272 327 383
#     4  11  22  42  68  93 126 174 220 259 320 395
#     4  11  24  41  67  93 127 175 223 260 313 389
#     4  11  20  39  70  93 123 173 222 265 316 395
#
# _framework density 21.422108999999999
#
# number of rings (size 3 to 8) (size 9 to 14) (size 15 to 20)
#    0.000    0.857    7.143    0.857    0.000    4.000 
#    0.000    0.714    0.000    0.000    0.000    0.000 
#    0.000    0.000    0.000    0.000    0.000    0.000 
#
# Total GULP energy -173562.350449 kJ/mol
# GULP energy per Si atom -12397.310746 kJ/mol
# Density = 2.137335 g / cm^3
# Si number density = 21.422109 Si / 1000 Ang^3
#
#
#
# Elastic Constant Matrix: (Units=GPa)
#
#
# Indices 1 2 3 4 5 6 
#
# 1 94.2094 36.4413 12.6055 15.1224 -12.9735 -0.3075
# 2 36.4413 105.7961 29.7092 21.4151 0.1903 -0.2803
# 3 12.6055 29.7092 90.2112 20.0011 -13.1434 0.7164
# 4 15.1224 21.4151 20.0011 36.1402 8.7409 -3.3437
# 5 -12.9735 0.1903 -13.1434 8.7409 37.0879 4.2792
# 6 -0.3075 -0.2803 0.7164 -3.3437 4.2792 36.8518
#
#
#
# Elastic Compliance Matrix: (Units=1/GPa)
#
#
# Indices 1 2 3 4 5 6 
#
# 1 0.013938 -0.004058 0.001849 -0.006317 0.007197 -0.001359
# 2 -0.004058 0.012417 -0.002966 -0.003613 -0.001681 -0.000014
# 3 0.001849 -0.002966 0.015232 -0.009729 0.008605 -0.002185
# 4 -0.006317 -0.003613 -0.009729 0.042318 -0.016287 0.005840
# 5 0.007197 -0.001681 0.008605 -0.016287 0.037058 -0.005901
# 6 -0.001359 -0.000014 -0.002185 0.005840 -0.005901 0.028382
#
#
# Mechanical properties :
#
#
# Convention : Reuss Voigt Hill
#
# Bulk Modulus (GPa) = 32.01389 49.74763 40.88076
# Shear Modulus (GPa) = 29.39334 36.11336 32.75335
#
# Velocity S-wave (km/s) = 3.70821 4.11030 3.91442
# Velocity P-wave (km/s) = 5.77158 6.76750 6.28929
#
# Compressibility (1/GPa) = 0.03123644
#
# Stress axis : x y z
#
# Youngs Moduli (GPa) = 71.74846 80.53411 65.65245
#
# Poissons Ratio (x) = 0.32679 -0.12138
# Poissons Ratio (y) = 0.29114 0.19473
# Poissons Ratio (z) = -0.13265 0.23887
#
# Static dielectric constant tensor:
#      x y z
#    x 3.851610 0.283610 -0.175000 
#    y 0.283610 3.901070 0.211590 
#    z -0.175000 0.211590 4.116280 
# 
# 
# High freq. dielectric constant tensor:
#      x y z
#    x 1.836880 0.026000 -0.009740 
#    y 0.026000 1.826790 0.018390 
#    z -0.009740 0.018390 1.847780 
# 
# From -- ./inp_files/270721.got.cif
#   From: 2010.06.25/outbox.cif.g09.slc.cpg/sg2_136_cif.got.tgz:270721.got - 2010.06.27 13:26:56.
