data_PCOD8029518
_publ_section_title
;
Structure prediction by ZEFSAII (Michael W. Deem and Ramdas Pophale) SiO2 
 PCOD8029518
Probable space group: P -1
;
_chemical_formula_sum "Si O2"
_cell_formula_units_Z 16
_cell_length_a 14.502492
_cell_length_b 12.334985
_cell_length_c 8.700015
_cell_angle_alpha 51.178097
_cell_angle_beta 106.882178
_cell_angle_gamma 137.851613
_cell_volume 767.076255
_symmetry_space_group_name_H-M "P -1"
_symmetry_group_IT_number 2
_symmetry_cell_setting 'triclinic'
loop_
_space_group_symop_operation_xyz
x,y,z
-x,-y,-z
loop_
_atom_site_type_symbol
_atom_site_label
_atom_site_fract_x
_atom_site_fract_y
_atom_site_fract_z
Si Si1 0.343871 0.379340 0.097912
Si Si2 0.151671 0.637623 0.876089
Si Si3 0.411824 0.985956 0.340248
Si Si4 0.583276 0.460443 0.495103
Si Si5 0.879108 0.466385 0.397592
Si Si6 0.342487 0.100640 0.466762
Si Si7 0.367065 0.658414 0.085502
Si Si8 0.851640 0.753257 0.159959
O O1 0.265702 0.166281 0.340409
O O2 0.364194 0.517400 0.110669
O O3 0.500000 0.500000 0.000000
O O4 0.236839 0.324689 0.969184
O O5 0.124541 0.548241 0.774278
O O6 0.242642 0.880598 0.701749
O O7 0.224496 0.598725 0.051715
O O8 0.000000 0.500000 0.000000
O O9 0.275486 0.752201 0.420138
O O10 0.500000 0.000000 0.500000
O O11 0.373185 0.086827 0.318207
O O12 0.500202 0.104425 0.122316
O O13 0.500000 0.500000 0.500000
O O14 0.490359 0.290818 0.463705
O O15 0.609036 0.360549 0.711675
O O16 0.741925 0.681005 0.309683
O O17 0.902660 0.649674 0.298831
O O18 0.000000 0.500000 0.500000
O O19 0.000000 0.000000 0.000000
#
# Coordination Sequence:
#
# PCOD8029518 Si02
#       8
#     2   2   2   2   2   2   2   2
#     4  12  21  43  73  98 132 183 230 276 343 417
#     4  11  27  46  65  99 138 180 228 278 351 406
#     4  11  20  43  73  99 126 177 237 274 335 414
#     4  12  26  44  66 110 141 172 234 292 342 404
#     4  11  26  45  69  98 138 176 230 286 336 409
#     4  11  23  41  72  96 132 177 230 275 335 414
#     4  12  23  42  72  98 137 179 219 290 341 400
#     4  12  28  46  71 103 140 186 237 280 342 418
#
# _framework density 20.858422000000001
#
# number of rings (size 3 to 8) (size 9 to 14) (size 15 to 20)
#    0.000    0.500    7.500    0.750    5.250    2.500 
#    0.000    1.250    0.000    0.000    0.000    0.000 
#    0.000    0.000    0.000    0.000    0.000    0.000 
#
# Total GULP energy -198339.782126 kJ/mol
# GULP energy per Si atom -12396.236383 kJ/mol
# Density = 2.081095 g / cm^3
# Si number density = 20.858422 Si / 1000 Ang^3
#
#
#
# Elastic Constant Matrix: (Units=GPa)
#
#
# Indices 1 2 3 4 5 6 
#
# 1 123.9347 33.4612 56.9900 -23.6847 10.0032 12.9274
# 2 33.4612 82.9415 35.4847 -16.7426 2.3477 8.7718
# 3 56.9900 35.4847 121.1966 -4.1557 6.0424 9.1496
# 4 -23.6847 -16.7426 -4.1557 41.8662 8.3433 7.9440
# 5 10.0032 2.3477 6.0424 8.3433 49.4001 0.9993
# 6 12.9274 8.7718 9.1496 7.9440 0.9993 31.2582
#
#
#
# Elastic Compliance Matrix: (Units=1/GPa)
#
#
# Indices 1 2 3 4 5 6 
#
# 1 0.013032 -0.000726 -0.005035 0.008321 -0.003278 -0.005722
# 2 -0.000726 0.015786 -0.003636 0.006675 -0.001190 -0.004724
# 3 -0.005035 -0.003636 0.011509 -0.003335 0.000336 0.000571
# 4 0.008321 0.006675 -0.003335 0.034828 -0.007214 -0.012959
# 5 -0.003278 -0.001190 0.000336 -0.007214 0.022086 0.002719
# 6 -0.005722 -0.004724 0.000571 -0.012959 0.002719 0.038723
#
#
# Mechanical properties :
#
#
# Convention : Reuss Voigt Hill
#
# Bulk Modulus (GPa) = 46.43840 64.43830 55.43835
# Shear Modulus (GPa) = 30.87701 37.98070 34.42886
#
# Velocity S-wave (km/s) = 3.85166 4.27181 4.06716
# Velocity P-wave (km/s) = 6.48786 7.43582 6.97795
#
# Compressibility (1/GPa) = 0.02153390
#
# Stress axis : x y z
#
# Youngs Moduli (GPa) = 76.73707 63.34891 86.89038
#
# Poissons Ratio (x) = 0.04597 0.43746
# Poissons Ratio (y) = 0.05569 0.31591
# Poissons Ratio (z) = 0.38634 0.23032
#
# Static dielectric constant tensor:
#      x y z
#    x 3.799960 0.066640 0.331730 
#    y 0.066640 3.861430 0.061130 
#    z 0.331730 0.061130 4.276280 
# 
# 
# High freq. dielectric constant tensor:
#      x y z
#    x 1.821710 -0.001630 0.016730 
#    y -0.001630 1.811530 -0.000600 
#    z 0.016730 -0.000600 1.831730 
# 
# From -- ./inp_files/298880.got.cif
#   From: 2010.06.25/outbox.cif.g09.slc.cpg/sg2_150_cif.got.tgz:298880.got - 2010.06.27 13:26:56.
