data_PCOD8029647
_publ_section_title
;
Structure prediction by ZEFSAII (Michael W. Deem and Ramdas Pophale) SiO2 
 PCOD8029647
Probable space group: P -1
;
_chemical_formula_sum "Si O2"
_cell_formula_units_Z 16
_cell_length_a 11.957666
_cell_length_b 11.741589
_cell_length_c 9.258112
_cell_angle_alpha 94.968292
_cell_angle_beta 124.419570
_cell_angle_gamma 119.843677
_cell_volume 797.726043
_symmetry_space_group_name_H-M "P -1"
_symmetry_group_IT_number 2
_symmetry_cell_setting 'triclinic'
loop_
_space_group_symop_operation_xyz
x,y,z
-x,-y,-z
loop_
_atom_site_type_symbol
_atom_site_label
_atom_site_fract_x
_atom_site_fract_y
_atom_site_fract_z
Si Si1 0.097042 0.438552 0.735467
Si Si2 0.536340 0.400052 0.442004
Si Si3 0.299138 0.185077 0.470793
Si Si4 0.501991 0.625507 0.087117
Si Si5 0.951532 0.151768 0.761225
Si Si6 0.043870 0.865237 0.895936
Si Si7 0.710690 0.809499 0.006230
Si Si8 0.074720 0.411647 0.381151
O O1 0.112249 0.409036 0.576539
O O2 0.958178 0.278626 0.703353
O O3 0.020953 0.522028 0.705197
O O4 0.296725 0.547943 0.964562
O O5 0.500000 0.500000 0.500000
O O6 0.460900 0.261037 0.481093
O O7 0.424044 0.338381 0.206967
O O8 0.744287 0.491145 0.571368
O O9 0.374368 0.301667 0.671505
O O10 0.135630 0.162331 0.272113
O O11 0.228361 0.018353 0.440832
O O12 0.500000 0.500000 0.000000
O O13 0.596390 0.770207 0.063850
O O14 0.955629 0.166028 0.938723
O O15 0.122417 0.177724 0.828635
O O16 0.056603 0.759613 0.795891
O O17 0.223297 0.037812 0.005823
#
# Coordination Sequence:
#
# PCOD8029647 Si02
#       8
#     2   2   2   2   2   2   2   2
#     4  11  26  44  62  90 128 165 207 256 308 369
#     4  12  20  39  66  94 120 164 210 250 306 365
#     4  11  23  37  64  97 126 158 201 261 313 361
#     4  12  23  39  62  97 123 160 214 258 300 365
#     4  11  22  40  62  94 129 157 204 258 312 365
#     4  11  22  40  62  94 127 162 202 252 317 365
#     4  11  21  37  64  93 127 159 201 262 306 363
#     4  11  25  44  65  88 124 170 206 252 315 367
#
# _framework density 20.057013000000001
#
# number of rings (size 3 to 8) (size 9 to 14) (size 15 to 20)
#    0.000    0.750    6.250    2.250    3.500    1.500 
#    0.000    2.500    0.000    0.000    0.000    0.000 
#    0.000    0.000    0.000    0.000    0.000    0.000 
#
# Total GULP energy -198409.977408 kJ/mol
# GULP energy per Si atom -12400.623588 kJ/mol
# Density = 2.001136 g / cm^3
# Si number density = 20.057013 Si / 1000 Ang^3
#
#
#
# Elastic Constant Matrix: (Units=GPa)
#
#
# Indices 1 2 3 4 5 6 
#
# 1 85.4331 32.2870 24.8492 3.6839 -3.8190 4.6537
# 2 32.2870 108.7061 22.3234 -1.3041 0.0272 8.2140
# 3 24.8492 22.3234 87.2611 10.7643 -11.5531 -2.9341
# 4 3.6839 -1.3041 10.7643 29.8152 1.0481 -6.1126
# 5 -3.8190 0.0272 -11.5531 1.0481 27.4276 1.5687
# 6 4.6537 8.2140 -2.9341 -6.1126 1.5687 33.4924
#
#
#
# Elastic Compliance Matrix: (Units=1/GPa)
#
#
# Indices 1 2 3 4 5 6 
#
# 1 0.014038 -0.003466 -0.002901 -0.001200 0.000874 -0.001615
# 2 -0.003466 0.010853 -0.002201 0.001321 -0.001353 -0.002068
# 3 -0.002901 -0.002201 0.014242 -0.004869 0.005724 0.001034
# 4 -0.001200 0.001321 -0.004869 0.036945 -0.003994 0.006346
# 5 0.000874 -0.001353 0.005724 -0.003994 0.039253 -0.001856
# 6 -0.001615 -0.002068 0.001034 0.006346 -0.001856 0.031925
#
#
# Mechanical properties :
#
#
# Convention : Reuss Voigt Hill
#
# Bulk Modulus (GPa) = 45.46225 48.92438 47.19332
# Shear Modulus (GPa) = 29.11631 31.60975 30.36303
#
# Velocity S-wave (km/s) = 3.81422 3.97419 3.89503
# Velocity P-wave (km/s) = 6.48949 6.74570 6.61883
#
# Compressibility (1/GPa) = 0.02199627
#
# Stress axis : x y z
#
# Youngs Moduli (GPa) = 71.23703 92.13965 70.21287
#
# Poissons Ratio (x) = 0.31937 0.20370
# Poissons Ratio (y) = 0.24692 0.15454
# Poissons Ratio (z) = 0.20667 0.20280
#
# Static dielectric constant tensor:
#      x y z
#    x 3.737500 0.330290 -0.091140 
#    y 0.330290 4.214880 0.179820 
#    z -0.091140 0.179820 3.736650 
# 
# 
# High freq. dielectric constant tensor:
#      x y z
#    x 1.763100 0.024560 -0.021610 
#    y 0.024560 1.798210 0.014520 
#    z -0.021610 0.014520 1.779610 
# 
# From -- ./inp_files/182360.got.cif
#   From: 2010.06.25/outbox.cif.g09.slc.cpg/sg2_92_cif.got.tgz:182360.got - 2010.06.27 13:26:56.
