data_PCOD8029169
_publ_section_title
;
Structure prediction by ZEFSAII (Michael W. Deem and Ramdas Pophale) SiO2 
 PCOD8029169
Probable space group: P -1
;
_chemical_formula_sum "Si O2"
_cell_formula_units_Z 16
_cell_length_a 11.727394
_cell_length_b 14.012951
_cell_length_c 9.939168
_cell_angle_alpha 78.401111
_cell_angle_beta 88.443857
_cell_angle_gamma 31.421817
_cell_volume 800.088787
_symmetry_space_group_name_H-M "P -1"
_symmetry_group_IT_number 2
_symmetry_cell_setting 'triclinic'
loop_
_space_group_symop_operation_xyz
x,y,z
-x,-y,-z
loop_
_atom_site_type_symbol
_atom_site_label
_atom_site_fract_x
_atom_site_fract_y
_atom_site_fract_z
Si Si1 0.749303 0.481345 0.822370
Si Si2 0.833514 0.933650 0.672122
Si Si3 0.679636 0.080598 0.340026
Si Si4 0.328636 0.684954 0.105575
Si Si5 0.254663 0.114579 0.835400
Si Si6 0.511370 0.852607 0.151252
Si Si7 0.763598 0.487859 0.131821
Si Si8 0.951663 0.047488 0.205975
O O1 0.559979 0.687638 0.698929
O O2 0.669515 0.429266 0.826121
O O3 0.982373 0.324057 0.778146
O O4 0.782975 0.490127 0.971592
O O5 0.991750 0.724171 0.759044
O O6 0.971941 0.930856 0.692354
O O7 0.759915 0.980598 0.507776
O O8 0.610654 0.095815 0.726248
O O9 0.869885 0.011339 0.292902
O O10 0.649741 0.011348 0.262052
O O11 0.580082 0.540816 0.158427
O O12 0.253062 0.756031 0.932702
O O13 0.164010 0.867063 0.155563
O O14 0.364419 0.138912 0.824931
O O15 0.322144 0.003439 0.997557
O O16 0.701707 0.635396 0.160874
#
# Coordination Sequence:
#
# PCOD8029169 Si02
#       8
#     2   2   2   2   2   2   2   2
#     4  12  22  40  69  97 125 170 216 258 318 381
#     4  12  26  43  64  97 136 169 206 263 328 382
#     4  12  26  43  64  97 136 169 206 263 328 382
#     4  11  20  36  70  97 124 165 218 262 311 376
#     4  11  24  44  69  97 125 165 223 271 307 372
#     4  11  24  44  69  97 125 165 223 271 307 372
#     4  12  22  40  69  97 125 170 216 258 318 381
#     4  11  20  39  66  94 133 168 202 265 323 374
#
# _framework density 19.997781
#
# number of rings (size 3 to 8) (size 9 to 14) (size 15 to 20)
#    0.000    0.500    7.500    1.500    0.000    3.000 
#    0.000    2.500    0.000    0.000    0.000    0.000 
#    0.000    0.000    0.000    0.000    0.000    0.000 
#
# Total GULP energy -198535.986779 kJ/mol
# GULP energy per Si atom -12408.499174 kJ/mol
# Density = 1.995227 g / cm^3
# Si number density = 19.997781 Si / 1000 Ang^3
#
#
#
# Elastic Constant Matrix: (Units=GPa)
#
#
# Indices 1 2 3 4 5 6 
#
# 1 82.2985 24.9430 28.9003 6.1813 12.0456 20.4604
# 2 24.9430 77.1521 9.0025 -6.7529 4.5861 14.8575
# 3 28.9003 9.0025 88.7750 -2.2750 6.3612 5.0783
# 4 6.1813 -6.7529 -2.2750 25.3128 4.8153 1.3154
# 5 12.0456 4.5861 6.3612 4.8153 15.3271 7.9993
# 6 20.4604 14.8575 5.0783 1.3154 7.9993 26.5388
#
#
#
# Elastic Compliance Matrix: (Units=1/GPa)
#
#
# Indices 1 2 3 4 5 6 
#
# 1 0.018371 -0.003644 -0.004825 -0.004448 -0.005005 -0.009471
# 2 -0.003644 0.015834 0.000107 0.005524 -0.000404 -0.006228
# 3 -0.004825 0.000107 0.013044 0.002972 -0.003700 0.002131
# 4 -0.004448 0.005524 0.002972 0.044997 -0.014528 0.001916
# 5 -0.005005 -0.000404 -0.003700 -0.014528 0.086059 -0.020427
# 6 -0.009471 -0.006228 0.002131 0.001916 -0.020427 0.054123
#
#
# Mechanical properties :
#
#
# Convention : Reuss Voigt Hill
#
# Bulk Modulus (GPa) = 32.75967 41.54636 37.15301
# Shear Modulus (GPa) = 19.28089 25.79440 22.53764
#
# Velocity S-wave (km/s) = 3.10845 3.59536 3.36073
# Velocity P-wave (km/s) = 5.41299 6.16896 5.80330
#
# Compressibility (1/GPa) = 0.03052534
#
# Stress axis : x y z
#
# Youngs Moduli (GPa) = 54.43456 63.15602 76.66637
#
# Poissons Ratio (x) = 0.23015 0.36988
# Poissons Ratio (y) = 0.19837 -0.00823
# Poissons Ratio (z) = 0.26262 -0.00678
#
# Static dielectric constant tensor:
#      x y z
#    x 3.562340 0.059730 0.052640 
#    y 0.059730 3.862710 0.018470 
#    z 0.052640 0.018470 3.424290 
# 
# 
# High freq. dielectric constant tensor:
#      x y z
#    x 1.781270 0.006090 0.004150 
#    y 0.006090 1.801580 0.004870 
#    z 0.004150 0.004870 1.756350 
# 
# From -- ./inp_files/186363.got.cif
#   From: 2010.06.25/outbox.cif.g09.slc.cpg/sg2_94_cif.got.tgz:186363.got - 2010.06.27 13:26:56.
