data_PCOD8029624
_publ_section_title
;
Structure prediction by ZEFSAII (Michael W. Deem and Ramdas Pophale) SiO2 
 PCOD8029624
Probable space group: P -1
;
_chemical_formula_sum "Si O2"
_cell_formula_units_Z 16
_cell_length_a 10.372794
_cell_length_b 11.281302
_cell_length_c 9.820107
_cell_angle_alpha 97.426920
_cell_angle_beta 138.851749
_cell_angle_gamma 98.180073
_cell_volume 697.407400
_symmetry_space_group_name_H-M "P -1"
_symmetry_group_IT_number 2
_symmetry_cell_setting 'triclinic'
loop_
_space_group_symop_operation_xyz
x,y,z
-x,-y,-z
loop_
_atom_site_type_symbol
_atom_site_label
_atom_site_fract_x
_atom_site_fract_y
_atom_site_fract_z
Si Si1 0.640177 0.241345 0.251853
Si Si2 0.764586 0.535089 0.037613
Si Si3 0.168867 0.488573 0.427882
Si Si4 0.279750 0.842567 0.212221
Si Si5 0.095490 0.294448 0.575601
Si Si6 0.197954 0.329264 0.193168
Si Si7 0.411055 0.127059 0.306834
Si Si8 0.517434 0.747863 0.170612
O O1 0.670127 0.381059 0.359026
O O2 0.469577 0.137121 0.195058
O O3 0.857934 0.213011 0.422691
O O4 0.552880 0.226285 0.029383
O O5 0.762923 0.626413 0.175177
O O6 0.983750 0.513902 0.204091
O O7 0.732153 0.601373 0.884069
O O8 0.570200 0.401647 0.879165
O O9 0.064668 0.388480 0.450225
O O10 0.286798 0.432300 0.401801
O O11 0.368879 0.830722 0.430039
O O12 0.444754 0.831491 0.230503
O O13 0.262054 0.981374 0.200632
O O14 0.054539 0.731191 0.000554
O O15 0.226111 0.208713 0.612320
O O16 0.288577 0.217864 0.267222
#
# Coordination Sequence:
#
# PCOD8029624 Si02
#       8
#     2   2   2   2   2   2   2   2
#     4  11  23  42  60  96 136 161 209 258 312 384
#     4  11  21  37  61  97 132 162 199 254 318 380
#     4  11  21  38  63  94 135 168 193 260 321 375
#     4  11  25  48  66  89 128 166 222 268 303 368
#     4  11  21  38  60  91 133 170 198 249 322 377
#     4  12  24  42  67  96 128 166 212 259 321 377
#     4  11  27  45  67  91 122 176 218 262 311 364
#     4  12  23  39  66  95 131 169 206 254 320 382
#
# _framework density 22.942112000000002
#
# number of rings (size 3 to 8) (size 9 to 14) (size 15 to 20)
#    0.000    0.750    3.750    4.875    3.500    1.000 
#    0.000    0.625    0.000    0.000    0.000    0.000 
#    0.000    0.000    0.000    0.000    0.000    0.000 
#
# Total GULP energy -198481.191355 kJ/mol
# GULP energy per Si atom -12405.074460 kJ/mol
# Density = 2.288989 g / cm^3
# Si number density = 22.942112 Si / 1000 Ang^3
#
#
#
# Elastic Constant Matrix: (Units=GPa)
#
#
# Indices 1 2 3 4 5 6 
#
# 1 105.6553 37.6316 19.9793 -23.9033 -3.7903 -10.1574
# 2 37.6316 29.4421 13.8448 -9.5159 -10.6095 -1.1947
# 3 19.9793 13.8448 49.2170 -8.0217 -7.5024 8.1945
# 4 -23.9033 -9.5159 -8.0217 11.0053 6.0323 0.3506
# 5 -3.7903 -10.6095 -7.5024 6.0323 40.9465 -11.2163
# 6 -10.1574 -1.1947 8.1945 0.3506 -11.2163 27.9082
#
#
#
# Elastic Compliance Matrix: (Units=1/GPa)
#
#
# Indices 1 2 3 4 5 6 
#
# 1 0.029189 -0.025751 0.000746 0.046640 -0.009346 0.004960
# 2 -0.025751 0.075640 -0.010048 -0.007616 0.017586 0.003980
# 3 0.000746 -0.010048 0.026191 0.013488 -0.002156 -0.008885
# 4 0.046640 -0.007616 0.013488 0.209802 -0.026227 -0.000488
# 5 -0.009346 0.017586 -0.002156 -0.026227 0.034970 0.012369
# 6 0.004960 0.003980 -0.008885 -0.000488 0.012369 0.045393
#
#
# Mechanical properties :
#
#
# Convention : Reuss Voigt Hill
#
# Bulk Modulus (GPa) = 16.41633 36.35842 26.38738
# Shear Modulus (GPa) = 9.77337 23.49592 16.63465
#
# Velocity S-wave (km/s) = 2.06622 3.20369 2.69563
# Velocity P-wave (km/s) = 3.58656 5.43757 4.60601
#
# Compressibility (1/GPa) = 0.06091495
#
# Stress axis : x y z
#
# Youngs Moduli (GPa) = 34.26000 13.22051 38.18146
#
# Poissons Ratio (x) = 0.34044 -0.02848
# Poissons Ratio (y) = 0.88221 0.38363
# Poissons Ratio (z) = -0.02556 0.13283
#
# Static dielectric constant tensor:
#      x y z
#    x 4.255370 -0.071140 -0.077070 
#    y -0.071140 3.868200 -0.156450 
#    z -0.077070 -0.156450 4.034980 
# 
# 
# High freq. dielectric constant tensor:
#      x y z
#    x 1.924520 -0.004170 -0.003080 
#    y -0.004170 1.879220 -0.021130 
#    z -0.003080 -0.021130 1.908240 
# 
# From -- ./inp_files/188062.got.cif
#   From: 2010.06.25/outbox.cif.g09.slc.cpg/sg2_95_cif.got.tgz:188062.got - 2010.06.27 13:26:56.
