data_PCOD8029816
_publ_section_title
;
Structure prediction by ZEFSAII (Michael W. Deem and Ramdas Pophale) SiO2 
 PCOD8029816
Probable space group: P -1
;
_chemical_formula_sum "Si O2"
_cell_formula_units_Z 12
_cell_length_a 24.580856
_cell_length_b 8.341032
_cell_length_c 24.679827
_cell_angle_alpha 144.907985
_cell_angle_beta 168.320149
_cell_angle_gamma 35.525239
_cell_volume 585.461572
_symmetry_space_group_name_H-M "P -1"
_symmetry_group_IT_number 2
_symmetry_cell_setting 'triclinic'
loop_
_space_group_symop_operation_xyz
x,y,z
-x,-y,-z
loop_
_atom_site_type_symbol
_atom_site_label
_atom_site_fract_x
_atom_site_fract_y
_atom_site_fract_z
Si Si1 0.222972 0.688646 0.788486
Si Si2 0.314765 0.283938 0.021969
Si Si3 0.047255 0.053548 0.296094
Si Si4 0.390055 0.300464 0.227325
Si Si5 0.800140 0.621217 0.565224
Si Si6 0.756248 0.070840 0.738941
O O1 0.119164 0.788157 0.773719
O O2 0.000000 0.500000 0.500000
O O3 0.500000 0.500000 0.000000
O O4 0.287139 0.959248 0.890688
O O5 0.332286 0.324023 0.113965
O O6 0.558218 0.425702 0.271158
O O7 0.044957 0.434518 0.777460
O O8 0.148334 0.285298 0.419760
O O9 0.299766 0.829771 0.498189
O O10 0.819533 0.886238 0.999139
O O11 0.306890 0.609992 0.255157
O O12 0.765519 0.896065 0.644484
O O13 0.500000 0.000000 0.500000
O O14 0.000000 0.000000 0.000000
#
# Coordination Sequence:
#
# PCOD8029816 Si02
#       6
#     2   2   2   2   2   2
#     4  11  23  44  68  92 118 162 212 256 311 397
#     4  11  22  40  67  90 123 170 209 248 319 374
#     4  11  25  40  64  93 131 160 207 264 325 353
#     4  11  21  40  62  91 125 177 213 246 297 375
#     4  12  23  41  61  97 131 164 204 267 307 357
#     4  12  22  37  63  94 127 168 224 246 289 367
#
# _framework density 20.496649000000001
#
# number of rings (size 3 to 8) (size 9 to 14) (size 15 to 20)
#    0.000    0.667    3.333    7.000    0.000    1.333 
#    0.000    5.000    0.000    0.000    0.000    0.000 
#    0.000    0.000    0.000    0.000    0.000    0.000 
#
# Total GULP energy -148657.487415 kJ/mol
# GULP energy per Si atom -12388.123951 kJ/mol
# Density = 2.045000 g / cm^3
# Si number density = 20.496649 Si / 1000 Ang^3
#
#
#
# Elastic Constant Matrix: (Units=GPa)
#
#
# Indices 1 2 3 4 5 6 
#
# 1 88.1610 62.1144 53.5122 0.5112 19.9838 15.2496
# 2 62.1144 220.4112 106.0016 3.2443 8.7259 4.0892
# 3 53.5122 106.0016 201.7030 1.3529 20.6793 8.8223
# 4 0.5112 3.2443 1.3529 61.3600 8.9152 5.1185
# 5 19.9838 8.7259 20.6793 8.9152 34.4439 1.9981
# 6 15.2496 4.0892 8.8223 5.1185 1.9981 33.4787
#
#
#
# Elastic Compliance Matrix: (Units=1/GPa)
#
#
# Indices 1 2 3 4 5 6 
#
# 1 0.018307 -0.003946 -0.001582 0.001966 -0.008762 -0.007217
# 2 -0.003946 0.006934 -0.002910 -0.000756 0.002377 0.001691
# 3 -0.001582 -0.002910 0.007218 0.000470 -0.002758 -0.000733
# 4 0.001966 -0.000756 0.000470 0.017387 -0.005543 -0.003255
# 5 -0.008762 0.002377 -0.002758 -0.005543 0.036424 0.003101
# 6 -0.007217 0.001691 -0.000733 -0.003255 0.003101 0.033457
#
#
# Mechanical properties :
#
#
# Convention : Reuss Voigt Hill
#
# Bulk Modulus (GPa) = 64.17337 105.94794 85.06065
# Shear Modulus (GPa) = 35.26142 45.09965 40.18054
#
# Velocity S-wave (km/s) = 4.15221 4.69587 4.43238
# Velocity P-wave (km/s) = 7.37326 9.01134 8.23314
#
# Compressibility (1/GPa) = 0.01558279
#
# Stress axis : x y z
#
# Youngs Moduli (GPa) = 54.62477 144.21439 138.53562
#
# Poissons Ratio (x) = 0.56912 0.21918
# Poissons Ratio (y) = 0.21557 0.40311
# Poissons Ratio (z) = 0.08642 0.41963
#
# Static dielectric constant tensor:
#      x y z
#    x 3.490640 0.171160 0.297560 
#    y 0.171160 4.298550 0.346970 
#    z 0.297560 0.346970 4.151070 
# 
# 
# High freq. dielectric constant tensor:
#      x y z
#    x 1.775260 0.006090 0.016950 
#    y 0.006090 1.824960 0.003870 
#    z 0.016950 0.003870 1.829880 
# 
# From -- ./inp_files/33993.got.cif
#   From: 2010.06.25/outbox.cif.g09.slc.cpg/sg2_17_cif.got.tgz:33993.got - 2010.06.27 13:26:56.
