data_PCOD8029599
_publ_section_title
;
Structure prediction by ZEFSAII (Michael W. Deem and Ramdas Pophale) SiO2 
 PCOD8029599
Probable space group: P -1
;
_chemical_formula_sum "Si O2"
_cell_formula_units_Z 12
_cell_length_a 7.052206
_cell_length_b 12.973419
_cell_length_c 20.350606
_cell_angle_alpha 23.039611
_cell_angle_beta 59.511429
_cell_angle_gamma 60.272720
_cell_volume 625.610397
_symmetry_space_group_name_H-M "P -1"
_symmetry_group_IT_number 2
_symmetry_cell_setting 'triclinic'
loop_
_space_group_symop_operation_xyz
x,y,z
-x,-y,-z
loop_
_atom_site_type_symbol
_atom_site_label
_atom_site_fract_x
_atom_site_fract_y
_atom_site_fract_z
Si Si1 0.209347 0.620778 0.922422
Si Si2 0.681871 0.355123 0.964682
Si Si3 0.691823 0.907461 0.133233
Si Si4 0.140040 0.592244 0.230177
Si Si5 0.667957 0.407793 0.581727
Si Si6 0.146597 0.224711 0.563664
O O1 0.425498 0.451266 0.958918
O O2 0.226407 0.919135 0.720585
O O3 0.188290 0.606263 0.013557
O O4 0.000000 0.500000 0.000000
O O5 0.795125 0.514397 0.792251
O O6 0.700440 0.043532 0.124584
O O7 0.454108 0.794211 0.231427
O O8 0.877490 0.662836 0.240127
O O9 0.736529 0.136517 0.937627
O O10 0.215733 0.371881 0.399193
O O11 0.500000 0.500000 0.500000
O O12 0.728916 0.659015 0.464985
O O13 0.884394 0.252989 0.604051
#
# Coordination Sequence:
#
# PCOD8029599 Si02
#       6
#     2   2   2   2   2   2
#     4  11  23  41  62  85 117 170 206 238 292 366
#     4   9  21  42  61  81 125 160 192 249 296 357
#     4   9  18  39  65  85 127 156 189 240 327 344
#     4   9  20  39  62  94 122 151 195 259 298 358
#     4  11  21  36  60  93 124 159 190 250 304 356
#     4  11  24  36  62  96 119 149 218 245 285 364
#
# _framework density 19.181269
#
# number of rings (size 3 to 8) (size 9 to 14) (size 15 to 20)
#    1.000    1.000    1.667    2.000    2.333    2.667 
#    3.000    0.833    0.000    0.000    0.000    0.000 
#    0.000    0.000    0.000    0.000    0.000    0.000 
#
# Total GULP energy -148727.413000 kJ/mol
# GULP energy per Si atom -12393.951083 kJ/mol
# Density = 1.913761 g / cm^3
# Si number density = 19.181269 Si / 1000 Ang^3
#
#
#
# Elastic Constant Matrix: (Units=GPa)
#
#
# Indices 1 2 3 4 5 6 
#
# 1 118.1807 49.0944 38.9887 9.6656 -2.3818 -0.4052
# 2 49.0944 110.5324 24.7547 7.5745 4.3228 3.8870
# 3 38.9887 24.7547 91.3304 18.0814 4.8685 1.5897
# 4 9.6656 7.5745 18.0814 26.3753 1.7692 -4.5659
# 5 -2.3818 4.3228 4.8685 1.7692 33.5404 8.7632
# 6 -0.4052 3.8870 1.5897 -4.5659 8.7632 18.5923
#
#
#
# Elastic Compliance Matrix: (Units=1/GPa)
#
#
# Indices 1 2 3 4 5 6 
#
# 1 0.011598 -0.004363 -0.003790 -0.000431 0.001822 0.000525
# 2 -0.004363 0.011392 -0.000852 -0.001419 -0.000981 -0.002290
# 3 -0.003790 -0.000852 0.014652 -0.008825 -0.001086 -0.002813
# 4 -0.000431 -0.001419 -0.008825 0.047472 -0.005005 0.015059
# 5 0.001822 -0.000981 -0.001086 -0.005005 0.035040 -0.017407
# 6 0.000525 -0.002290 -0.002813 0.015059 -0.017407 0.066419
#
#
# Mechanical properties :
#
#
# Convention : Reuss Voigt Hill
#
# Bulk Modulus (GPa) = 50.93504 60.63545 55.78524
# Shear Modulus (GPa) = 23.68241 29.51533 26.59887
#
# Velocity S-wave (km/s) = 3.51759 3.92696 3.72790
# Velocity P-wave (km/s) = 6.56583 7.22784 6.90478
#
# Compressibility (1/GPa) = 0.01963285
#
# Stress axis : x y z
#
# Youngs Moduli (GPa) = 86.22201 87.78148 68.25008
#
# Poissons Ratio (x) = 0.38298 0.25864
# Poissons Ratio (y) = 0.37617 0.05816
# Poissons Ratio (z) = 0.32674 0.07480
#
# Static dielectric constant tensor:
#      x y z
#    x 3.331650 -0.088410 -0.075320 
#    y -0.088410 3.567510 0.178570 
#    z -0.075320 0.178570 3.563750 
# 
# 
# High freq. dielectric constant tensor:
#      x y z
#    x 1.732780 -0.009240 0.000460 
#    y -0.009240 1.747370 0.010320 
#    z 0.000460 0.010320 1.742320 
# 
# From -- ./inp_files/380000.got.cif
#   From: 2010.06.25/outbox.cif.g09.slc.cpg/sg2_190_cif.got.tgz:380000.got - 2010.06.27 13:26:56.
