data_PCOD8029612
_publ_section_title
;
Structure prediction by ZEFSAII (Michael W. Deem and Ramdas Pophale) SiO2 
 PCOD8029612
Probable space group: P -1
;
_chemical_formula_sum "Si O2"
_cell_formula_units_Z 14
_cell_length_a 28.842493
_cell_length_b 22.417445
_cell_length_c 4.931631
_cell_angle_alpha 69.697080
_cell_angle_beta 72.295276
_cell_angle_gamma 12.387628
_cell_volume 631.882552
_symmetry_space_group_name_H-M "P -1"
_symmetry_group_IT_number 2
_symmetry_cell_setting 'triclinic'
loop_
_space_group_symop_operation_xyz
x,y,z
-x,-y,-z
loop_
_atom_site_type_symbol
_atom_site_label
_atom_site_fract_x
_atom_site_fract_y
_atom_site_fract_z
Si Si1 0.645426 0.256182 0.715473
Si Si2 0.377474 0.798929 0.671952
Si Si3 0.806208 0.765281 0.633558
Si Si4 0.905000 0.436903 0.719141
Si Si5 0.118197 0.451780 0.890481
Si Si6 0.150298 0.628777 0.898766
Si Si7 0.608962 0.630949 0.638582
O O1 0.500000 0.500000 0.500000
O O2 0.632369 0.215168 0.591303
O O3 0.553890 0.345690 0.020501
O O4 0.893259 0.964534 0.771390
O O5 0.556205 0.627011 0.641946
O O6 0.141269 0.126644 0.653693
O O7 0.000000 0.500000 0.500000
O O8 0.893176 0.704768 0.796087
O O9 0.604625 0.056181 0.383192
O O10 0.724284 0.805394 0.871690
O O11 0.771883 0.650054 0.399325
O O12 0.940528 0.425770 0.958102
O O13 0.788759 0.517987 0.852255
O O14 0.275679 0.477772 0.634926
O O15 0.229893 0.578700 0.058487
#
# Coordination Sequence:
#
# PCOD8029612 Si02
#       7
#     2   2   2   2   2   2   2
#     4  11  24  47  72  99 129 172 215 257 322 412
#     4  11  22  40  73  98 125 176 225 249 316 404
#     4  11  24  38  64  95 130 172 225 278 318 367
#     4  11  21  41  64  90 127 176 226 261 312 402
#     4  11  21  36  64  89 119 172 234 266 304 367
#     4  11  26  42  65  96 139 166 208 279 341 368
#     4  12  25  42  65 101 134 168 221 276 324 376
#
# _framework density 22.156013999999999
#
# number of rings (size 3 to 8) (size 9 to 14) (size 15 to 20)
#    0.000    0.857    2.857    5.571    6.000    0.000 
#    0.000    8.571    0.000    0.000    0.000    0.000 
#    0.000    0.000    0.000    0.000    0.000    0.000 
#
# Total GULP energy -173598.491630 kJ/mol
# GULP energy per Si atom -12399.892259 kJ/mol
# Density = 2.210559 g / cm^3
# Si number density = 22.156014 Si / 1000 Ang^3
#
#
#
# Elastic Constant Matrix: (Units=GPa)
#
#
# Indices 1 2 3 4 5 6 
#
# 1 81.8329 47.1757 16.9912 -15.0732 13.9047 -6.8821
# 2 47.1757 78.1990 35.2416 -6.3559 -3.2417 -10.5444
# 3 16.9912 35.2416 109.5585 -2.1580 1.2068 2.8897
# 4 -15.0732 -6.3559 -2.1580 33.1924 -2.3191 0.5744
# 5 13.9047 -3.2417 1.2068 -2.3191 61.1125 -4.3497
# 6 -6.8821 -10.5444 2.8897 0.5744 -4.3497 16.4261
#
#
#
# Elastic Compliance Matrix: (Units=1/GPa)
#
#
# Indices 1 2 3 4 5 6 
#
# 1 0.021970 -0.013669 0.001230 0.007075 -0.005587 -0.001513
# 2 -0.013669 0.025999 -0.006694 -0.001514 0.005536 0.013659
# 3 0.001230 -0.006694 0.011266 0.000025 -0.001291 -0.006106
# 4 0.007075 -0.001514 0.000025 0.033013 -0.000386 0.000732
# 5 -0.005587 0.005536 -0.001291 -0.000386 0.018389 0.006323
# 6 -0.001513 0.013659 -0.006106 0.000732 0.006323 0.071736
#
#
# Mechanical properties :
#
#
# Convention : Reuss Voigt Hill
#
# Bulk Modulus (GPa) = 47.68896 52.04524 49.86710
# Shear Modulus (GPa) = 21.96561 33.49167 27.72864
#
# Velocity S-wave (km/s) = 3.15208 3.89218 3.54152
# Velocity P-wave (km/s) = 5.90071 6.61363 6.26732
#
# Compressibility (1/GPa) = 0.02096922
#
# Stress axis : x y z
#
# Youngs Moduli (GPa) = 45.51672 38.46249 88.76387
#
# Poissons Ratio (x) = 0.52575 -0.10922
# Poissons Ratio (y) = 0.62217 0.59422
# Poissons Ratio (z) = -0.05601 0.25748
#
# Static dielectric constant tensor:
#      x y z
#    x 4.233620 -0.166580 -0.151300 
#    y -0.166580 3.593080 -0.062460 
#    z -0.151300 -0.062460 4.512120 
# 
# 
# High freq. dielectric constant tensor:
#      x y z
#    x 1.883410 -0.010890 -0.000370 
#    y -0.010890 1.828410 0.000210 
#    z -0.000370 0.000210 1.898880 
# 
# From -- ./inp_files/128836.got.cif
#   From: 2010.06.25/outbox.cif.g09.slc.cpg/sg2_65_cif.got.tgz:128836.got - 2010.06.27 13:26:56.
