data_PCOD8029235
_publ_section_title
;
Structure prediction by ZEFSAII (Michael W. Deem and Ramdas Pophale) SiO2 
 PCOD8029235
Probable space group: P -1
;
_chemical_formula_sum "Si O2"
_cell_formula_units_Z 16
_cell_length_a 9.336163
_cell_length_b 12.172596
_cell_length_c 12.105996
_cell_angle_alpha 47.292650
_cell_angle_beta 126.339590
_cell_angle_gamma 98.970356
_cell_volume 740.701184
_symmetry_space_group_name_H-M "P -1"
_symmetry_group_IT_number 2
_symmetry_cell_setting 'triclinic'
loop_
_space_group_symop_operation_xyz
x,y,z
-x,-y,-z
loop_
_atom_site_type_symbol
_atom_site_label
_atom_site_fract_x
_atom_site_fract_y
_atom_site_fract_z
Si Si1 0.797364 0.050174 0.802827
Si Si2 0.948699 0.147375 0.606307
Si Si3 0.505666 0.193349 0.971192
Si Si4 0.127907 0.771551 0.882610
Si Si5 0.962884 0.695953 0.066940
Si Si6 0.575340 0.836392 0.293214
Si Si7 0.994505 0.351161 0.302113
Si Si8 0.083787 0.324182 0.709085
O O1 0.606462 0.142563 0.725613
O O2 0.784718 0.166617 0.611223
O O3 0.793250 0.882658 0.863099
O O4 0.000000 0.000000 0.000000
O O5 0.881430 0.282489 0.385190
O O6 0.110819 0.183216 0.727194
O O7 0.033720 0.967792 0.717162
O O8 0.469980 0.222856 0.803985
O O9 0.301804 0.281771 0.882684
O O10 0.646722 0.280458 0.012025
O O11 0.606415 0.002653 0.180830
O O12 0.014464 0.718799 0.774630
O O13 0.120761 0.684293 0.054347
O O14 0.890105 0.550318 0.114041
O O15 0.050386 0.672716 0.248607
O O16 0.777687 0.703205 0.526672
O O17 0.000000 0.500000 0.500000
#
# Coordination Sequence:
#
# PCOD8029235 Si02
#       8
#     2   2   2   2   2   2   2   2
#     4  11  21  38  64  95 125 162 210 263 317 373
#     4  11  21  38  66  93 122 167 211 263 310 377
#     4  11  20  38  64  96 122 169 217 259 314 379
#     4  11  25  42  66  91 130 173 217 255 314 390
#     4  11  23  41  65  91 132 172 204 263 332 370
#     4  11  21  38  67  95 127 163 216 265 315 375
#     4  12  24  45  64  94 132 172 212 262 320 380
#     4  12  21  40  66  98 131 165 210 272 330 367
#
# _framework density 21.601154000000001
#
# number of rings (size 3 to 8) (size 9 to 14) (size 15 to 20)
#    0.000    0.750    6.250    3.000    0.000    0.000 
#    2.250    6.250    2.750    0.000    0.000    0.000 
#    0.000    0.000    0.000    0.000    0.000    0.000 
#
# Total GULP energy -198221.140398 kJ/mol
# GULP energy per Si atom -12388.821275 kJ/mol
# Density = 2.155199 g / cm^3
# Si number density = 21.601154 Si / 1000 Ang^3
#
#
#
# Elastic Constant Matrix: (Units=GPa)
#
#
# Indices 1 2 3 4 5 6 
#
# 1 106.1417 22.2104 35.7225 2.8572 -23.3903 -3.3052
# 2 22.2104 113.2019 24.8114 -8.6164 -4.7288 -3.5737
# 3 35.7225 24.8114 57.2507 -6.8339 -16.8157 4.5250
# 4 2.8572 -8.6164 -6.8339 31.7160 6.5310 -7.4789
# 5 -23.3903 -4.7288 -16.8157 6.5310 35.6228 -0.6925
# 6 -3.3052 -3.5737 4.5250 -7.4789 -0.6925 24.2736
#
#
#
# Elastic Compliance Matrix: (Units=1/GPa)
#
#
# Indices 1 2 3 4 5 6 
#
# 1 0.013444 -0.001146 -0.006655 -0.003796 0.006267 0.001912
# 2 -0.001146 0.010215 -0.004126 0.003081 -0.001850 0.003014
# 3 -0.006655 -0.004126 0.026146 0.002412 0.006876 -0.005449
# 4 -0.003796 0.003081 0.002412 0.037329 -0.007580 0.010772
# 5 0.006267 -0.001850 0.006876 -0.007580 0.036538 -0.001994
# 6 0.001912 0.003014 -0.005449 0.010772 -0.001994 0.046179
#
#
# Mechanical properties :
#
#
# Convention : Reuss Voigt Hill
#
# Bulk Modulus (GPa) = 38.53472 49.12033 43.82752
# Shear Modulus (GPa) = 24.70890 31.24582 27.97736
#
# Velocity S-wave (km/s) = 3.38578 3.80740 3.60276
# Velocity P-wave (km/s) = 5.75870 6.48979 6.13515
#
# Compressibility (1/GPa) = 0.02595062
#
# Stress axis : x y z
#
# Youngs Moduli (GPa) = 74.38410 97.89259 38.24642
#
# Poissons Ratio (x) = 0.11216 0.25455
# Poissons Ratio (y) = 0.08523 0.15781
# Poissons Ratio (z) = 0.49506 0.40391
#
# Static dielectric constant tensor:
#      x y z
#    x 3.956810 -0.008360 -0.622020 
#    y -0.008360 4.024510 -0.165470 
#    z -0.622020 -0.165470 3.526410 
# 
# 
# High freq. dielectric constant tensor:
#      x y z
#    x 1.855810 -0.007110 -0.039670 
#    y -0.007110 1.845040 -0.016970 
#    z -0.039670 -0.016970 1.814630 
# 
# From -- ./inp_files/392174.got.cif
#   From: 2010.06.25/outbox.cif.g09.slc.cpg/sg2_197_cif.got.tgz:392174.got - 2010.06.27 13:26:56.
