data_PCOD8029631
_publ_section_title
;
Structure prediction by ZEFSAII (Michael W. Deem and Ramdas Pophale) SiO2 
 PCOD8029631
Probable space group: P -1
;
_chemical_formula_sum "Si O2"
_cell_formula_units_Z 16
_cell_length_a 26.188999
_cell_length_b 26.861984
_cell_length_c 12.080507
_cell_angle_alpha 27.551307
_cell_angle_beta 27.406891
_cell_angle_gamma 10.574210
_cell_volume 708.066728
_symmetry_space_group_name_H-M "P -1"
_symmetry_group_IT_number 2
_symmetry_cell_setting 'triclinic'
loop_
_space_group_symop_operation_xyz
x,y,z
-x,-y,-z
loop_
_atom_site_type_symbol
_atom_site_label
_atom_site_fract_x
_atom_site_fract_y
_atom_site_fract_z
Si Si1 0.949756 0.566065 0.836620
Si Si2 0.262693 0.666948 0.466989
Si Si3 0.286575 0.913573 0.201773
Si Si4 0.000806 0.178374 0.546626
Si Si5 0.400868 0.788282 0.980445
Si Si6 0.320117 0.061091 0.025124
Si Si7 0.507530 0.617307 0.778317
Si Si8 0.881058 0.368938 0.730840
O O1 0.007664 0.637681 0.551600
O O2 0.000000 0.500000 0.000000
O O3 0.633226 0.817037 0.927214
O O4 0.136554 0.333041 0.848460
O O5 0.500241 0.362058 0.608842
O O6 0.403855 0.655648 0.240987
O O7 0.096511 0.813575 0.380864
O O8 0.032805 0.847960 0.648540
O O9 0.366794 0.865753 0.015850
O O10 0.298760 0.017485 0.036133
O O11 0.724830 0.476004 0.549534
O O12 0.200227 0.095394 0.286461
O O13 0.189255 0.946177 0.731632
O O14 0.706152 0.561062 0.798437
O O15 0.145348 0.058141 0.864077
O O16 0.630639 0.524944 0.845361
O O17 0.500000 0.500000 0.000000
#
# Coordination Sequence:
#
# PCOD8029631 Si02
#       8
#     2   2   2   2   2   2   2   2
#     4  12  25  45  69  93 123 165 214 272 326 379
#     4  11  21  39  66  99 131 170 213 258 316 387
#     4  11  23  41  67  97 129 171 217 262 314 376
#     4  11  21  37  62  92 122 160 206 260 315 376
#     4  12  24  43  63  94 135 172 212 266 316 379
#     4  11  23  42  66  93 122 159 217 272 315 371
#     4  12  23  39  59  90 130 168 199 248 319 392
#     4  12  26  42  63  94 128 171 218 262 323 388
#
# _framework density 22.596738999999999
#
# number of rings (size 3 to 8) (size 9 to 14) (size 15 to 20)
#    0.000    0.500    0.000   11.250    0.000    0.000 
#    0.000    3.750    0.000    0.000    0.000    0.000 
#    0.000    0.000    0.000    0.000    0.000    0.000 
#
# Total GULP energy -198424.427773 kJ/mol
# GULP energy per Si atom -12401.526736 kJ/mol
# Density = 2.254531 g / cm^3
# Si number density = 22.596739 Si / 1000 Ang^3
#
#
#
# Elastic Constant Matrix: (Units=GPa)
#
#
# Indices 1 2 3 4 5 6 
#
# 1 92.8707 15.9570 37.5418 -0.3044 -4.5272 8.0280
# 2 15.9570 116.8632 18.4920 8.9421 -8.4534 2.8835
# 3 37.5418 18.4920 82.2493 7.2297 -6.1896 -0.3867
# 4 -0.3044 8.9421 7.2297 49.7547 3.8390 1.7188
# 5 -4.5272 -8.4534 -6.1896 3.8390 31.5407 6.2306
# 6 8.0280 2.8835 -0.3867 1.7188 6.2306 37.2962
#
#
#
# Elastic Compliance Matrix: (Units=1/GPa)
#
#
# Indices 1 2 3 4 5 6 
#
# 1 0.013709 -0.000841 -0.006107 0.001153 0.001031 -0.003175
# 2 -0.000841 0.009211 -0.001364 -0.001621 0.002451 -0.000880
# 3 -0.006107 -0.001364 0.015593 -0.002246 0.001818 0.001381
# 4 0.001153 -0.001621 -0.002246 0.020987 -0.003148 -0.000587
# 5 0.001031 0.002451 0.001818 -0.003148 0.034435 -0.006000
# 6 -0.003175 -0.000880 0.001381 -0.000587 -0.006000 0.028608
#
#
# Mechanical properties :
#
#
# Convention : Reuss Voigt Hill
#
# Bulk Modulus (GPa) = 45.68524 48.44052 47.06288
# Shear Modulus (GPa) = 34.13828 38.38449 36.26139
#
# Velocity S-wave (km/s) = 3.89107 4.12597 4.01024
# Velocity P-wave (km/s) = 6.35993 6.64693 6.50501
#
# Compressibility (1/GPa) = 0.02188891
#
# Stress axis : x y z
#
# Youngs Moduli (GPa) = 72.94324 108.56849 64.13081
#
# Poissons Ratio (x) = 0.09129 0.39165
# Poissons Ratio (y) = 0.06134 0.08749
# Poissons Ratio (z) = 0.44547 0.14811
#
# Static dielectric constant tensor:
#      x y z
#    x 4.351720 0.732190 0.125090 
#    y 0.732190 5.863290 0.419950 
#    z 0.125090 0.419950 4.168820 
# 
# 
# High freq. dielectric constant tensor:
#      x y z
#    x 1.890600 0.005690 0.001440 
#    y 0.005690 1.917310 0.011490 
#    z 0.001440 0.011490 1.879600 
# 
# From -- ./inp_files/477187.got.cif
#   From: 2010.06.25/outbox.cif.g09.slc.cpg/sg2_239_cif.got.tgz:477187.got - 2010.06.27 13:26:56.
