data_PCOD8029425
_publ_section_title
;
Structure prediction by ZEFSAII (Michael W. Deem and Ramdas Pophale) SiO2 
 PCOD8029425
Probable space group: P -1
;
_chemical_formula_sum "Si O2"
_cell_formula_units_Z 16
_cell_length_a 9.173846
_cell_length_b 25.273671
_cell_length_c 11.257469
_cell_angle_alpha 35.630950
_cell_angle_beta 45.030058
_cell_angle_gamma 28.026098
_cell_volume 713.919883
_symmetry_space_group_name_H-M "P -1"
_symmetry_group_IT_number 2
_symmetry_cell_setting 'triclinic'
loop_
_space_group_symop_operation_xyz
x,y,z
-x,-y,-z
loop_
_atom_site_type_symbol
_atom_site_label
_atom_site_fract_x
_atom_site_fract_y
_atom_site_fract_z
Si Si1 0.795598 0.582413 0.257656
Si Si2 0.047561 0.859652 0.440096
Si Si3 0.845684 0.386492 0.702034
Si Si4 0.732849 0.066880 0.437597
Si Si5 0.415689 0.442640 0.226816
Si Si6 0.548959 0.815631 0.151459
Si Si7 0.751262 0.912723 0.263847
Si Si8 0.303058 0.752484 0.044296
O O1 0.746924 0.490173 0.468204
O O2 0.654279 0.692441 0.241602
O O3 0.622358 0.668771 0.080682
O O4 0.167973 0.468395 0.243801
O O5 0.280733 0.712846 0.633595
O O6 0.215009 0.900513 0.243457
O O7 0.904044 0.866905 0.389424
O O8 0.796935 0.964256 0.494536
O O9 0.754786 0.468189 0.722584
O O10 0.661847 0.354305 0.848810
O O11 0.213660 0.244093 0.767484
O O12 0.424364 0.127862 0.570445
O O13 0.702061 0.169737 0.195065
O O14 0.000000 0.000000 0.500000
O O15 0.500000 0.500000 0.000000
O O16 0.500695 0.922646 0.906133
O O17 0.012078 0.837949 0.147288
#
# Coordination Sequence:
#
# PCOD8029425 Si02
#       8
#     2   2   2   2   2   2   2   2
#     4  11  22  44  68  99 129 179 231 277 333 410
#     4  12  23  46  71  99 136 178 232 283 339 406
#     4  11  23  43  66  99 135 180 227 277 337 411
#     4  12  30  45  67 105 142 178 230 282 341 414
#     4  11  25  41  70 100 137 180 229 279 339 404
#     4  11  20  41  71  95 130 176 232 273 338 398
#     4  12  26  45  73 102 135 184 228 285 342 399
#     4  12  26  45  71  99 144 181 225 283 347 398
#
# _framework density 22.411477999999999
#
# number of rings (size 3 to 8) (size 9 to 14) (size 15 to 20)
#    0.000    0.500    5.000    3.375    8.750    1.000 
#    0.000    0.625    0.000    0.000    0.000    0.000 
#    0.000    0.000    0.000    0.000    0.000    0.000 
#
# Total GULP energy -198294.350558 kJ/mol
# GULP energy per Si atom -12393.396910 kJ/mol
# Density = 2.236047 g / cm^3
# Si number density = 22.411478 Si / 1000 Ang^3
#
#
#
# Elastic Constant Matrix: (Units=GPa)
#
#
# Indices 1 2 3 4 5 6 
#
# 1 94.8569 50.8860 35.6377 11.3096 28.4577 50.7362
# 2 50.8860 128.1365 22.2083 34.3526 40.3151 64.0929
# 3 35.6377 22.2083 196.0028 -19.7429 -7.5565 -23.6513
# 4 11.3096 34.3526 -19.7429 57.7142 16.1647 41.0442
# 5 28.4577 40.3151 -7.5565 16.1647 57.3739 23.6427
# 6 50.7362 64.0929 -23.6513 41.0442 23.6427 58.0072
#
#
#
# Elastic Compliance Matrix: (Units=1/GPa)
#
#
# Indices 1 2 3 4 5 6 
#
# 1 -0.087767 -0.070831 0.042968 -0.097294 0.032333 0.228211
# 2 -0.070831 -0.030378 0.027965 -0.069099 0.018535 0.148257
# 3 0.042968 0.027965 -0.013976 0.045831 -0.014163 -0.100835
# 4 -0.097294 -0.069099 0.045831 -0.069599 0.033573 0.215695
# 5 0.032333 0.018535 -0.014163 0.033573 0.011184 -0.082849
# 6 0.228211 0.148257 -0.100835 0.215695 -0.082849 -0.506142
#
#
# Mechanical properties :
#
#
# Convention : Reuss Voigt Hill
#
# Bulk Modulus (GPa) = -7.58050 70.71780 31.56865
# Shear Modulus (GPa) = -6.74897 55.30335 24.27719
#
# Velocity S-wave (km/s) = -1.73722 4.97292 3.29484
# Velocity P-wave (km/s) = 2.72280 8.03716 5.34707
#
# Compressibility (1/GPa) = -0.13191749
#
# Stress axis : x y z
#
# Youngs Moduli (GPa) = -11.39383 -32.91871 -71.54951
#
# Poissons Ratio (x) = -2.33166 3.07432
# Poissons Ratio (y) = -0.80704 2.00088
# Poissons Ratio (z) = 0.48957 0.92057
#
# Static dielectric constant tensor:
#      x y z
#    x 4.125960 -0.273140 0.058240 
#    y -0.273140 4.163620 -0.096280 
#    z 0.058240 -0.096280 4.193730 
# 
# 
# High freq. dielectric constant tensor:
#      x y z
#    x 1.886990 -0.016310 0.000870 
#    y -0.016310 1.871540 -0.008030 
#    z 0.000870 -0.008030 1.900700 
# 
# From -- ./inp_files/226680.got.cif
#   From: 2010.06.25/outbox.cif.g09.slc.cpg/sg2_114_cif.got.tgz:226680.got - 2010.06.27 13:26:56.
