data_PCOD8029467
_publ_section_title
;
Structure prediction by ZEFSAII (Michael W. Deem and Ramdas Pophale) SiO2 
 PCOD8029467
Probable space group: P -1
;
_chemical_formula_sum "Si O2"
_cell_formula_units_Z 16
_cell_length_a 9.099566
_cell_length_b 11.875567
_cell_length_c 14.983706
_cell_angle_alpha 66.614338
_cell_angle_beta 57.163901
_cell_angle_gamma 112.923119
_cell_volume 774.957961
_symmetry_space_group_name_H-M "P -1"
_symmetry_group_IT_number 2
_symmetry_cell_setting 'triclinic'
loop_
_space_group_symop_operation_xyz
x,y,z
-x,-y,-z
loop_
_atom_site_type_symbol
_atom_site_label
_atom_site_fract_x
_atom_site_fract_y
_atom_site_fract_z
Si Si1 0.834809 0.320438 0.674780
Si Si2 0.662791 0.741103 0.949600
Si Si3 0.693137 0.994832 0.766899
Si Si4 0.230894 0.028501 0.441416
Si Si5 0.108076 0.719202 0.136249
Si Si6 0.077189 0.327417 0.216898
Si Si7 0.827180 0.410621 0.177912
Si Si8 0.202707 0.044154 0.988383
O O1 0.935090 0.382028 0.725942
O O2 0.508741 0.175312 0.809110
O O3 0.000000 0.500000 0.500000
O O4 0.906882 0.221321 0.650081
O O5 0.795307 0.913200 0.782492
O O6 0.793361 0.681311 0.903281
O O7 0.323156 0.541614 0.116766
O O8 0.755519 0.832561 0.987634
O O9 0.637701 0.969066 0.688103
O O10 0.427874 0.871382 0.956366
O O11 0.493179 0.245691 0.328667
O O12 0.000000 0.000000 0.500000
O O13 0.095102 0.849802 0.602646
O O14 0.916153 0.569911 0.164035
O O15 0.055982 0.835958 0.134187
O O16 0.861861 0.301526 0.251057
O O17 0.000000 0.500000 0.000000
O O18 0.000000 0.000000 0.000000
#
# Coordination Sequence:
#
# PCOD8029467 Si02
#       8
#     2   2   2   2   2   2   2   2
#     4  11  24  43  70  97 128 176 219 272 333 390
#     4  11  21  43  69  97 130 178 223 267 334 392
#     4  11  20  42  70  91 132 175 220 265 328 399
#     4  12  26  42  64 101 134 170 219 282 330 382
#     4  11  22  46  70  92 129 180 221 266 325 403
#     4  11  25  40  70  98 135 174 223 277 324 392
#     4  12  25  45  67  96 134 179 225 266 333 404
#     4  11  24  42  67  97 129 170 220 269 325 395
#
# _framework density 20.646280999999998
#
# number of rings (size 3 to 8) (size 9 to 14) (size 15 to 20)
#    0.000    0.750    6.250    1.125    7.000    0.000 
#    2.250    0.625    0.000    0.000    0.000    0.000 
#    0.000    0.000    0.000    0.000    0.000    0.000 
#
# Total GULP energy -198335.316252 kJ/mol
# GULP energy per Si atom -12395.957266 kJ/mol
# Density = 2.059929 g / cm^3
# Si number density = 20.646281 Si / 1000 Ang^3
#
#
#
# Elastic Constant Matrix: (Units=GPa)
#
#
# Indices 1 2 3 4 5 6 
#
# 1 124.7087 45.2010 51.0630 -10.0135 5.1383 11.0160
# 2 45.2010 149.8040 43.1619 -13.4105 8.6175 16.5185
# 3 51.0630 43.1619 114.0917 -15.0790 26.1943 10.8528
# 4 -10.0135 -13.4105 -15.0790 32.2005 2.8316 3.8482
# 5 5.1383 8.6175 26.1943 2.8316 34.4436 -1.3127
# 6 11.0160 16.5185 10.8528 3.8482 -1.3127 34.3374
#
#
#
# Elastic Compliance Matrix: (Units=1/GPa)
#
#
# Indices 1 2 3 4 5 6 
#
# 1 0.010514 -0.001897 -0.004322 0.000396 0.002120 -0.001058
# 2 -0.001897 0.008314 -0.001367 0.002725 -0.001107 -0.003306
# 3 -0.004322 -0.001367 0.014998 0.006547 -0.011104 -0.003854
# 4 0.000396 0.002725 0.006547 0.037135 -0.009078 -0.008016
# 5 0.002120 -0.001107 -0.011104 -0.009078 0.038407 0.005848
# 6 -0.001058 -0.003306 -0.003854 -0.008016 0.005848 0.033393
#
#
# Mechanical properties :
#
#
# Convention : Reuss Voigt Hill
#
# Bulk Modulus (GPa) = 53.61028 74.16178 63.88603
# Shear Modulus (GPa) = 30.45984 36.80821 33.63402
#
# Velocity S-wave (km/s) = 3.84515 4.22690 4.04054
# Velocity P-wave (km/s) = 6.76284 7.73437 7.26486
#
# Compressibility (1/GPa) = 0.01865314
#
# Stress axis : x y z
#
# Youngs Moduli (GPa) = 95.11426 120.27939 66.67730
#
# Poissons Ratio (x) = 0.22818 0.28816
# Poissons Ratio (y) = 0.18044 0.09117
# Poissons Ratio (z) = 0.41105 0.16446
#
# Static dielectric constant tensor:
#      x y z
#    x 3.827950 -0.129870 0.170820 
#    y -0.129870 4.311820 -0.103640 
#    z 0.170820 -0.103640 3.656000 
# 
# 
# High freq. dielectric constant tensor:
#      x y z
#    x 1.802520 -0.004330 0.018650 
#    y -0.004330 1.829050 -0.003370 
#    z 0.018650 -0.003370 1.795090 
# 
# From -- ./inp_files/187421.got.cif
#   From: 2010.06.25/outbox.cif.g09.slc.cpg/sg2_94_cif.got.tgz:187421.got - 2010.06.27 13:26:56.
