data_PCOD8029429
_publ_section_title
;
Structure prediction by ZEFSAII (Michael W. Deem and Ramdas Pophale) SiO2 
 PCOD8029429
Probable space group: P -1
;
_chemical_formula_sum "Si O2"
_cell_formula_units_Z 14
_cell_length_a 8.653926
_cell_length_b 10.668580
_cell_length_c 9.923173
_cell_angle_alpha 123.415002
_cell_angle_beta 134.718809
_cell_angle_gamma 80.626708
_cell_volume 502.911186
_symmetry_space_group_name_H-M "P -1"
_symmetry_group_IT_number 2
_symmetry_cell_setting 'triclinic'
loop_
_space_group_symop_operation_xyz
x,y,z
-x,-y,-z
loop_
_atom_site_type_symbol
_atom_site_label
_atom_site_fract_x
_atom_site_fract_y
_atom_site_fract_z
Si Si1 0.334118 0.337724 0.152867
Si Si2 0.053965 0.720629 0.897784
Si Si3 0.273866 0.750241 0.558202
Si Si4 0.901363 0.015614 0.303724
Si Si5 0.405173 0.064392 0.356830
Si Si6 0.258365 0.471244 0.915066
Si Si7 0.763686 0.712687 0.479967
O O1 0.136991 0.346648 0.138754
O O2 0.587257 0.368903 0.395259
O O3 0.389071 0.461600 0.131808
O O4 0.265519 0.156305 0.952506
O O5 0.935121 0.652146 0.638203
O O6 0.262611 0.652468 0.004879
O O7 0.165147 0.916981 0.074588
O O8 0.235563 0.859510 0.719900
O O9 0.010722 0.640114 0.285557
O O10 0.397814 0.890075 0.609365
O O11 0.122422 0.101644 0.394270
O O12 0.000000 0.000000 0.500000
O O13 0.500000 0.000000 0.500000
O O14 0.399164 0.244345 0.485213
O O15 0.350906 0.405854 0.793476
#
# Coordination Sequence:
#
# PCOD8029429 Si02
#       7
#     2   2   2   2   2   2   2
#     4  12  22  42  71 101 140 183 239 281 348 417
#     4  12  25  46  71 103 144 184 229 292 360 408
#     4  11  24  42  73 104 134 183 241 283 341 416
#     4  11  20  41  71  99 138 179 233 285 341 409
#     4  12  24  43  75 105 139 177 240 297 344 407
#     4  11  27  48  71  99 148 190 227 284 358 423
#     4  11  22  46  71  98 139 189 227 286 353 413
#
# _framework density 27.837914000000001
#
# number of rings (size 3 to 8) (size 9 to 14) (size 15 to 20)
#    0.000    0.571    5.714    4.286    0.000    1.714 
#    2.571    0.714    0.000    0.000    0.000    0.000 
#    0.000    0.000    0.000    0.000    0.000    0.000 
#
# Total GULP energy -173497.129429 kJ/mol
# GULP energy per Si atom -12392.652102 kJ/mol
# Density = 2.777455 g / cm^3
# Si number density = 27.837914 Si / 1000 Ang^3
#
#
#
# Elastic Constant Matrix: (Units=GPa)
#
#
# Indices 1 2 3 4 5 6 
#
# 1 109.2052 30.9819 27.4986 -2.6051 -10.1875 1.7451
# 2 30.9819 125.1633 40.9712 -11.1907 -10.8930 -9.3065
# 3 27.4986 40.9712 131.8127 -6.9021 -17.3115 7.3497
# 4 -2.6051 -11.1907 -6.9021 55.5737 0.8629 -5.2635
# 5 -10.1875 -10.8930 -17.3115 0.8629 18.0923 -2.2483
# 6 1.7451 -9.3065 7.3497 -5.2635 -2.2483 62.9592
#
#
#
# Elastic Compliance Matrix: (Units=1/GPa)
#
#
# Indices 1 2 3 4 5 6 
#
# 1 0.010309 -0.001925 -0.001069 -0.000124 0.003588 -0.000328
# 2 -0.001925 0.009761 -0.002290 0.001738 0.002769 0.002008
# 3 -0.001069 -0.002290 0.009524 0.000456 0.006969 -0.001134
# 4 -0.000124 0.001738 0.000456 0.018552 0.000750 0.001785
# 5 0.003588 0.002769 0.006969 0.000750 0.065829 0.001910
# 6 -0.000328 0.002008 -0.001134 0.001785 0.001910 0.016539
#
#
# Mechanical properties :
#
#
# Convention : Reuss Voigt Hill
#
# Bulk Modulus (GPa) = 52.55951 62.78719 57.67335
# Shear Modulus (GPa) = 33.91539 45.10701 39.51120
#
# Velocity S-wave (km/s) = 3.49423 4.02972 3.77149
# Velocity P-wave (km/s) = 5.93304 6.65244 6.30302
#
# Compressibility (1/GPa) = 0.01902605
#
# Stress axis : x y z
#
# Youngs Moduli (GPa) = 96.99795 102.44563 105.00074
#
# Poissons Ratio (x) = 0.19721 0.11229
# Poissons Ratio (y) = 0.18673 0.24043
# Poissons Ratio (z) = 0.10373 0.23458
#
# Static dielectric constant tensor:
#      x y z
#    x 4.751280 -0.282790 0.179100 
#    y -0.282790 5.370330 0.288200 
#    z 0.179100 0.288200 6.804350 
# 
# 
# High freq. dielectric constant tensor:
#      x y z
#    x 2.152690 0.009790 0.005770 
#    y 0.009790 2.136660 0.009700 
#    z 0.005770 0.009700 2.133300 
# 
# From -- ./inp_files/190525.got.cif
#   From: 2010.06.25/outbox.cif.g09.slc.cpg/sg2_96_cif.got.tgz:190525.got - 2010.06.27 13:26:56.
