data_PCOD8029306
_publ_section_title
;
Structure prediction by ZEFSAII (Michael W. Deem and Ramdas Pophale) SiO2 
 PCOD8029306
Probable space group: P -1
;
_chemical_formula_sum "Si O2"
_cell_formula_units_Z 16
_cell_length_a 11.659368
_cell_length_b 6.443474
_cell_length_c 10.524610
_cell_angle_alpha 107.882066
_cell_angle_beta 78.869176
_cell_angle_gamma 74.929388
_cell_volume 693.826823
_symmetry_space_group_name_H-M "P -1"
_symmetry_group_IT_number 2
_symmetry_cell_setting 'triclinic'
loop_
_space_group_symop_operation_xyz
x,y,z
-x,-y,-z
loop_
_atom_site_type_symbol
_atom_site_label
_atom_site_fract_x
_atom_site_fract_y
_atom_site_fract_z
Si Si1 0.273899 0.598407 0.390911
Si Si2 0.964167 0.922061 0.128807
Si Si3 0.457600 0.702677 0.753104
Si Si4 0.900767 0.461946 0.782320
Si Si5 0.261393 0.151142 0.953265
Si Si6 0.619555 0.057212 0.445088
Si Si7 0.890583 0.383540 0.332823
Si Si8 0.700427 0.588944 0.221037
O O1 0.392983 0.372582 0.283864
O O2 0.178051 0.659095 0.305914
O O3 0.315911 0.822915 0.444512
O O4 0.206201 0.530145 0.514208
O O5 0.964140 0.107191 0.274273
O O6 0.827424 0.910579 0.140631
O O7 0.055664 0.676041 0.119770
O O8 0.000000 0.000000 0.000000
O O9 0.416550 0.766742 0.630603
O O10 0.423948 0.473275 0.745753
O O11 0.383597 0.918040 0.904476
O O12 0.015559 0.472078 0.672180
O O13 0.814459 0.730890 0.882339
O O14 0.301461 0.354160 0.917269
O O15 0.500000 0.000000 0.500000
O O16 0.712371 0.806153 0.339273
O O17 0.820265 0.387361 0.212114
#
# Coordination Sequence:
#
# PCOD8029306 Si02
#       8
#     2   2   2   2   2   2   2   2
#     4  12  26  46  65 105 150 180 220 280 352 423
#     4  12  23  44  73 102 133 180 240 288 331 402
#     4  11  23  43  72 101 132 177 238 286 332 402
#     4  12  28  45  66 103 148 182 222 283 349 413
#     4  11  23  42  72 102 129 179 240 285 333 395
#     4  11  21  39  69 100 131 182 227 276 337 400
#     4  12  23  44  71 102 137 185 225 282 346 408
#     4  11  20  39  72 100 128 172 236 293 323 388
#
# _framework density 23.060511999999999
#
# number of rings (size 3 to 8) (size 9 to 14) (size 15 to 20)
#    0.000    0.500    6.250    3.375    0.000    1.000 
#    4.500    0.625    0.000    0.000    0.000    0.000 
#    0.000    0.000    0.000    0.000    0.000    0.000 
#
# Total GULP energy -198258.413252 kJ/mol
# GULP energy per Si atom -12391.150828 kJ/mol
# Density = 2.300803 g / cm^3
# Si number density = 23.060512 Si / 1000 Ang^3
#
#
#
# Elastic Constant Matrix: (Units=GPa)
#
#
# Indices 1 2 3 4 5 6 
#
# 1 132.4842 46.3555 53.4231 -1.3836 -15.5815 16.6136
# 2 46.3555 97.8297 33.7514 -3.7518 -17.3289 12.4044
# 3 53.4231 33.7514 68.2010 -1.7580 -24.3635 3.7153
# 4 -1.3836 -3.7518 -1.7580 29.7183 -2.8594 -11.3006
# 5 -15.5815 -17.3289 -24.3635 -2.8594 38.8059 2.6807
# 6 16.6136 12.4044 3.7153 -11.3006 2.6807 35.9878
#
#
#
# Elastic Compliance Matrix: (Units=1/GPa)
#
#
# Indices 1 2 3 4 5 6 
#
# 1 0.012341 -0.002628 -0.008733 -0.002110 -0.001550 -0.004437
# 2 -0.002628 0.013614 -0.003357 0.000479 0.003174 -0.003219
# 3 -0.008733 -0.003357 0.027512 0.002869 0.012317 0.002332
# 4 -0.002110 0.000479 0.002869 0.038828 0.003168 0.012469
# 5 -0.001550 0.003174 0.012317 0.003168 0.034755 -0.003244
# 6 -0.004437 -0.003219 0.002332 0.012469 -0.003244 0.034861
#
#
# Mechanical properties :
#
#
# Convention : Reuss Voigt Hill
#
# Bulk Modulus (GPa) = 41.61342 62.84166 52.22754
# Shear Modulus (GPa) = 25.08061 31.90138 28.49100
#
# Velocity S-wave (km/s) = 3.30146 3.72341 3.51876
# Velocity P-wave (km/s) = 5.71116 6.76720 6.26148
#
# Compressibility (1/GPa) = 0.02403071
#
# Stress axis : x y z
#
# Youngs Moduli (GPa) = 81.03040 73.45383 36.34809
#
# Poissons Ratio (x) = 0.19301 0.31743
# Poissons Ratio (y) = 0.21292 0.12204
# Poissons Ratio (z) = 0.70763 0.24662
#
# Static dielectric constant tensor:
#      x y z
#    x 4.729880 -0.224580 -0.445480 
#    y -0.224580 4.519310 0.122870 
#    z -0.445480 0.122870 4.021970 
# 
# 
# High freq. dielectric constant tensor:
#      x y z
#    x 1.904740 0.011920 -0.036140 
#    y 0.011920 1.916360 0.010540 
#    z -0.036140 0.010540 1.891580 
# 
# From -- ./inp_files/409462.got.cif
#   From: 2010.06.25/outbox.cif.g09.slc.cpg/sg2_205_cif.got.tgz:409462.got - 2010.06.27 13:26:56.
