data_PCOD8029579
_publ_section_title
;
Structure prediction by ZEFSAII (Michael W. Deem and Ramdas Pophale) SiO2 
 PCOD8029579
Probable space group: P -1
;
_chemical_formula_sum "Si O2"
_cell_formula_units_Z 16
_cell_length_a 9.668891
_cell_length_b 12.967582
_cell_length_c 18.506203
_cell_angle_alpha 142.301697
_cell_angle_beta 40.783279
_cell_angle_gamma 145.993037
_cell_volume 757.994617
_symmetry_space_group_name_H-M "P -1"
_symmetry_group_IT_number 2
_symmetry_cell_setting 'triclinic'
loop_
_space_group_symop_operation_xyz
x,y,z
-x,-y,-z
loop_
_atom_site_type_symbol
_atom_site_label
_atom_site_fract_x
_atom_site_fract_y
_atom_site_fract_z
Si Si1 0.237278 0.060372 0.315491
Si Si2 0.507669 0.853435 0.360958
Si Si3 0.358759 0.599313 0.412495
Si Si4 0.700066 0.247722 0.342043
Si Si5 0.468347 0.177503 0.131404
Si Si6 0.011309 0.312341 0.596058
Si Si7 0.992520 0.830225 0.737935
Si Si8 0.835165 0.610437 0.260382
O O1 0.450072 0.093855 0.307917
O O2 0.369158 0.157502 0.241318
O O3 0.087909 0.156395 0.457990
O O4 0.035629 0.814670 0.248187
O O5 0.445618 0.663230 0.330138
O O6 0.289767 0.785735 0.349716
O O7 0.500000 0.000000 0.500000
O O8 0.788354 0.959182 0.272402
O O9 0.357301 0.766957 0.556120
O O10 0.086519 0.371693 0.391366
O O11 0.565574 0.580920 0.362314
O O12 0.817121 0.480702 0.403323
O O13 0.905084 0.184725 0.230526
O O14 0.262474 0.169189 0.153062
O O15 0.752956 0.396900 0.134927
O O16 0.500000 0.000000 0.000000
O O17 0.050533 0.371184 0.696315
#
# Coordination Sequence:
#
# PCOD8029579 Si02
#       8
#     2   2   2   2   2   2   2   2
#     4  12  24  40  63  96 129 167 204 249 312 378
#     4  12  21  33  56  88 133 168 196 235 301 381
#     4  11  21  35  52  89 130 164 196 238 299 383
#     4  12  21  36  58  89 135 168 196 244 308 378
#     4  11  26  48  68  86 118 163 223 274 303 354
#     4  12  22  38  61 100 140 165 194 245 311 394
#     4  11  23  39  59  89 122 168 208 250 311 363
#     4  11  23  40  65  93 127 164 205 251 320 372
#
# _framework density 21.108328
#
# number of rings (size 3 to 8) (size 9 to 14) (size 15 to 20)
#    0.000    0.500    5.000    6.375    0.000    0.500 
#    0.000    0.625    0.000    1.500    0.000    0.000 
#    0.000    0.000    0.000    0.000    0.000    0.000 
#
# Total GULP energy -198317.844105 kJ/mol
# GULP energy per Si atom -12394.865257 kJ/mol
# Density = 2.106028 g / cm^3
# Si number density = 21.108328 Si / 1000 Ang^3
#
#
#
# Elastic Constant Matrix: (Units=GPa)
#
#
# Indices 1 2 3 4 5 6 
#
# 1 141.8026 39.0045 16.8512 4.6612 -15.1030 8.7336
# 2 39.0045 139.3403 18.8345 16.7792 -3.9743 14.2284
# 3 16.8512 18.8345 54.4622 22.3793 -10.7194 3.6569
# 4 4.6612 16.7792 22.3793 24.4429 -3.8749 0.2058
# 5 -15.1030 -3.9743 -10.7194 -3.8749 13.3563 3.0179
# 6 8.7336 14.2284 3.6569 0.2058 3.0179 38.5757
#
#
#
# Elastic Compliance Matrix: (Units=1/GPa)
#
#
# Indices 1 2 3 4 5 6 
#
# 1 0.008821 -0.002139 -0.000801 0.002078 0.009728 -0.001904
# 2 -0.002139 0.008703 -0.000018 -0.005670 -0.000896 -0.002624
# 3 -0.000801 -0.000018 0.034295 -0.028112 0.019460 -0.004436
# 4 0.002078 -0.005670 -0.028112 0.069698 -0.002610 0.004118
# 5 0.009728 -0.000896 0.019460 -0.002610 0.103126 -0.011771
# 6 -0.001904 -0.002624 -0.004436 0.004118 -0.011771 0.028641
#
#
# Mechanical properties :
#
#
# Convention : Reuss Voigt Hill
#
# Bulk Modulus (GPa) = 21.78519 53.88728 37.83624
# Shear Modulus (GPa) = 18.21490 32.66930 25.44210
#
# Velocity S-wave (km/s) = 2.94074 3.93835 3.47553
# Velocity P-wave (km/s) = 4.67693 6.80185 5.83690
#
# Compressibility (1/GPa) = 0.04590274
#
# Stress axis : x y z
#
# Youngs Moduli (GPa) = 113.36953 114.90254 29.15870
#
# Poissons Ratio (x) = 0.24579 0.02334
# Poissons Ratio (y) = 0.24252 0.00054
# Poissons Ratio (z) = 0.09076 0.00211
#
# Static dielectric constant tensor:
#      x y z
#    x 4.568980 -0.256960 -0.134990 
#    y -0.256960 4.372560 0.074430 
#    z -0.134990 0.074430 3.174280 
# 
# 
# High freq. dielectric constant tensor:
#      x y z
#    x 1.860600 0.004350 -0.020940 
#    y 0.004350 1.851830 0.011890 
#    z -0.020940 0.011890 1.741970 
# 
# From -- ./inp_files/455898.got.cif
#   From: 2010.06.25/outbox.cif.g09.slc.cpg/sg2_228_cif.got.tgz:455898.got - 2010.06.27 13:26:56.
