data_PCOD8029463
_publ_section_title
;
Structure prediction by ZEFSAII (Michael W. Deem and Ramdas Pophale) SiO2 
 PCOD8029463
Probable space group: P -1
;
_chemical_formula_sum "Si O2"
_cell_formula_units_Z 16
_cell_length_a 21.010703
_cell_length_b 12.295130
_cell_length_c 9.471547
_cell_angle_alpha 37.379932
_cell_angle_beta 132.400625
_cell_angle_gamma 149.988869
_cell_volume 742.201060
_symmetry_space_group_name_H-M "P -1"
_symmetry_group_IT_number 2
_symmetry_cell_setting 'triclinic'
loop_
_space_group_symop_operation_xyz
x,y,z
-x,-y,-z
loop_
_atom_site_type_symbol
_atom_site_label
_atom_site_fract_x
_atom_site_fract_y
_atom_site_fract_z
Si Si1 0.468127 0.833580 0.422759
Si Si2 0.246198 0.731632 0.537002
Si Si3 0.124247 0.842631 0.052806
Si Si4 0.255693 0.069799 0.723652
Si Si5 0.830072 0.366098 0.158957
Si Si6 0.340516 0.561890 0.236541
Si Si7 0.509169 0.290486 0.971604
Si Si8 0.710084 0.588227 0.180420
O O1 0.455012 0.769674 0.303809
O O2 0.354890 0.559874 0.615702
O O3 0.606288 0.984099 0.527577
O O4 0.450626 0.019577 0.230966
O O5 0.178098 0.743484 0.303359
O O6 0.178793 0.665875 0.653039
O O7 0.232239 0.500177 0.716788
O O8 0.974229 0.620469 0.069994
O O9 0.156027 0.891376 0.884382
O O10 0.178781 0.100341 0.947745
O O11 0.249662 0.259835 0.457297
O O12 0.398913 0.260084 0.800462
O O13 0.222901 0.892584 0.727071
O O14 0.747942 0.401608 0.938829
O O15 0.405882 0.628919 0.117453
O O16 0.604106 0.520950 0.991642
#
# Coordination Sequence:
#
# PCOD8029463 Si02
#       8
#     2   2   2   2   2   2   2   2
#     4  11  20  42  70 100 138 169 220 283 349 389
#     4  11  25  44  72  99 133 180 226 289 333 393
#     4  12  28  46  68  99 139 187 228 270 328 412
#     4  12  26  43  70 103 135 178 229 282 335 402
#     4  12  27  48  68  97 140 186 229 271 331 404
#     4  12  24  43  69 103 137 179 221 281 344 398
#     4  11  22  42  70 103 137 171 223 289 345 393
#     4  11  24  43  68 104 136 178 222 278 347 399
#
# _framework density 21.557500999999998
#
# number of rings (size 3 to 8) (size 9 to 14) (size 15 to 20)
#    0.000    0.500    5.000    5.250    3.500    3.000 
#    0.000    0.000    0.000    0.000    0.000    0.000 
#    0.000    0.000    0.000    0.000    0.000    0.000 
#
# Total GULP energy -198511.602824 kJ/mol
# GULP energy per Si atom -12406.975176 kJ/mol
# Density = 2.150844 g / cm^3
# Si number density = 21.557501 Si / 1000 Ang^3
#
#
#
# Elastic Constant Matrix: (Units=GPa)
#
#
# Indices 1 2 3 4 5 6 
#
# 1 56.0726 -86.8058 23.8898 13.6227 -56.0518 15.2195
# 2 -86.8058 -383.0548 59.0082 88.1575 -191.9479 77.9156
# 3 23.8898 59.0082 18.2698 -26.3701 -0.3106 -22.9930
# 4 13.6227 88.1575 -26.3701 -0.8973 22.1854 -22.8130
# 5 -56.0518 -191.9479 -0.3106 22.1854 -74.2882 21.7734
# 6 15.2195 77.9156 -22.9930 -22.8130 21.7734 15.8579
#
#
#
# Elastic Compliance Matrix: (Units=1/GPa)
#
#
# Indices 1 2 3 4 5 6 
#
# 1 0.013976 -0.004074 -0.005731 0.000392 -0.000152 -0.000935
# 2 -0.004074 0.005305 0.005046 0.007253 -0.006975 0.005169
# 3 -0.005731 0.005046 0.008491 -0.017611 -0.016741 -0.009327
# 4 0.000392 0.007253 -0.017611 0.016269 -0.018027 -0.013389
# 5 -0.000152 -0.006975 -0.016741 -0.018027 -0.003755 -0.010635
# 6 -0.000935 0.005169 -0.009327 -0.013389 -0.010635 0.020380
#
#
# Mechanical properties :
#
#
# Convention : Reuss Voigt Hill
#
# Bulk Modulus (GPa) = 54.78355 -35.16978 9.80689
# Shear Modulus (GPa) = 65.55632 -32.18581 16.68525
#
# Velocity S-wave (km/s) = 5.52051 -3.86816 2.78508
# Velocity P-wave (km/s) = 8.13035 6.02495 3.86022
#
# Compressibility (1/GPa) = 0.01825365
#
# Stress axis : x y z
#
# Youngs Moduli (GPa) = 71.55254 188.48753 117.76926
#
# Poissons Ratio (x) = 0.76783 0.67498
# Poissons Ratio (y) = 0.29148 -0.59423
# Poissons Ratio (z) = 0.41010 -0.95106
#
# Static dielectric constant tensor:
#      x y z
#    x 3.985770 -0.138340 -0.013810 
#    y -0.138340 3.886030 0.082460 
#    z -0.013810 0.082460 4.060880 
# 
# 
# High freq. dielectric constant tensor:
#      x y z
#    x 1.853490 -0.014170 -0.007150 
#    y -0.014170 1.842780 0.003370 
#    z -0.007150 0.003370 1.858960 
# 
# From -- ./inp_files/273458.got.cif
#   From: 2010.06.25/outbox.cif.g09.slc.cpg/sg2_137_cif.got.tgz:273458.got - 2010.06.27 13:26:56.
