data_PCOD8029396
_publ_section_title
;
Structure prediction by ZEFSAII (Michael W. Deem and Ramdas Pophale) SiO2 
 PCOD8029396
Probable space group: P -1
;
_chemical_formula_sum "Si O2"
_cell_formula_units_Z 16
_cell_length_a 10.901486
_cell_length_b 18.522326
_cell_length_c 8.060538
_cell_angle_alpha 73.035964
_cell_angle_beta 93.525626
_cell_angle_gamma 33.938805
_cell_volume 715.072580
_symmetry_space_group_name_H-M "P -1"
_symmetry_group_IT_number 2
_symmetry_cell_setting 'triclinic'
loop_
_space_group_symop_operation_xyz
x,y,z
-x,-y,-z
loop_
_atom_site_type_symbol
_atom_site_label
_atom_site_fract_x
_atom_site_fract_y
_atom_site_fract_z
Si Si1 0.096928 0.667903 0.909818
Si Si2 0.332219 0.686848 0.787348
Si Si3 0.583264 0.651861 0.258816
Si Si4 0.109381 0.283037 0.465607
Si Si5 0.439928 0.879633 0.234139
Si Si6 0.911368 0.808100 0.149126
Si Si7 0.935689 0.061761 0.193676
Si Si8 0.755128 0.254346 0.619738
O O1 0.200545 0.697391 0.891112
O O2 0.892118 0.761967 0.678258
O O3 0.353062 0.473517 0.043321
O O4 0.956378 0.735174 0.032777
O O5 0.177611 0.851362 0.692558
O O6 0.295088 0.677285 0.604592
O O7 0.614107 0.724221 0.248188
O O8 0.524206 0.634508 0.431325
O O9 0.850063 0.478016 0.311426
O O10 0.310466 0.783396 0.049572
O O11 0.374444 0.190095 0.554708
O O12 0.123651 0.224057 0.670687
O O13 0.187306 0.976162 0.227672
O O14 0.352285 0.996283 0.028613
O O15 0.163563 0.725857 0.256170
O O16 0.003490 0.937305 0.260150
#
# Coordination Sequence:
#
# PCOD8029396 Si02
#       8
#     2   2   2   2   2   2   2   2
#     4  11  24  38  63  94 131 165 207 261 316 378
#     4  11  21  38  60  97 130 159 212 266 315 370
#     4  11  21  42  69  90 122 167 218 263 309 371
#     4  12  26  42  67  93 131 173 205 258 324 375
#     4  11  23  43  66  92 127 170 214 255 317 382
#     4  12  23  43  65  96 129 166 212 261 313 382
#     4  11  20  41  67  90 125 166 215 266 310 368
#     4  11  21  36  68  97 122 164 214 267 318 362
#
# _framework density 22.375350999999998
#
# number of rings (size 3 to 8) (size 9 to 14) (size 15 to 20)
#    0.000    0.750    6.250    2.625    1.750    1.500 
#    0.000    0.000    2.750    4.500    0.000    0.000 
#    0.000    0.000    0.000    0.000    0.000    0.000 
#
# Total GULP energy -198336.571932 kJ/mol
# GULP energy per Si atom -12396.035746 kJ/mol
# Density = 2.232442 g / cm^3
# Si number density = 22.375351 Si / 1000 Ang^3
#
#
#
# Elastic Constant Matrix: (Units=GPa)
#
#
# Indices 1 2 3 4 5 6 
#
# 1 61.3149 21.0893 42.2898 2.2636 20.3669 10.2803
# 2 21.0893 86.6109 31.6438 19.4913 7.8632 17.7807
# 3 42.2898 31.6438 111.8036 19.6335 21.3142 -1.2332
# 4 2.2636 19.4913 19.6335 42.3228 3.3473 -0.2729
# 5 20.3669 7.8632 21.3142 3.3473 31.8744 3.9870
# 6 10.2803 17.7807 -1.2332 -0.2729 3.9870 19.4666
#
#
#
# Elastic Compliance Matrix: (Units=1/GPa)
#
#
# Indices 1 2 3 4 5 6 
#
# 1 0.028577 -0.000862 -0.009382 0.003978 -0.010607 -0.012671
# 2 -0.000862 0.018017 -0.004114 -0.006580 0.001635 -0.016690
# 3 -0.009382 -0.004114 0.015309 -0.004315 -0.004082 0.010457
# 4 0.003978 -0.006580 -0.004315 0.028601 -0.001582 0.004361
# 5 -0.010607 0.001635 -0.004082 -0.001582 0.041220 -0.004616
# 6 -0.012671 -0.016690 0.010457 0.004361 -0.004616 0.074975
#
#
# Mechanical properties :
#
#
# Convention : Reuss Voigt Hill
#
# Bulk Modulus (GPa) = 30.13079 49.97503 40.05291
# Shear Modulus (GPa) = 20.28594 29.71319 24.99957
#
# Velocity S-wave (km/s) = 3.01428 3.64805 3.34620
# Velocity P-wave (km/s) = 5.06061 6.33464 5.73313
#
# Compressibility (1/GPa) = 0.03318865
#
# Stress axis : x y z
#
# Youngs Moduli (GPa) = 34.99310 55.50175 65.32317
#
# Poissons Ratio (x) = 0.04783 0.61283
# Poissons Ratio (y) = 0.03015 0.26873
# Poissons Ratio (z) = 0.32829 0.22833
#
# Static dielectric constant tensor:
#      x y z
#    x 3.720170 0.232090 0.058880 
#    y 0.232090 4.187090 -0.043340 
#    z 0.058880 -0.043340 4.197900 
# 
# 
# High freq. dielectric constant tensor:
#      x y z
#    x 1.850570 0.016880 0.005250 
#    y 0.016880 1.885990 -0.002200 
#    z 0.005250 -0.002200 1.890950 
# 
# From -- ./inp_files/277851.got.cif
#   From: 2010.06.25/outbox.cif.g09.slc.cpg/sg2_139_cif.got.tgz:277851.got - 2010.06.27 13:26:56.
