data_PCOD8029402
_publ_section_title
;
Structure prediction by ZEFSAII (Michael W. Deem and Ramdas Pophale) SiO2 
 PCOD8029402
Probable space group: P -1
;
_chemical_formula_sum "Si O2"
_cell_formula_units_Z 16
_cell_length_a 18.891089
_cell_length_b 9.653738
_cell_length_c 9.828058
_cell_angle_alpha 65.084449
_cell_angle_beta 87.823216
_cell_angle_gamma 140.722315
_cell_volume 795.716342
_symmetry_space_group_name_H-M "P -1"
_symmetry_group_IT_number 2
_symmetry_cell_setting 'triclinic'
loop_
_space_group_symop_operation_xyz
x,y,z
-x,-y,-z
loop_
_atom_site_type_symbol
_atom_site_label
_atom_site_fract_x
_atom_site_fract_y
_atom_site_fract_z
Si Si1 0.200155 0.232734 0.093851
Si Si2 0.217522 0.610166 0.903835
Si Si3 0.923871 0.131828 0.002390
Si Si4 0.164060 0.713875 0.110125
Si Si5 0.930600 0.037762 0.496215
Si Si6 0.413129 0.389289 0.924460
Si Si7 0.708723 0.739751 0.412245
Si Si8 0.583741 0.808869 0.472859
O O1 0.080340 0.970518 0.095774
O O2 0.140473 0.064210 0.311459
O O3 0.251872 0.503772 0.988519
O O4 0.342892 0.414047 0.965134
O O5 0.048988 0.294627 0.014044
O O6 0.318651 0.853079 0.668323
O O7 0.244262 0.777632 0.955667
O O8 0.946357 0.356703 0.892160
O O9 0.774620 0.831781 0.220286
O O10 0.063892 0.405264 0.323991
O O11 0.293421 0.033565 0.053944
O O12 0.802552 0.821627 0.482806
O O13 0.000000 0.000000 0.500000
O O14 0.518183 0.624559 0.693952
O O15 0.500000 0.500000 0.000000
O O16 0.703990 0.910522 0.375125
O O17 0.538074 0.379079 0.555338
#
# Coordination Sequence:
#
# PCOD8029402 Si02
#       8
#     2   2   2   2   2   2   2   2
#     4  11  25  42  60  97 141 167 218 284 334 378
#     4  12  22  39  69 100 130 172 225 275 327 394
#     4  11  21  41  67  97 131 170 222 284 325 381
#     4  11  21  40  69  92 126 171 228 262 324 400
#     4  12  24  41  66 100 136 173 222 277 338 394
#     4  11  25  46  63  94 140 176 215 278 332 397
#     4  11  20  41  68  95 129 174 221 277 315 397
#     4  11  22  40  69  97 127 176 230 262 326 404
#
# _framework density 20.107666999999999
#
# number of rings (size 3 to 8) (size 9 to 14) (size 15 to 20)
#    0.000    0.750    6.250    3.000    0.000    3.500 
#    2.250    1.250    0.000    0.000    0.000    0.000 
#    0.000    0.000    0.000    0.000    0.000    0.000 
#
# Total GULP energy -198257.596029 kJ/mol
# GULP energy per Si atom -12391.099752 kJ/mol
# Density = 2.006190 g / cm^3
# Si number density = 20.107667 Si / 1000 Ang^3
#
#
#
# Elastic Constant Matrix: (Units=GPa)
#
#
# Indices 1 2 3 4 5 6 
#
# 1 104.5047 54.3157 24.2435 -5.8488 8.4499 9.1468
# 2 54.3157 86.6280 35.6812 14.2975 2.2509 3.7259
# 3 24.2435 35.6812 118.8851 4.9982 10.5951 -2.3306
# 4 -5.8488 14.2975 4.9982 30.7440 -2.3309 -2.2818
# 5 8.4499 2.2509 10.5951 -2.3309 28.7731 -4.2372
# 6 9.1468 3.7259 -2.3306 -2.2818 -4.2372 34.9169
#
#
#
# Elastic Compliance Matrix: (Units=1/GPa)
#
#
# Indices 1 2 3 4 5 6 
#
# 1 0.016540 -0.011459 0.000008 0.007963 -0.003767 -0.003046
# 2 -0.011459 0.022285 -0.004052 -0.011734 0.002141 -0.000154
# 3 0.000008 -0.004052 0.009924 0.000080 -0.003229 0.000706
# 4 0.007963 -0.011734 0.000080 0.039793 0.002072 0.002023
# 5 -0.003767 0.002141 -0.003229 0.002072 0.037826 0.005268
# 6 -0.003046 -0.000154 0.000706 0.002023 0.005268 0.030273
#
#
# Mechanical properties :
#
#
# Convention : Reuss Voigt Hill
#
# Bulk Modulus (GPa) = 56.36268 59.83318 58.09793
# Shear Modulus (GPa) = 25.83166 31.93864 28.88515
#
# Velocity S-wave (km/s) = 3.58811 3.98977 3.79426
# Velocity P-wave (km/s) = 6.72736 7.14461 6.93912
#
# Compressibility (1/GPa) = 0.01774224
#
# Stress axis : x y z
#
# Youngs Moduli (GPa) = 60.46069 44.87353 100.76192
#
# Poissons Ratio (x) = 0.51419 -0.00076
# Poissons Ratio (y) = 0.69280 0.40830
# Poissons Ratio (z) = -0.00046 0.18183
#
# Static dielectric constant tensor:
#      x y z
#    x 3.826450 -0.006370 -0.070440 
#    y -0.006370 3.575380 0.090060 
#    z -0.070440 0.090060 3.713290 
# 
# 
# High freq. dielectric constant tensor:
#      x y z
#    x 1.792490 0.000600 -0.006880 
#    y 0.000600 1.776840 0.002910 
#    z -0.006880 0.002910 1.792030 
# 
# From -- ./inp_files/461091.got.cif
#   From: 2010.06.25/outbox.cif.g09.slc.cpg/sg2_231_cif.got.tgz:461091.got - 2010.06.27 13:26:56.
