data_PCOD8029819
_publ_section_title
;
Structure prediction by ZEFSAII (Michael W. Deem and Ramdas Pophale) SiO2 
 PCOD8029819
Probable space group: P -1
;
_chemical_formula_sum "Si O2"
_cell_formula_units_Z 16
_cell_length_a 11.353925
_cell_length_b 9.631247
_cell_length_c 11.694514
_cell_angle_alpha 127.207288
_cell_angle_beta 50.865952
_cell_angle_gamma 126.075519
_cell_volume 744.278323
_symmetry_space_group_name_H-M "P -1"
_symmetry_group_IT_number 2
_symmetry_cell_setting 'triclinic'
loop_
_space_group_symop_operation_xyz
x,y,z
-x,-y,-z
loop_
_atom_site_type_symbol
_atom_site_label
_atom_site_fract_x
_atom_site_fract_y
_atom_site_fract_z
Si Si1 0.258329 0.538688 0.157379
Si Si2 0.671145 0.655798 0.193345
Si Si3 0.682926 0.590824 0.720742
Si Si4 0.896856 0.455267 0.367005
Si Si5 0.659581 0.484177 0.334895
Si Si6 0.727793 0.059049 0.333867
Si Si7 0.597880 0.063448 0.656616
Si Si8 0.551276 0.865878 0.817551
O O1 0.285084 0.385014 0.150459
O O2 0.393564 0.733595 0.204806
O O3 0.084276 0.561698 0.285534
O O4 0.284334 0.486843 0.987030
O O5 0.476548 0.588098 0.293142
O O6 0.735948 0.649041 0.278827
O O7 0.752212 0.862846 0.198350
O O8 0.835048 0.538809 0.555905
O O9 0.671939 0.778689 0.765566
O O10 0.799796 0.494862 0.340382
O O11 0.871319 0.236509 0.288329
O O12 0.500000 0.500000 0.500000
O O13 0.612192 0.295668 0.196816
O O14 0.572410 0.057314 0.354659
O O15 0.721754 0.081932 0.486196
O O16 0.635484 0.961724 0.695641
O O17 0.500000 0.000000 0.000000
#
# Coordination Sequence:
#
# PCOD8029819 Si02
#       8
#     2   2   2   2   2   2   2   2
#     4  12  26  41  66  97 140 163 214 268 338 370
#     4  11  23  40  67  99 122 174 219 272 310 381
#     4  11  22  42  67  92 130 178 214 253 324 394
#     4  12  24  43  67  98 129 178 208 271 322 390
#     4  11  21  42  69  92 126 172 222 254 319 393
#     4  11  22  37  67  93 124 166 228 259 307 379
#     4  11  21  40  63  97 123 168 221 266 300 394
#     4  11  23  37  66 100 124 161 221 273 311 368
#
# _framework density 21.497333000000001
#
# number of rings (size 3 to 8) (size 9 to 14) (size 15 to 20)
#    0.000    0.750    6.250    3.750    1.750    1.000 
#    0.000    1.875    0.000    0.000    0.000    0.000 
#    0.000    0.000    0.000    0.000    0.000    0.000 
#
# Total GULP energy -198331.585208 kJ/mol
# GULP energy per Si atom -12395.724075 kJ/mol
# Density = 2.144840 g / cm^3
# Si number density = 21.497333 Si / 1000 Ang^3
#
#
#
# Elastic Constant Matrix: (Units=GPa)
#
#
# Indices 1 2 3 4 5 6 
#
# 1 78.7533 33.4810 17.5615 -11.1265 12.2825 -33.0753
# 2 33.4810 73.9281 26.8000 4.3537 2.9979 -28.5502
# 3 17.5615 26.8000 95.4284 6.5931 12.7653 -4.6820
# 4 -11.1265 4.3537 6.5931 34.5068 -3.3811 6.2117
# 5 12.2825 2.9979 12.7653 -3.3811 28.1509 -5.0248
# 6 -33.0753 -28.5502 -4.6820 6.2117 -5.0248 38.1118
#
#
#
# Elastic Compliance Matrix: (Units=1/GPa)
#
#
# Indices 1 2 3 4 5 6 
#
# 1 0.022572 -0.003776 -0.001991 0.004915 -0.005272 0.015020
# 2 -0.003776 0.022904 -0.005113 -0.005417 0.003481 0.014595
# 3 -0.001991 -0.005113 0.012960 -0.002233 -0.005504 -0.004328
# 4 0.004915 -0.005417 -0.002233 0.032834 0.002480 -0.005091
# 5 -0.005272 0.003481 -0.005504 0.002480 0.040659 0.002313
# 6 0.015020 0.014595 -0.004328 -0.005091 0.002313 0.050810
#
#
# Mechanical properties :
#
#
# Convention : Reuss Voigt Hill
#
# Bulk Modulus (GPa) = 27.26555 44.86608 36.06582
# Shear Modulus (GPa) = 23.07087 31.50505 27.28796
#
# Velocity S-wave (km/s) = 3.27952 3.83238 3.56668
# Velocity P-wave (km/s) = 5.20107 6.36386 5.81162
#
# Compressibility (1/GPa) = 0.03667632
#
# Stress axis : x y z
#
# Youngs Moduli (GPa) = 44.30321 43.65959 77.16287
#
# Poissons Ratio (x) = 0.16486 0.15361
# Poissons Ratio (y) = 0.16729 0.39453
# Poissons Ratio (z) = 0.08820 0.22323
#
# Static dielectric constant tensor:
#      x y z
#    x 3.920750 -0.335870 0.257920 
#    y -0.335870 4.100320 -0.052760 
#    z 0.257920 -0.052760 3.840810 
# 
# 
# High freq. dielectric constant tensor:
#      x y z
#    x 1.831940 -0.030390 0.028860 
#    y -0.030390 1.842090 0.005580 
#    z 0.028860 0.005580 1.835140 
# 
# From -- ./inp_files/419919.got.cif
#   From: 2010.06.25/outbox.cif.g09.slc.cpg/sg2_210_cif.got.tgz:419919.got - 2010.06.27 13:26:56.
