data_PCOD8029408
_publ_section_title
;
Structure prediction by ZEFSAII (Michael W. Deem and Ramdas Pophale) SiO2 
 PCOD8029408
Probable space group: P -1
;
_chemical_formula_sum "Si O2"
_cell_formula_units_Z 16
_cell_length_a 5.586429
_cell_length_b 15.880807
_cell_length_c 13.108799
_cell_angle_alpha 44.501633
_cell_angle_beta 61.853313
_cell_angle_gamma 80.956676
_cell_volume 687.861852
_symmetry_space_group_name_H-M "P -1"
_symmetry_group_IT_number 2
_symmetry_cell_setting 'triclinic'
loop_
_space_group_symop_operation_xyz
x,y,z
-x,-y,-z
loop_
_atom_site_type_symbol
_atom_site_label
_atom_site_fract_x
_atom_site_fract_y
_atom_site_fract_z
Si Si1 0.173466 0.074631 0.053975
Si Si2 0.929391 0.298744 0.170186
Si Si3 0.682930 0.171171 0.744824
Si Si4 0.313189 0.171991 0.422306
Si Si5 0.794981 0.475500 0.213709
Si Si6 0.139552 0.074737 0.302230
Si Si7 0.139602 0.376857 0.384085
Si Si8 0.585408 0.956073 0.289086
O O1 0.163019 0.099451 0.154872
O O2 0.226206 0.942844 0.126835
O O3 0.411087 0.185493 0.852397
O O4 0.854187 0.054569 0.093854
O O5 0.619758 0.212629 0.271471
O O6 0.887476 0.382143 0.199879
O O7 0.111670 0.203294 0.249243
O O8 0.083487 0.382169 0.972653
O O9 0.608813 0.140059 0.668066
O O10 0.941169 0.299421 0.582231
O O11 0.182466 0.288639 0.357664
O O12 0.318420 0.130739 0.574527
O O13 0.121333 0.049403 0.506030
O O14 0.450125 0.446596 0.311002
O O15 0.958709 0.466003 0.295493
O O16 0.423283 0.042141 0.305746
#
# Coordination Sequence:
#
# PCOD8029408 Si02
#       8
#     2   2   2   2   2   2   2   2
#     4   9  19  31  50  88 113 148 184 224 301 349
#     4  10  22  40  57  79 112 154 197 240 277 342
#     4  10  17  30  57  80 117 147 184 235 285 351
#     4  10  20  34  56  85 116 147 186 233 296 350
#     4  10  25  42  59  86 110 156 206 239 277 327
#     4  10  20  36  53  83 120 149 184 233 299 346
#     4  11  20  40  62  84 119 146 193 247 282 336
#     4  10  17  33  48  87 121 148 179 227 294 355
#
# _framework density 23.260484999999999
#
# number of rings (size 3 to 8) (size 9 to 14) (size 15 to 20)
#    0.000    2.000    3.750    2.250    0.000    5.000 
#   13.500    0.000    0.000    1.500    0.000    0.000 
#    0.000    0.000    0.000    0.000    0.000    0.000 
#
# Total GULP energy -198264.750818 kJ/mol
# GULP energy per Si atom -12391.546926 kJ/mol
# Density = 2.320754 g / cm^3
# Si number density = 23.260485 Si / 1000 Ang^3
#
#
#
# Elastic Constant Matrix: (Units=GPa)
#
#
# Indices 1 2 3 4 5 6 
#
# 1 119.0270 9.8460 53.9043 1.3189 -20.6078 -16.4303
# 2 9.8460 39.5383 25.3490 -1.1160 -8.8698 -8.2224
# 3 53.9043 25.3490 171.2341 9.1586 -37.0937 -22.3669
# 4 1.3189 -1.1160 9.1586 24.9317 -12.2485 -1.5901
# 5 -20.6078 -8.8698 -37.0937 -12.2485 45.7564 5.8099
# 6 -16.4303 -8.2224 -22.3669 -1.5901 5.8099 21.9998
#
#
#
# Elastic Compliance Matrix: (Units=1/GPa)
#
#
# Indices 1 2 3 4 5 6 
#
# 1 0.010563 0.000594 -0.002193 0.002074 0.002984 0.005243
# 2 0.000594 0.029690 -0.002969 0.004808 0.003908 0.007837
# 3 -0.002193 -0.002969 0.008635 -0.000589 0.004676 0.004755
# 4 0.002074 0.004808 -0.000589 0.047343 0.013739 0.002541
# 5 0.002984 0.003908 0.004676 0.013739 0.031276 0.001177
# 6 0.005243 0.007837 0.004755 0.002541 0.001177 0.057007
#
#
# Mechanical properties :
#
#
# Convention : Reuss Voigt Hill
#
# Bulk Modulus (GPa) = 25.15614 56.44423 40.80018
# Shear Modulus (GPa) = 24.16630 34.58427 29.37529
#
# Velocity S-wave (km/s) = 3.22676 3.86012 3.55756
# Velocity P-wave (km/s) = 4.97203 6.64727 5.86972
#
# Compressibility (1/GPa) = 0.03975172
#
# Stress axis : x y z
#
# Youngs Moduli (GPa) = 94.67205 33.68173 115.80489
#
# Poissons Ratio (x) = -0.02000 0.25392
# Poissons Ratio (y) = -0.05621 0.34383
# Poissons Ratio (z) = 0.20758 0.10000
#
# Static dielectric constant tensor:
#      x y z
#    x 4.494900 -0.275530 -0.296790 
#    y -0.275530 3.732980 0.123400 
#    z -0.296790 0.123400 4.541690 
# 
# 
# High freq. dielectric constant tensor:
#      x y z
#    x 1.934300 -0.012480 -0.009810 
#    y -0.012480 1.866970 0.018410 
#    z -0.009810 0.018410 1.926430 
# 
# From -- ./inp_files/78222.got.cif
#   From: 2010.06.25/outbox.cif.g09.slc.cpg/sg2_40_cif.got.tgz:78222.got - 2010.06.27 13:26:56.
