data_PCOD8029650
_publ_section_title
;
Structure prediction by ZEFSAII (Michael W. Deem and Ramdas Pophale) SiO2 
 PCOD8029650
Probable space group: P -1
;
_chemical_formula_sum "Si O2"
_cell_formula_units_Z 16
_cell_length_a 14.297059
_cell_length_b 8.562929
_cell_length_c 13.337299
_cell_angle_alpha 133.214802
_cell_angle_beta 37.665159
_cell_angle_gamma 133.892849
_cell_volume 683.892685
_symmetry_space_group_name_H-M "P -1"
_symmetry_group_IT_number 2
_symmetry_cell_setting 'triclinic'
loop_
_space_group_symop_operation_xyz
x,y,z
-x,-y,-z
loop_
_atom_site_type_symbol
_atom_site_label
_atom_site_fract_x
_atom_site_fract_y
_atom_site_fract_z
Si Si1 0.489458 0.760995 0.860733
Si Si2 0.718333 0.782110 0.839181
Si Si3 0.635783 0.988226 0.192627
Si Si4 0.848283 0.463767 0.686071
Si Si5 0.342125 0.039357 0.384200
Si Si6 0.948087 0.405065 0.112019
Si Si7 0.968397 0.878594 0.364272
Si Si8 0.795555 0.666185 0.016424
O O1 0.633660 0.708289 0.771986
O O2 0.525001 0.787772 0.724881
O O3 0.319524 0.570069 0.943088
O O4 0.500000 0.000000 0.000000
O O5 0.718119 0.537513 0.766774
O O6 0.621991 0.879001 0.044945
O O7 0.894578 0.972985 0.762684
O O8 0.452564 0.007213 0.371698
O O9 0.762153 0.242558 0.200591
O O10 0.692518 0.835886 0.159423
O O11 0.887529 0.628913 0.821748
O O12 0.000000 0.500000 0.500000
O O13 0.761487 0.206360 0.682816
O O14 0.199967 0.147746 0.564981
O O15 0.972928 0.623002 0.259970
O O16 0.058109 0.254191 0.991300
O O17 0.000000 0.500000 0.000000
O O18 0.000000 0.000000 0.500000
#
# Coordination Sequence:
#
# PCOD8029650 Si02
#       8
#     2   2   2   2   2   2   2   2
#     4  12  20  35  64  99 137 171 226 284 332 395
#     4  11  21  37  64  97 133 177 221 271 340 403
#     4  11  24  43  64  96 133 184 227 275 337 413
#     4  11  22  37  63 100 140 175 217 281 344 401
#     4  12  23  39  65 101 142 175 226 282 346 399
#     4  12  25  45  72  97 136 183 236 280 338 415
#     4  12  24  41  69 106 137 173 227 289 344 396
#     4  11  24  42  67  99 135 181 236 281 338 410
#
# _framework density 23.395482999999999
#
# number of rings (size 3 to 8) (size 9 to 14) (size 15 to 20)
#    0.000    0.500    6.250    3.375    0.000    2.500 
#    0.000    0.000    0.000    2.250    0.000    0.000 
#    0.000    0.000    0.000    0.000    0.000    0.000 
#
# Total GULP energy -198212.654422 kJ/mol
# GULP energy per Si atom -12388.290901 kJ/mol
# Density = 2.334223 g / cm^3
# Si number density = 23.395483 Si / 1000 Ang^3
#
#
#
# Elastic Constant Matrix: (Units=GPa)
#
#
# Indices 1 2 3 4 5 6 
#
# 1 138.5398 3.2473 24.6042 2.4925 -34.0867 -8.3547
# 2 3.2473 66.9596 7.2156 -2.7963 2.8858 -1.3836
# 3 24.6042 7.2156 59.1996 -9.2464 -15.4597 -0.4118
# 4 2.4925 -2.7963 -9.2464 34.6445 1.0113 -5.0800
# 5 -34.0867 2.8858 -15.4597 1.0113 39.9442 -4.3728
# 6 -8.3547 -1.3836 -0.4118 -5.0800 -4.3728 35.6596
#
#
#
# Elastic Compliance Matrix: (Units=1/GPa)
#
#
# Indices 1 2 3 4 5 6 
#
# 1 0.009752 -0.000575 -0.002060 -0.001081 0.007928 0.003057
# 2 -0.000575 0.015336 -0.002132 0.000818 -0.002416 0.000256
# 3 -0.002060 -0.002132 0.020522 0.005448 0.006335 0.001224
# 4 -0.001081 0.000818 0.005448 0.031079 0.000818 0.004369
# 5 0.007928 -0.002416 0.006335 0.000818 0.035091 0.006257
# 6 0.003057 0.000256 0.001224 0.004369 0.006257 0.030173
#
#
# Mechanical properties :
#
#
# Convention : Reuss Voigt Hill
#
# Bulk Modulus (GPa) = 27.71910 37.20369 32.46139
# Shear Modulus (GPa) = 30.57905 37.35846 33.96875
#
# Velocity S-wave (km/s) = 3.61924 4.00036 3.81456
# Velocity P-wave (km/s) = 5.41654 6.10523 5.77117
#
# Compressibility (1/GPa) = 0.03607621
#
# Stress axis : x y z
#
# Youngs Moduli (GPa) = 102.54382 65.20800 48.72874
#
# Poissons Ratio (x) = 0.03747 0.10039
# Poissons Ratio (y) = 0.05892 0.10388
# Poissons Ratio (z) = 0.21126 0.13900
#
# Static dielectric constant tensor:
#      x y z
#    x 3.988850 -0.222220 -0.194020 
#    y -0.222220 4.426690 -0.288690 
#    z -0.194020 -0.288690 4.763800 
# 
# 
# High freq. dielectric constant tensor:
#      x y z
#    x 1.937800 -0.019080 -0.032480 
#    y -0.019080 1.928440 -0.010220 
#    z -0.032480 -0.010220 1.896490 
# 
# From -- ./inp_files/529054.got.cif
#   From: 2010.06.25/outbox.cif.g09.slc.cpg/sg2_265_cif.got.tgz:529054.got - 2010.06.27 13:26:56.
