data_PCOD8029076
_publ_section_title
;
Structure prediction by ZEFSAII (Michael W. Deem and Ramdas Pophale) SiO2 
 PCOD8029076
Probable space group: P -1
;
_chemical_formula_sum "Si O2"
_cell_formula_units_Z 14
_cell_length_a 10.291858
_cell_length_b 12.778731
_cell_length_c 7.912687
_cell_angle_alpha 50.742053
_cell_angle_beta 115.131466
_cell_angle_gamma 132.400625
_cell_volume 595.024308
_symmetry_space_group_name_H-M "P -1"
_symmetry_group_IT_number 2
_symmetry_cell_setting 'triclinic'
loop_
_space_group_symop_operation_xyz
x,y,z
-x,-y,-z
loop_
_atom_site_type_symbol
_atom_site_label
_atom_site_fract_x
_atom_site_fract_y
_atom_site_fract_z
Si Si1 0.689342 0.636740 0.905213
Si Si2 0.148666 0.735292 0.862959
Si Si3 0.632879 0.398749 0.839420
Si Si4 0.905189 0.641197 0.526109
Si Si5 0.965763 0.230664 0.868087
Si Si6 0.200194 0.059138 0.525589
Si Si7 0.759672 0.851092 0.187421
O O1 0.729494 0.565353 0.837945
O O2 0.699686 0.800769 0.702144
O O3 0.500000 0.500000 0.000000
O O4 0.829528 0.695375 0.071468
O O5 0.990037 0.613345 0.769552
O O6 0.212416 0.909870 0.635369
O O7 0.307750 0.717861 0.951696
O O8 0.097972 0.725926 0.043175
O O9 0.704728 0.473460 0.611036
O O10 0.422155 0.291007 0.859414
O O11 0.894567 0.799305 0.342747
O O12 0.020882 0.664501 0.398902
O O13 0.857184 0.033794 0.969902
O O14 0.304817 0.133887 0.681243
O O15 0.000000 0.000000 0.500000
#
# Coordination Sequence:
#
# PCOD8029076 Si02
#       7
#     2   2   2   2   2   2   2
#     4  12  24  43  68 107 137 174 230 290 331 403
#     4  11  24  47  70  97 144 181 224 277 346 408
#     4  12  26  43  70 103 141 173 224 297 339 384
#     4  12  22  41  74  97 135 180 232 275 341 399
#     4  11  24  42  69  99 136 183 227 271 341 411
#     4  11  19  43  72  93 136 190 221 265 347 407
#     4  11  22  42  69 103 133 179 236 272 335 415
#
# _framework density 23.528452000000001
#
# number of rings (size 3 to 8) (size 9 to 14) (size 15 to 20)
#    0.000    0.571    7.143    2.143    2.000    4.000 
#    0.000    2.857    0.000    0.000    0.000    0.000 
#    0.000    0.000    0.000    0.000    0.000    0.000 
#
# Total GULP energy -173434.303708 kJ/mol
# GULP energy per Si atom -12388.164551 kJ/mol
# Density = 2.347490 g / cm^3
# Si number density = 23.528452 Si / 1000 Ang^3
#
#
#
# Elastic Constant Matrix: (Units=GPa)
#
#
# Indices 1 2 3 4 5 6 
#
# 1 69.7779 11.4891 41.2404 -6.8301 4.3931 9.6078
# 2 11.4891 87.8655 18.2086 -7.5603 -12.3345 16.2423
# 3 41.2404 18.2086 97.7139 -0.2086 -20.5202 14.4595
# 4 -6.8301 -7.5603 -0.2086 33.7052 2.2912 -4.9455
# 5 4.3931 -12.3345 -20.5202 2.2912 38.2543 -6.8278
# 6 9.6078 16.2423 14.4595 -4.9455 -6.8278 28.6535
#
#
#
# Elastic Compliance Matrix: (Units=1/GPa)
#
#
# Indices 1 2 3 4 5 6 
#
# 1 0.022298 -0.001096 -0.010754 0.004421 -0.009469 -0.002922
# 2 -0.001096 0.013285 -0.000510 0.001686 0.002981 -0.005905
# 3 -0.010754 -0.000510 0.017430 -0.003321 0.010071 -0.003075
# 4 0.004421 0.001686 -0.003321 0.031710 -0.002929 0.004013
# 5 -0.009469 0.002981 0.010071 -0.002929 0.034502 0.004119
# 6 -0.002922 -0.005905 -0.003075 0.004013 0.004119 0.042453
#
#
# Mechanical properties :
#
#
# Convention : Reuss Voigt Hill
#
# Bulk Modulus (GPa) = 35.34115 44.13706 39.73911
# Shear Modulus (GPa) = 25.53250 32.41721 28.97486
#
# Velocity S-wave (km/s) = 3.29777 3.71588 3.51305
# Velocity P-wave (km/s) = 5.43633 6.10001 5.77771
#
# Compressibility (1/GPa) = 0.02829563
#
# Stress axis : x y z
#
# Youngs Moduli (GPa) = 44.84607 75.27291 57.37159
#
# Poissons Ratio (x) = 0.08249 0.61695
# Poissons Ratio (y) = 0.04914 0.02924
# Poissons Ratio (z) = 0.48225 0.03837
#
# Static dielectric constant tensor:
#      x y z
#    x 4.041030 -0.316570 -0.138800 
#    y -0.316570 4.651760 0.217580 
#    z -0.138800 0.217580 4.374330 
# 
# 
# High freq. dielectric constant tensor:
#      x y z
#    x 1.904950 -0.007680 -0.009310 
#    y -0.007680 1.935280 -0.010460 
#    z -0.009310 -0.010460 1.938320 
# 
# From -- ./inp_files/266902.got.cif
#   From: 2010.06.25/outbox.cif.g09.slc.cpg/sg2_134_cif.got.tgz:266902.got - 2010.06.27 13:26:56.
