data_PCOD8029600
_publ_section_title
;
Structure prediction by ZEFSAII (Michael W. Deem and Ramdas Pophale) SiO2 
 PCOD8029600
Probable space group: P -1
;
_chemical_formula_sum "Si O2"
_cell_formula_units_Z 16
_cell_length_a 9.348981
_cell_length_b 11.173212
_cell_length_c 9.404417
_cell_angle_alpha 114.470566
_cell_angle_beta 59.254415
_cell_angle_gamma 94.235199
_cell_volume 756.415687
_symmetry_space_group_name_H-M "P -1"
_symmetry_group_IT_number 2
_symmetry_cell_setting 'triclinic'
loop_
_space_group_symop_operation_xyz
x,y,z
-x,-y,-z
loop_
_atom_site_type_symbol
_atom_site_label
_atom_site_fract_x
_atom_site_fract_y
_atom_site_fract_z
Si Si1 0.480134 0.715305 0.883650
Si Si2 0.290687 0.178427 0.956957
Si Si3 0.190582 0.583487 0.088581
Si Si4 0.316232 0.878620 0.790271
Si Si5 0.694674 0.439439 0.668518
Si Si6 0.079994 0.678427 0.747330
Si Si7 0.167694 0.417682 0.756223
Si Si8 0.459938 0.238093 0.619321
O O1 0.444146 0.807557 0.809833
O O2 0.606752 0.578700 0.710054
O O3 0.561031 0.795138 0.002168
O O4 0.302709 0.684244 0.017939
O O5 0.353829 0.175357 0.760694
O O6 0.250855 0.031871 0.939858
O O7 0.122027 0.287054 0.125637
O O8 0.255931 0.529106 0.181744
O O9 0.992912 0.654682 0.231034
O O10 0.184367 0.451360 0.932678
O O11 0.154883 0.806238 0.823429
O O12 0.411246 0.872732 0.586379
O O13 0.861396 0.368883 0.464863
O O14 0.557742 0.343233 0.697943
O O15 0.160303 0.555163 0.744284
O O16 0.336886 0.310805 0.591667
#
# Coordination Sequence:
#
# PCOD8029600 Si02
#       8
#     2   2   2   2   2   2   2   2
#     4  12  22  40  66  90 128 159 201 255 307 364
#     4  12  25  42  64  87 124 174 205 239 300 367
#     4  11  21  36  60  97 129 152 193 251 318 372
#     4  11  25  43  62  89 125 166 211 246 289 362
#     4  11  22  39  64  98 124 152 196 262 321 350
#     4  11  24  41  64  93 127 157 201 258 304 362
#     4  11  21  37  64  97 121 156 197 254 325 353
#     4  11  22  40  67  92 121 157 207 256 302 362
#
# _framework density 21.152391000000001
#
# number of rings (size 3 to 8) (size 9 to 14) (size 15 to 20)
#    0.000    0.750    3.750    5.250    0.000    5.000 
#    0.000    0.000    0.000    1.500    0.000    0.000 
#    0.000    0.000    0.000    0.000    0.000    0.000 
#
# Total GULP energy -198397.321398 kJ/mol
# GULP energy per Si atom -12399.832587 kJ/mol
# Density = 2.110425 g / cm^3
# Si number density = 21.152391 Si / 1000 Ang^3
#
#
#
# Elastic Constant Matrix: (Units=GPa)
#
#
# Indices 1 2 3 4 5 6 
#
# 1 109.5438 31.2454 28.0909 -8.0119 -3.1273 7.2002
# 2 31.2454 94.1297 31.1510 0.3224 2.9678 5.1943
# 3 28.0909 31.1510 56.3899 -11.9672 -3.9130 -1.8057
# 4 -8.0119 0.3224 -11.9672 30.9760 1.8741 0.3911
# 5 -3.1273 2.9678 -3.9130 1.8741 27.1717 -7.7389
# 6 7.2002 5.1943 -1.8057 0.3911 -7.7389 35.0223
#
#
#
# Elastic Compliance Matrix: (Units=1/GPa)
#
#
# Indices 1 2 3 4 5 6 
#
# 1 0.011042 -0.002224 -0.004041 0.001330 0.000239 -0.002111
# 2 -0.002224 0.014228 -0.007826 -0.003500 -0.003490 -0.002789
# 3 -0.004041 -0.007826 0.026432 0.008902 0.004812 0.004318
# 4 0.001330 -0.003500 0.008902 0.036139 -0.000629 0.000162
# 5 0.000239 -0.003490 0.004812 -0.000629 0.040717 0.009721
# 6 -0.002111 -0.002789 0.004318 0.000162 0.009721 0.031770
#
#
# Mechanical properties :
#
#
# Convention : Reuss Voigt Hill
#
# Bulk Modulus (GPa) = 42.51799 49.00422 45.76110
# Shear Modulus (GPa) = 25.46498 29.93908 27.70203
#
# Velocity S-wave (km/s) = 3.47346 3.76626 3.62282
# Velocity P-wave (km/s) = 6.01922 6.49080 6.25945
#
# Compressibility (1/GPa) = 0.02351946
#
# Stress axis : x y z
#
# Youngs Moduli (GPa) = 90.56233 70.28563 37.83352
#
# Poissons Ratio (x) = 0.15629 0.15289
# Poissons Ratio (y) = 0.20137 0.29610
# Poissons Ratio (z) = 0.36597 0.55008
#
# Static dielectric constant tensor:
#      x y z
#    x 4.010810 0.062160 -0.092200 
#    y 0.062160 3.624720 -0.117400 
#    z -0.092200 -0.117400 3.791530 
# 
# 
# High freq. dielectric constant tensor:
#      x y z
#    x 1.842110 0.006150 -0.001000 
#    y 0.006150 1.817790 -0.013820 
#    z -0.001000 -0.013820 1.821890 
# 
# From -- ./inp_files/189773.got.cif
#   From: 2010.06.25/outbox.cif.g09.slc.cpg/sg2_95_cif.got.tgz:189773.got - 2010.06.27 13:26:56.
