data_PCOD8029442
_publ_section_title
;
Structure prediction by ZEFSAII (Michael W. Deem and Ramdas Pophale) SiO2 
 PCOD8029442
Probable space group: P -1
;
_chemical_formula_sum "Si O2"
_cell_formula_units_Z 16
_cell_length_a 14.467677
_cell_length_b 9.124301
_cell_length_c 8.891434
_cell_angle_alpha 46.837579
_cell_angle_beta 68.280419
_cell_angle_gamma 93.927655
_cell_volume 700.052818
_symmetry_space_group_name_H-M "P -1"
_symmetry_group_IT_number 2
_symmetry_cell_setting 'triclinic'
loop_
_space_group_symop_operation_xyz
x,y,z
-x,-y,-z
loop_
_atom_site_type_symbol
_atom_site_label
_atom_site_fract_x
_atom_site_fract_y
_atom_site_fract_z
Si Si1 0.186478 0.713321 0.446630
Si Si2 0.212137 0.891053 0.992572
Si Si3 0.666356 0.645296 0.564167
Si Si4 0.017401 0.226039 0.411239
Si Si5 0.262263 0.541401 0.068911
Si Si6 0.522759 0.234405 0.395053
Si Si7 0.419135 0.781343 0.297737
Si Si8 0.026594 0.239798 0.749536
O O1 0.089574 0.729476 0.594233
O O2 0.300924 0.774584 0.426337
O O3 0.140460 0.456261 0.587251
O O4 0.229921 0.900268 0.155093
O O5 0.242382 0.139099 0.736909
O O6 0.286503 0.791408 0.936959
O O7 0.078204 0.715455 0.171380
O O8 0.732161 0.604292 0.690501
O O9 0.570785 0.698864 0.653065
O O10 0.605783 0.432715 0.639878
O O11 0.027646 0.210112 0.593128
O O12 0.139876 0.422215 0.144492
O O13 0.000000 0.000000 0.500000
O O14 0.355068 0.569385 0.870536
O O15 0.515834 0.220303 0.589808
O O16 0.500000 0.000000 0.500000
O O17 0.500000 0.000000 0.000000
O O18 0.000000 0.000000 0.000000
#
# Coordination Sequence:
#
# PCOD8029442 Si02
#       8
#     2   2   2   2   2   2   2   2
#     4  11  22  44  70 101 137 185 236 283 333 415
#     4  11  20  41  74  99 136 179 235 282 338 407
#     4  12  25  46  77  99 131 188 235 286 349 408
#     4  11  24  41  64 101 144 179 218 286 344 402
#     4  12  23  46  69 102 142 180 226 288 347 410
#     4  12  27  45  69 102 141 181 228 287 353 413
#     4  12  26  47  73 104 137 180 238 288 338 413
#     4  11  21  40  71 100 133 189 237 269 342 413
#
# _framework density 22.855416999999999
#
# number of rings (size 3 to 8) (size 9 to 14) (size 15 to 20)
#    0.000    0.500    5.000    4.500    0.000    5.000 
#    2.250    1.250    0.000    0.000    0.000    0.000 
#    0.000    0.000    0.000    0.000    0.000    0.000 
#
# Total GULP energy -198402.938795 kJ/mol
# GULP energy per Si atom -12400.183675 kJ/mol
# Density = 2.280340 g / cm^3
# Si number density = 22.855417 Si / 1000 Ang^3
#
#
#
# Elastic Constant Matrix: (Units=GPa)
#
#
# Indices 1 2 3 4 5 6 
#
# 1 100.7239 29.2225 12.6283 -5.8404 -17.7229 -14.3262
# 2 29.2225 95.2294 25.3872 -15.0378 -9.8092 -13.5440
# 3 12.6283 25.3872 119.3390 -9.4499 -5.2193 -1.6517
# 4 -5.8404 -15.0378 -9.4499 29.5693 -6.1245 -2.8776
# 5 -17.7229 -9.8092 -5.2193 -6.1245 46.1237 3.5637
# 6 -14.3262 -13.5440 -1.6517 -2.8776 3.5637 29.4826
#
#
#
# Elastic Compliance Matrix: (Units=1/GPa)
#
#
# Indices 1 2 3 4 5 6 
#
# 1 0.012128 -0.002141 -0.000386 0.002490 0.004134 0.004632
# 2 -0.002141 0.013838 -0.001979 0.007024 0.002396 0.005602
# 3 -0.000386 -0.001979 0.009018 0.001905 0.000743 -0.000495
# 4 0.002490 0.007024 0.001905 0.040785 0.007493 0.007618
# 5 0.004134 0.002396 0.000743 0.007493 0.024789 0.000886
# 6 0.004632 0.005602 -0.000495 0.007618 0.000886 0.039351
#
#
# Mechanical properties :
#
#
# Convention : Reuss Voigt Hill
#
# Bulk Modulus (GPa) = 38.50170 49.97427 44.23799
# Shear Modulus (GPa) = 31.73023 37.57207 34.65115
#
# Velocity S-wave (km/s) = 3.73004 4.05890 3.89794
# Velocity P-wave (km/s) = 5.95258 6.62413 6.29732
#
# Compressibility (1/GPa) = 0.02597288
#
# Stress axis : x y z
#
# Youngs Moduli (GPa) = 82.45212 72.26397 110.89264
#
# Poissons Ratio (x) = 0.15472 0.04278
# Poissons Ratio (y) = 0.17653 0.21943
# Poissons Ratio (z) = 0.03181 0.14299
#
# Static dielectric constant tensor:
#      x y z
#    x 4.824820 -0.182880 -0.631920 
#    y -0.182880 3.845870 -0.089260 
#    z -0.631920 -0.089260 4.688720 
# 
# 
# High freq. dielectric constant tensor:
#      x y z
#    x 1.921840 -0.019910 -0.019160 
#    y -0.019910 1.880140 -0.006710 
#    z -0.019160 -0.006710 1.911870 
# 
# From -- ./inp_files/297398.got.cif
#   From: 2010.06.25/outbox.cif.g09.slc.cpg/sg2_149_cif.got.tgz:297398.got - 2010.06.27 13:26:56.
