data_PCOD8029404
_publ_section_title
;
Structure prediction by ZEFSAII (Michael W. Deem and Ramdas Pophale) SiO2 
 PCOD8029404
Probable space group: P -1
;
_chemical_formula_sum "Si O2"
_cell_formula_units_Z 14
_cell_length_a 22.618240
_cell_length_b 9.347542
_cell_length_c 8.983540
_cell_angle_alpha 48.831196
_cell_angle_beta 56.684963
_cell_angle_gamma 27.848544
_cell_volume 664.988123
_symmetry_space_group_name_H-M "P -1"
_symmetry_group_IT_number 2
_symmetry_cell_setting 'triclinic'
loop_
_space_group_symop_operation_xyz
x,y,z
-x,-y,-z
loop_
_atom_site_type_symbol
_atom_site_label
_atom_site_fract_x
_atom_site_fract_y
_atom_site_fract_z
Si Si1 0.215703 0.792692 0.131815
Si Si2 0.370174 0.241214 0.091411
Si Si3 0.965025 0.149503 0.608499
Si Si4 0.391183 0.389270 0.439789
Si Si5 0.823403 0.859893 0.295770
Si Si6 0.791627 0.285575 0.259010
Si Si7 0.428934 0.768743 0.539757
O O1 0.334300 0.510244 0.048129
O O2 0.135061 0.778727 0.240088
O O3 0.274495 0.696180 0.279252
O O4 0.139466 0.137678 0.922444
O O5 0.368679 0.082777 0.325347
O O6 0.262730 0.448017 0.972471
O O7 0.500000 0.000000 0.000000
O O8 0.915520 0.476086 0.456460
O O9 0.000000 0.000000 0.500000
O O10 0.089886 0.869569 0.728665
O O11 0.322447 0.480547 0.624279
O O12 0.469709 0.404921 0.353442
O O13 0.500000 0.000000 0.500000
O O14 0.834071 0.989406 0.327657
O O15 0.679480 0.108280 0.315475
O O16 0.500000 0.500000 0.500000
#
# Coordination Sequence:
#
# PCOD8029404 Si02
#       7
#     2   2   2   2   2   2   2
#     4  11  24  44  69  98 136 176 223 276 333 395
#     4  11  20  41  68  97 132 173 220 271 335 396
#     4  12  25  47  70  95 137 179 226 280 333 389
#     4  12  21  40  70  98 136 176 215 275 345 395
#     4  11  25  46  67  98 136 175 228 277 328 403
#     4  11  24  43  70  99 130 180 227 271 335 400
#     4  12  22  40  67  99 138 170 217 278 334 398
#
# _framework density 21.053007999999998
#
# number of rings (size 3 to 8) (size 9 to 14) (size 15 to 20)
#    0.000    0.571    7.143    1.286    0.000    3.429 
#    5.143    0.000    0.000    0.000    0.000    0.000 
#    0.000    0.000    0.000    0.000    0.000    0.000 
#
# Total GULP energy -173455.646017 kJ/mol
# GULP energy per Si atom -12389.689001 kJ/mol
# Density = 2.100509 g / cm^3
# Si number density = 21.053008 Si / 1000 Ang^3
#
#
#
# Elastic Constant Matrix: (Units=GPa)
#
#
# Indices 1 2 3 4 5 6 
#
# 1 152.4239 32.1730 38.3130 -5.3437 17.7998 -18.0156
# 2 32.1730 74.9409 12.8497 0.9355 1.0139 1.4471
# 3 38.3130 12.8497 117.2404 -2.4665 4.2629 -9.5322
# 4 -5.3437 0.9355 -2.4665 28.1867 -1.7502 7.9474
# 5 17.7998 1.0139 4.2629 -1.7502 34.9645 0.2197
# 6 -18.0156 1.4471 -9.5322 7.9474 0.2197 33.1760
#
#
#
# Elastic Compliance Matrix: (Units=1/GPa)
#
#
# Indices 1 2 3 4 5 6 
#
# 1 0.008796 -0.003465 -0.001987 0.000123 -0.004156 0.004355
# 2 -0.003465 0.015004 -0.000790 -0.000380 0.001423 -0.002681
# 3 -0.001987 -0.000790 0.009405 -0.000003 -0.000123 0.001659
# 4 0.000123 -0.000380 -0.000003 0.038192 0.001918 -0.009079
# 5 -0.004156 0.001423 -0.000123 0.001918 0.030805 -0.003018
# 6 0.004355 -0.002681 0.001659 -0.009079 -0.003018 0.035296
#
#
# Mechanical properties :
#
#
# Convention : Reuss Voigt Hill
#
# Bulk Modulus (GPa) = 48.25967 56.80852 52.53409
# Shear Modulus (GPa) = 31.86988 36.68341 34.27665
#
# Velocity S-wave (km/s) = 3.89497 4.17877 4.03936
# Velocity P-wave (km/s) = 6.57270 7.09401 6.83833
#
# Compressibility (1/GPa) = 0.02072124
#
# Stress axis : x y z
#
# Youngs Moduli (GPa) = 113.69078 66.64861 106.33041
#
# Poissons Ratio (x) = 0.23093 0.21126
# Poissons Ratio (y) = 0.39392 0.08399
# Poissons Ratio (z) = 0.22589 0.05265
#
# Static dielectric constant tensor:
#      x y z
#    x 4.050420 0.037990 -0.025430 
#    y 0.037990 3.991710 0.032310 
#    z -0.025430 0.032310 4.046250 
# 
# 
# High freq. dielectric constant tensor:
#      x y z
#    x 1.825150 -0.001860 0.010970 
#    y -0.001860 1.836150 0.004400 
#    z 0.010970 0.004400 1.828880 
# 
# From -- ./inp_files/187262.got.cif
#   From: 2010.06.25/outbox.cif.g09.slc.cpg/sg2_94_cif.got.tgz:187262.got - 2010.06.27 13:26:56.
