data_PCOD8029570
_publ_section_title
;
Structure prediction by ZEFSAII (Michael W. Deem and Ramdas Pophale) SiO2 
 PCOD8029570
Probable space group: P -1
;
_chemical_formula_sum "Si O2"
_cell_formula_units_Z 16
_cell_length_a 12.816522
_cell_length_b 9.300791
_cell_length_c 20.900160
_cell_angle_alpha 100.571057
_cell_angle_beta 37.944229
_cell_angle_gamma 129.655288
_cell_volume 869.610441
_symmetry_space_group_name_H-M "P -1"
_symmetry_group_IT_number 2
_symmetry_cell_setting 'triclinic'
loop_
_space_group_symop_operation_xyz
x,y,z
-x,-y,-z
loop_
_atom_site_type_symbol
_atom_site_label
_atom_site_fract_x
_atom_site_fract_y
_atom_site_fract_z
Si Si1 0.176215 0.868418 0.482678
Si Si2 0.408287 0.543377 0.337246
Si Si3 0.588557 0.968364 0.220357
Si Si4 0.183355 0.274380 0.945488
Si Si5 0.828585 0.899054 0.393395
Si Si6 0.699530 0.497392 0.471353
Si Si7 0.387471 0.451911 0.120981
Si Si8 0.857931 0.436120 0.698603
O O1 0.479144 0.035456 0.315844
O O2 0.934879 0.720769 0.532422
O O3 0.066984 0.662505 0.565004
O O4 0.227538 0.055310 0.509686
O O5 0.519695 0.780791 0.282495
O O6 0.589913 0.548731 0.209227
O O7 0.443511 0.551218 0.396519
O O8 0.421793 0.834195 0.222558
O O9 0.940925 0.233700 0.060856
O O10 0.354582 0.385362 0.938654
O O11 0.000000 0.000000 0.000000
O O12 0.839301 0.734091 0.387249
O O13 0.565108 0.757509 0.462042
O O14 0.136143 0.158463 0.234322
O O15 0.953786 0.555477 0.357120
O O16 0.259600 0.526855 0.191069
O O17 0.500000 0.500000 0.000000
#
# Coordination Sequence:
#
# PCOD8029570 Si02
#       8
#     2   2   2   2   2   2   2   2
#     4  10  17  35  57  87 114 138 198 256 271 331
#     4  10  17  33  59  83 112 151 189 233 294 329
#     4  10  17  30  58  91 115 141 190 246 281 338
#     4  10  19  33  55  89 120 144 187 241 285 348
#     4  10  25  39  52  87 121 148 200 238 285 355
#     4  11  22  38  60  80 117 162 188 236 298 345
#     4  11  23  38  59  87 118 152 192 243 290 338
#     4  10  18  35  58  86 111 146 198 240 285 338
#
# _framework density 18.399042999999999
#
# number of rings (size 3 to 8) (size 9 to 14) (size 15 to 20)
#    0.000    1.750    7.500    0.750    3.500    3.500 
#    0.000    0.625    0.000    3.000    0.000    0.000 
#    0.000    0.000    0.000    0.000    0.000    0.000 
#
# Total GULP energy -198365.624903 kJ/mol
# GULP energy per Si atom -12397.851556 kJ/mol
# Density = 1.835717 g / cm^3
# Si number density = 18.399043 Si / 1000 Ang^3
#
#
#
# Elastic Constant Matrix: (Units=GPa)
#
#
# Indices 1 2 3 4 5 6 
#
# 1 69.2973 26.3970 28.0970 -8.3864 -16.0491 3.8603
# 2 26.3970 72.2394 37.2266 1.4049 -4.6498 9.2890
# 3 28.0970 37.2266 123.1057 20.7622 -18.4239 -0.7256
# 4 -8.3864 1.4049 20.7622 33.8606 7.2551 -2.1557
# 5 -16.0491 -4.6498 -18.4239 7.2551 31.2604 6.0801
# 6 3.8603 9.2890 -0.7256 -2.1557 6.0801 16.8968
#
#
#
# Elastic Compliance Matrix: (Units=1/GPa)
#
#
# Indices 1 2 3 4 5 6 
#
# 1 0.020037 -0.004965 -0.002823 0.005036 0.007499 -0.004025
# 2 -0.004965 0.019373 -0.005043 0.000679 -0.000990 -0.009290
# 3 -0.002823 -0.005043 0.013241 -0.010349 0.008052 -0.000232
# 4 0.005036 0.000679 -0.010349 0.040745 -0.014513 0.008452
# 5 0.007499 -0.000990 0.008052 -0.014513 0.047662 -0.019825
# 6 -0.004025 -0.009290 -0.000232 0.008452 -0.019825 0.073412
#
#
# Mechanical properties :
#
#
# Convention : Reuss Voigt Hill
#
# Bulk Modulus (GPa) = 37.04930 49.78705 43.41817
# Shear Modulus (GPa) = 20.07009 27.93168 24.00089
#
# Velocity S-wave (km/s) = 3.30634 3.90051 3.61565
# Velocity P-wave (km/s) = 5.89543 6.88503 6.40936
#
# Compressibility (1/GPa) = 0.02699107
#
# Stress axis : x y z
#
# Youngs Moduli (GPa) = 49.90850 51.61754 75.52175
#
# Poissons Ratio (x) = 0.25627 0.21317
# Poissons Ratio (y) = 0.24778 0.38084
# Poissons Ratio (z) = 0.14087 0.26029
#
# Static dielectric constant tensor:
#      x y z
#    x 3.243850 0.189070 -0.332740 
#    y 0.189070 3.345320 0.210510 
#    z -0.332740 0.210510 3.998650 
# 
# 
# High freq. dielectric constant tensor:
#      x y z
#    x 1.694420 0.021780 -0.018010 
#    y 0.021780 1.704380 0.012840 
#    z -0.018010 0.012840 1.715550 
# 
# From -- ./inp_files/216731.got.cif
#   From: 2010.06.25/outbox.cif.g09.slc.cpg/sg2_109_cif.got.tgz:216731.got - 2010.06.27 13:26:56.
