data_PCOD8029281
_publ_section_title
;
Structure prediction by ZEFSAII (Michael W. Deem and Ramdas Pophale) SiO2 
 PCOD8029281
Probable space group: P -1
;
_chemical_formula_sum "Si O2"
_cell_formula_units_Z 14
_cell_length_a 13.279405
_cell_length_b 13.550072
_cell_length_c 8.217151
_cell_angle_alpha 75.193597
_cell_angle_beta 50.982700
_cell_angle_gamma 117.636682
_cell_volume 616.628902
_symmetry_space_group_name_H-M "P -1"
_symmetry_group_IT_number 2
_symmetry_cell_setting 'triclinic'
loop_
_space_group_symop_operation_xyz
x,y,z
-x,-y,-z
loop_
_atom_site_type_symbol
_atom_site_label
_atom_site_fract_x
_atom_site_fract_y
_atom_site_fract_z
Si Si1 0.337177 0.070913 0.305841
Si Si2 0.322890 0.803405 0.844039
Si Si3 0.162069 0.014234 0.823871
Si Si4 0.470690 0.339028 0.834291
Si Si5 0.634326 0.362693 0.325432
Si Si6 0.112625 0.288546 0.225363
Si Si7 0.928978 0.691911 0.378342
O O1 0.559715 0.158692 0.121057
O O2 0.139456 0.947767 0.699459
O O3 0.415578 0.231328 0.089564
O O4 0.171615 0.907312 0.409510
O O5 0.258714 0.677224 0.821726
O O6 0.500000 0.000000 0.500000
O O7 0.072423 0.682493 0.202833
O O8 0.419868 0.229946 0.475575
O O9 0.000000 0.000000 0.000000
O O10 0.106918 0.900592 0.073075
O O11 0.524794 0.298974 0.644549
O O12 0.706300 0.555495 0.543612
O O13 0.257463 0.278553 0.044535
O O14 0.810270 0.571620 0.034787
O O15 0.167750 0.363557 0.318291
#
# Coordination Sequence:
#
# PCOD8029281 Si02
#       7
#     2   2   2   2   2   2   2
#     4  11  24  42  68  97 136 180 221 278 333 396
#     4  11  25  49  68  94 140 178 236 270 333 407
#     4  11  20  39  66  96 130 177 222 278 340 389
#     4  12  25  44  69 106 138 174 227 279 341 403
#     4  11  24  42  68  97 136 180 221 278 333 396
#     4  12  25  44  69 106 138 174 227 279 341 403
#     4  12  24  43  70  96 140 182 219 283 332 397
#
# _framework density 22.704093
#
# number of rings (size 3 to 8) (size 9 to 14) (size 15 to 20)
#    0.000    0.571    2.857    7.286    0.000    3.429 
#    0.000    0.000    0.000    0.000    0.000    0.000 
#    0.000    0.000    0.000    0.000    0.000    0.000 
#
# Total GULP energy -173480.882655 kJ/mol
# GULP energy per Si atom -12391.491618 kJ/mol
# Density = 2.265242 g / cm^3
# Si number density = 22.704093 Si / 1000 Ang^3
#
#
#
# Elastic Constant Matrix: (Units=GPa)
#
#
# Indices 1 2 3 4 5 6 
#
# 1 82.2323 21.0826 21.2836 1.9128 -1.6476 -8.0253
# 2 21.0826 92.6188 19.6017 10.9610 -8.5570 0.8047
# 3 21.2836 19.6017 82.0864 -0.2407 5.2036 -6.1118
# 4 1.9128 10.9610 -0.2407 46.3346 -4.6004 -0.9945
# 5 -1.6476 -8.5570 5.2036 -4.6004 43.9996 2.0215
# 6 -8.0253 0.8047 -6.1118 -0.9945 2.0215 33.3758
#
#
#
# Elastic Compliance Matrix: (Units=1/GPa)
#
#
# Indices 1 2 3 4 5 6 
#
# 1 0.013820 -0.002577 -0.002768 0.000108 0.000223 0.002868
# 2 -0.002577 0.012486 -0.002597 -0.002654 0.002436 -0.001623
# 3 -0.002768 -0.002597 0.013821 0.000619 -0.002274 0.002084
# 4 0.000108 -0.002654 0.000619 0.022396 0.001721 0.000767
# 5 0.000223 0.002436 -0.002274 0.001721 0.023742 -0.001808
# 6 0.002868 -0.001623 0.002084 0.000767 -0.001808 0.031205
#
#
# Mechanical properties :
#
#
# Convention : Reuss Voigt Hill
#
# Bulk Modulus (GPa) = 41.24756 42.31925 41.78341
# Shear Modulus (GPa) = 35.35221 37.73998 36.54609
#
# Velocity S-wave (km/s) = 3.95027 4.08150 4.01642
# Velocity P-wave (km/s) = 6.24605 6.39464 6.32078
#
# Compressibility (1/GPa) = 0.02424386
#
# Stress axis : x y z
#
# Youngs Moduli (GPa) = 72.36068 80.08780 72.35263
#
# Poissons Ratio (x) = 0.20639 0.20028
# Poissons Ratio (y) = 0.18647 0.18786
# Poissons Ratio (z) = 0.20030 0.20795
#
# Static dielectric constant tensor:
#      x y z
#    x 3.980850 -0.027500 -0.096130 
#    y -0.027500 4.222710 0.120440 
#    z -0.096130 0.120440 3.873440 
# 
# 
# High freq. dielectric constant tensor:
#      x y z
#    x 1.892430 0.005460 -0.000250 
#    y 0.005460 1.902340 0.001180 
#    z -0.000250 0.001180 1.905050 
# 
# From -- ./inp_files/305085.got.cif
#   From: 2010.06.25/outbox.cif.g09.slc.cpg/sg2_153_cif.got.tgz:305085.got - 2010.06.27 13:26:56.
