data_PCOD8029349
_publ_section_title
;
Structure prediction by ZEFSAII (Michael W. Deem and Ramdas Pophale) SiO2 
 PCOD8029349
Probable space group: P -1
;
_chemical_formula_sum "Si O2"
_cell_formula_units_Z 16
_cell_length_a 9.085855
_cell_length_b 12.188112
_cell_length_c 14.443111
_cell_angle_alpha 149.979290
_cell_angle_beta 112.922755
_cell_angle_gamma 65.104572
_cell_volume 724.751644
_symmetry_space_group_name_H-M "P -1"
_symmetry_group_IT_number 2
_symmetry_cell_setting 'triclinic'
loop_
_space_group_symop_operation_xyz
x,y,z
-x,-y,-z
loop_
_atom_site_type_symbol
_atom_site_label
_atom_site_fract_x
_atom_site_fract_y
_atom_site_fract_z
Si Si1 0.579794 0.826107 0.108558
Si Si2 0.273949 0.590036 0.271839
Si Si3 0.315759 0.506188 0.436789
Si Si4 0.007133 0.815946 0.989229
Si Si5 0.251336 0.050629 0.123589
Si Si6 0.876022 0.045335 0.296927
Si Si7 0.945951 0.684438 0.331103
Si Si8 0.606212 0.958208 0.403040
O O1 0.729075 0.958166 0.247389
O O2 0.511431 0.858744 0.221830
O O3 0.438589 0.924260 0.072226
O O4 0.644644 0.574013 0.908487
O O5 0.295575 0.485044 0.304507
O O6 0.077217 0.647352 0.251384
O O7 0.353258 0.806379 0.444601
O O8 0.500000 0.500000 0.500000
O O9 0.254191 0.308983 0.333849
O O10 0.206996 0.730740 0.614364
O O11 0.046177 0.551080 0.783470
O O12 0.848608 0.952958 0.998577
O O13 0.968660 0.850046 0.112741
O O14 0.162181 0.930331 0.091794
O O15 0.006644 0.116739 0.450485
O O16 0.763904 0.766566 0.314096
O O17 0.500000 0.000000 0.500000
#
# Coordination Sequence:
#
# PCOD8029349 Si02
#       8
#     2   2   2   2   2   2   2   2
#     4  12  25  44  73 104 135 184 235 280 345 409
#     4  11  24  45  70 104 135 180 238 277 343 411
#     4  11  20  40  69 101 140 182 226 276 335 409
#     4  11  25  44  65 106 141 186 221 278 348 405
#     4  11  24  43  65 104 151 173 226 281 337 417
#     4  11  22  41  70  99 134 180 231 273 337 405
#     4  11  24  48  71  97 139 179 236 279 337 416
#     4  12  29  48  70 101 137 182 231 297 349 399
#
# _framework density 22.076528
#
# number of rings (size 3 to 8) (size 9 to 14) (size 15 to 20)
#    0.000    0.750    7.500    0.375    5.250    3.500 
#    0.000    0.000    0.000    0.000    0.000    0.000 
#    0.000    0.000    0.000    0.000    0.000    0.000 
#
# Total GULP energy -198267.190123 kJ/mol
# GULP energy per Si atom -12391.699383 kJ/mol
# Density = 2.202628 g / cm^3
# Si number density = 22.076528 Si / 1000 Ang^3
#
#
#
# Elastic Constant Matrix: (Units=GPa)
#
#
# Indices 1 2 3 4 5 6 
#
# 1 85.2863 34.7756 38.8127 2.1662 6.9521 4.4514
# 2 34.7756 72.8855 41.2775 2.7982 -5.4771 -6.9283
# 3 38.8127 41.2775 127.3398 -6.4187 -12.0101 0.1232
# 4 2.1662 2.7982 -6.4187 24.8825 1.4258 -5.3492
# 5 6.9521 -5.4771 -12.0101 1.4258 36.2409 2.2044
# 6 4.4514 -6.9283 0.1232 -5.3492 2.2044 34.7167
#
#
#
# Elastic Compliance Matrix: (Units=1/GPa)
#
#
# Indices 1 2 3 4 5 6 
#
# 1 0.016656 -0.006580 -0.003522 -0.002066 -0.005067 -0.003433
# 2 -0.006580 0.020007 -0.004334 -0.002008 0.002662 0.004373
# 3 -0.003522 -0.004334 0.010830 0.003354 0.003487 -0.000156
# 4 -0.002066 -0.002008 0.003354 0.042912 -0.000880 0.006520
# 5 -0.005067 0.002662 0.003487 -0.000880 0.030212 -0.000885
# 6 -0.003433 0.004373 -0.000156 0.006520 -0.000885 0.031179
#
#
# Mechanical properties :
#
#
# Convention : Reuss Voigt Hill
#
# Bulk Modulus (GPa) = 53.70653 57.24924 55.47789
# Shear Modulus (GPa) = 26.75597 30.54442 28.65020
#
# Velocity S-wave (km/s) = 3.48510 3.72367 3.60636
# Velocity P-wave (km/s) = 6.36984 6.66904 6.52116
#
# Compressibility (1/GPa) = 0.01861971
#
# Stress axis : x y z
#
# Youngs Moduli (GPa) = 60.03908 49.98266 92.33882
#
# Poissons Ratio (x) = 0.32887 0.32526
# Poissons Ratio (y) = 0.39504 0.40021
# Poissons Ratio (z) = 0.21149 0.21663
#
# Static dielectric constant tensor:
#      x y z
#    x 4.216650 -0.003790 0.046990 
#    y -0.003790 3.925010 0.112550 
#    z 0.046990 0.112550 4.041830 
# 
# 
# High freq. dielectric constant tensor:
#      x y z
#    x 1.867400 -0.012180 0.013880 
#    y -0.012180 1.855810 0.012570 
#    z 0.013880 0.012570 1.875120 
# 
# From -- ./inp_files/501217.got.cif
#   From: 2010.06.25/outbox.cif.g09.slc.cpg/sg2_251_cif.got.tgz:501217.got - 2010.06.27 13:26:56.
