data_PCOD8029231
_publ_section_title
;
Structure prediction by ZEFSAII (Michael W. Deem and Ramdas Pophale) SiO2 
 PCOD8029231
Probable space group: P -1
;
_chemical_formula_sum "Si O2"
_cell_formula_units_Z 14
_cell_length_a 16.422570
_cell_length_b 11.049869
_cell_length_c 16.520166
_cell_angle_alpha 131.127225
_cell_angle_beta 23.447525
_cell_angle_gamma 144.384425
_cell_volume 642.523519
_symmetry_space_group_name_H-M "P -1"
_symmetry_group_IT_number 2
_symmetry_cell_setting 'triclinic'
loop_
_space_group_symop_operation_xyz
x,y,z
-x,-y,-z
loop_
_atom_site_type_symbol
_atom_site_label
_atom_site_fract_x
_atom_site_fract_y
_atom_site_fract_z
Si Si1 0.625117 0.221426 0.029090
Si Si2 0.757839 0.754178 0.966087
Si Si3 0.565707 0.551156 0.733921
Si Si4 0.178285 0.887284 0.405267
Si Si5 0.239810 0.578137 0.252948
Si Si6 0.229492 0.138617 0.608549
Si Si7 0.768847 0.568533 0.381984
O O1 0.602843 0.373858 0.066516
O O2 0.415720 0.134044 0.258206
O O3 0.951001 0.376936 0.826746
O O4 0.500000 0.000000 0.000000
O O5 0.852698 0.621698 0.805958
O O6 0.621656 0.686597 0.151225
O O7 0.529416 0.690303 0.082101
O O8 0.031461 0.021471 0.819010
O O9 0.598764 0.524932 0.598671
O O10 0.871926 0.742296 0.580218
O O11 0.284961 0.762787 0.238916
O O12 0.167919 0.935249 0.529796
O O13 0.000000 0.500000 0.500000
O O14 0.559268 0.337327 0.420724
O O15 0.139937 0.231966 0.669814
#
# Coordination Sequence:
#
# PCOD8029231 Si02
#       7
#     2   2   2   2   2   2   2
#     4  12  23  40  69  97 127 171 216 273 329 370
#     4  11  23  40  66  98 133 170 214 268 329 383
#     4  12  24  41  67 101 132 162 221 273 320 390
#     4  12  21  41  72  96 127 172 220 272 322 378
#     4  11  20  38  64 100 133 165 216 269 320 385
#     4  11  24  46  67  92 133 178 218 264 324 389
#     4  11  26  47  64  94 135 173 222 267 315 397
#
# _framework density 21.789086000000001
#
# number of rings (size 3 to 8) (size 9 to 14) (size 15 to 20)
#    0.000    0.571    5.714    3.857    0.000    1.143 
#    2.571    0.714    0.000    0.000    0.000    0.000 
#    0.000    0.000    0.000    0.000    0.000    0.000 
#
# Total GULP energy -173551.247670 kJ/mol
# GULP energy per Si atom -12396.517691 kJ/mol
# Density = 2.173949 g / cm^3
# Si number density = 21.789086 Si / 1000 Ang^3
#
#
#
# Elastic Constant Matrix: (Units=GPa)
#
#
# Indices 1 2 3 4 5 6 
#
# 1 104.3226 46.7932 43.7110 -5.5024 -7.6651 -16.8039
# 2 46.7932 74.1612 36.1972 -5.6253 -9.4614 -10.0219
# 3 43.7110 36.1972 106.6695 -9.0253 -10.1164 -14.3278
# 4 -5.5024 -5.6253 -9.0253 34.0076 -12.9586 6.7611
# 5 -7.6651 -9.4614 -10.1164 -12.9586 49.3883 -5.6575
# 6 -16.8039 -10.0219 -14.3278 6.7611 -5.6575 37.0171
#
#
#
# Elastic Compliance Matrix: (Units=1/GPa)
#
#
# Indices 1 2 3 4 5 6 
#
# 1 0.014744 -0.007246 -0.003032 -0.000091 0.000676 0.003677
# 2 -0.007246 0.020341 -0.003362 0.002164 0.002759 0.000943
# 3 -0.003032 -0.003362 0.012551 0.002733 0.002453 0.002447
# 4 -0.000091 0.002164 0.002733 0.034830 0.009724 -0.003273
# 5 0.000676 0.002759 0.002453 0.009724 0.024388 0.003955
# 6 0.003677 0.000943 0.002447 -0.003273 0.003955 0.031089
#
#
# Mechanical properties :
#
#
# Convention : Reuss Voigt Hill
#
# Bulk Modulus (GPa) = 49.12941 59.83955 54.48448
# Shear Modulus (GPa) = 29.06859 34.64606 31.85732
#
# Velocity S-wave (km/s) = 3.65648 3.99189 3.82786
# Velocity P-wave (km/s) = 6.35792 6.98352 6.67805
#
# Compressibility (1/GPa) = 0.02035441
#
# Stress axis : x y z
#
# Youngs Moduli (GPa) = 67.82530 49.16248 79.67739
#
# Poissons Ratio (x) = 0.35626 0.24161
# Poissons Ratio (y) = 0.49149 0.26784
# Poissons Ratio (z) = 0.20567 0.16526
#
# Static dielectric constant tensor:
#      x y z
#    x 4.773820 -1.115530 -0.047570 
#    y -1.115530 4.711000 0.207440 
#    z -0.047570 0.207440 4.249860 
# 
# 
# High freq. dielectric constant tensor:
#      x y z
#    x 1.861820 -0.025730 0.011220 
#    y -0.025730 1.837880 -0.006140 
#    z 0.011220 -0.006140 1.867220 
# 
# From -- ./inp_files/67961.got.cif
#   From: 2010.06.25/outbox.cif.g09.slc.cpg/sg2_34_cif.got.tgz:67961.got - 2010.06.27 13:26:56.
