data_PCOD8029975
_publ_section_title
;
Structure prediction by ZEFSAII (Michael W. Deem and Ramdas Pophale) SiO2 
 PCOD8029975
Probable space group: P -1
;
_chemical_formula_sum "Si O2"
_cell_formula_units_Z 16
_cell_length_a 8.120556
_cell_length_b 27.958764
_cell_length_c 27.417931
_cell_angle_alpha 9.964595
_cell_angle_beta 40.220291
_cell_angle_gamma 41.020350
_cell_volume 695.394257
_symmetry_space_group_name_H-M "P -1"
_symmetry_group_IT_number 2
_symmetry_cell_setting 'triclinic'
loop_
_space_group_symop_operation_xyz
x,y,z
-x,-y,-z
loop_
_atom_site_type_symbol
_atom_site_label
_atom_site_fract_x
_atom_site_fract_y
_atom_site_fract_z
Si Si1 0.385469 0.230428 0.939411
Si Si2 0.031113 0.609519 0.769808
Si Si3 0.814628 0.157271 0.136888
Si Si4 0.302802 0.412681 0.672714
Si Si5 0.087878 0.877729 0.654492
Si Si6 0.498404 0.286014 0.509489
Si Si7 0.048271 0.070921 0.765300
Si Si8 0.362093 0.366249 0.245136
O O1 0.462594 0.288589 0.807454
O O2 0.539602 0.412315 0.760772
O O3 0.084881 0.299302 0.942099
O O4 0.426340 0.911147 0.264408
O O5 0.291011 0.702647 0.591874
O O6 0.813654 0.500990 0.891229
O O7 0.903312 0.870272 0.563632
O O8 0.097295 0.358700 0.044660
O O9 0.784746 0.054504 0.191287
O O10 0.788946 0.896897 0.438712
O O11 0.608571 0.398741 0.955335
O O12 0.500000 0.500000 0.500000
O O13 0.132904 0.674429 0.466708
O O14 0.125656 0.175889 0.927463
O O15 0.360529 0.725625 0.742602
O O16 0.000000 0.000000 0.500000
O O17 0.232718 0.183450 0.651786
#
# Coordination Sequence:
#
# PCOD8029975 Si02
#       8
#     2   2   2   2   2   2   2   2
#     4  11  21  43  68 101 135 175 228 276 329 410
#     4  12  24  46  68  93 132 182 230 283 354 410
#     4  11  21  41  68 101 125 179 229 280 332 411
#     4  11  24  47  74 103 143 189 223 261 332 418
#     4  12  28  46  62  96 139 179 230 291 354 418
#     4  12  24  43  70 103 138 172 229 294 344 385
#     4  11  25  43  69 105 144 174 226 283 339 391
#     4  12  23  43  71  94 129 177 239 278 349 407
#
# _framework density 23.008531000000001
#
# number of rings (size 3 to 8) (size 9 to 14) (size 15 to 20)
#    0.000    0.500    2.500    7.500    1.750    0.000 
#    2.250    3.750    0.000    0.000    0.000    0.000 
#    0.000    0.000    0.000    0.000    0.000    0.000 
#
# Total GULP energy -198419.239965 kJ/mol
# GULP energy per Si atom -12401.202498 kJ/mol
# Density = 2.295616 g / cm^3
# Si number density = 23.008531 Si / 1000 Ang^3
#
#
#
# Elastic Constant Matrix: (Units=GPa)
#
#
# Indices 1 2 3 4 5 6 
#
# 1 81.4739 36.5230 30.3638 20.1846 -12.2841 7.5912
# 2 36.5230 84.8226 40.7667 14.8567 7.8988 18.8092
# 3 30.3638 40.7667 141.1137 11.1294 10.6211 13.7578
# 4 20.1846 14.8567 11.1294 44.8478 13.1322 4.8411
# 5 -12.2841 7.8988 10.6211 13.1322 36.8891 -2.1329
# 6 7.5912 18.8092 13.7578 4.8411 -2.1329 21.5750
#
#
#
# Elastic Compliance Matrix: (Units=1/GPa)
#
#
# Indices 1 2 3 4 5 6 
#
# 1 0.021399 -0.008444 -0.002896 -0.010783 0.013923 0.005475
# 2 -0.008444 0.020081 -0.002117 0.001523 -0.007871 -0.014306
# 3 -0.002896 -0.002117 0.008833 0.001266 -0.003703 -0.003418
# 4 -0.010783 0.001523 0.001266 0.031779 -0.016002 -0.007053
# 5 0.013923 -0.007871 -0.003703 -0.016002 0.040884 0.011957
# 6 0.005475 -0.014306 -0.003418 -0.007053 0.011957 0.061840
#
#
# Mechanical properties :
#
#
# Convention : Reuss Voigt Hill
#
# Bulk Modulus (GPa) = 42.73798 58.07968 50.40883
# Shear Modulus (GPa) = 22.77571 33.97948 28.37759
#
# Velocity S-wave (km/s) = 3.14965 3.84711 3.51572
# Velocity P-wave (km/s) = 5.64289 6.71053 6.19973
#
# Compressibility (1/GPa) = 0.02339839
#
# Stress axis : x y z
#
# Youngs Moduli (GPa) = 46.73098 49.79753 113.20583
#
# Poissons Ratio (x) = 0.42049 0.32789
# Poissons Ratio (y) = 0.39460 0.23970
# Poissons Ratio (z) = 0.13535 0.10544
#
# Static dielectric constant tensor:
#      x y z
#    x 3.928330 0.108610 0.058800 
#    y 0.108610 4.219000 0.089510 
#    z 0.058800 0.089510 4.502650 
# 
# 
# High freq. dielectric constant tensor:
#      x y z
#    x 1.893460 0.015210 -0.000680 
#    y 0.015210 1.894870 0.000720 
#    z -0.000680 0.000720 1.938420 
# 
# From -- ./inp_files/617663.got.cif
#   From: 2010.06.25/outbox.cif.g09.slc.cpg/sg2_309_cif.got.tgz:617663.got - 2010.06.27 13:26:56.
