data_PCOD8029001
_publ_section_title
;
Structure prediction by ZEFSAII (Michael W. Deem and Ramdas Pophale) SiO2 
 PCOD8029001
Probable space group: P -1
;
_chemical_formula_sum "Si O2"
_cell_formula_units_Z 16
_cell_length_a 23.600019
_cell_length_b 8.933141
_cell_length_c 7.741571
_cell_angle_alpha 63.209692
_cell_angle_beta 128.067972
_cell_angle_gamma 146.482327
_cell_volume 701.952036
_symmetry_space_group_name_H-M "P -1"
_symmetry_group_IT_number 2
_symmetry_cell_setting 'triclinic'
loop_
_space_group_symop_operation_xyz
x,y,z
-x,-y,-z
loop_
_atom_site_type_symbol
_atom_site_label
_atom_site_fract_x
_atom_site_fract_y
_atom_site_fract_z
Si Si1 0.446650 0.813911 0.158036
Si Si2 0.862881 0.477391 0.403800
Si Si3 0.316407 0.808829 0.483590
Si Si4 0.798116 0.702941 0.982385
Si Si5 0.421482 0.084808 0.205636
Si Si6 0.692412 0.559919 0.488157
Si Si7 0.930868 0.239837 0.122963
Si Si8 0.238354 0.976656 0.797518
O O1 0.550989 0.886357 0.377494
O O2 0.411066 0.887099 0.195076
O O3 0.327625 0.493589 0.056323
O O4 0.500000 0.000000 0.000000
O O5 0.774849 0.291500 0.497668
O O6 0.849560 0.622519 0.192701
O O7 0.844249 0.288361 0.340333
O O8 0.991409 0.702726 0.610622
O O9 0.306311 0.588085 0.571211
O O10 0.314226 0.881097 0.250474
O O11 0.888596 0.016587 0.030300
O O12 0.770969 0.654033 0.752224
O O13 0.555838 0.355054 0.385177
O O14 0.372193 0.147021 0.964572
O O15 0.755162 0.829119 0.374159
O O16 0.820453 0.121149 0.072381
O O17 0.000000 0.500000 0.000000
#
# Coordination Sequence:
#
# PCOD8029001 Si02
#       8
#     2   2   2   2   2   2   2   2
#     4  11  19  37  69 102 137 172 218 278 329 400
#     4  12  25  46  71  99 130 184 231 277 327 398
#     4  11  20  40  71  98 139 174 226 270 331 399
#     4  12  23  45  70 101 133 175 230 272 338 396
#     4  11  21  40  66 103 142 179 218 267 336 414
#     4  11  23  40  67 107 140 174 212 280 341 407
#     4  12  29  50  69  95 135 180 231 287 333 389
#     4  12  25  46  67  97 139 177 224 279 342 395
#
# _framework density 22.793579999999999
#
# number of rings (size 3 to 8) (size 9 to 14) (size 15 to 20)
#    0.000    0.500    5.000    4.125    1.750    0.000 
#    2.250    3.125    0.000    0.000    0.000    0.000 
#    0.000    0.000    0.000    0.000    0.000    0.000 
#
# Total GULP energy -198259.926652 kJ/mol
# GULP energy per Si atom -12391.245416 kJ/mol
# Density = 2.274170 g / cm^3
# Si number density = 22.793580 Si / 1000 Ang^3
#
#
#
# Elastic Constant Matrix: (Units=GPa)
#
#
# Indices 1 2 3 4 5 6 
#
# 1 58.5085 16.5516 4.8842 0.0587 -8.3804 10.3539
# 2 16.5516 127.1442 25.4459 -4.0741 -5.0877 -11.7987
# 3 4.8842 25.4459 109.7623 19.1001 4.0217 -6.0148
# 4 0.0587 -4.0741 19.1001 36.1348 11.6215 -9.9347
# 5 -8.3804 -5.0877 4.0217 11.6215 35.3096 -0.8036
# 6 10.3539 -11.7987 -6.0148 -9.9347 -0.8036 30.2187
#
#
#
# Elastic Compliance Matrix: (Units=1/GPa)
#
#
# Indices 1 2 3 4 5 6 
#
# 1 0.020705 -0.003556 0.000024 -0.005073 0.005841 -0.009990
# 2 -0.003556 0.009458 -0.002411 0.004062 -0.000412 0.005756
# 3 0.000024 -0.002411 0.010704 -0.006336 0.000505 -0.000889
# 4 -0.005073 0.004062 -0.006336 0.039593 -0.012593 0.014744
# 5 0.005841 -0.000412 0.000505 -0.012593 0.033614 -0.005308
# 6 -0.009990 0.005756 -0.000889 0.014744 -0.005308 0.043292
#
#
# Mechanical properties :
#
#
# Convention : Reuss Voigt Hill
#
# Bulk Modulus (GPa) = 34.50393 43.24204 38.87298
# Shear Modulus (GPa) = 27.94667 36.90151 32.42409
#
# Velocity S-wave (km/s) = 3.50534 4.02797 3.77571
# Velocity P-wave (km/s) = 5.61726 6.37535 6.00827
#
# Compressibility (1/GPa) = 0.02898221
#
# Stress axis : x y z
#
# Youngs Moduli (GPa) = 48.29715 105.72775 93.42492
#
# Poissons Ratio (x) = 0.37598 -0.00227
# Poissons Ratio (y) = 0.17175 0.22522
# Poissons Ratio (z) = -0.00118 0.25488
#
# Static dielectric constant tensor:
#      x y z
#    x 3.575370 0.246200 0.480600 
#    y 0.246200 4.090920 -0.087220 
#    z 0.480600 -0.087220 3.505960 
# 
# 
# High freq. dielectric constant tensor:
#      x y z
#    x 1.884520 0.009830 -0.009210 
#    y 0.009830 1.896700 0.000120 
#    z -0.009210 0.000120 1.921390 
# 
# From -- ./inp_files/352123.got.cif
#   From: 2010.06.25/outbox.cif.g09.slc.cpg/sg2_177_cif.got.tgz:352123.got - 2010.06.27 13:26:56.
