data_PCOD8029480
_publ_section_title
;
Structure prediction by ZEFSAII (Michael W. Deem and Ramdas Pophale) SiO2 
 PCOD8029480
Probable space group: P -1
;
_chemical_formula_sum "Si O2"
_cell_formula_units_Z 16
_cell_length_a 9.092983
_cell_length_b 17.674571
_cell_length_c 14.071529
_cell_angle_alpha 30.624508
_cell_angle_beta 140.367173
_cell_angle_gamma 141.805509
_cell_volume 679.985665
_symmetry_space_group_name_H-M "P -1"
_symmetry_group_IT_number 2
_symmetry_cell_setting 'triclinic'
loop_
_space_group_symop_operation_xyz
x,y,z
-x,-y,-z
loop_
_atom_site_type_symbol
_atom_site_label
_atom_site_fract_x
_atom_site_fract_y
_atom_site_fract_z
Si Si1 0.958382 0.091785 0.746441
Si Si2 0.204548 0.049628 0.464709
Si Si3 0.242660 0.515556 0.335404
Si Si4 0.266100 0.230776 0.104580
Si Si5 0.032533 0.587813 0.322139
Si Si6 0.340744 0.871108 0.280216
Si Si7 0.200990 0.759414 0.659046
Si Si8 0.511046 0.872580 0.064909
O O1 0.910080 0.136979 0.780781
O O2 0.781493 0.144022 0.533708
O O3 0.240243 0.170212 0.761812
O O4 0.871695 0.900255 0.902557
O O5 0.162731 0.151686 0.243488
O O6 0.467674 0.166088 0.514888
O O7 0.217911 0.880820 0.621627
O O8 0.000000 0.000000 0.500000
O O9 0.500000 0.500000 0.500000
O O10 0.096924 0.467552 0.414624
O O11 0.278746 0.702078 0.135327
O O12 0.061815 0.397118 0.294380
O O13 0.563410 0.293075 0.170966
O O14 0.195418 0.381737 0.876149
O O15 0.265311 0.755108 0.276141
O O16 0.000000 0.500000 0.500000
O O17 0.488580 0.050458 0.120972
O O18 0.500000 0.000000 0.000000
#
# Coordination Sequence:
#
# PCOD8029480 Si02
#       8
#     2   2   2   2   2   2   2   2
#     4  11  20  42  74 107 142 185 246 300 362 443
#     4  11  26  42  75 112 147 190 243 304 370 447
#     4  12  27  47  72 104 152 196 240 304 377 429
#     4  11  23  48  74 104 146 195 244 298 374 443
#     4  12  29  46  72 109 142 191 250 308 367 436
#     4  12  24  44  73 109 140 185 259 296 362 445
#     4  11  23  47  72 105 148 197 240 298 376 444
#     4  12  25  43  73 108 146 194 247 305 367 431
#
# _framework density 23.529907000000001
#
# number of rings (size 3 to 8) (size 9 to 14) (size 15 to 20)
#    0.000    0.500    6.250    1.875    7.000    0.500 
#    0.000    0.625    0.000    0.000    0.000    0.000 
#    0.000    0.000    0.000    0.000    0.000    0.000 
#
# Total GULP energy -198254.918907 kJ/mol
# GULP energy per Si atom -12390.932432 kJ/mol
# Density = 2.347635 g / cm^3
# Si number density = 23.529907 Si / 1000 Ang^3
#
#
#
# Elastic Constant Matrix: (Units=GPa)
#
#
# Indices 1 2 3 4 5 6 
#
# 1 126.8284 14.3995 44.3640 10.2149 11.2170 4.0624
# 2 14.3995 90.4608 19.1318 5.5962 8.7789 4.9497
# 3 44.3640 19.1318 124.0161 13.7754 -0.3484 5.0042
# 4 10.2149 5.5962 13.7754 36.6187 7.1222 -3.0146
# 5 11.2170 8.7789 -0.3484 7.1222 36.4167 -0.6286
# 6 4.0624 4.9497 5.0042 -3.0146 -0.6286 33.6420
#
#
#
# Elastic Compliance Matrix: (Units=1/GPa)
#
#
# Indices 1 2 3 4 5 6 
#
# 1 0.009372 -0.000473 -0.003158 -0.000900 -0.002639 -0.000722
# 2 -0.000473 0.011835 -0.001520 -0.000728 -0.002607 -0.001572
# 3 -0.003158 -0.001520 0.009817 -0.003061 0.002013 -0.001092
# 4 -0.000900 -0.000728 -0.003061 0.030145 -0.005416 0.003271
# 5 -0.002639 -0.002607 0.002013 -0.005416 0.029988 0.000478
# 6 -0.000722 -0.001572 -0.001092 0.003271 0.000478 0.030508
#
#
# Mechanical properties :
#
#
# Convention : Reuss Voigt Hill
#
# Bulk Modulus (GPa) = 48.25358 55.23286 51.74322
# Shear Modulus (GPa) = 36.00377 38.89615 37.44996
#
# Velocity S-wave (km/s) = 3.91593 4.07018 3.99380
# Velocity P-wave (km/s) = 6.40296 6.75374 6.58068
#
# Compressibility (1/GPa) = 0.02072385
#
# Stress axis : x y z
#
# Youngs Moduli (GPa) = 106.70005 84.49386 101.85982
#
# Poissons Ratio (x) = 0.03993 0.32167
# Poissons Ratio (y) = 0.05042 0.15481
# Poissons Ratio (z) = 0.33696 0.12842
#
# Static dielectric constant tensor:
#      x y z
#    x 4.276100 -0.060210 0.052460 
#    y -0.060210 4.654560 -0.335770 
#    z 0.052460 -0.335770 4.421990 
# 
# 
# High freq. dielectric constant tensor:
#      x y z
#    x 1.934900 -0.001900 0.004000 
#    y -0.001900 1.928700 0.001700 
#    z 0.004000 0.001700 1.931240 
# 
# From -- ./inp_files/398558.got.cif
#   From: 2010.06.25/outbox.cif.g09.slc.cpg/sg2_200_cif.got.tgz:398558.got - 2010.06.27 13:26:56.
