data_PCOD8029032
_publ_section_title
;
Structure prediction by ZEFSAII (Michael W. Deem and Ramdas Pophale) SiO2 
 PCOD8029032
Probable space group: P -1
;
_chemical_formula_sum "Si O2"
_cell_formula_units_Z 16
_cell_length_a 8.807602
_cell_length_b 11.764661
_cell_length_c 18.256961
_cell_angle_alpha 139.696276
_cell_angle_beta 139.581006
_cell_angle_gamma 40.303773
_cell_volume 714.771185
_symmetry_space_group_name_H-M "P -1"
_symmetry_group_IT_number 2
_symmetry_cell_setting 'triclinic'
loop_
_space_group_symop_operation_xyz
x,y,z
-x,-y,-z
loop_
_atom_site_type_symbol
_atom_site_label
_atom_site_fract_x
_atom_site_fract_y
_atom_site_fract_z
Si Si1 0.936972 0.507571 0.167040
Si Si2 0.458962 0.530945 0.415464
Si Si3 0.887837 0.941507 0.002107
Si Si4 0.297973 0.944326 0.594299
Si Si5 0.999762 0.324335 0.458466
Si Si6 0.086730 0.939679 0.229493
Si Si7 0.351560 0.284201 0.704527
Si Si8 0.304420 0.112658 0.829412
O O1 0.760214 0.541552 0.191693
O O2 0.786255 0.669336 0.129435
O O3 0.195468 0.530912 0.291608
O O4 0.004488 0.290526 0.060108
O O5 0.500000 0.500000 0.500000
O O6 0.456184 0.743234 0.510335
O O7 0.698942 0.367737 0.380515
O O8 0.578123 0.047522 0.937823
O O9 0.975744 0.011190 0.142429
O O10 0.000000 0.000000 0.000000
O O11 0.399544 0.088709 0.668450
O O12 0.339581 0.949547 0.700072
O O13 0.000000 0.000000 0.500000
O O14 0.000000 0.500000 0.500000
O O15 0.138720 0.324415 0.584800
O O16 0.137401 0.115734 0.368183
O O17 0.366414 0.748241 0.237562
O O18 0.900556 0.881546 0.182095
#
# Coordination Sequence:
#
# PCOD8029032 Si02
#       8
#     2   2   2   2   2   2   2   2
#     4  11  25  45  74 106 131 186 241 281 346 413
#     4  12  21  39  68 101 139 177 227 280 335 415
#     4  12  28  50  75  98 137 184 243 289 340 420
#     4  11  19  39  71 101 138 185 225 278 344 414
#     4  12  27  40  66 106 144 177 223 286 353 410
#     4  12  27  47  68 100 144 185 224 292 356 408
#     4  11  24  43  68 101 140 181 230 278 348 421
#     4  11  25  45  74 105 140 181 233 291 350 412
#
# _framework density 22.384785000000001
#
# number of rings (size 3 to 8) (size 9 to 14) (size 15 to 20)
#    0.000    0.500    3.750    6.000    3.500    2.500 
#    0.000    0.000    0.000    0.000    0.000    0.000 
#    0.000    0.000    0.000    0.000    0.000    0.000 
#
# Total GULP energy -198397.425631 kJ/mol
# GULP energy per Si atom -12399.839102 kJ/mol
# Density = 2.233384 g / cm^3
# Si number density = 22.384785 Si / 1000 Ang^3
#
#
#
# Elastic Constant Matrix: (Units=GPa)
#
#
# Indices 1 2 3 4 5 6 
#
# 1 129.9185 35.6107 18.0496 -4.3674 -0.8397 -11.5790
# 2 35.6107 102.0357 31.7432 -8.1134 -0.2156 -12.8869
# 3 18.0496 31.7432 42.3781 -3.6290 -4.7627 4.8910
# 4 -4.3674 -8.1134 -3.6290 30.0304 2.0346 9.8273
# 5 -0.8397 -0.2156 -4.7627 2.0346 33.7710 -10.4774
# 6 -11.5790 -12.8869 4.8910 9.8273 -10.4774 40.6460
#
#
#
# Elastic Compliance Matrix: (Units=1/GPa)
#
#
# Indices 1 2 3 4 5 6 
#
# 1 0.008803 -0.002027 -0.002474 -0.000402 0.000633 0.002423
# 2 -0.002027 0.014480 -0.010508 0.000654 0.000119 0.005150
# 3 -0.002474 -0.010508 0.034015 0.003581 0.001807 -0.008529
# 4 -0.000402 0.000654 0.003581 0.037724 -0.005117 -0.010778
# 5 0.000633 0.000119 0.001807 -0.005117 0.033233 0.009804
# 6 0.002423 0.005150 -0.008529 -0.010778 0.009804 0.033085
#
#
# Mechanical properties :
#
#
# Convention : Reuss Voigt Hill
#
# Bulk Modulus (GPa) = 36.65573 49.45994 43.05783
# Shear Modulus (GPa) = 24.94374 33.48474 29.21424
#
# Velocity S-wave (km/s) = 3.34176 3.87184 3.61653
# Velocity P-wave (km/s) = 5.59470 6.49088 6.05938
#
# Compressibility (1/GPa) = 0.02728087
#
# Stress axis : x y z
#
# Youngs Moduli (GPa) = 113.59728 69.06263 29.39840
#
# Poissons Ratio (x) = 0.14001 0.07273
# Poissons Ratio (y) = 0.23030 0.30890
# Poissons Ratio (z) = 0.28102 0.72568
#
# Static dielectric constant tensor:
#      x y z
#    x 4.370780 -0.059000 -0.057230 
#    y -0.059000 4.109160 -0.054890 
#    z -0.057230 -0.054890 3.873270 
# 
# 
# High freq. dielectric constant tensor:
#      x y z
#    x 1.889880 -0.006900 -0.000080 
#    y -0.006900 1.894950 -0.006040 
#    z -0.000080 -0.006040 1.879030 
# 
# From -- ./inp_files/345890.got.cif
#   From: 2010.06.25/outbox.cif.g09.slc.cpg/sg2_173_cif.got.tgz:345890.got - 2010.06.27 13:26:56.
