data_PCOD8029775
_publ_section_title
;
Structure prediction by ZEFSAII (Michael W. Deem and Ramdas Pophale) SiO2 
 PCOD8029775
Probable space group: P -1
;
_chemical_formula_sum "Si O2"
_cell_formula_units_Z 16
_cell_length_a 13.378150
_cell_length_b 9.139390
_cell_length_c 12.089068
_cell_angle_alpha 142.591532
_cell_angle_beta 128.366225
_cell_angle_gamma 66.835591
_cell_volume 688.456915
_symmetry_space_group_name_H-M "P -1"
_symmetry_group_IT_number 2
_symmetry_cell_setting 'triclinic'
loop_
_space_group_symop_operation_xyz
x,y,z
-x,-y,-z
loop_
_atom_site_type_symbol
_atom_site_label
_atom_site_fract_x
_atom_site_fract_y
_atom_site_fract_z
Si Si1 0.710724 0.602632 0.088931
Si Si2 0.898165 0.877582 0.542617
Si Si3 0.511508 0.785128 0.707279
Si Si4 0.589353 0.059119 0.707090
Si Si5 0.668192 0.986884 0.130642
Si Si6 0.133650 0.092885 0.219073
Si Si7 0.902368 0.395479 0.540516
Si Si8 0.021313 0.371659 0.825918
O O1 0.755308 0.773940 0.329868
O O2 0.633124 0.745878 0.038876
O O3 0.831889 0.546899 0.068211
O O4 0.616877 0.352898 0.914912
O O5 0.891202 0.007118 0.733396
O O6 0.965118 0.638342 0.450058
O O7 0.978816 0.077541 0.634189
O O8 0.500000 0.500000 0.500000
O O9 0.503937 0.932565 0.676216
O O10 0.404012 0.812902 0.742917
O O11 0.641913 0.906194 0.936220
O O12 0.500000 0.000000 0.500000
O O13 0.730624 0.978605 0.765871
O O14 0.816438 0.122395 0.307194
O O15 0.159813 0.389616 0.424859
O O16 0.000000 0.000000 0.000000
O O17 0.928822 0.464237 0.728524
O O18 0.000000 0.500000 0.000000
#
# Coordination Sequence:
#
# PCOD8029775 Si02
#       8
#     2   2   2   2   2   2   2   2
#     4  11  23  44  68 102 142 185 243 290 367 439
#     4  11  22  42  68 105 143 187 233 296 365 439
#     4  11  27  49  71 102 141 190 252 304 363 437
#     4  12  29  49  72 105 148 193 243 303 365 440
#     4  11  24  45  75 100 137 193 243 306 367 431
#     4  12  27  44  70 108 142 188 241 302 371 428
#     4  11  22  41  67 101 141 178 235 299 369 433
#     4  11  21  39  67 104 142 185 236 300 360 434
#
# _framework density 23.240379999999998
#
# number of rings (size 3 to 8) (size 9 to 14) (size 15 to 20)
#    0.000    0.750    2.500    5.625    5.250    4.500 
#    0.000    0.000    0.000    0.000    0.000    0.000 
#    0.000    0.000    0.000    0.000    0.000    0.000 
#
# Total GULP energy -198260.723547 kJ/mol
# GULP energy per Si atom -12391.295222 kJ/mol
# Density = 2.318748 g / cm^3
# Si number density = 23.240380 Si / 1000 Ang^3
#
#
#
# Elastic Constant Matrix: (Units=GPa)
#
#
# Indices 1 2 3 4 5 6 
#
# 1 52.6547 11.9220 34.6720 -12.4489 -13.4983 9.7565
# 2 11.9220 102.4951 33.7098 2.0201 0.5225 6.1416
# 3 34.6720 33.7098 134.4777 -16.0690 -9.9023 10.9612
# 4 -12.4489 2.0201 -16.0690 55.6819 8.2667 0.0610
# 5 -13.4983 0.5225 -9.9023 8.2667 37.5664 -4.6461
# 6 9.7565 6.1416 10.9612 0.0610 -4.6461 42.2669
#
#
#
# Elastic Compliance Matrix: (Units=1/GPa)
#
#
# Indices 1 2 3 4 5 6 
#
# 1 0.025878 -0.001185 -0.005176 0.003336 0.006756 -0.003721
# 2 -0.001185 0.010815 -0.002572 -0.001239 -0.001074 -0.000747
# 3 -0.005176 -0.002572 0.009712 0.001703 0.000247 -0.000926
# 4 0.003336 -0.001239 0.001703 0.019663 -0.002832 -0.001371
# 5 0.006756 -0.001074 0.000247 -0.002832 0.029977 0.001832
# 6 -0.003721 -0.000747 -0.000926 -0.001371 0.001832 0.025070
#
#
# Mechanical properties :
#
#
# Convention : Reuss Voigt Hill
#
# Bulk Modulus (GPa) = 35.03753 50.02613 42.53183
# Shear Modulus (GPa) = 33.67129 41.05795 37.36462
#
# Velocity S-wave (km/s) = 3.81048 4.20773 4.01402
# Velocity P-wave (km/s) = 5.87099 6.72153 6.31060
#
# Compressibility (1/GPa) = 0.02854082
#
# Stress axis : x y z
#
# Youngs Moduli (GPa) = 38.64245 92.46508 102.96101
#
# Poissons Ratio (x) = 0.10958 0.53289
# Poissons Ratio (y) = 0.04579 0.26478
# Poissons Ratio (z) = 0.20000 0.23779
#
# Static dielectric constant tensor:
#      x y z
#    x 3.941260 0.010190 0.036730 
#    y 0.010190 4.555320 -0.082530 
#    z 0.036730 -0.082530 4.289400 
# 
# 
# High freq. dielectric constant tensor:
#      x y z
#    x 1.904440 0.003290 -0.006760 
#    y 0.003290 1.933030 -0.001040 
#    z -0.006760 -0.001040 1.927100 
# 
# From -- ./inp_files/448423.got.cif
#   From: 2010.06.25/outbox.cif.g09.slc.cpg/sg2_225_cif.got.tgz:448423.got - 2010.06.27 13:26:56.
