data_PCOD8029175
_publ_section_title
;
Structure prediction by ZEFSAII (Michael W. Deem and Ramdas Pophale) SiO2 
 PCOD8029175
Probable space group: P -1
;
_chemical_formula_sum "Si O2"
_cell_formula_units_Z 16
_cell_length_a 9.944276
_cell_length_b 21.394493
_cell_length_c 19.266780
_cell_angle_alpha 151.702615
_cell_angle_beta 33.282036
_cell_angle_gamma 153.196443
_cell_volume 851.842211
_symmetry_space_group_name_H-M "P -1"
_symmetry_group_IT_number 2
_symmetry_cell_setting 'triclinic'
loop_
_space_group_symop_operation_xyz
x,y,z
-x,-y,-z
loop_
_atom_site_type_symbol
_atom_site_label
_atom_site_fract_x
_atom_site_fract_y
_atom_site_fract_z
Si Si1 0.799691 0.150068 0.055810
Si Si2 0.519495 0.611096 0.687496
Si Si3 0.551828 0.917123 0.296393
Si Si4 0.182287 0.560845 0.152457
Si Si5 0.057743 0.042311 0.096218
Si Si6 0.765624 0.705055 0.120684
Si Si7 0.510519 0.320349 0.384526
Si Si8 0.114248 0.982572 0.602855
O O1 0.757880 0.282785 0.236379
O O2 0.077181 0.245962 0.975674
O O3 0.500000 0.000000 0.000000
O O4 0.863770 0.071335 0.013685
O O5 0.671816 0.761011 0.822638
O O6 0.639158 0.498733 0.536821
O O7 0.622646 0.691991 0.646326
O O8 0.149819 0.493479 0.735815
O O9 0.340517 0.717550 0.186478
O O10 0.335654 0.974301 0.448843
O O11 0.768590 0.981330 0.332927
O O12 0.750876 0.999678 0.222334
O O13 0.399351 0.608665 0.173515
O O14 0.159190 0.405649 0.977928
O O15 0.000000 0.000000 0.000000
O O16 0.893201 0.866580 0.269934
O O17 0.225915 0.182740 0.419411
#
# Coordination Sequence:
#
# PCOD8029175 Si02
#       8
#     2   2   2   2   2   2   2   2
#     4  12  18  36  60  91 120 151 202 247 292 343
#     4  11  21  35  55  92 119 153 195 243 304 349
#     4  10  19  35  54  83 118 156 189 238 305 344
#     4  10  18  31  52  83 121 142 187 247 290 350
#     4  12  25  43  61  83 122 167 202 233 292 376
#     4  10  18  28  51  89 125 145 183 245 308 344
#     4  11  20  30  59  92 123 143 191 261 296 337
#     4  10  17  30  55  86 122 143 186 252 299 342
#
# _framework density 18.782820999999998
#
# number of rings (size 3 to 8) (size 9 to 14) (size 15 to 20)
#    0.000    1.250    8.750    0.000    0.000    0.000 
#    0.000    1.250    0.000    0.750    0.000    0.000 
#    0.000    0.000    0.000    0.000    0.000    0.000 
#
# Total GULP energy -198305.712465 kJ/mol
# GULP energy per Si atom -12394.107029 kJ/mol
# Density = 1.874007 g / cm^3
# Si number density = 18.782821 Si / 1000 Ang^3
#
#
#
# Elastic Constant Matrix: (Units=GPa)
#
#
# Indices 1 2 3 4 5 6 
#
# 1 48.5653 23.9217 47.6529 1.8657 -3.3707 -4.5671
# 2 23.9217 102.4821 50.2057 -1.4239 -5.1621 -0.1889
# 3 47.6529 50.2057 152.4136 7.4322 -32.4202 -5.4561
# 4 1.8657 -1.4239 7.4322 38.7492 -3.9430 -6.0793
# 5 -3.3707 -5.1621 -32.4202 -3.9430 33.3396 1.2797
# 6 -4.5671 -0.1889 -5.4561 -6.0793 1.2797 14.5594
#
#
#
# Elastic Compliance Matrix: (Units=1/GPa)
#
#
# Indices 1 2 3 4 5 6 
#
# 1 0.032537 -0.002719 -0.010700 0.000720 -0.007725 0.007141
# 2 -0.002719 0.012074 -0.003594 0.000846 -0.001741 -0.001537
# 3 -0.010700 -0.003594 0.013582 -0.001018 0.011439 0.000257
# 4 0.000720 0.000846 -0.001018 0.027994 0.002089 0.011361
# 5 -0.007725 -0.001741 0.011439 0.002089 0.040347 -0.000833
# 6 0.007141 -0.001537 0.000257 0.011361 -0.000833 0.075818
#
#
# Mechanical properties :
#
#
# Convention : Reuss Voigt Hill
#
# Bulk Modulus (GPa) = 41.37693 60.78019 51.07856
# Shear Modulus (GPa) = 20.45557 29.44166 24.94861
#
# Velocity S-wave (km/s) = 3.30367 3.96343 3.64849
# Velocity P-wave (km/s) = 6.05221 7.30580 6.70835
#
# Compressibility (1/GPa) = 0.02416806
#
# Stress axis : x y z
#
# Youngs Moduli (GPa) = 30.73466 82.82051 73.62483
#
# Poissons Ratio (x) = 0.22519 0.78777
# Poissons Ratio (y) = 0.08357 0.26460
# Poissons Ratio (z) = 0.32885 0.29764
#
# Static dielectric constant tensor:
#      x y z
#    x 2.878040 -0.060190 -0.562740 
#    y -0.060190 3.661530 0.188400 
#    z -0.562740 0.188400 3.879270 
# 
# 
# High freq. dielectric constant tensor:
#      x y z
#    x 1.647010 0.000430 -0.049200 
#    y 0.000430 1.749430 0.007670 
#    z -0.049200 0.007670 1.742070 
# 
# From -- ./inp_files/389481.got.cif
#   From: 2010.06.25/outbox.cif.g09.slc.cpg/sg2_195_cif.got.tgz:389481.got - 2010.06.27 13:26:56.
