data_PCOD8029398
_publ_section_title
;
Structure prediction by ZEFSAII (Michael W. Deem and Ramdas Pophale) SiO2 
 PCOD8029398
Probable space group: P -1
;
_chemical_formula_sum "Si O2"
_cell_formula_units_Z 16
_cell_length_a 8.742918
_cell_length_b 14.607197
_cell_length_c 11.899936
_cell_angle_alpha 72.790969
_cell_angle_beta 80.419246
_cell_angle_gamma 30.503363
_cell_volume 724.495345
_symmetry_space_group_name_H-M "P -1"
_symmetry_group_IT_number 2
_symmetry_cell_setting 'triclinic'
loop_
_space_group_symop_operation_xyz
x,y,z
-x,-y,-z
loop_
_atom_site_type_symbol
_atom_site_label
_atom_site_fract_x
_atom_site_fract_y
_atom_site_fract_z
Si Si1 0.572855 0.903982 0.295677
Si Si2 0.214714 0.910777 0.257693
Si Si3 0.457067 0.704824 0.874136
Si Si4 0.211684 0.291402 0.218011
Si Si5 0.505399 0.631638 0.141878
Si Si6 0.531634 0.593804 0.480034
Si Si7 0.744856 0.438480 0.744392
Si Si8 0.868102 0.649607 0.546722
O O1 0.399372 0.910526 0.252301
O O2 0.624982 0.844290 0.440017
O O3 0.890016 0.761474 0.246860
O O4 0.362694 0.108227 0.251019
O O5 0.322097 0.812854 0.160993
O O6 0.265207 0.806192 0.390600
O O7 0.855167 0.122525 0.221120
O O8 0.609682 0.727007 0.874079
O O9 0.692596 0.515910 0.841880
O O10 0.394775 0.686425 0.006718
O O11 0.262663 0.310285 0.330513
O O12 0.863829 0.464382 0.160888
O O13 0.412836 0.581718 0.231145
O O14 0.500000 0.500000 0.500000
O O15 0.594278 0.581308 0.609224
O O16 0.828784 0.453959 0.417155
O O17 0.000000 0.500000 0.500000
#
# Coordination Sequence:
#
# PCOD8029398 Si02
#       8
#     2   2   2   2   2   2   2   2
#     4  11  25  41  69 101 137 174 220 275 341 404
#     4  12  24  45  68 100 138 175 224 277 338 398
#     4  12  28  43  68 100 134 181 231 273 330 401
#     4  12  24  44  67 101 134 180 226 272 333 399
#     4  12  24  49  69  94 136 179 228 283 328 394
#     4  11  21  39  71  98 134 172 215 277 345 398
#     4  11  24  45  70  99 136 177 222 280 340 395
#     4  11  20  41  67  97 137 176 214 272 339 398
#
# _framework density 22.084337999999999
#
# number of rings (size 3 to 8) (size 9 to 14) (size 15 to 20)
#    0.000    0.500    3.750    5.250    1.750    0.500 
#    2.250    1.875    0.000    0.000    0.000    0.000 
#    0.000    0.000    0.000    0.000    0.000    0.000 
#
# Total GULP energy -198376.661558 kJ/mol
# GULP energy per Si atom -12398.541347 kJ/mol
# Density = 2.203407 g / cm^3
# Si number density = 22.084338 Si / 1000 Ang^3
#
#
#
# Elastic Constant Matrix: (Units=GPa)
#
#
# Indices 1 2 3 4 5 6 
#
# 1 109.3894 22.9711 18.4679 -4.1312 -0.1058 -12.3414
# 2 22.9711 83.3322 32.0537 2.0019 3.9709 3.7268
# 3 18.4679 32.0537 97.8987 8.5522 -1.0634 1.3395
# 4 -4.1312 2.0019 8.5522 29.0794 -1.0414 7.8914
# 5 -0.1058 3.9709 -1.0634 -1.0414 27.0551 2.7149
# 6 -12.3414 3.7268 1.3395 7.8914 2.7149 47.0029
#
#
#
# Elastic Compliance Matrix: (Units=1/GPa)
#
#
# Indices 1 2 3 4 5 6 
#
# 1 0.010230 -0.002493 -0.001260 0.001268 0.000134 0.002699
# 2 -0.002493 0.014511 -0.004306 0.000272 -0.002137 -0.001605
# 3 -0.001260 -0.004306 0.012174 -0.003481 0.000952 0.000193
# 4 0.001268 0.000272 -0.003481 0.037256 0.001859 -0.005952
# 5 0.000134 -0.002137 0.000952 0.001859 0.037616 -0.002307
# 6 0.002699 -0.001605 0.000193 -0.005952 -0.002307 0.023238
#
#
# Mechanical properties :
#
#
# Convention : Reuss Voigt Hill
#
# Bulk Modulus (GPa) = 48.08245 48.62286 48.35265
# Shear Modulus (GPa) = 31.63053 35.10264 33.36658
#
# Velocity S-wave (km/s) = 3.78863 3.99115 3.89121
# Velocity P-wave (km/s) = 6.39982 6.58056 6.49082
#
# Compressibility (1/GPa) = 0.02079761
#
# Stress axis : x y z
#
# Youngs Moduli (GPa) = 97.74781 68.91475 82.14287
#
# Poissons Ratio (x) = 0.17181 0.10349
# Poissons Ratio (y) = 0.24369 0.35369
# Poissons Ratio (z) = 0.12315 0.29673
#
# Static dielectric constant tensor:
#      x y z
#    x 4.178620 -0.058690 -0.061420 
#    y -0.058690 3.804590 0.010900 
#    z -0.061420 0.010900 4.139700 
# 
# 
# High freq. dielectric constant tensor:
#      x y z
#    x 1.889400 -0.001350 -0.001600 
#    y -0.001350 1.862530 0.002570 
#    z -0.001600 0.002570 1.870990 
# 
# From -- ./inp_files/271349.got.cif
#   From: 2010.06.25/outbox.cif.g09.slc.cpg/sg2_136_cif.got.tgz:271349.got - 2010.06.27 13:26:56.
