data_PCOD8029577
_publ_section_title
;
Structure prediction by ZEFSAII (Michael W. Deem and Ramdas Pophale) SiO2 
 PCOD8029577
Probable space group: P -1
;
_chemical_formula_sum "Si O2"
_cell_formula_units_Z 16
_cell_length_a 8.445582
_cell_length_b 11.887982
_cell_length_c 7.363949
_cell_angle_alpha 81.606509
_cell_angle_beta 85.780028
_cell_angle_gamma 103.288694
_cell_volume 707.422539
_symmetry_space_group_name_H-M "P -1"
_symmetry_group_IT_number 2
_symmetry_cell_setting 'triclinic'
loop_
_space_group_symop_operation_xyz
x,y,z
-x,-y,-z
loop_
_atom_site_type_symbol
_atom_site_label
_atom_site_fract_x
_atom_site_fract_y
_atom_site_fract_z
Si Si1 0.435399 0.207588 0.420786
Si Si2 0.109817 0.917902 0.080274
Si Si3 0.710693 0.357990 0.574902
Si Si4 0.062886 0.588325 0.807391
Si Si5 0.006845 0.334668 0.779750
Si Si6 0.731565 0.177070 0.203948
Si Si7 0.233535 0.394047 0.399086
Si Si8 0.824947 0.025575 0.532846
O O1 0.550802 0.252967 0.574702
O O2 0.546095 0.186065 0.246152
O O3 0.342059 0.306022 0.351969
O O4 0.311017 0.084757 0.506193
O O5 0.195270 0.953351 0.257609
O O6 0.982909 0.789948 0.112738
O O7 0.258206 0.918837 0.926794
O O8 0.000000 0.000000 0.000000
O O9 0.815066 0.396218 0.376736
O O10 0.654548 0.473110 0.623196
O O11 0.823055 0.317870 0.724320
O O12 0.044123 0.446991 0.897846
O O13 0.155811 0.695658 0.905472
O O14 0.890627 0.608166 0.754719
O O15 0.138972 0.359075 0.603276
O O16 0.806469 0.140039 0.396400
O O17 0.000000 0.000000 0.500000
#
# Coordination Sequence:
#
# PCOD8029577 Si02
#       8
#     2   2   2   2   2   2   2   2
#     4  11  21  34  60  89 128 166 195 253 312 366
#     4  12  25  40  64  90 123 162 210 258 299 361
#     4   8  16  33  58  95 124 155 204 251 305 364
#     4   8  16  34  61  88 121 158 202 254 301 356
#     4   9  18  36  61  91 123 159 205 258 299 354
#     4  11  24  41  62  94 127 158 207 251 311 365
#     4   9  16  30  62  95 123 159 204 249 303 364
#     4  12  24  44  64  87 121 160 211 255 299 367
#
# _framework density 22.617315999999999
#
# number of rings (size 3 to 8) (size 9 to 14) (size 15 to 20)
#    0.000    2.000    1.250    6.000    0.000    1.000 
#    0.000    0.000    0.000    3.000    0.000    0.000 
#    0.000    0.000    0.000    0.000    0.000    0.000 
#
# Total GULP energy -198330.557906 kJ/mol
# GULP energy per Si atom -12395.659869 kJ/mol
# Density = 2.256584 g / cm^3
# Si number density = 22.617316 Si / 1000 Ang^3
#
#
#
# Elastic Constant Matrix: (Units=GPa)
#
#
# Indices 1 2 3 4 5 6 
#
# 1 128.2602 72.5372 35.4221 7.4469 -7.7388 -7.9960
# 2 72.5372 163.1337 51.0441 -2.9073 -7.5733 -5.4139
# 3 35.4221 51.0441 89.1628 11.6554 5.5632 -7.8058
# 4 7.4469 -2.9073 11.6554 40.6192 -5.9437 -0.8407
# 5 -7.7388 -7.5733 5.5632 -5.9437 18.6770 4.1315
# 6 -7.9960 -5.4139 -7.8058 -0.8407 4.1315 49.2978
#
#
#
# Elastic Compliance Matrix: (Units=1/GPa)
#
#
# Indices 1 2 3 4 5 6 
#
# 1 0.010965 -0.004139 -0.001925 -0.001321 0.002850 0.000758
# 2 -0.004139 0.009726 -0.004753 0.003525 0.004923 -0.000708
# 3 -0.001925 -0.004753 0.016347 -0.006102 -0.010088 0.002496
# 4 -0.001321 0.003525 -0.006102 0.028607 0.012095 -0.001319
# 5 0.002850 0.004923 -0.010088 0.012095 0.064861 -0.005824
# 6 0.000758 -0.000708 0.002496 -0.001319 -0.005824 0.021191
#
#
# Mechanical properties :
#
#
# Convention : Reuss Voigt Hill
#
# Bulk Modulus (GPa) = 64.92530 77.61816 71.27173
# Shear Modulus (GPa) = 28.01644 36.48903 32.25274
#
# Velocity S-wave (km/s) = 3.52336 4.02098 3.78036
# Velocity P-wave (km/s) = 6.73204 7.47999 7.11585
#
# Compressibility (1/GPa) = 0.01540232
#
# Stress axis : x y z
#
# Youngs Moduli (GPa) = 91.19665 102.82154 61.17310
#
# Poissons Ratio (x) = 0.42562 0.11778
# Poissons Ratio (y) = 0.37750 0.29076
# Poissons Ratio (z) = 0.17558 0.48873
#
# Static dielectric constant tensor:
#      x y z
#    x 3.923070 0.066080 -0.095520 
#    y 0.066080 4.911760 0.244460 
#    z -0.095520 0.244460 4.146680 
# 
# 
# High freq. dielectric constant tensor:
#      x y z
#    x 1.868660 -0.010560 -0.012800 
#    y -0.010560 1.924970 0.010300 
#    z -0.012800 0.010300 1.891440 
# 
# From -- ./inp_files/179101.got.cif
#   From: 2010.06.25/outbox.cif.g09.slc.cpg/sg2_90_cif.got.tgz:179101.got - 2010.06.27 13:26:56.
