data_PCOD8029908
_publ_section_title
;
Structure prediction by ZEFSAII (Michael W. Deem and Ramdas Pophale) SiO2 
 PCOD8029908
Probable space group: P -1
;
_chemical_formula_sum "Si O2"
_cell_formula_units_Z 16
_cell_length_a 8.666759
_cell_length_b 15.277080
_cell_length_c 9.952113
_cell_angle_alpha 42.673281
_cell_angle_beta 74.747939
_cell_angle_gamma 98.210084
_cell_volume 739.079322
_symmetry_space_group_name_H-M "P -1"
_symmetry_group_IT_number 2
_symmetry_cell_setting 'triclinic'
loop_
_space_group_symop_operation_xyz
x,y,z
-x,-y,-z
loop_
_atom_site_type_symbol
_atom_site_label
_atom_site_fract_x
_atom_site_fract_y
_atom_site_fract_z
Si Si1 0.581850 0.330650 0.619813
Si Si2 0.017608 0.071406 0.768219
Si Si3 0.684026 0.636118 0.551829
Si Si4 0.591163 0.706821 0.017277
Si Si5 0.331196 0.896011 0.251264
Si Si6 0.000501 0.178060 0.134561
Si Si7 0.923223 0.599832 0.344000
Si Si8 0.639863 0.002659 0.573878
O O1 0.430225 0.315659 0.568640
O O2 0.476080 0.256718 0.867549
O O3 0.703748 0.267969 0.594278
O O4 0.725569 0.503560 0.423115
O O5 0.215516 0.229780 0.512948
O O6 0.845968 0.094514 0.756581
O O7 0.011232 0.961734 0.779847
O O8 0.000000 0.000000 0.000000
O O9 0.557860 0.460027 0.822021
O O10 0.877742 0.674106 0.393531
O O11 0.605614 0.834506 0.771639
O O12 0.790692 0.719038 0.970803
O O13 0.392701 0.939774 0.342033
O O14 0.500000 0.000000 0.000000
O O15 0.853751 0.121313 0.352505
O O16 0.945396 0.272889 0.937314
O O17 0.000000 0.500000 0.500000
O O18 0.500000 0.000000 0.500000
#
# Coordination Sequence:
#
# PCOD8029908 Si02
#       8
#     2   2   2   2   2   2   2   2
#     4  11  21  40  71 102 137 174 241 294 343 403
#     4  12  24  40  71 113 137 182 237 295 349 416
#     4  11  22  40  70 107 140 176 242 290 351 409
#     4  11  21  47  70  98 135 195 230 283 351 425
#     4  12  25  45  71 102 142 184 240 297 343 417
#     4  12  24  46  70  96 146 185 236 285 357 425
#     4  11  22  38  69 105 138 183 233 293 345 417
#     4  12  30  45  70 103 141 190 235 293 363 418
#
# _framework density 21.648555999999999
#
# number of rings (size 3 to 8) (size 9 to 14) (size 15 to 20)
#    0.000    0.500    6.250    2.625    7.000    0.000 
#    0.000    1.250    0.000    0.000    0.000    0.000 
#    0.000    0.000    0.000    0.000    0.000    0.000 
#
# Total GULP energy -198288.846572 kJ/mol
# GULP energy per Si atom -12393.052911 kJ/mol
# Density = 2.159928 g / cm^3
# Si number density = 21.648556 Si / 1000 Ang^3
#
#
#
# Elastic Constant Matrix: (Units=GPa)
#
#
# Indices 1 2 3 4 5 6 
#
# 1 131.0461 32.9038 43.5269 -0.8686 11.9040 -0.1767
# 2 32.9038 53.3963 30.2169 -5.4391 -11.9910 4.4737
# 3 43.5269 30.2169 133.7903 -11.5373 -1.5816 -1.4016
# 4 -0.8686 -5.4391 -11.5373 34.5648 -4.4098 -5.6447
# 5 11.9040 -11.9910 -1.5816 -4.4098 38.5879 -8.2722
# 6 -0.1767 4.4737 -1.4016 -5.6447 -8.2722 37.2272
#
#
#
# Elastic Compliance Matrix: (Units=1/GPa)
#
#
# Indices 1 2 3 4 5 6 
#
# 1 0.010588 -0.006784 -0.002203 -0.002443 -0.005938 -0.000907
# 2 -0.006784 0.027895 -0.003591 0.004360 0.011025 -0.000409
# 3 -0.002203 -0.003591 0.009259 0.002752 0.000538 0.001307
# 4 -0.002443 0.004360 0.002752 0.032390 0.007227 0.006085
# 5 -0.005938 0.011025 0.000538 0.007227 0.033569 0.007222
# 6 -0.000907 -0.000409 0.001307 0.006085 0.007222 0.029484
#
#
# Mechanical properties :
#
#
# Convention : Reuss Voigt Hill
#
# Bulk Modulus (GPa) = 44.27475 59.05865 51.66670
# Shear Modulus (GPa) = 28.43010 36.18165 32.30588
#
# Velocity S-wave (km/s) = 3.62782 4.09261 3.86720
# Velocity P-wave (km/s) = 6.16799 7.04787 6.62256
#
# Compressibility (1/GPa) = 0.02258624
#
# Stress axis : x y z
#
# Youngs Moduli (GPa) = 94.44624 35.84899 107.99828
#
# Poissons Ratio (x) = 0.24321 0.23789
# Poissons Ratio (y) = 0.64076 0.38781
# Poissons Ratio (z) = 0.20804 0.12873
#
# Static dielectric constant tensor:
#      x y z
#    x 5.048170 -0.897000 -0.194880 
#    y -0.897000 4.698760 -0.226640 
#    z -0.194880 -0.226640 4.073390 
# 
# 
# High freq. dielectric constant tensor:
#      x y z
#    x 1.861350 -0.002160 0.000000 
#    y -0.002160 1.847540 -0.026120 
#    z 0.000000 -0.026120 1.843550 
# 
# From -- ./inp_files/205540.got.cif
#   From: 2010.06.25/outbox.cif.g09.slc.cpg/sg2_103_cif.got.tgz:205540.got - 2010.06.27 13:26:56.
