data_PCOD8029774
_publ_section_title
;
Structure prediction by ZEFSAII (Michael W. Deem and Ramdas Pophale) SiO2 
 PCOD8029774
Probable space group: P -1
;
_chemical_formula_sum "Si O2"
_cell_formula_units_Z 16
_cell_length_a 9.462493
_cell_length_b 8.779443
_cell_length_c 18.619509
_cell_angle_alpha 87.984979
_cell_angle_beta 29.828256
_cell_angle_gamma 92.854068
_cell_volume 758.819542
_symmetry_space_group_name_H-M "P -1"
_symmetry_group_IT_number 2
_symmetry_cell_setting 'triclinic'
loop_
_space_group_symop_operation_xyz
x,y,z
-x,-y,-z
loop_
_atom_site_type_symbol
_atom_site_label
_atom_site_fract_x
_atom_site_fract_y
_atom_site_fract_z
Si Si1 0.285546 0.095435 0.682240
Si Si2 0.867128 0.828628 0.585566
Si Si3 0.742527 0.223716 0.362995
Si Si4 0.434869 0.707591 0.326738
Si Si5 0.636826 0.616946 0.570071
Si Si6 0.327213 0.300633 0.183489
Si Si7 0.292292 0.634953 0.236222
Si Si8 0.679053 0.169530 0.917303
O O1 0.568001 0.160003 0.511272
O O2 0.346936 0.150610 0.736611
O O3 0.016172 0.163256 0.768641
O O4 0.232911 0.910595 0.703477
O O5 0.647688 0.752420 0.622403
O O6 0.720411 0.826065 0.728798
O O7 0.107620 0.719964 0.490287
O O8 0.000000 0.000000 0.500000
O O9 0.588219 0.354386 0.392554
O O10 0.060075 0.294599 0.247059
O O11 0.494328 0.545940 0.334716
O O12 0.467120 0.713594 0.226578
O O13 0.949079 0.614598 0.398172
O O14 0.396153 0.471224 0.182591
O O15 0.600900 0.265037 0.019052
O O16 0.396018 0.745890 0.122843
O O17 0.500000 0.000000 0.000000
#
# Coordination Sequence:
#
# PCOD8029774 Si02
#       8
#     2   2   2   2   2   2   2   2
#     4  11  23  43  63 100 129 171 215 275 325 377
#     4  11  22  37  67 102 133 169 212 270 330 377
#     4  11  23  38  69  98 132 161 224 274 318 376
#     4  11  22  41  68  97 133 163 222 273 323 387
#     4  11  21  39  67 103 130 164 217 276 325 379
#     4  12  24  45  67  98 133 173 216 264 327 399
#     4  11  23  44  65  96 132 177 213 263 329 391
#     4  12  27  45  66  95 133 177 218 263 330 395
#
# _framework density 21.085381999999999
#
# number of rings (size 3 to 8) (size 9 to 14) (size 15 to 20)
#    0.000    0.750    6.250    1.875    7.000    1.000 
#    0.000    2.500    0.000    0.000    0.000    0.000 
#    0.000    0.000    0.000    0.000    0.000    0.000 
#
# Total GULP energy -198461.741394 kJ/mol
# GULP energy per Si atom -12403.858837 kJ/mol
# Density = 2.103739 g / cm^3
# Si number density = 21.085382 Si / 1000 Ang^3
#
#
#
# Elastic Constant Matrix: (Units=GPa)
#
#
# Indices 1 2 3 4 5 6 
#
# 1 85.8904 41.2265 16.6822 2.0805 22.7477 6.5968
# 2 41.2265 102.6868 28.5110 7.7236 21.1560 1.8135
# 3 16.6822 28.5110 60.8820 9.8759 20.8237 0.2767
# 4 2.0805 7.7236 9.8759 29.6741 -2.9185 4.9342
# 5 22.7477 21.1560 20.8237 -2.9185 38.0295 -3.2075
# 6 6.5968 1.8135 0.2767 4.9342 -3.2075 44.8948
#
#
#
# Elastic Compliance Matrix: (Units=1/GPa)
#
#
# Indices 1 2 3 4 5 6 
#
# 1 0.016120 -0.005028 0.000517 -0.000275 -0.007374 -0.002665
# 2 -0.005028 0.013483 -0.003675 -0.002238 -0.002629 0.000275
# 3 0.000517 -0.003675 0.023271 -0.007963 -0.011620 -0.000026
# 4 -0.000275 -0.002238 -0.007963 0.038351 0.008424 -0.003433
# 5 -0.007374 -0.002629 -0.011620 0.008424 0.039444 0.003154
# 6 -0.002665 0.000275 -0.000026 -0.003433 0.003154 0.023258
#
#
# Mechanical properties :
#
#
# Convention : Reuss Voigt Hill
#
# Bulk Modulus (GPa) = 27.39709 46.92208 37.15958
# Shear Modulus (GPa) = 27.40220 33.38899 30.39559
#
# Velocity S-wave (km/s) = 3.60888 3.98366 3.80089
# Velocity P-wave (km/s) = 5.51244 6.59250 6.07651
#
# Compressibility (1/GPa) = 0.03650023
#
# Stress axis : x y z
#
# Youngs Moduli (GPa) = 62.03339 74.16961 42.97169
#
# Poissons Ratio (x) = 0.37295 -0.02220
# Poissons Ratio (y) = 0.31193 0.15793
# Poissons Ratio (z) = -0.03205 0.27259
#
# Static dielectric constant tensor:
#      x y z
#    x 3.992070 0.122220 0.151070 
#    y 0.122220 3.874970 0.250120 
#    z 0.151070 0.250120 3.624660 
# 
# 
# High freq. dielectric constant tensor:
#      x y z
#    x 1.836600 0.002920 0.010610 
#    y 0.002920 1.835220 0.014240 
#    z 0.010610 0.014240 1.794750 
# 
# From -- ./inp_files/175169.got.cif
#   From: 2010.06.25/outbox.cif.g09.slc.cpg/sg2_88_cif.got.tgz:175169.got - 2010.06.27 13:26:56.
