data_PCOD8029706
_publ_section_title
;
Structure prediction by ZEFSAII (Michael W. Deem and Ramdas Pophale) SiO2 
 PCOD8029706
Probable space group: P -1
;
_chemical_formula_sum "Si O2"
_cell_formula_units_Z 16
_cell_length_a 8.859358
_cell_length_b 18.088544
_cell_length_c 20.939897
_cell_angle_alpha 162.280663
_cell_angle_beta 140.423450
_cell_angle_gamma 38.265289
_cell_volume 627.831196
_symmetry_space_group_name_H-M "P -1"
_symmetry_group_IT_number 2
_symmetry_cell_setting 'triclinic'
loop_
_space_group_symop_operation_xyz
x,y,z
-x,-y,-z
loop_
_atom_site_type_symbol
_atom_site_label
_atom_site_fract_x
_atom_site_fract_y
_atom_site_fract_z
Si Si1 0.503597 0.736571 0.362633
Si Si2 0.278467 0.637089 0.084153
Si Si3 0.996822 0.886790 0.829043
Si Si4 0.011103 0.435924 0.555702
Si Si5 0.221599 0.149248 0.956467
Si Si6 0.221015 0.124417 0.683419
Si Si7 0.537690 0.783454 0.040354
Si Si8 0.670808 0.753735 0.794884
O O1 0.395072 0.792719 0.301773
O O2 0.797108 0.634489 0.380853
O O3 0.427187 0.985330 0.585672
O O4 0.392812 0.511153 0.163827
O O5 0.062329 0.836814 0.140293
O O6 0.500000 0.500000 0.000000
O O7 0.152689 0.424209 0.895003
O O8 0.973149 0.806666 0.682228
O O9 0.075653 0.646452 0.703780
O O10 0.749474 0.077690 0.931496
O O11 0.206501 0.032349 0.016489
O O12 0.748147 0.529208 0.583335
O O13 0.363023 0.216821 0.998095
O O14 0.374294 0.864065 0.790404
O O15 0.235691 0.327252 0.168917
O O16 0.319656 0.076243 0.748404
O O17 0.000000 0.000000 0.500000
#
# Coordination Sequence:
#
# PCOD8029706 Si02
#       8
#     2   2   2   2   2   2   2   2
#     4  11  22  39  69  96 130 176 227 276 331 401
#     4  11  26  46  67  98 139 183 227 280 343 410
#     4  11  22  38  68  98 131 175 223 274 335 407
#     4  11  21  38  67 101 127 168 228 269 332 407
#     4  11  24  42  67  95 135 175 221 277 345 397
#     4  11  24  42  66 100 134 177 233 282 335 396
#     4  11  21  41  67  99 135 176 225 284 335 403
#     4  11  23  43  65  95 134 177 215 279 340 402
#
# _framework density 25.484555
#
# number of rings (size 3 to 8) (size 9 to 14) (size 15 to 20)
#    0.000    1.000    3.750    3.375    1.750    2.500 
#    0.000    7.500    0.000    0.000    0.000    0.000 
#    0.000    0.000    0.000    0.000    0.000    0.000 
#
# Total GULP energy -198303.506605 kJ/mol
# GULP energy per Si atom -12393.969163 kJ/mol
# Density = 2.542655 g / cm^3
# Si number density = 25.484555 Si / 1000 Ang^3
#
#
#
# Elastic Constant Matrix: (Units=GPa)
#
#
# Indices 1 2 3 4 5 6 
#
# 1 119.7138 30.9940 15.1006 -7.7528 -46.1055 -4.5536
# 2 30.9940 158.2436 15.2858 -25.0235 -20.2961 -12.7579
# 3 15.1006 15.2858 103.4260 -9.5596 -24.7698 4.4524
# 4 -7.7528 -25.0235 -9.5596 19.9088 7.0346 -7.3225
# 5 -46.1055 -20.2961 -24.7698 7.0346 45.9912 -11.5119
# 6 -4.5536 -12.7579 4.4524 -7.3225 -11.5119 38.4497
#
#
#
# Elastic Compliance Matrix: (Units=1/GPa)
#
#
# Indices 1 2 3 4 5 6 
#
# 1 0.015614 0.000366 0.002080 0.004000 0.018319 0.007976
# 2 0.000366 0.009435 0.000567 0.013234 0.004562 0.006994
# 3 0.002080 0.000567 0.011674 0.005080 0.008494 0.002593
# 4 0.004000 0.013234 0.005080 0.076299 0.006079 0.020627
# 5 0.018319 0.004562 0.008494 0.006079 0.050518 0.018982
# 6 0.007976 0.006994 0.002593 0.020627 0.018982 0.038585
#
#
# Mechanical properties :
#
#
# Convention : Reuss Voigt Hill
#
# Bulk Modulus (GPa) = 23.39306 56.01600 39.70453
# Shear Modulus (GPa) = 23.77028 42.20347 32.98688
#
# Velocity S-wave (km/s) = 3.05738 4.07386 3.60166
# Velocity P-wave (km/s) = 4.65432 6.64504 5.73669
#
# Compressibility (1/GPa) = 0.04274773
#
# Stress axis : x y z
#
# Youngs Moduli (GPa) = 64.04604 105.99183 85.66355
#
# Poissons Ratio (x) = -0.03880 -0.17817
# Poissons Ratio (y) = -0.02345 -0.04857
# Poissons Ratio (z) = -0.13321 -0.06009
#
# Static dielectric constant tensor:
#      x y z
#    x 4.699690 0.023600 -0.387710 
#    y 0.023600 5.159650 -0.070800 
#    z -0.387710 -0.070800 4.703960 
# 
# 
# High freq. dielectric constant tensor:
#      x y z
#    x 2.025610 0.001180 -0.016650 
#    y 0.001180 2.024110 -0.012710 
#    z -0.016650 -0.012710 2.015090 
# 
# From -- ./inp_files/591277.got.cif
#   From: 2010.06.25/outbox.cif.g09.slc.cpg/sg2_296_cif.got.tgz:591277.got - 2010.06.27 13:26:56.
