data_PCOD8029161
_publ_section_title
;
Structure prediction by ZEFSAII (Michael W. Deem and Ramdas Pophale) SiO2 
 PCOD8029161
Probable space group: P -1
;
_chemical_formula_sum "Si O2"
_cell_formula_units_Z 16
_cell_length_a 11.008375
_cell_length_b 15.540929
_cell_length_c 9.765306
_cell_angle_alpha 63.184888
_cell_angle_beta 106.877108
_cell_angle_gamma 52.460500
_cell_volume 711.463175
_symmetry_space_group_name_H-M "P -1"
_symmetry_group_IT_number 2
_symmetry_cell_setting 'triclinic'
loop_
_space_group_symop_operation_xyz
x,y,z
-x,-y,-z
loop_
_atom_site_type_symbol
_atom_site_label
_atom_site_fract_x
_atom_site_fract_y
_atom_site_fract_z
Si Si1 0.928547 0.905927 0.453679
Si Si2 0.670649 0.202065 0.367768
Si Si3 0.365457 0.365057 0.627136
Si Si4 0.209405 0.973635 0.193748
Si Si5 0.502928 0.902379 0.980095
Si Si6 0.655545 0.345181 0.779531
Si Si7 0.128002 0.246460 0.973350
Si Si8 0.153461 0.628758 0.957149
O O1 0.178597 0.796202 0.558119
O O2 0.744074 0.108592 0.312699
O O3 0.999932 0.776316 0.677398
O O4 0.780411 0.951690 0.246838
O O5 0.370146 0.418975 0.114564
O O6 0.743538 0.075167 0.595422
O O7 0.333145 0.285880 0.751216
O O8 0.483481 0.369933 0.762128
O O9 0.099620 0.574939 0.330500
O O10 0.573556 0.224818 0.674412
O O11 0.229784 0.073353 0.094939
O O12 0.919821 0.131118 0.954046
O O13 0.640624 0.833138 0.928668
O O14 0.500000 0.000000 0.000000
O O15 0.500000 0.500000 0.500000
O O16 0.718256 0.374877 0.902945
O O17 0.037499 0.311139 0.055686
#
# Coordination Sequence:
#
# PCOD8029161 Si02
#       8
#     2   2   2   2   2   2   2   2
#     4  11  26  46  69 100 142 178 225 292 345 412
#     4  11  22  45  72 106 136 174 227 282 363 411
#     4  12  23  42  69  98 141 183 226 288 343 397
#     4  11  20  40  68  97 140 177 225 283 343 409
#     4  12  28  48  69  97 140 191 236 281 336 406
#     4  11  20  36  66 109 136 169 221 282 349 408
#     4  11  23  45  66  99 137 180 235 277 332 410
#     4  11  23  44  70 103 141 174 227 287 344 417
#
# _framework density 22.488866000000002
#
# number of rings (size 3 to 8) (size 9 to 14) (size 15 to 20)
#    0.000    0.750    7.500    1.875    1.750    2.500 
#    4.500    0.625    0.000    0.000    0.000    0.000 
#    0.000    0.000    0.000    0.000    0.000    0.000 
#
# Total GULP energy -198388.139102 kJ/mol
# GULP energy per Si atom -12399.258694 kJ/mol
# Density = 2.243768 g / cm^3
# Si number density = 22.488866 Si / 1000 Ang^3
#
#
#
# Elastic Constant Matrix: (Units=GPa)
#
#
# Indices 1 2 3 4 5 6 
#
# 1 109.7873 8.4752 16.4122 -1.4541 -17.9883 -0.6108
# 2 8.4752 56.7323 18.7456 -9.1356 0.9545 -1.2048
# 3 16.4122 18.7456 84.0613 -2.9340 -12.6478 7.8113
# 4 -1.4541 -9.1356 -2.9340 32.0517 -1.9707 4.4254
# 5 -17.9883 0.9545 -12.6478 -1.9707 38.8080 -0.0655
# 6 -0.6108 -1.2048 7.8113 4.4254 -0.0655 30.1761
#
#
#
# Elastic Compliance Matrix: (Units=1/GPa)
#
#
# Indices 1 2 3 4 5 6 
#
# 1 0.010081 -0.001176 -0.001080 0.000235 0.004362 0.000412
# 2 -0.001176 0.020170 -0.004550 0.004970 -0.002270 0.001226
# 3 -0.001080 -0.004550 0.014158 0.000760 0.004257 -0.003971
# 4 0.000235 0.004970 0.000760 0.033492 0.001927 -0.004901
# 5 0.004362 -0.002270 0.004257 0.001927 0.029329 -0.001323
# 6 0.000412 0.001226 -0.003971 -0.004901 -0.001323 0.034940
#
#
# Mechanical properties :
#
#
# Convention : Reuss Voigt Hill
#
# Bulk Modulus (GPa) = 32.47074 37.53855 35.00464
# Shear Modulus (GPa) = 30.11196 34.00368 32.05782
#
# Velocity S-wave (km/s) = 3.66317 3.89269 3.77967
# Velocity P-wave (km/s) = 5.68873 6.07720 5.88617
#
# Compressibility (1/GPa) = 0.03079695
#
# Stress axis : x y z
#
# Youngs Moduli (GPa) = 99.19779 49.57743 70.63322
#
# Poissons Ratio (x) = 0.05831 0.07626
# Poissons Ratio (y) = 0.11667 0.32140
# Poissons Ratio (z) = 0.10710 0.22559
#
# Static dielectric constant tensor:
#      x y z
#    x 4.364300 -0.165840 -0.097250 
#    y -0.165840 3.962120 -0.198380 
#    z -0.097250 -0.198380 4.040390 
# 
# 
# High freq. dielectric constant tensor:
#      x y z
#    x 1.890450 -0.009730 -0.016850 
#    y -0.009730 1.871270 -0.019940 
#    z -0.016850 -0.019940 1.890230 
# 
# From -- ./inp_files/272620.got.cif
#   From: 2010.06.25/outbox.cif.g09.slc.cpg/sg2_137_cif.got.tgz:272620.got - 2010.06.27 13:26:56.
