data_PCOD8029004
_publ_section_title
;
Structure prediction by ZEFSAII (Michael W. Deem and Ramdas Pophale) SiO2 
 PCOD8029004
Probable space group: P -1
;
_chemical_formula_sum "Si O2"
_cell_formula_units_Z 16
_cell_length_a 17.352777
_cell_length_b 9.126883
_cell_length_c 8.924809
_cell_angle_alpha 48.701596
_cell_angle_beta 100.650730
_cell_angle_gamma 71.143193
_cell_volume 832.584904
_symmetry_space_group_name_H-M "P -1"
_symmetry_group_IT_number 2
_symmetry_cell_setting 'triclinic'
loop_
_space_group_symop_operation_xyz
x,y,z
-x,-y,-z
loop_
_atom_site_type_symbol
_atom_site_label
_atom_site_fract_x
_atom_site_fract_y
_atom_site_fract_z
Si Si1 0.681976 0.232903 0.622923
Si Si2 0.204856 0.323601 0.011498
Si Si3 0.531638 0.318320 0.270832
Si Si4 0.018107 0.790292 0.541545
Si Si5 0.297525 0.179263 0.456438
Si Si6 0.196775 0.969409 0.683782
Si Si7 0.657994 0.464499 0.758397
Si Si8 0.198147 0.699156 0.583436
O O1 0.594836 0.342631 0.398424
O O2 0.637240 0.351913 0.688011
O O3 0.748741 0.314615 0.538837
O O4 0.750131 0.940427 0.863110
O O5 0.225198 0.309699 0.203001
O O6 0.085533 0.517279 0.823989
O O7 0.253593 0.435565 0.865334
O O8 0.437474 0.371769 0.283005
O O9 0.595817 0.049599 0.406393
O O10 0.500000 0.500000 0.000000
O O11 0.087681 0.787083 0.440522
O O12 0.000000 0.000000 0.500000
O O13 0.915142 0.849560 0.414505
O O14 0.313052 0.366776 0.410319
O O15 0.248446 0.104206 0.608581
O O16 0.197463 0.884808 0.572116
O O17 0.252885 0.747259 0.967753
#
# Coordination Sequence:
#
# PCOD8029004 Si02
#       8
#     2   2   2   2   2   2   2   2
#     4  11  23  40  62  87 121 158 192 240 302 354
#     4   9  19  36  62  87 115 160 195 240 293 339
#     4  11  22  43  65  84 116 153 197 252 295 342
#     4   8  17  33  60  92 118 149 198 256 278 334
#     4  11  21  37  65  87 114 162 193 244 298 345
#     4  11  19  38  61  88 124 150 204 244 288 341
#     4  12  24  40  58  90 123 153 198 244 290 360
#     4   9  17  38  59  86 120 149 200 243 287 338
#
# _framework density 19.217258999999999
#
# number of rings (size 3 to 8) (size 9 to 14) (size 15 to 20)
#    0.750    1.000    5.000    0.750    0.000    1.500 
#    2.250    1.875    0.000    0.000    0.000    0.000 
#    0.000    0.000    0.000    0.000    0.000    0.000 
#
# Total GULP energy -198239.703342 kJ/mol
# GULP energy per Si atom -12389.981459 kJ/mol
# Density = 1.917352 g / cm^3
# Si number density = 19.217259 Si / 1000 Ang^3
#
#
#
# Elastic Constant Matrix: (Units=GPa)
#
#
# Indices 1 2 3 4 5 6 
#
# 1 104.8902 23.8919 56.6125 -12.3455 2.0848 7.2073
# 2 23.8919 70.7826 36.0354 -6.7189 3.7363 12.1061
# 3 56.6125 36.0354 94.0721 -23.9855 12.0735 -1.6566
# 4 -12.3455 -6.7189 -23.9855 17.1287 -0.1361 -5.3100
# 5 2.0848 3.7363 12.0735 -0.1361 37.1880 -7.1602
# 6 7.2073 12.1061 -1.6566 -5.3100 -7.1602 16.5009
#
#
#
# Elastic Compliance Matrix: (Units=1/GPa)
#
#
# Indices 1 2 3 4 5 6 
#
# 1 0.016006 0.002972 -0.013920 -0.011086 0.000612 -0.013871
# 2 0.002972 0.024747 -0.016607 -0.020403 -0.002910 -0.028950
# 3 -0.013920 -0.016607 0.039007 0.049466 -0.002945 0.036820
# 4 -0.011086 -0.020403 0.049466 0.132576 0.000089 0.067479
# 5 0.000612 -0.002910 -0.002945 0.000089 0.031003 0.015054
# 6 -0.013871 -0.028950 0.036820 0.067479 0.015054 0.119844
#
#
# Mechanical properties :
#
#
# Convention : Reuss Voigt Hill
#
# Bulk Modulus (GPa) = 40.56616 55.86936 48.21776
# Shear Modulus (GPa) = 11.72301 24.37720 18.05010
#
# Velocity S-wave (km/s) = 2.47255 3.56547 3.06807
# Velocity P-wave (km/s) = 5.41354 6.78865 6.13971
#
# Compressibility (1/GPa) = 0.02465109
#
# Stress axis : x y z
#
# Youngs Moduli (GPa) = 62.47572 40.40834 25.63611
#
# Poissons Ratio (x) = -0.12009 0.35686
# Poissons Ratio (y) = -0.18567 0.42573
# Poissons Ratio (z) = 0.86968 0.67104
#
# Static dielectric constant tensor:
#      x y z
#    x 3.807170 0.000920 0.061720 
#    y 0.000920 3.294590 -0.291150 
#    z 0.061720 -0.291150 3.625780 
# 
# 
# High freq. dielectric constant tensor:
#      x y z
#    x 1.753320 0.000640 -0.001190 
#    y 0.000640 1.718930 -0.020730 
#    z -0.001190 -0.020730 1.744020 
# 
# From -- ./inp_files/328463.got.cif
#   From: 2010.06.25/outbox.cif.g09.slc.cpg/sg2_165_cif.got.tgz:328463.got - 2010.06.27 13:26:56.
