data_PCOD8029912
_publ_section_title
;
Structure prediction by ZEFSAII (Michael W. Deem and Ramdas Pophale) SiO2 
 PCOD8029912
Probable space group: P -1
;
_chemical_formula_sum "Si O2"
_cell_formula_units_Z 16
_cell_length_a 9.384551
_cell_length_b 20.189049
_cell_length_c 11.710614
_cell_angle_alpha 138.331944
_cell_angle_beta 50.314426
_cell_angle_gamma 149.249337
_cell_volume 754.163896
_symmetry_space_group_name_H-M "P -1"
_symmetry_group_IT_number 2
_symmetry_cell_setting 'triclinic'
loop_
_space_group_symop_operation_xyz
x,y,z
-x,-y,-z
loop_
_atom_site_type_symbol
_atom_site_label
_atom_site_fract_x
_atom_site_fract_y
_atom_site_fract_z
Si Si1 0.483685 0.382796 0.056536
Si Si2 0.706068 0.351902 0.507543
Si Si3 0.954174 0.177802 0.941051
Si Si4 0.613175 0.289144 0.057996
Si Si5 0.279494 0.840529 0.343585
Si Si6 0.470669 0.134155 0.151227
Si Si7 0.206261 0.295649 0.720786
Si Si8 0.822941 0.378841 0.739086
O O1 0.483083 0.334574 0.121555
O O2 0.725604 0.560040 0.138821
O O3 0.545598 0.315935 0.853450
O O4 0.184791 0.311218 0.084763
O O5 0.585311 0.216060 0.318442
O O6 0.484736 0.351731 0.613378
O O7 0.762535 0.334589 0.581807
O O8 0.000000 0.500000 0.500000
O O9 0.113918 0.222031 0.798113
O O10 0.832264 0.030951 0.876629
O O11 0.699166 0.147980 0.006042
O O12 0.438826 0.201077 0.151022
O O13 0.925638 0.443989 0.135323
O O14 0.601651 0.184678 0.850494
O O15 0.126030 0.708648 0.344571
O O16 0.052166 0.825984 0.389327
O O17 0.500000 0.000000 0.500000
#
# Coordination Sequence:
#
# PCOD8029912 Si02
#       8
#     2   2   2   2   2   2   2   2
#     4  11  21  40  71  98 118 180 229 270 321 407
#     4  12  26  40  67 101 137 169 219 285 336 381
#     4  11  24  41  69  95 130 181 224 269 330 405
#     4  11  21  44  68  93 138 174 221 270 334 399
#     4  11  24  40  69 103 134 173 222 282 335 392
#     4  11  25  44  63  97 140 175 213 280 339 389
#     4  12  23  43  68  99 132 173 234 270 324 412
#     4  11  21  42  68  97 132 176 220 274 333 398
#
# _framework density 21.215547000000001
#
# number of rings (size 3 to 8) (size 9 to 14) (size 15 to 20)
#    0.000    0.750    6.250    1.875    1.750    3.000 
#    0.000    3.750    0.000    0.000    0.000    0.000 
#    0.000    0.000    0.000    0.000    0.000    0.000 
#
# Total GULP energy -198312.513626 kJ/mol
# GULP energy per Si atom -12394.532102 kJ/mol
# Density = 2.116726 g / cm^3
# Si number density = 21.215547 Si / 1000 Ang^3
#
#
#
# Elastic Constant Matrix: (Units=GPa)
#
#
# Indices 1 2 3 4 5 6 
#
# 1 118.9483 59.3985 17.7637 -2.7905 26.6734 -10.4239
# 2 59.3985 122.4235 38.3654 9.9751 7.8973 -13.1929
# 3 17.7637 38.3654 84.2097 13.3802 22.7586 -5.4273
# 4 -2.7905 9.9751 13.3802 31.1932 5.5599 1.9539
# 5 26.6734 7.8973 22.7586 5.5599 36.2899 -2.2782
# 6 -10.4239 -13.1929 -5.4273 1.9539 -2.2782 45.8289
#
#
#
# Elastic Compliance Matrix: (Units=1/GPa)
#
#
# Indices 1 2 3 4 5 6 
#
# 1 0.014401 -0.007398 0.002732 0.004456 -0.011325 0.000716
# 2 -0.007398 0.013662 -0.005746 -0.003907 0.006797 0.002074
# 3 0.002732 -0.005746 0.017533 -0.003486 -0.011179 0.000636
# 4 0.004456 -0.003907 -0.003486 0.036414 -0.005967 -0.002373
# 5 -0.011325 0.006797 -0.011179 -0.005967 0.042352 0.000417
# 6 0.000716 0.002074 0.000636 -0.002373 0.000417 0.022778
#
#
# Mechanical properties :
#
#
# Convention : Reuss Voigt Hill
#
# Bulk Modulus (GPa) = 40.37123 61.84852 51.10988
# Shear Modulus (GPa) = 28.37342 36.66597 32.51969
#
# Velocity S-wave (km/s) = 3.66100 4.16174 3.91938
# Velocity P-wave (km/s) = 6.07791 7.23251 6.68020
#
# Compressibility (1/GPa) = 0.02477011
#
# Stress axis : x y z
#
# Youngs Moduli (GPa) = 69.44201 73.19470 57.03554
#
# Poissons Ratio (x) = 0.54152 -0.15581
# Poissons Ratio (y) = 0.51376 0.32774
# Poissons Ratio (z) = -0.18971 0.42059
#
# Static dielectric constant tensor:
#      x y z
#    x 3.907370 -0.165180 0.133100 
#    y -0.165180 3.890940 0.021840 
#    z 0.133100 0.021840 3.707430 
# 
# 
# High freq. dielectric constant tensor:
#      x y z
#    x 1.847740 -0.006420 0.015710 
#    y -0.006420 1.831270 0.008190 
#    z 0.015710 0.008190 1.810450 
# 
# From -- ./inp_files/205075.got.cif
#   From: 2010.06.25/outbox.cif.g09.slc.cpg/sg2_103_cif.got.tgz:205075.got - 2010.06.27 13:26:56.
