data_PCOD8029023
_publ_section_title
;
Structure prediction by ZEFSAII (Michael W. Deem and Ramdas Pophale) SiO2 
 PCOD8029023
Probable space group: P -1
;
_chemical_formula_sum "Si O2"
_cell_formula_units_Z 12
_cell_length_a 8.863279
_cell_length_b 8.648295
_cell_length_c 11.806245
_cell_angle_alpha 136.326827
_cell_angle_beta 72.023144
_cell_angle_gamma 98.948328
_cell_volume 591.252367
_symmetry_space_group_name_H-M "P -1"
_symmetry_group_IT_number 2
_symmetry_cell_setting 'triclinic'
loop_
_space_group_symop_operation_xyz
x,y,z
-x,-y,-z
loop_
_atom_site_type_symbol
_atom_site_label
_atom_site_fract_x
_atom_site_fract_y
_atom_site_fract_z
Si Si1 0.370941 0.202516 0.113383
Si Si2 0.777195 0.005433 0.343937
Si Si3 0.929325 0.761860 0.642147
Si Si4 0.271354 0.093421 0.449112
Si Si5 0.482696 0.597040 0.430695
Si Si6 0.439719 0.255849 0.878246
O O1 0.204682 0.178410 0.200993
O O2 0.448906 0.420882 0.250743
O O3 0.343626 0.213341 0.991969
O O4 0.500000 0.000000 0.000000
O O5 0.660368 0.210376 0.434563
O O6 0.943698 0.054734 0.273690
O O7 0.802219 0.011773 0.477740
O O8 0.697070 0.780108 0.203659
O O9 0.860745 0.806721 0.555806
O O10 0.000000 0.500000 0.500000
O O11 0.355075 0.304290 0.588912
O O12 0.401330 0.915669 0.264578
O O13 0.500000 0.500000 0.500000
O O14 0.500000 0.500000 0.000000
#
# Coordination Sequence:
#
# PCOD8029023 Si02
#       6
#     2   2   2   2   2   2
#     4  12  22  40  66  96 131 163 217 270 321 379
#     4  11  23  41  64  96 130 172 219 260 321 390
#     4  12  24  42  67  96 129 172 216 269 323 380
#     4  11  22  42  67  93 129 174 221 260 314 401
#     4  11  19  39  66  95 122 171 223 257 309 395
#     4  11  23  41  67  95 130 169 214 268 325 379
#
# _framework density 20.295902999999999
#
# number of rings (size 3 to 8) (size 9 to 14) (size 15 to 20)
#    0.000    0.667    5.000    5.500    0.000    0.667 
#    0.000    0.833    0.000    0.000    0.000    0.000 
#    0.000    0.000    0.000    0.000    0.000    0.000 
#
# Total GULP energy -148711.314854 kJ/mol
# GULP energy per Si atom -12392.609571 kJ/mol
# Density = 2.024971 g / cm^3
# Si number density = 20.295903 Si / 1000 Ang^3
#
#
#
# Elastic Constant Matrix: (Units=GPa)
#
#
# Indices 1 2 3 4 5 6 
#
# 1 131.0870 60.0602 48.3762 6.5578 4.0352 10.6091
# 2 60.0602 130.3482 48.4180 -18.6514 -5.2571 -1.0902
# 3 48.3762 48.4180 91.5794 -8.0118 8.4572 8.7497
# 4 6.5578 -18.6514 -8.0118 42.0207 5.4513 12.5771
# 5 4.0352 -5.2571 8.4572 5.4513 32.2105 0.9686
# 6 10.6091 -1.0902 8.7497 12.5771 0.9686 47.3674
#
#
#
# Elastic Compliance Matrix: (Units=1/GPa)
#
#
# Indices 1 2 3 4 5 6 
#
# 1 0.011388 -0.004405 -0.003942 -0.004195 -0.000376 -0.000802
# 2 -0.004405 0.011930 -0.003885 0.004688 0.002705 0.000679
# 3 -0.003942 -0.003885 0.016098 0.003492 -0.004868 -0.003008
# 4 -0.004195 0.004688 0.003492 0.030018 -0.004482 -0.007476
# 5 -0.000376 0.002705 -0.004868 -0.004482 0.033524 0.001550
# 6 -0.000802 0.000679 -0.003008 -0.007476 0.001550 0.023816
#
#
# Mechanical properties :
#
#
# Convention : Reuss Voigt Hill
#
# Bulk Modulus (GPa) = 66.88209 74.08036 70.48123
# Shear Modulus (GPa) = 32.00539 37.39710 34.70124
#
# Velocity S-wave (km/s) = 3.97538 4.29720 4.13942
# Velocity P-wave (km/s) = 7.35503 7.82308 7.59267
#
# Compressibility (1/GPa) = 0.01495168
#
# Stress axis : x y z
#
# Youngs Moduli (GPa) = 87.81164 83.82121 62.11799
#
# Poissons Ratio (x) = 0.36923 0.24489
# Poissons Ratio (y) = 0.38681 0.24133
# Poissons Ratio (z) = 0.34618 0.32565
#
# Static dielectric constant tensor:
#      x y z
#    x 3.175940 0.556700 0.100510 
#    y 0.556700 3.422020 0.249340 
#    z 0.100510 0.249340 3.769360 
# 
# 
# High freq. dielectric constant tensor:
#      x y z
#    x 1.795280 0.003460 0.011570 
#    y 0.003460 1.815310 -0.003540 
#    z 0.011570 -0.003540 1.781500 
# 
# From -- ./inp_files/144999.got.cif
#   From: 2010.06.25/outbox.cif.g09.slc.cpg/sg2_73_cif.got.tgz:144999.got - 2010.06.27 13:26:56.
