data_PCOD8029991
_publ_section_title
;
Structure prediction by ZEFSAII (Michael W. Deem and Ramdas Pophale) SiO2 
 PCOD8029991
Probable space group: P -1
;
_chemical_formula_sum "Si O2"
_cell_formula_units_Z 14
_cell_length_a 9.322711
_cell_length_b 8.780491
_cell_length_c 12.256325
_cell_angle_alpha 63.104975
_cell_angle_beta 64.572967
_cell_angle_gamma 49.790712
_cell_volume 669.286495
_symmetry_space_group_name_H-M "P -1"
_symmetry_group_IT_number 2
_symmetry_cell_setting 'triclinic'
loop_
_space_group_symop_operation_xyz
x,y,z
-x,-y,-z
loop_
_atom_site_type_symbol
_atom_site_label
_atom_site_fract_x
_atom_site_fract_y
_atom_site_fract_z
Si Si1 0.945536 0.372694 0.633101
Si Si2 0.173312 0.629195 0.825229
Si Si3 0.132093 0.959408 0.572303
Si Si4 0.175553 0.314497 0.780753
Si Si5 0.871860 0.962591 0.977911
Si Si6 0.611444 0.341601 0.781883
Si Si7 0.528022 0.287368 0.593859
O O1 0.998341 0.376020 0.740193
O O2 0.000000 0.500000 0.500000
O O3 0.719791 0.457283 0.684273
O O4 0.057064 0.143041 0.622251
O O5 0.162897 0.764643 0.685571
O O6 0.117224 0.480628 0.841012
O O7 0.392603 0.502822 0.840849
O O8 0.019871 0.763529 0.923012
O O9 0.335606 0.894197 0.476335
O O10 0.000000 0.000000 0.500000
O O11 0.333089 0.298052 0.653457
O O12 0.246694 0.099065 0.888101
O O13 0.724177 0.164273 0.892424
O O14 0.000000 0.000000 0.000000
O O15 0.614440 0.229284 0.706516
O O16 0.500000 0.500000 0.500000
#
# Coordination Sequence:
#
# PCOD8029991 Si02
#       7
#     2   2   2   2   2   2   2
#     4  12  24  41  64 101 138 174 225 281 343 401
#     4  11  24  43  72  95 128 182 229 270 343 403
#     4  12  21  40  70  96 138 184 215 277 350 397
#     4  11  24  42  68  98 134 177 224 284 331 403
#     4  12  24  48  67  96 142 174 229 280 335 401
#     4  11  23  43  69  95 135 182 221 277 337 394
#     4  11  21  41  68  99 133 171 228 277 333 406
#
# _framework density 20.917798999999999
#
# number of rings (size 3 to 8) (size 9 to 14) (size 15 to 20)
#    0.000    0.571    7.143    2.143    0.000    3.429 
#    2.571    1.429    0.000    0.000    0.000    0.000 
#    0.000    0.000    0.000    0.000    0.000    0.000 
#
# Total GULP energy -173554.707145 kJ/mol
# GULP energy per Si atom -12396.764796 kJ/mol
# Density = 2.087019 g / cm^3
# Si number density = 20.917799 Si / 1000 Ang^3
#
#
#
# Elastic Constant Matrix: (Units=GPa)
#
#
# Indices 1 2 3 4 5 6 
#
# 1 105.3166 37.9000 23.7409 -4.5561 6.6988 0.9181
# 2 37.9000 80.9695 23.6520 -4.1030 3.3173 -8.8475
# 3 23.7409 23.6520 98.9549 -24.2039 -2.5707 -5.2939
# 4 -4.5561 -4.1030 -24.2039 43.1318 -1.5733 -1.5039
# 5 6.6988 3.3173 -2.5707 -1.5733 43.5762 -0.4519
# 6 0.9181 -8.8475 -5.2939 -1.5039 -0.4519 30.3920
#
#
#
# Elastic Compliance Matrix: (Units=1/GPa)
#
#
# Indices 1 2 3 4 5 6 
#
# 1 0.011899 -0.005226 -0.001872 -0.000427 -0.001581 -0.002251
# 2 -0.005226 0.015986 -0.002408 -0.000249 -0.000519 0.004372
# 3 -0.001872 -0.002408 0.012984 0.006983 0.001510 0.001985
# 4 -0.000427 -0.000249 0.006983 0.027178 0.001504 0.002524
# 5 -0.001581 -0.000519 0.001510 0.001504 0.023380 0.000582
# 6 -0.002251 0.004372 0.001985 0.002524 0.000582 0.034724
#
#
# Mechanical properties :
#
#
# Convention : Reuss Voigt Hill
#
# Bulk Modulus (GPa) = 45.74820 50.64742 48.19781
# Shear Modulus (GPa) = 32.79816 36.74989 34.77403
#
# Velocity S-wave (km/s) = 3.96404 4.19605 4.08169
# Velocity P-wave (km/s) = 6.54747 6.90948 6.73091
#
# Compressibility (1/GPa) = 0.02185878
#
# Stress axis : x y z
#
# Youngs Moduli (GPa) = 84.03735 62.55388 77.01991
#
# Poissons Ratio (x) = 0.32691 0.14415
# Poissons Ratio (y) = 0.43918 0.18544
# Poissons Ratio (z) = 0.15729 0.15061
#
# Static dielectric constant tensor:
#      x y z
#    x 4.164410 0.093520 -0.116680 
#    y 0.093520 4.056330 0.017030 
#    z -0.116680 0.017030 4.038880 
# 
# 
# High freq. dielectric constant tensor:
#      x y z
#    x 1.826970 0.000630 -0.001270 
#    y 0.000630 1.804820 0.000860 
#    z -0.001270 0.000860 1.838660 
# 
# From -- ./inp_files/175777.got.cif
#   From: 2010.06.25/outbox.cif.g09.slc.cpg/sg2_88_cif.got.tgz:175777.got - 2010.06.27 13:26:56.
