data_PCOD8029814
_publ_section_title
;
Structure prediction by ZEFSAII (Michael W. Deem and Ramdas Pophale) SiO2 
 PCOD8029814
Probable space group: P -1
;
_chemical_formula_sum "Si O2"
_cell_formula_units_Z 16
_cell_length_a 12.743764
_cell_length_b 18.344132
_cell_length_c 11.030621
_cell_angle_alpha 41.520730
_cell_angle_beta 50.461023
_cell_angle_gamma 29.795730
_cell_volume 848.728022
_symmetry_space_group_name_H-M "P -1"
_symmetry_group_IT_number 2
_symmetry_cell_setting 'triclinic'
loop_
_space_group_symop_operation_xyz
x,y,z
-x,-y,-z
loop_
_atom_site_type_symbol
_atom_site_label
_atom_site_fract_x
_atom_site_fract_y
_atom_site_fract_z
Si Si1 0.096069 0.747728 0.563590
Si Si2 0.627378 0.766585 0.728601
Si Si3 0.458385 0.135734 0.790435
Si Si4 0.632524 0.977258 0.608337
Si Si5 0.949951 0.487270 0.421655
Si Si6 0.742013 0.404651 0.613969
Si Si7 0.370288 0.771907 0.321411
Si Si8 0.530497 0.623032 0.136660
O O1 0.092257 0.730005 0.444054
O O2 0.152048 0.842413 0.422232
O O3 0.252728 0.569317 0.741990
O O4 0.858806 0.872443 0.625890
O O5 0.436340 0.910731 0.597970
O O6 0.849492 0.637830 0.656929
O O7 0.628273 0.850850 0.735503
O O8 0.589520 0.668219 0.928705
O O9 0.472455 0.103725 0.677076
O O10 0.225004 0.329025 0.745427
O O11 0.629924 0.116154 0.740779
O O12 0.500000 0.000000 0.000000
O O13 0.858191 0.420381 0.595939
O O14 0.000000 0.500000 0.500000
O O15 0.548328 0.577639 0.471736
O O16 0.642041 0.359226 0.810476
O O17 0.415894 0.761723 0.157141
#
# Coordination Sequence:
#
# PCOD8029814 Si02
#       8
#     2   2   2   2   2   2   2   2
#     4   9  17  34  60  83 106 146 187 231 278 326
#     4  11  23  38  57  85 114 149 190 228 274 337
#     4  11  23  37  56  85 116 144 186 236 280 327
#     4  11  23  37  55  83 121 145 182 235 283 322
#     4  11  21  40  60  78 113 160 183 217 290 341
#     4   8  16  35  59  83 108 146 188 228 275 333
#     4   8  17  35  57  82 114 145 180 229 289 327
#     4   9  18  35  62  86 106 141 196 234 264 332
#
# _framework density 18.851738999999998
#
# number of rings (size 3 to 8) (size 9 to 14) (size 15 to 20)
#    0.000    2.250    2.500    2.250    1.750    1.000 
#    0.000    4.375    0.000    0.000    0.000    0.000 
#    0.000    0.000    0.000    0.000    0.000    0.000 
#
# Total GULP energy -198306.516573 kJ/mol
# GULP energy per Si atom -12394.157286 kJ/mol
# Density = 1.880883 g / cm^3
# Si number density = 18.851739 Si / 1000 Ang^3
#
#
#
# Elastic Constant Matrix: (Units=GPa)
#
#
# Indices 1 2 3 4 5 6 
#
# 1 123.4935 25.5444 53.8316 3.9240 -21.9815 9.0884
# 2 25.5444 65.5525 30.6299 1.9903 -11.8423 1.2659
# 3 53.8316 30.6299 108.8304 3.4327 -20.5358 -8.6465
# 4 3.9240 1.9903 3.4327 21.8404 0.1782 -2.3593
# 5 -21.9815 -11.8423 -20.5358 0.1782 23.5694 0.9496
# 6 9.0884 1.2659 -8.6465 -2.3593 0.9496 27.4535
#
#
#
# Elastic Compliance Matrix: (Units=1/GPa)
#
#
# Indices 1 2 3 4 5 6 
#
# 1 0.012132 -0.001068 -0.004815 -0.002018 0.006835 -0.005893
# 2 -0.001068 0.018443 -0.003837 -0.001140 0.005016 -0.001977
# 3 -0.004815 -0.003837 0.014224 -0.000418 0.005735 0.006016
# 4 -0.002018 -0.001140 -0.000418 0.046857 -0.003364 0.004732
# 5 0.006835 0.005016 0.005735 -0.003364 0.056463 -0.002930
# 6 -0.005893 -0.001977 0.006016 0.004732 -0.002930 0.040870
#
#
# Mechanical properties :
#
#
# Convention : Reuss Voigt Hill
#
# Bulk Modulus (GPa) = 39.43478 57.54314 48.48896
# Shear Modulus (GPa) = 23.05395 27.09736 25.07565
#
# Velocity S-wave (km/s) = 3.50080 3.79541 3.65108
# Velocity P-wave (km/s) = 6.10775 7.05671 6.59931
#
# Compressibility (1/GPa) = 0.02535833
#
# Stress axis : x y z
#
# Youngs Moduli (GPa) = 82.42697 54.22147 70.30530
#
# Poissons Ratio (x) = 0.05789 0.33853
# Poissons Ratio (y) = 0.08801 0.26978
# Poissons Ratio (z) = 0.39690 0.20806
#
# Static dielectric constant tensor:
#      x y z
#    x 3.795630 -0.034050 -0.313180 
#    y -0.034050 3.391730 0.009460 
#    z -0.313180 0.009460 3.267360 
# 
# 
# High freq. dielectric constant tensor:
#      x y z
#    x 1.738640 -0.003880 -0.017600 
#    y -0.003880 1.723660 0.001250 
#    z -0.017600 0.001250 1.711280 
# 
# From -- ./inp_files/204263.got.cif
#   From: 2010.06.25/outbox.cif.g09.slc.cpg/sg2_103_cif.got.tgz:204263.got - 2010.06.27 13:26:56.
