data_PCOD8029302
_publ_section_title
;
Structure prediction by ZEFSAII (Michael W. Deem and Ramdas Pophale) SiO2 
 PCOD8029302
Probable space group: P -1
;
_chemical_formula_sum "Si O2"
_cell_formula_units_Z 16
_cell_length_a 15.064881
_cell_length_b 11.584108
_cell_length_c 15.948665
_cell_angle_alpha 48.887491
_cell_angle_beta 153.450727
_cell_angle_gamma 113.461379
_cell_volume 773.704535
_symmetry_space_group_name_H-M "P -1"
_symmetry_group_IT_number 2
_symmetry_cell_setting 'triclinic'
loop_
_space_group_symop_operation_xyz
x,y,z
-x,-y,-z
loop_
_atom_site_type_symbol
_atom_site_label
_atom_site_fract_x
_atom_site_fract_y
_atom_site_fract_z
Si Si1 0.699686 0.311940 0.475092
Si Si2 0.162572 0.704567 0.129359
Si Si3 0.654599 0.010065 0.503605
Si Si4 0.430898 0.964503 0.763431
Si Si5 0.503336 0.428904 0.672393
Si Si6 0.234274 0.407478 0.686430
Si Si7 0.243943 0.010300 0.091285
Si Si8 0.359625 0.189257 0.741063
O O1 0.526872 0.428637 0.350333
O O2 0.694805 0.447124 0.336755
O O3 0.972547 0.175804 0.803960
O O4 0.599675 0.199148 0.405592
O O5 0.265163 0.530500 0.361872
O O6 0.261734 0.632747 0.153665
O O7 0.874250 0.830507 0.821759
O O8 0.267956 0.817865 0.200299
O O9 0.720726 0.009228 0.460979
O O10 0.418543 0.003959 0.315006
O O11 0.261623 0.140170 0.599427
O O12 0.532543 0.769141 0.988273
O O13 0.668246 0.959651 0.938468
O O14 0.531850 0.250429 0.824289
O O15 0.173218 0.349527 0.572508
O O16 0.000000 0.500000 0.500000
O O17 0.500000 0.000000 0.000000
#
# Coordination Sequence:
#
# PCOD8029302 Si02
#       8
#     2   2   2   2   2   2   2   2
#     4  10  20  35  56  82 114 143 182 232 274 328
#     4  10  20  38  60  76 113 147 180 237 265 324
#     4   9  20  35  56  80 110 148 183 220 279 327
#     4   9  17  34  51  80 108 138 189 213 266 334
#     4  10  20  36  56  87 107 141 191 224 279 321
#     4  10  17  30  56  84 105 147 181 227 279 315
#     4   9  18  36  56  76 110 145 182 218 273 329
#     4   9  18  32  58  78 108 143 180 223 266 330
#
# _framework density 20.679731
#
# number of rings (size 3 to 8) (size 9 to 14) (size 15 to 20)
#    0.750    1.750    2.500    0.000    0.000    2.500 
#    0.000   13.125    0.000    7.500    0.000    0.000 
#    0.000    0.000    0.000    0.000    0.000    0.000 
#
# Total GULP energy -198212.241375 kJ/mol
# GULP energy per Si atom -12388.265086 kJ/mol
# Density = 2.063266 g / cm^3
# Si number density = 20.679731 Si / 1000 Ang^3
#
#
#
# Elastic Constant Matrix: (Units=GPa)
#
#
# Indices 1 2 3 4 5 6 
#
# 1 58.1796 30.9705 -9.3979 -4.0335 -0.8763 -11.7750
# 2 30.9705 107.3965 36.9669 5.9695 9.5944 -19.2838
# 3 -9.3979 36.9669 51.7406 2.7467 -3.3558 6.9272
# 4 -4.0335 5.9695 2.7467 31.3300 1.1084 -0.8764
# 5 -0.8763 9.5944 -3.3558 1.1084 24.6096 -5.9605
# 6 -11.7750 -19.2838 6.9272 -0.8764 -5.9605 31.2735
#
#
#
# Elastic Compliance Matrix: (Units=1/GPa)
#
#
# Indices 1 2 3 4 5 6 
#
# 1 0.027886 -0.014532 0.015781 0.004667 0.008553 -0.000196
# 2 -0.014532 0.024539 -0.022295 -0.003889 -0.009897 0.012603
# 3 0.015781 -0.022295 0.040706 0.001906 0.011173 -0.014639
# 4 0.004667 -0.003889 0.001906 0.033076 0.000440 -0.000052
# 5 0.008553 -0.009897 0.011173 0.000440 0.047185 0.003648
# 6 -0.000196 0.012603 -0.014639 -0.000052 0.003648 0.043610
#
#
# Mechanical properties :
#
#
# Convention : Reuss Voigt Hill
#
# Bulk Modulus (GPa) = 19.59283 37.15507 28.37395
# Shear Modulus (GPa) = 18.10889 28.02779 23.06834
#
# Velocity S-wave (km/s) = 2.96240 3.68547 3.34354
# Velocity P-wave (km/s) = 4.60392 6.00967 5.35314
#
# Compressibility (1/GPa) = 0.05103908
#
# Stress axis : x y z
#
# Youngs Moduli (GPa) = 35.86035 40.75064 24.56639
#
# Poissons Ratio (x) = 0.59220 -0.38769
# Poissons Ratio (y) = 0.52113 0.54771
# Poissons Ratio (z) = -0.56592 0.90853
#
# Static dielectric constant tensor:
#      x y z
#    x 3.869190 -0.299490 -0.199020 
#    y -0.299490 3.836090 -0.328430 
#    z -0.199020 -0.328430 3.448230 
# 
# 
# High freq. dielectric constant tensor:
#      x y z
#    x 1.814010 -0.019250 -0.019900 
#    y -0.019250 1.807000 -0.032760 
#    z -0.019900 -0.032760 1.776540 
# 
# From -- ./inp_files/532425.got.cif
#   From: 2010.06.25/outbox.cif.g09.slc.cpg/sg2_267_cif.got.tgz:532425.got - 2010.06.27 13:26:56.
