data_PCOD8029668
_publ_section_title
;
Structure prediction by ZEFSAII (Michael W. Deem and Ramdas Pophale) SiO2 
 PCOD8029668
Probable space group: P -1
;
_chemical_formula_sum "Si O2"
_cell_formula_units_Z 16
_cell_length_a 17.218117
_cell_length_b 10.899227
_cell_length_c 19.115616
_cell_angle_alpha 146.438027
_cell_angle_beta 158.146072
_cell_angle_gamma 44.954256
_cell_volume 699.557986
_symmetry_space_group_name_H-M "P -1"
_symmetry_group_IT_number 2
_symmetry_cell_setting 'triclinic'
loop_
_space_group_symop_operation_xyz
x,y,z
-x,-y,-z
loop_
_atom_site_type_symbol
_atom_site_label
_atom_site_fract_x
_atom_site_fract_y
_atom_site_fract_z
Si Si1 0.810131 0.297531 0.709185
Si Si2 0.217155 0.372963 0.272477
Si Si3 0.963451 0.119522 0.176437
Si Si4 0.062727 0.625918 0.449317
Si Si5 0.421309 0.042349 0.530855
Si Si6 0.501087 0.629223 0.756297
Si Si7 0.200106 0.548286 0.975399
Si Si8 0.905755 0.022003 0.236805
O O1 0.696055 0.420109 0.614992
O O2 0.632452 0.171336 0.560092
O O3 0.918680 0.119204 0.679331
O O4 0.000000 0.500000 0.000000
O O5 0.380895 0.437561 0.506072
O O6 0.968578 0.350672 0.076015
O O7 0.203134 0.117865 0.109658
O O8 0.949645 0.348729 0.235392
O O9 0.904747 0.141300 0.218264
O O10 0.213440 0.126740 0.385102
O O11 0.938131 0.663537 0.291899
O O12 0.323473 0.693291 0.686690
O O13 0.015313 0.778443 0.544039
O O14 0.500000 0.000000 0.500000
O O15 0.627040 0.252702 0.832756
O O16 0.663604 0.537339 0.894021
O O17 0.653405 0.865611 0.960865
#
# Coordination Sequence:
#
# PCOD8029668 Si02
#       8
#     2   2   2   2   2   2   2   2
#     4  11  21  42  69  99 137 173 222 279 338 394
#     4  11  23  44  68 106 132 173 225 279 347 391
#     4  11  23  43  68 100 139 175 221 279 337 404
#     4  11  26  45  67  97 136 186 227 266 336 400
#     4  11  21  37  70 100 134 178 216 280 340 392
#     4  11  25  43  72  99 133 179 228 280 334 396
#     4  11  23  44  68 101 135 175 227 284 329 397
#     4  11  24  45  68  96 140 180 220 280 330 404
#
# _framework density 22.871585
#
# number of rings (size 3 to 8) (size 9 to 14) (size 15 to 20)
#    0.000    1.000    6.250    0.750    0.000    5.000 
#    2.250    2.500    0.000    0.000    0.000    0.000 
#    0.000    0.000    0.000    0.000    0.000    0.000 
#
# Total GULP energy -198381.387508 kJ/mol
# GULP energy per Si atom -12398.836719 kJ/mol
# Density = 2.281953 g / cm^3
# Si number density = 22.871585 Si / 1000 Ang^3
#
#
#
# Elastic Constant Matrix: (Units=GPa)
#
#
# Indices 1 2 3 4 5 6 
#
# 1 154.4523 51.7575 62.5059 8.2798 -7.3161 -5.2244
# 2 51.7575 83.3742 50.1656 -3.5169 -4.9995 -2.9795
# 3 62.5059 50.1656 113.6943 -1.9964 -8.5261 4.2091
# 4 8.2798 -3.5169 -1.9964 30.2303 8.9802 -10.2922
# 5 -7.3161 -4.9995 -8.5261 8.9802 44.2708 14.0250
# 6 -5.2244 -2.9795 4.2091 -10.2922 14.0250 32.0548
#
#
#
# Elastic Compliance Matrix: (Units=1/GPa)
#
#
# Indices 1 2 3 4 5 6 
#
# 1 0.009409 -0.003853 -0.003443 -0.003640 0.001219 -0.000075
# 2 -0.003853 0.018369 -0.006226 0.004931 -0.002164 0.004427
# 3 -0.003443 -0.006226 0.013830 -0.001473 0.003223 -0.004839
# 4 -0.003640 0.004931 -0.001473 0.047412 -0.017166 0.022793
# 5 0.001219 -0.002164 0.003223 -0.017166 0.033120 -0.020429
# 6 -0.000075 0.004427 -0.004839 0.022793 -0.020429 0.048488
#
#
# Mechanical properties :
#
#
# Convention : Reuss Voigt Hill
#
# Bulk Modulus (GPa) = 68.65890 75.59764 72.12827
# Shear Modulus (GPa) = 24.68811 33.78395 29.23603
#
# Velocity S-wave (km/s) = 3.28902 3.84749 3.57917
# Velocity P-wave (km/s) = 6.67143 7.27066 6.97748
#
# Compressibility (1/GPa) = 0.01456475
#
# Stress axis : x y z
#
# Youngs Moduli (GPa) = 106.27963 54.44065 72.30414
#
# Poissons Ratio (x) = 0.20975 0.24892
# Poissons Ratio (y) = 0.40947 0.45019
# Poissons Ratio (z) = 0.36589 0.33896
#
# Static dielectric constant tensor:
#      x y z
#    x 15.140330 -1.057970 15.858840 
#    y -1.057970 4.228810 -1.771830 
#    z 15.858840 -1.771830 26.992710 
# 
# 
# High freq. dielectric constant tensor:
#      x y z
#    x 1.915070 0.010800 0.009240 
#    y 0.010800 1.887330 -0.006790 
#    z 0.009240 -0.006790 1.914480 
# 
# From -- ./inp_files/600147.got.cif
#   From: 2010.06.25/outbox.cif.g09.slc.cpg/sg2_301_cif.got.tgz:600147.got - 2010.06.27 13:26:56.
