data_PCOD8029806
_publ_section_title
;
Structure prediction by ZEFSAII (Michael W. Deem and Ramdas Pophale) SiO2 
 PCOD8029806
Probable space group: P -1
;
_chemical_formula_sum "Si O2"
_cell_formula_units_Z 16
_cell_length_a 13.058553
_cell_length_b 13.816761
_cell_length_c 15.337782
_cell_angle_alpha 137.817976
_cell_angle_beta 26.277944
_cell_angle_gamma 120.549305
_cell_volume 700.054836
_symmetry_space_group_name_H-M "P -1"
_symmetry_group_IT_number 2
_symmetry_cell_setting 'triclinic'
loop_
_space_group_symop_operation_xyz
x,y,z
-x,-y,-z
loop_
_atom_site_type_symbol
_atom_site_label
_atom_site_fract_x
_atom_site_fract_y
_atom_site_fract_z
Si Si1 0.558818 0.582861 0.225051
Si Si2 0.556262 0.082656 0.770285
Si Si3 0.877673 0.174693 0.156999
Si Si4 0.646987 0.130538 0.139037
Si Si5 0.143280 0.998516 0.287092
Si Si6 0.406345 0.157753 0.740782
Si Si7 0.375871 0.330798 0.212896
Si Si8 0.143923 0.326884 0.556827
O O1 0.424002 0.687408 0.486229
O O2 0.507956 0.715216 0.276563
O O3 0.413546 0.479323 0.246252
O O4 0.881624 0.452677 0.898319
O O5 0.558068 0.106351 0.682286
O O6 0.844827 0.034980 0.560399
O O7 0.496734 0.935701 0.731512
O O8 0.328009 0.250880 0.108950
O O9 0.848219 0.157067 0.064151
O O10 0.081357 0.243584 0.058870
O O11 0.000000 0.000000 0.000000
O O12 0.403051 0.303979 0.397411
O O13 0.824545 0.997025 0.838966
O O14 0.186689 0.140434 0.391694
O O15 0.360868 0.813436 0.032482
O O16 0.500000 0.000000 0.500000
O O17 0.130947 0.398948 0.516536
#
# Coordination Sequence:
#
# PCOD8029806 Si02
#       8
#     2   2   2   2   2   2   2   2
#     4  12  26  45  68  95 144 174 220 287 333 383
#     4  12  21  37  71 100 131 177 222 264 335 402
#     4  12  25  47  70  91 130 183 234 273 321 393
#     4  11  22  41  73 102 129 178 223 272 332 401
#     4  11  21  39  71 104 140 171 214 272 341 406
#     4  12  26  47  67  92 131 181 234 277 320 390
#     4  11  22  42  67 106 139 171 214 277 341 406
#     4  11  22  43  69 104 142 167 213 280 343 399
#
# _framework density 22.855352
#
# number of rings (size 3 to 8) (size 9 to 14) (size 15 to 20)
#    0.000    0.500    6.250    3.375    0.000    1.000 
#    0.000    8.125    0.000    0.000    0.000    0.000 
#    0.000    0.000    0.000    0.000    0.000    0.000 
#
# Total GULP energy -198348.134543 kJ/mol
# GULP energy per Si atom -12396.758409 kJ/mol
# Density = 2.280333 g / cm^3
# Si number density = 22.855352 Si / 1000 Ang^3
#
#
#
# Elastic Constant Matrix: (Units=GPa)
#
#
# Indices 1 2 3 4 5 6 
#
# 1 96.2738 7.3432 20.4695 7.5834 21.4778 -2.1234
# 2 7.3432 121.7551 12.9282 -3.2098 9.8166 -12.6195
# 3 20.4695 12.9282 117.4151 -3.7182 20.6597 -1.8114
# 4 7.5834 -3.2098 -3.7182 35.3050 2.7593 1.6929
# 5 21.4778 9.8166 20.6597 2.7593 21.9391 -11.9202
# 6 -2.1234 -12.6195 -1.8114 1.6929 -11.9202 28.9562
#
#
#
# Elastic Compliance Matrix: (Units=1/GPa)
#
#
# Indices 1 2 3 4 5 6 
#
# 1 0.014140 -0.000169 0.000466 -0.001359 -0.017329 -0.006062
# 2 -0.000169 0.008753 -0.000572 0.000755 -0.001654 0.003041
# 3 0.000466 -0.000572 0.010884 0.002310 -0.013603 -0.005269
# 4 -0.001359 0.000755 0.002310 0.029707 -0.007291 -0.004364
# 5 -0.017329 -0.001654 -0.013603 -0.007291 0.097509 0.037724
# 6 -0.006062 0.003041 -0.005269 -0.004364 0.037724 0.050871
#
#
# Mechanical properties :
#
#
# Convention : Reuss Voigt Hill
#
# Bulk Modulus (GPa) = 30.09726 46.32509 38.21118
# Shear Modulus (GPa) = 22.37233 36.88692 29.62963
#
# Velocity S-wave (km/s) = 3.13208 4.02173 3.60446
# Velocity P-wave (km/s) = 5.12612 6.47137 5.83762
#
# Compressibility (1/GPa) = 0.03322561
#
# Stress axis : x y z
#
# Youngs Moduli (GPa) = 70.72125 114.25073 91.87882
#
# Poissons Ratio (x) = 0.01934 -0.04282
# Poissons Ratio (y) = 0.01197 0.05258
# Poissons Ratio (z) = -0.03296 0.06538
#
# Static dielectric constant tensor:
#      x y z
#    x 4.059370 -0.135640 0.245720 
#    y -0.135640 4.256320 -0.319090 
#    z 0.245720 -0.319090 4.370530 
# 
# 
# High freq. dielectric constant tensor:
#      x y z
#    x 1.889470 -0.011750 0.019990 
#    y -0.011750 1.905300 -0.018250 
#    z 0.019990 -0.018250 1.905010 
# 
# From -- ./inp_files/455593.got.cif
#   From: 2010.06.25/outbox.cif.g09.slc.cpg/sg2_228_cif.got.tgz:455593.got - 2010.06.27 13:26:56.
