data_PCOD8029502
_publ_section_title
;
Structure prediction by ZEFSAII (Michael W. Deem and Ramdas Pophale) SiO2 
 PCOD8029502
Probable space group: P -1
;
_chemical_formula_sum "Si O2"
_cell_formula_units_Z 16
_cell_length_a 21.625139
_cell_length_b 17.869995
_cell_length_c 11.342242
_cell_angle_alpha 149.009529
_cell_angle_beta 29.091149
_cell_angle_gamma 160.335368
_cell_volume 701.133279
_symmetry_space_group_name_H-M "P -1"
_symmetry_group_IT_number 2
_symmetry_cell_setting 'triclinic'
loop_
_space_group_symop_operation_xyz
x,y,z
-x,-y,-z
loop_
_atom_site_type_symbol
_atom_site_label
_atom_site_fract_x
_atom_site_fract_y
_atom_site_fract_z
Si Si1 0.902200 0.560004 0.202548
Si Si2 0.283298 0.935819 0.550602
Si Si3 0.735111 0.328738 0.924236
Si Si4 0.891934 0.765772 0.918177
Si Si5 0.167218 0.734146 0.708135
Si Si6 0.677763 0.389802 0.575468
Si Si7 0.568589 0.447877 0.219445
Si Si8 0.144593 0.988278 0.236299
O O1 0.788978 0.530328 0.460170
O O2 0.077441 0.826580 0.238113
O O3 0.750100 0.389217 0.117489
O O4 0.000000 0.500000 0.000000
O O5 0.366323 0.917127 0.271912
O O6 0.275280 0.817343 0.515243
O O7 0.067077 0.813770 0.729174
O O8 0.444741 0.200598 0.674348
O O9 0.949978 0.474845 0.710999
O O10 0.633657 0.363429 0.065769
O O11 0.744885 0.562795 0.795057
O O12 0.746878 0.670998 0.143424
O O13 0.000000 0.000000 0.000000
O O14 0.286285 0.745136 0.622751
O O15 0.127926 0.870242 0.990141
O O16 0.500000 0.500000 0.500000
O O17 0.372303 0.237945 0.189223
O O18 0.000000 0.000000 0.500000
#
# Coordination Sequence:
#
# PCOD8029502 Si02
#       8
#     2   2   2   2   2   2   2   2
#     4  11  23  44  67 106 150 189 245 307 368 435
#     4  12  24  43  76 105 143 188 241 307 369 439
#     4  11  22  42  73 105 140 188 242 301 367 439
#     4  12  29  49  73 108 149 190 248 313 372 443
#     4  11  20  43  70 104 139 184 241 298 365 438
#     4  12  25  45  72 106 147 192 240 309 379 434
#     4  12  26  47  72 106 143 194 249 302 370 449
#     4  11  25  43  72 102 143 195 246 299 363 448
#
# _framework density 22.820198000000001
#
# number of rings (size 3 to 8) (size 9 to 14) (size 15 to 20)
#    0.000    0.500    5.000    4.500    1.750    3.000 
#    0.000    0.000    0.000    0.000    0.000    0.000 
#    0.000    0.000    0.000    0.000    0.000    0.000 
#
# Total GULP energy -198249.145563 kJ/mol
# GULP energy per Si atom -12390.571598 kJ/mol
# Density = 2.276826 g / cm^3
# Si number density = 22.820198 Si / 1000 Ang^3
#
#
#
# Elastic Constant Matrix: (Units=GPa)
#
#
# Indices 1 2 3 4 5 6 
#
# 1 80.8419 43.7736 40.3947 -1.6625 3.1825 -4.6577
# 2 43.7736 113.7181 40.0250 4.2837 -0.4882 6.1451
# 3 40.3947 40.0250 120.3193 6.2363 9.3119 -2.3795
# 4 -1.6625 4.2837 6.2363 36.0883 -0.6314 2.7539
# 5 3.1825 -0.4882 9.3119 -0.6314 38.8108 1.2414
# 6 -4.6577 6.1451 -2.3795 2.7539 1.2414 40.5665
#
#
#
# Elastic Compliance Matrix: (Units=1/GPa)
#
#
# Indices 1 2 3 4 5 6 
#
# 1 0.017627 -0.005564 -0.004074 0.001975 -0.000586 0.002512
# 2 -0.005564 0.011882 -0.002171 -0.001078 0.001190 -0.002529
# 3 -0.004074 -0.002171 0.010691 -0.001870 -0.002311 0.000686
# 4 0.001975 -0.001078 -0.001870 0.028393 0.000789 -0.001671
# 5 -0.000586 0.001190 -0.002311 0.000789 0.026436 -0.001246
# 6 0.002512 -0.002529 0.000686 -0.001671 -0.001246 0.025514
#
#
# Mechanical properties :
#
#
# Convention : Reuss Voigt Hill
#
# Bulk Modulus (GPa) = 60.30925 62.58513 61.44719
# Shear Modulus (GPa) = 33.40299 35.80551 34.60425
#
# Velocity S-wave (km/s) = 3.83004 3.96539 3.89831
# Velocity P-wave (km/s) = 6.78560 6.96065 6.87368
#
# Compressibility (1/GPa) = 0.01658120
#
# Stress axis : x y z
#
# Youngs Moduli (GPa) = 56.73252 84.16263 93.54036
#
# Poissons Ratio (x) = 0.46825 0.38111
# Poissons Ratio (y) = 0.31564 0.20307
# Poissons Ratio (z) = 0.23115 0.18271
#
# Static dielectric constant tensor:
#      x y z
#    x 4.180800 0.190480 -0.392210 
#    y 0.190480 4.645160 0.517900 
#    z -0.392210 0.517900 3.668590 
# 
# 
# High freq. dielectric constant tensor:
#      x y z
#    x 1.899590 0.009810 0.010610 
#    y 0.009810 1.909210 -0.000500 
#    z 0.010610 -0.000500 1.902600 
# 
# From -- ./inp_files/472474.got.cif
#   From: 2010.06.25/outbox.cif.g09.slc.cpg/sg2_237_cif.got.tgz:472474.got - 2010.06.27 13:26:56.
