data_PCOD8029944
_publ_section_title
;
Structure prediction by ZEFSAII (Michael W. Deem and Ramdas Pophale) SiO2 
 PCOD8029944
Probable space group: P -1
;
_chemical_formula_sum "Si O2"
_cell_formula_units_Z 16
_cell_length_a 18.284839
_cell_length_b 10.990806
_cell_length_c 9.246748
_cell_angle_alpha 77.874540
_cell_angle_beta 142.278890
_cell_angle_gamma 128.705641
_cell_volume 712.402116
_symmetry_space_group_name_H-M "P -1"
_symmetry_group_IT_number 2
_symmetry_cell_setting 'triclinic'
loop_
_space_group_symop_operation_xyz
x,y,z
-x,-y,-z
loop_
_atom_site_type_symbol
_atom_site_label
_atom_site_fract_x
_atom_site_fract_y
_atom_site_fract_z
Si Si1 0.668372 0.192843 0.629144
Si Si2 0.726382 0.453593 0.868045
Si Si3 0.492594 0.543457 0.682407
Si Si4 0.907790 0.931162 0.216076
Si Si5 0.524898 0.748564 0.211373
Si Si6 0.644549 0.377014 0.331035
Si Si7 0.959365 0.212332 0.069137
Si Si8 0.933893 0.126112 0.735492
O O1 0.764162 0.375035 0.832096
O O2 0.599124 0.205630 0.371527
O O3 0.500000 0.000000 0.500000
O O4 0.812403 0.202229 0.808360
O O5 0.610010 0.475361 0.609646
O O6 0.604827 0.303974 0.848487
O O7 0.933955 0.664735 0.188183
O O8 0.409891 0.340589 0.631587
O O9 0.476926 0.614002 0.783872
O O10 0.713221 0.702127 0.960937
O O11 0.044773 0.983063 0.296236
O O12 0.872767 0.046937 0.090225
O O13 0.000000 0.000000 0.500000
O O14 0.712980 0.981418 0.431150
O O15 0.402677 0.663155 0.899699
O O16 0.860788 0.581584 0.632485
O O17 0.008464 0.179293 0.004665
#
# Coordination Sequence:
#
# PCOD8029944 Si02
#       8
#     2   2   2   2   2   2   2   2
#     4  11  24  48  73  95 132 183 238 278 335 413
#     4  11  25  44  68 104 135 182 233 280 334 416
#     4  11  21  41  65  96 144 180 223 275 338 411
#     4  12  25  41  68 108 141 176 224 283 349 405
#     4  12  24  42  67 102 143 177 219 290 351 394
#     4  11  24  43  66 100 135 176 231 286 340 399
#     4  12  24  44  73  95 134 184 231 279 334 411
#     4  12  25  42  71 102 138 177 233 274 341 410
#
# _framework density 22.459226000000001
#
# number of rings (size 3 to 8) (size 9 to 14) (size 15 to 20)
#    0.000    0.500    3.750    6.750    1.750    0.000 
#    0.000    4.375    0.000    0.000    0.000    0.000 
#    0.000    0.000    0.000    0.000    0.000    0.000 
#
# Total GULP energy -198446.108143 kJ/mol
# GULP energy per Si atom -12402.881759 kJ/mol
# Density = 2.240811 g / cm^3
# Si number density = 22.459226 Si / 1000 Ang^3
#
#
#
# Elastic Constant Matrix: (Units=GPa)
#
#
# Indices 1 2 3 4 5 6 
#
# 1 108.0709 32.3269 45.4027 -14.0196 -2.5961 14.5854
# 2 32.3269 84.3471 29.2456 5.6431 3.9423 4.3162
# 3 45.4027 29.2456 99.0661 20.6297 -9.6771 14.5212
# 4 -14.0196 5.6431 20.6297 42.7114 11.2488 7.8654
# 5 -2.5961 3.9423 -9.6771 11.2488 36.0764 3.5832
# 6 14.5854 4.3162 14.5212 7.8654 3.5832 33.3155
#
#
#
# Elastic Compliance Matrix: (Units=1/GPa)
#
#
# Indices 1 2 3 4 5 6 
#
# 1 0.015929 -0.003569 -0.008278 0.011666 -0.003800 -0.005249
# 2 -0.003569 0.014293 -0.002724 -0.001423 -0.002252 0.001476
# 3 -0.008278 -0.002724 0.018658 -0.013398 0.009080 -0.001969
# 4 0.011666 -0.001423 -0.013398 0.038841 -0.014040 -0.006743
# 5 -0.003800 -0.002252 0.009080 -0.014040 0.034746 -0.002424
# 6 -0.005249 0.001476 -0.001969 -0.006743 -0.002424 0.034834
#
#
# Mechanical properties :
#
#
# Convention : Reuss Voigt Hill
#
# Bulk Modulus (GPa) = 50.66344 56.15941 53.41143
# Shear Modulus (GPa) = 25.90403 34.72124 30.31263
#
# Velocity S-wave (km/s) = 3.39983 3.93615 3.67778
# Velocity P-wave (km/s) = 6.16593 6.76143 6.47054
#
# Compressibility (1/GPa) = 0.01973810
#
# Stress axis : x y z
#
# Youngs Moduli (GPa) = 62.77903 69.96428 53.59714
#
# Poissons Ratio (x) = 0.24970 0.44367
# Poissons Ratio (y) = 0.22406 0.14599
# Poissons Ratio (z) = 0.51968 0.19057
#
# Static dielectric constant tensor:
#      x y z
#    x 5.511820 -0.836030 2.410400 
#    y -0.836030 4.823120 -1.401130 
#    z 2.410400 -1.401130 8.150080 
# 
# 
# High freq. dielectric constant tensor:
#      x y z
#    x 1.896350 0.011780 -0.001200 
#    y 0.011780 1.883560 0.022670 
#    z -0.001200 0.022670 1.872370 
# 
# From -- ./inp_files/333307.got.cif
#   From: 2010.06.25/outbox.cif.g09.slc.cpg/sg2_167_cif.got.tgz:333307.got - 2010.06.27 13:26:56.
