data_PCOD8029328
_publ_section_title
;
Structure prediction by ZEFSAII (Michael W. Deem and Ramdas Pophale) SiO2 
 PCOD8029328
Probable space group: P -1
;
_chemical_formula_sum "Si O2"
_cell_formula_units_Z 16
_cell_length_a 8.602682
_cell_length_b 13.971650
_cell_length_c 13.973209
_cell_angle_alpha 30.868877
_cell_angle_beta 58.234105
_cell_angle_gamma 69.781472
_cell_volume 710.552903
_symmetry_space_group_name_H-M "P -1"
_symmetry_group_IT_number 2
_symmetry_cell_setting 'triclinic'
loop_
_space_group_symop_operation_xyz
x,y,z
-x,-y,-z
loop_
_atom_site_type_symbol
_atom_site_label
_atom_site_fract_x
_atom_site_fract_y
_atom_site_fract_z
Si Si1 0.333452 0.446911 0.883961
Si Si2 0.282280 0.442732 0.591480
Si Si3 0.095848 0.757339 0.414015
Si Si4 0.231205 0.186925 0.294340
Si Si5 0.078218 0.181908 0.050182
Si Si6 0.173752 0.793985 0.578804
Si Si7 0.681113 0.963978 0.416873
Si Si8 0.288280 0.331875 0.479708
O O1 0.253281 0.635765 0.744433
O O2 0.539181 0.480185 0.741689
O O3 0.359844 0.384851 0.038937
O O4 0.196036 0.265415 0.033433
O O5 0.500000 0.500000 0.500000
O O6 0.231117 0.645914 0.410519
O O7 0.239643 0.303276 0.632413
O O8 0.142955 0.330858 0.814985
O O9 0.148272 0.741226 0.521452
O O10 0.885392 0.643577 0.549593
O O11 0.124625 0.978591 0.182113
O O12 0.236831 0.174305 0.418513
O O13 0.024110 0.197232 0.317793
O O14 0.301545 0.007582 0.377963
O O15 0.853792 0.149637 0.177005
O O16 0.630949 0.845399 0.436105
O O17 0.500000 0.000000 0.500000
#
# Coordination Sequence:
#
# PCOD8029328 Si02
#       8
#     2   2   2   2   2   2   2   2
#     4  12  23  41  71 101 138 186 240 283 351 420
#     4  12  25  47  77 103 136 184 243 296 350 426
#     4  11  23  45  71  98 143 179 227 302 356 408
#     4  11  22  40  66  99 138 188 237 278 347 422
#     4  11  23  45  74 102 137 187 235 283 359 420
#     4  11  20  40  66  97 135 184 231 291 336 420
#     4  11  25  45  69 107 152 186 232 293 353 425
#     4  11  25  46  64 108 145 177 240 299 347 420
#
# _framework density 22.517676999999999
#
# number of rings (size 3 to 8) (size 9 to 14) (size 15 to 20)
#    0.000    0.750    6.250    2.250    0.000    5.000 
#    0.000    0.000    0.000    0.000    0.000    0.000 
#    0.000    0.000    0.000    0.000    0.000    0.000 
#
# Total GULP energy -198247.321482 kJ/mol
# GULP energy per Si atom -12390.457593 kJ/mol
# Density = 2.246643 g / cm^3
# Si number density = 22.517677 Si / 1000 Ang^3
#
#
#
# Elastic Constant Matrix: (Units=GPa)
#
#
# Indices 1 2 3 4 5 6 
#
# 1 70.8286 47.5879 36.4426 -8.6218 -10.0579 -7.4862
# 2 47.5879 133.0096 30.8412 -6.8938 -2.5031 -0.9540
# 3 36.4426 30.8412 107.5364 6.4752 0.1095 -7.7218
# 4 -8.6218 -6.8938 6.4752 40.8811 -3.5310 7.9512
# 5 -10.0579 -2.5031 0.1095 -3.5310 41.6964 1.2683
# 6 -7.4862 -0.9540 -7.7218 7.9512 1.2683 49.6698
#
#
#
# Elastic Compliance Matrix: (Units=1/GPa)
#
#
# Indices 1 2 3 4 5 6 
#
# 1 0.023242 -0.006500 -0.006212 0.004988 0.005610 0.001471
# 2 -0.006500 0.010029 -0.000776 0.000556 -0.000887 -0.000974
# 3 -0.006212 -0.000776 0.011971 -0.003811 -0.001947 0.001570
# 4 0.004988 0.000556 -0.003811 0.027367 0.003695 -0.004305
# 5 0.005610 -0.000887 -0.001947 0.003695 0.025623 -0.000720
# 6 0.001471 -0.000974 0.001570 -0.004305 -0.000720 0.021287
#
#
# Mechanical properties :
#
#
# Convention : Reuss Voigt Hill
#
# Bulk Modulus (GPa) = 54.75121 60.12422 57.43771
# Shear Modulus (GPa) = 32.76874 39.54966 36.15920
#
# Velocity S-wave (km/s) = 3.81891 4.19547 4.01161
# Velocity P-wave (km/s) = 6.61913 7.08718 6.85715
#
# Compressibility (1/GPa) = 0.01826444
#
# Stress axis : x y z
#
# Youngs Moduli (GPa) = 43.02632 99.71138 83.53387
#
# Poissons Ratio (x) = 0.64814 0.51895
# Poissons Ratio (y) = 0.27968 0.06482
# Poissons Ratio (z) = 0.26730 0.07737
#
# Static dielectric constant tensor:
#      x y z
#    x 4.179250 0.032520 -0.044570 
#    y 0.032520 4.163950 -0.057650 
#    z -0.044570 -0.057650 3.983280 
# 
# 
# High freq. dielectric constant tensor:
#      x y z
#    x 1.891960 0.003670 -0.003750 
#    y 0.003670 1.894390 -0.000460 
#    z -0.003750 -0.000460 1.871290 
# 
# From -- ./inp_files/503555.got.cif
#   From: 2010.06.25/outbox.cif.g09.slc.cpg/sg2_252_cif.got.tgz:503555.got - 2010.06.27 13:26:56.
