data_PCOD8029045
_publ_section_title
;
Structure prediction by ZEFSAII (Michael W. Deem and Ramdas Pophale) SiO2 
 PCOD8029045
Probable space group: P -1
;
_chemical_formula_sum "Si O2"
_cell_formula_units_Z 16
_cell_length_a 12.177382
_cell_length_b 12.136066
_cell_length_c 18.926861
_cell_angle_alpha 43.176826
_cell_angle_beta 27.929886
_cell_angle_gamma 62.361537
_cell_volume 740.943683
_symmetry_space_group_name_H-M "P -1"
_symmetry_group_IT_number 2
_symmetry_cell_setting 'triclinic'
loop_
_space_group_symop_operation_xyz
x,y,z
-x,-y,-z
loop_
_atom_site_type_symbol
_atom_site_label
_atom_site_fract_x
_atom_site_fract_y
_atom_site_fract_z
Si Si1 0.667018 0.839550 0.074996
Si Si2 0.157123 0.147379 0.409182
Si Si3 0.223093 0.370746 0.766862
Si Si4 0.235874 0.196223 0.118766
Si Si5 0.147257 0.681847 0.665624
Si Si6 0.724895 0.195097 0.914601
Si Si7 0.920699 0.388954 0.424699
Si Si8 0.377549 0.902928 0.831023
O O1 0.750842 0.760544 0.129900
O O2 0.336247 0.756877 0.309235
O O3 0.732513 0.768842 0.999265
O O4 0.823771 0.076441 0.868789
O O5 0.155769 0.339189 0.318192
O O6 0.487083 0.224517 0.193499
O O7 0.000000 0.000000 0.500000
O O8 0.998933 0.028269 0.625433
O O9 0.500000 0.500000 0.500000
O O10 0.168192 0.518842 0.770975
O O11 0.947493 0.214256 0.951346
O O12 0.134161 0.328329 0.147698
O O13 0.530690 0.248897 0.959314
O O14 0.153542 0.621512 0.609883
O O15 0.430843 0.897832 0.415760
O O16 0.982769 0.398554 0.702963
O O17 0.577533 0.045860 0.134823
#
# Coordination Sequence:
#
# PCOD8029045 Si02
#       8
#     2   2   2   2   2   2   2   2
#     4  12  26  46  60  98 143 181 213 276 341 394
#     4  11  19  40  68 100 135 170 218 280 335 397
#     4  12  25  44  70  98 133 178 232 277 319 404
#     4  11  24  43  68  95 144 173 211 283 345 400
#     4  11  22  43  66 103 126 173 227 274 329 393
#     4  12  22  39  69  99 129 175 222 276 336 390
#     4  12  22  39  70 102 130 170 233 277 331 395
#     4  11  21  39  70 101 129 172 222 283 333 379
#
# _framework density 21.594083999999999
#
# number of rings (size 3 to 8) (size 9 to 14) (size 15 to 20)
#    0.000    0.500    8.750    0.375    1.750    5.000 
#    0.000    2.500    0.000    0.000    0.000    0.000 
#    0.000    0.000    0.000    0.000    0.000    0.000 
#
# Total GULP energy -198236.671880 kJ/mol
# GULP energy per Si atom -12389.791992 kJ/mol
# Density = 2.154493 g / cm^3
# Si number density = 21.594084 Si / 1000 Ang^3
#
#
#
# Elastic Constant Matrix: (Units=GPa)
#
#
# Indices 1 2 3 4 5 6 
#
# 1 101.0635 44.2383 46.7952 10.5584 -5.2369 -8.7454
# 2 44.2383 146.9629 40.0791 -10.8230 2.6017 -18.5553
# 3 46.7952 40.0791 66.5961 5.8100 -7.8005 7.0977
# 4 10.5584 -10.8230 5.8100 32.0503 0.5034 6.0862
# 5 -5.2369 2.6017 -7.8005 0.5034 26.7738 5.8827
# 6 -8.7454 -18.5553 7.0977 6.0862 5.8827 40.3613
#
#
#
# Elastic Compliance Matrix: (Units=1/GPa)
#
#
# Indices 1 2 3 4 5 6 
#
# 1 0.016699 -0.001671 -0.010996 -0.005139 -0.000929 0.005694
# 2 -0.001671 0.010117 -0.006376 0.004161 -0.004439 0.005430
# 3 -0.010996 -0.006376 0.029078 -0.001758 0.009511 -0.011548
# 4 -0.005139 0.004161 -0.001758 0.035400 -0.001713 -0.003980
# 5 -0.000929 -0.004439 0.009511 -0.001713 0.042569 -0.009861
# 6 0.005694 0.005430 -0.011548 -0.003980 -0.009861 0.032574
#
#
# Mechanical properties :
#
#
# Convention : Reuss Voigt Hill
#
# Bulk Modulus (GPa) = 56.15408 64.09417 60.12413
# Shear Modulus (GPa) = 23.75764 32.07110 27.91437
#
# Velocity S-wave (km/s) = 3.32051 3.85798 3.59929
# Velocity P-wave (km/s) = 6.38451 7.04210 6.72135
#
# Compressibility (1/GPa) = 0.01780815
#
# Stress axis : x y z
#
# Youngs Moduli (GPa) = 59.88414 98.84475 34.39074
#
# Poissons Ratio (x) = 0.16518 0.37814
# Poissons Ratio (y) = 0.10007 0.21928
# Poissons Ratio (z) = 0.65846 0.63023
#
# Static dielectric constant tensor:
#      x y z
#    x 3.785890 -0.347890 0.068470 
#    y -0.347890 4.110690 0.056670 
#    z 0.068470 0.056670 3.808240 
# 
# 
# High freq. dielectric constant tensor:
#      x y z
#    x 1.823670 -0.025930 -0.001270 
#    y -0.025930 1.860310 -0.003750 
#    z -0.001270 -0.003750 1.836060 
# 
# From -- ./inp_files/568654.got.cif
#   From: 2010.06.25/outbox.cif.g09.slc.cpg/sg2_285_cif.got.tgz:568654.got - 2010.06.27 13:26:56.
