data_PCOD8029344
_publ_section_title
;
Structure prediction by ZEFSAII (Michael W. Deem and Ramdas Pophale) SiO2 
 PCOD8029344
Probable space group: P -1
;
_chemical_formula_sum "Si O2"
_cell_formula_units_Z 12
_cell_length_a 8.697945
_cell_length_b 7.522201
_cell_length_c 13.739641
_cell_angle_alpha 145.207647
_cell_angle_beta 110.807965
_cell_angle_gamma 64.377545
_cell_volume 462.504603
_symmetry_space_group_name_H-M "P -1"
_symmetry_group_IT_number 2
_symmetry_cell_setting 'triclinic'
loop_
_space_group_symop_operation_xyz
x,y,z
-x,-y,-z
loop_
_atom_site_type_symbol
_atom_site_label
_atom_site_fract_x
_atom_site_fract_y
_atom_site_fract_z
Si Si1 0.232176 0.358415 0.952795
Si Si2 0.275619 0.288466 0.450849
Si Si3 0.452915 0.220774 0.267962
Si Si4 0.232197 0.767842 0.952831
Si Si5 0.950952 0.111003 0.224314
Si Si6 0.547109 0.369871 0.732083
O O1 0.173803 0.641598 0.985665
O O2 0.377138 0.065807 0.807298
O O3 0.070788 0.225813 0.888080
O O4 0.307525 0.486975 0.122774
O O5 0.388087 0.379086 0.429368
O O6 0.196357 0.605464 0.635774
O O7 0.136129 0.136527 0.303034
O O8 0.388061 0.020855 0.429311
O O9 0.514162 0.503470 0.673703
O O10 0.307536 0.073861 0.122833
O O11 0.070818 0.867709 0.888122
O O12 0.377169 0.479018 0.807346
#
# Coordination Sequence:
#
# PCOD8029344 Si02
#       6
#     2   2   2   2   2   2
#     4  11  20  40  68  93 120 157 206 254 299 355
#     4  11  26  43  58  90 132 159 196 257 308 352
#     4  11  20  40  68  93 120 157 206 254 299 355
#     4  11  20  40  68  93 120 157 206 254 299 355
#     4  11  26  43  58  90 132 159 196 257 308 352
#     4  11  20  40  68  93 120 157 206 254 299 355
#
# _framework density 25.945687
#
# number of rings (size 3 to 8) (size 9 to 14) (size 15 to 20)
#    0.000    1.000    6.667    2.000    0.000    5.333 
#    0.000    3.333    0.000    0.000    0.000    0.000 
#    0.000    0.000    0.000    0.000    0.000    0.000 
#
# Total GULP energy -148902.443762 kJ/mol
# GULP energy per Si atom -12408.536980 kJ/mol
# Density = 2.588663 g / cm^3
# Si number density = 25.945687 Si / 1000 Ang^3
#
#
#
# Elastic Constant Matrix: (Units=GPa)
#
#
# Indices 1 2 3 4 5 6 
#
# 1 89.1454 56.7377 27.2720 -9.8435 18.8276 30.3943
# 2 56.7377 193.3360 51.0920 -3.3037 2.9687 30.9607
# 3 27.2720 51.0920 60.6893 8.8247 -23.9809 12.8623
# 4 -9.8435 -3.3037 8.8247 44.7451 -6.0102 3.4605
# 5 18.8276 2.9687 -23.9809 -6.0102 53.4488 -8.6964
# 6 30.3943 30.9607 12.8623 3.4605 -8.6964 41.7325
#
#
#
# Elastic Compliance Matrix: (Units=1/GPa)
#
#
# Indices 1 2 3 4 5 6 
#
# 1 0.029318 0.000069 -0.018396 0.008877 -0.020978 -0.020842
# 2 0.000069 0.008118 -0.007960 0.001933 -0.004600 -0.004738
# 3 -0.018396 -0.007960 0.040435 -0.010123 0.026059 0.013110
# 4 0.008877 0.001933 -0.010123 0.026250 -0.006165 -0.008241
# 5 -0.020978 -0.004600 0.026059 -0.006165 0.040545 0.019620
# 6 -0.020842 -0.004738 0.013110 -0.008241 0.019620 0.043388
#
#
# Mechanical properties :
#
#
# Convention : Reuss Voigt Hill
#
# Bulk Modulus (GPa) = 39.52789 68.15268 53.84028
# Shear Modulus (GPa) = 20.07545 41.85655 30.96600
#
# Velocity S-wave (km/s) = 2.78465 4.02087 3.45845
# Velocity P-wave (km/s) = 5.06033 6.91961 6.06168
#
# Compressibility (1/GPa) = 0.02529860
#
# Stress axis : x y z
#
# Youngs Moduli (GPa) = 34.10841 123.18158 24.73098
#
# Poissons Ratio (x) = -0.00847 0.45494
# Poissons Ratio (y) = -0.00234 0.19685
# Poissons Ratio (z) = 0.62744 0.98049
#
# Static dielectric constant tensor:
#      x y z
#    x 4.894690 -0.026340 0.003180 
#    y -0.026340 4.848470 0.000480 
#    z 0.003180 0.000480 4.908000 
# 
# 
# High freq. dielectric constant tensor:
#      x y z
#    x 2.066700 -0.011520 0.000330 
#    y -0.011520 2.046770 0.000680 
#    z 0.000330 0.000680 2.072150 
# 
# From -- ./inp_files/494181.got.cif
#   From: 2010.06.25/outbox.cif.g09.slc.cpg/sg2_248_cif.got.tgz:494181.got - 2010.06.27 13:26:56.
