data_PCOD8029864
_publ_section_title
;
Structure prediction by ZEFSAII (Michael W. Deem and Ramdas Pophale) SiO2 
 PCOD8029864
Probable space group: P -1
;
_chemical_formula_sum "Si O2"
_cell_formula_units_Z 16
_cell_length_a 9.286099
_cell_length_b 9.024172
_cell_length_c 24.325171
_cell_angle_alpha 41.847190
_cell_angle_beta 131.506361
_cell_angle_gamma 98.574360
_cell_volume 737.461934
_symmetry_space_group_name_H-M "P -1"
_symmetry_group_IT_number 2
_symmetry_cell_setting 'triclinic'
loop_
_space_group_symop_operation_xyz
x,y,z
-x,-y,-z
loop_
_atom_site_type_symbol
_atom_site_label
_atom_site_fract_x
_atom_site_fract_y
_atom_site_fract_z
Si Si1 0.055086 0.333865 0.648826
Si Si2 0.099713 0.705709 0.639125
Si Si3 0.673130 0.076646 0.520464
Si Si4 0.737305 0.234904 0.798959
Si Si5 0.213887 0.320376 0.151621
Si Si6 0.386166 0.166414 0.682161
Si Si7 0.238915 0.844766 0.356292
Si Si8 0.292451 0.732646 0.095639
O O1 0.033066 0.542259 0.631151
O O2 0.328594 0.127869 0.740423
O O3 0.849035 0.522083 0.494367
O O4 0.007399 0.131837 0.720925
O O5 0.414166 0.459545 0.801618
O O6 0.000000 0.000000 0.500000
O O7 0.940313 0.822743 0.623350
O O8 0.474947 0.401224 0.350865
O O9 0.753337 0.098068 0.594111
O O10 0.500000 0.000000 0.500000
O O11 0.634490 0.138383 0.755921
O O12 0.725977 0.146347 0.882186
O O13 0.046380 0.047980 0.912755
O O14 0.208441 0.537576 0.130039
O O15 0.502682 0.114480 0.251717
O O16 0.191776 0.108183 0.238394
O O17 0.000000 0.500000 0.000000
O O18 0.500000 0.500000 0.500000
#
# Coordination Sequence:
#
# PCOD8029864 Si02
#       8
#     2   2   2   2   2   2   2   2
#     4  11  23  40  69 104 141 174 238 295 350 410
#     4  12  24  42  70 108 143 186 242 292 347 423
#     4  12  25  43  69 105 142 183 238 299 354 413
#     4  11  21  43  67 101 137 191 229 283 352 426
#     4  12  25  44  71  99 136 183 236 287 354 431
#     4  11  21  40  68 101 131 184 231 285 347 417
#     4  12  25  43  69 104 137 183 236 301 355 415
#     4  11  24  40  70 100 142 181 242 281 347 428
#
# _framework density 21.696034999999998
#
# number of rings (size 3 to 8) (size 9 to 14) (size 15 to 20)
#    0.000    0.500    6.250    2.250    3.500    0.000 
#    0.000    1.250    0.000    0.000    0.000    0.000 
#    0.000    0.000    0.000    0.000    0.000    0.000 
#
# Total GULP energy -198213.017998 kJ/mol
# GULP energy per Si atom -12388.313625 kJ/mol
# Density = 2.164665 g / cm^3
# Si number density = 21.696035 Si / 1000 Ang^3
#
#
#
# Elastic Constant Matrix: (Units=GPa)
#
#
# Indices 1 2 3 4 5 6 
#
# 1 119.8058 52.3997 44.2316 -3.2150 19.5378 -10.1385
# 2 52.3997 130.7211 23.6019 4.4197 0.4461 -0.9453
# 3 44.2316 23.6019 99.4902 7.1974 22.2769 -0.6565
# 4 -3.2150 4.4197 7.1974 30.8031 -0.0320 5.6445
# 5 19.5378 0.4461 22.2769 -0.0320 38.1255 -3.0353
# 6 -10.1385 -0.9453 -0.6565 5.6445 -3.0353 43.6428
#
#
#
# Elastic Compliance Matrix: (Units=1/GPa)
#
#
# Indices 1 2 3 4 5 6 
#
# 1 0.012585 -0.004408 -0.003817 0.002435 -0.003992 0.002178
# 2 -0.004408 0.009599 -0.000781 -0.001570 0.002566 -0.000446
# 3 -0.003817 -0.000781 0.013510 -0.003323 -0.005986 -0.000687
# 4 0.002435 -0.001570 -0.003323 0.034443 0.000427 -0.003943
# 5 -0.003992 0.002566 -0.005986 0.000427 0.031838 0.001197
# 6 0.002178 -0.000446 -0.000687 -0.003943 0.001197 0.023993
#
#
# Mechanical properties :
#
#
# Convention : Reuss Voigt Hill
#
# Bulk Modulus (GPa) = 56.56055 65.60928 61.08491
# Shear Modulus (GPa) = 33.36114 37.83320 35.59717
#
# Velocity S-wave (km/s) = 3.92556 4.18039 4.05498
# Velocity P-wave (km/s) = 6.83175 7.32167 7.08095
#
# Compressibility (1/GPa) = 0.01768017
#
# Stress axis : x y z
#
# Youngs Moduli (GPa) = 79.46044 104.17573 74.02009
#
# Poissons Ratio (x) = 0.45925 0.28255
# Poissons Ratio (y) = 0.35029 0.05783
# Poissons Ratio (z) = 0.30331 0.08139
#
# Static dielectric constant tensor:
#      x y z
#    x 4.191790 -0.001710 0.262710 
#    y -0.001710 4.078680 0.062950 
#    z 0.262710 0.062950 3.962690 
# 
# 
# High freq. dielectric constant tensor:
#      x y z
#    x 1.839940 -0.010190 0.023060 
#    y -0.010190 1.878910 0.001280 
#    z 0.023060 0.001280 1.839880 
# 
# From -- ./inp_files/381457.got.cif
#   From: 2010.06.25/outbox.cif.g09.slc.cpg/sg2_191_cif.got.tgz:381457.got - 2010.06.27 13:26:56.
