data_PCOD8029455
_publ_section_title
;
Structure prediction by ZEFSAII (Michael W. Deem and Ramdas Pophale) SiO2 
 PCOD8029455
Probable space group: P -1
;
_chemical_formula_sum "Si O2"
_cell_formula_units_Z 16
_cell_length_a 11.224596
_cell_length_b 17.151361
_cell_length_c 9.376744
_cell_angle_alpha 114.088571
_cell_angle_beta 141.532202
_cell_angle_gamma 44.026081
_cell_volume 728.685364
_symmetry_space_group_name_H-M "P -1"
_symmetry_group_IT_number 2
_symmetry_cell_setting 'triclinic'
loop_
_space_group_symop_operation_xyz
x,y,z
-x,-y,-z
loop_
_atom_site_type_symbol
_atom_site_label
_atom_site_fract_x
_atom_site_fract_y
_atom_site_fract_z
Si Si1 0.444596 0.999346 0.719153
Si Si2 0.776448 0.404955 0.949983
Si Si3 0.895237 0.444072 0.804502
Si Si4 0.257088 0.505573 0.614150
Si Si5 0.210244 0.331628 0.507453
Si Si6 0.032266 0.831501 0.138124
Si Si7 0.738379 0.083461 0.719341
Si Si8 0.217103 0.180354 0.865587
O O1 0.465934 0.188025 0.632168
O O2 0.263730 0.133494 0.712262
O O3 0.285661 0.998655 0.446882
O O4 0.514003 0.914259 0.854656
O O5 0.718263 0.457808 0.775538
O O6 0.506310 0.494005 0.861719
O O7 0.858703 0.280021 0.937912
O O8 0.019009 0.383683 0.228224
O O9 0.727424 0.513543 0.556292
O O10 0.139978 0.303775 0.887079
O O11 0.000000 0.500000 0.000000
O O12 0.308045 0.398936 0.660398
O O13 0.975418 0.633679 0.502774
O O14 0.223870 0.853044 0.314711
O O15 0.017890 0.805098 0.270749
O O16 0.726331 0.948521 0.882777
O O17 0.000000 0.000000 0.000000
#
# Coordination Sequence:
#
# PCOD8029455 Si02
#       8
#     2   2   2   2   2   2   2   2
#     4   9  19  42  64  88 128 169 215 268 324 387
#     4  11  20  42  68  91 126 177 218 260 333 393
#     4  11  21  38  67 103 133 165 217 280 326 389
#     4  11  24  39  66  94 133 169 219 268 326 392
#     4  11  23  44  61  93 133 174 215 272 325 391
#     4   9  19  37  63  90 122 166 215 261 322 392
#     4  12  24  39  65  96 125 175 225 266 328 393
#     4   8  19  40  64  94 128 171 212 267 339 377
#
# _framework density 21.957352
#
# number of rings (size 3 to 8) (size 9 to 14) (size 15 to 20)
#    0.750    1.000    3.750    0.750    0.000    2.000 
#    2.250    0.000    5.500    0.000    0.000    0.000 
#    0.000    0.000    0.000    0.000    0.000    0.000 
#
# Total GULP energy -198258.996822 kJ/mol
# GULP energy per Si atom -12391.187301 kJ/mol
# Density = 2.190738 g / cm^3
# Si number density = 21.957352 Si / 1000 Ang^3
#
#
#
# Elastic Constant Matrix: (Units=GPa)
#
#
# Indices 1 2 3 4 5 6 
#
# 1 127.7825 44.2480 29.7198 3.5348 14.6183 -27.0212
# 2 44.2480 109.3534 15.7937 13.0667 7.8732 -21.5619
# 3 29.7198 15.7937 61.7072 1.2958 6.3033 -19.0907
# 4 3.5348 13.0667 1.2958 27.0100 -0.2851 -3.9803
# 5 14.6183 7.8732 6.3033 -0.2851 30.6807 3.0405
# 6 -27.0212 -21.5619 -19.0907 -3.9803 3.0405 27.3313
#
#
#
# Elastic Compliance Matrix: (Units=1/GPa)
#
#
# Indices 1 2 3 4 5 6 
#
# 1 0.011558 -0.002355 -0.001569 0.001004 -0.005485 0.009229
# 2 -0.002355 0.012227 0.000716 -0.004570 -0.002946 0.007480
# 3 -0.001569 0.000716 0.021992 0.000975 -0.005444 0.015122
# 4 0.001004 -0.004570 0.000975 0.039619 0.000487 0.003784
# 5 -0.005485 -0.002946 -0.005444 0.000487 0.038650 -0.015778
# 6 0.009229 0.007480 0.015122 0.003784 -0.015778 0.064482
#
#
# Mechanical properties :
#
#
# Convention : Reuss Voigt Hill
#
# Bulk Modulus (GPa) = 25.40667 53.15180 39.27923
# Shear Modulus (GPa) = 24.03090 30.94319 27.48705
#
# Velocity S-wave (km/s) = 3.31181 3.75806 3.54197
# Velocity P-wave (km/s) = 5.12057 6.56430 5.88686
#
# Compressibility (1/GPa) = 0.03935974
#
# Stress axis : x y z
#
# Youngs Moduli (GPa) = 86.52300 81.78357 45.47057
#
# Poissons Ratio (x) = 0.19263 0.07136
# Poissons Ratio (y) = 0.20379 -0.03255
# Poissons Ratio (z) = 0.13578 -0.05855
#
# Static dielectric constant tensor:
#      x y z
#    x 4.142120 -0.178910 0.065780 
#    y -0.178910 3.813690 0.042220 
#    z 0.065780 0.042220 3.663630 
# 
# 
# High freq. dielectric constant tensor:
#      x y z
#    x 1.869180 -0.010330 0.001020 
#    y -0.010330 1.855680 0.006770 
#    z 0.001020 0.006770 1.834150 
# 
# From -- ./inp_files/273926.got.cif
#   From: 2010.06.25/outbox.cif.g09.slc.cpg/sg2_137_cif.got.tgz:273926.got - 2010.06.27 13:26:56.
