data_PCOD8029017
_publ_section_title
;
Structure prediction by ZEFSAII (Michael W. Deem and Ramdas Pophale) SiO2 
 PCOD8029017
Probable space group: P -1
;
_chemical_formula_sum "Si O2"
_cell_formula_units_Z 16
_cell_length_a 13.117149
_cell_length_b 9.455017
_cell_length_c 10.696289
_cell_angle_alpha 75.325923
_cell_angle_beta 144.251090
_cell_angle_gamma 95.372043
_cell_volume 734.895657
_symmetry_space_group_name_H-M "P -1"
_symmetry_group_IT_number 2
_symmetry_cell_setting 'triclinic'
loop_
_space_group_symop_operation_xyz
x,y,z
-x,-y,-z
loop_
_atom_site_type_symbol
_atom_site_label
_atom_site_fract_x
_atom_site_fract_y
_atom_site_fract_z
Si Si1 0.969386 0.944787 0.625160
Si Si2 0.817635 0.666576 0.551616
Si Si3 0.296621 0.784796 0.656119
Si Si4 0.686343 0.078125 0.876319
Si Si5 0.636580 0.757009 0.845353
Si Si6 0.504022 0.166582 0.927645
Si Si7 0.558230 0.657900 0.526993
Si Si8 0.000077 0.597943 0.356605
O O1 0.963977 0.771278 0.672899
O O2 0.111677 0.970959 0.865547
O O3 0.000000 0.000000 0.500000
O O4 0.779197 0.036649 0.464131
O O5 0.690458 0.728330 0.293722
O O6 0.706840 0.667697 0.568255
O O7 0.922508 0.500520 0.664098
O O8 0.450580 0.729091 0.722164
O O9 0.126811 0.712798 0.483619
O O10 0.379149 0.750806 0.883957
O O11 0.580854 0.158419 0.869797
O O12 0.624126 0.213028 0.685414
O O13 0.624777 0.934478 0.790367
O O14 0.659944 0.680239 0.751237
O O15 0.800703 0.684109 0.112176
O O16 0.500000 0.000000 0.000000
O O17 0.500000 0.500000 0.500000
O O18 0.000000 0.500000 0.500000
#
# Coordination Sequence:
#
# PCOD8029017 Si02
#       8
#     2   2   2   2   2   2   2   2
#     4  12  22  41  74 111 143 177 231 292 356 431
#     4  11  25  44  68 103 137 189 237 282 360 417
#     4  12  23  42  70 102 141 183 229 281 361 415
#     4  11  23  42  71 103 136 179 234 290 347 410
#     4  12  26  47  72  98 142 188 235 299 341 413
#     4  11  19  38  71  99 136 177 224 285 350 421
#     4  11  27  50  71  95 137 193 247 290 343 414
#     4  12  28  43  67 110 148 176 230 292 364 427
#
# _framework density 21.771799999999999
#
# number of rings (size 3 to 8) (size 9 to 14) (size 15 to 20)
#    0.000    0.500    5.000    3.375    1.750    3.500 
#    2.250    1.250    0.000    0.000    0.000    0.000 
#    0.000    0.000    0.000    0.000    0.000    0.000 
#
# Total GULP energy -198306.629390 kJ/mol
# GULP energy per Si atom -12394.164337 kJ/mol
# Density = 2.172225 g / cm^3
# Si number density = 21.771800 Si / 1000 Ang^3
#
#
#
# Elastic Constant Matrix: (Units=GPa)
#
#
# Indices 1 2 3 4 5 6 
#
# 1 93.7682 43.5412 37.8684 5.0270 2.7385 -4.2437
# 2 43.5412 86.8064 29.3150 3.9685 -15.4789 1.3211
# 3 37.8684 29.3150 116.7657 3.8581 1.4535 6.2160
# 4 5.0270 3.9685 3.8581 41.9885 -5.9352 1.2112
# 5 2.7385 -15.4789 1.4535 -5.9352 33.2941 0.8981
# 6 -4.2437 1.3211 6.2160 1.2112 0.8981 35.5902
#
#
#
# Elastic Compliance Matrix: (Units=1/GPa)
#
#
# Indices 1 2 3 4 5 6 
#
# 1 0.015982 -0.007808 -0.003260 -0.001694 -0.005184 0.002953
# 2 -0.007808 0.017722 -0.001977 0.000778 0.009147 -0.001501
# 3 -0.003260 -0.001977 0.010257 -0.000465 -0.001126 -0.002062
# 4 -0.001694 0.000778 -0.000465 0.024721 0.004958 -0.001116
# 5 -0.005184 0.009147 -0.001126 0.004958 0.035697 -0.001831
# 6 0.002953 -0.001501 -0.002062 -0.001116 -0.001831 0.028950
#
#
# Mechanical properties :
#
#
# Convention : Reuss Voigt Hill
#
# Bulk Modulus (GPa) = 55.95116 57.64327 56.79722
# Shear Modulus (GPa) = 30.23433 34.61562 32.42498
#
# Velocity S-wave (km/s) = 3.73056 3.99172 3.86335
# Velocity P-wave (km/s) = 6.65664 6.91221 6.78563
#
# Compressibility (1/GPa) = 0.01787273
#
# Stress axis : x y z
#
# Youngs Moduli (GPa) = 62.56875 56.42708 97.49602
#
# Poissons Ratio (x) = 0.44056 0.31782
# Poissons Ratio (y) = 0.48851 0.19273
# Poissons Ratio (z) = 0.20396 0.11155
#
# Static dielectric constant tensor:
#      x y z
#    x 3.995050 0.008380 -0.221480 
#    y 0.008380 4.088950 -0.217540 
#    z -0.221480 -0.217540 4.842220 
# 
# 
# High freq. dielectric constant tensor:
#      x y z
#    x 1.841680 -0.011190 0.007670 
#    y -0.011190 1.863380 0.002030 
#    z 0.007670 0.002030 1.871810 
# 
# From -- ./inp_files/447266.got.cif
#   From: 2010.06.25/outbox.cif.g09.slc.cpg/sg2_224_cif.got.tgz:447266.got - 2010.06.27 13:26:56.
