data_PCOD8029557
_publ_section_title
;
Structure prediction by ZEFSAII (Michael W. Deem and Ramdas Pophale) SiO2 
 PCOD8029557
Probable space group: P -1
;
_chemical_formula_sum "Si O2"
_cell_formula_units_Z 16
_cell_length_a 17.398907
_cell_length_b 19.861507
_cell_length_c 11.742941
_cell_angle_alpha 137.436413
_cell_angle_beta 147.458587
_cell_angle_gamma 21.697175
_cell_volume 784.378740
_symmetry_space_group_name_H-M "P -1"
_symmetry_group_IT_number 2
_symmetry_cell_setting 'triclinic'
loop_
_space_group_symop_operation_xyz
x,y,z
-x,-y,-z
loop_
_atom_site_type_symbol
_atom_site_label
_atom_site_fract_x
_atom_site_fract_y
_atom_site_fract_z
Si Si1 0.280598 0.889920 0.229621
Si Si2 0.734730 0.110342 0.528996
Si Si3 0.079706 0.081628 0.847443
Si Si4 0.783482 0.883910 0.719937
Si Si5 0.203078 0.466180 0.180251
Si Si6 0.538046 0.657738 0.875020
Si Si7 0.207813 0.468513 0.720075
Si Si8 0.129136 0.734788 0.426177
O O1 0.344590 0.867708 0.413957
O O2 0.549104 0.680378 0.252350
O O3 0.225322 0.024998 0.268370
O O4 0.000000 0.000000 0.000000
O O5 0.477657 0.264060 0.321163
O O6 0.868186 0.140220 0.726337
O O7 0.924697 0.910988 0.473171
O O8 0.952182 0.211008 0.740519
O O9 0.309933 0.872851 0.829205
O O10 0.187626 0.100201 0.092802
O O11 0.034085 0.668508 0.727177
O O12 0.500000 0.000000 0.500000
O O13 0.220855 0.465846 0.065650
O O14 0.131633 0.618769 0.327696
O O15 0.000000 0.500000 0.000000
O O16 0.420971 0.615048 0.657328
O O17 0.648134 0.608938 0.076196
O O18 0.000000 0.500000 0.500000
#
# Coordination Sequence:
#
# PCOD8029557 Si02
#       8
#     2   2   2   2   2   2   2   2
#     4  12  25  46  67 100 143 176 227 291 339 403
#     4  11  24  44  67  99 135 170 223 284 339 396
#     4  11  20  45  75  96 130 177 232 280 329 409
#     4  12  25  45  71 102 135 186 231 279 349 410
#     4  12  27  41  63 105 138 169 218 281 345 399
#     4  11  21  44  73  97 132 176 232 276 330 412
#     4  12  26  45  72 103 137 186 235 282 342 412
#     4  11  23  44  73  97 127 183 225 273 338 405
#
# _framework density 20.398308
#
# number of rings (size 3 to 8) (size 9 to 14) (size 15 to 20)
#    0.000    0.500    6.250    2.625    3.500    3.000 
#    2.250    0.000    0.000    0.000    0.000    0.000 
#    0.000    0.000    0.000    0.000    0.000    0.000 
#
# Total GULP energy -198399.382669 kJ/mol
# GULP energy per Si atom -12399.961417 kJ/mol
# Density = 2.035188 g / cm^3
# Si number density = 20.398308 Si / 1000 Ang^3
#
#
#
# Elastic Constant Matrix: (Units=GPa)
#
#
# Indices 1 2 3 4 5 6 
#
# 1 130.1121 48.5986 62.9315 9.5589 0.7381 -15.6721
# 2 48.5986 90.8927 24.9999 -2.2262 26.8005 -13.7704
# 3 62.9315 24.9999 132.5657 2.8780 15.8557 -11.6396
# 4 9.5589 -2.2262 2.8780 32.0591 0.6060 1.6415
# 5 0.7381 26.8005 15.8557 0.6060 45.9346 6.3126
# 6 -15.6721 -13.7704 -11.6396 1.6415 6.3126 36.2908
#
#
#
# Elastic Compliance Matrix: (Units=1/GPa)
#
#
# Indices 1 2 3 4 5 6 
#
# 1 0.013537 -0.007564 -0.005619 -0.004188 0.006150 0.000293
# 2 -0.007564 0.019409 0.001998 0.003317 -0.012874 0.006828
# 3 -0.005619 0.001998 0.010657 0.000821 -0.005123 0.002604
# 4 -0.004188 0.003317 0.000821 0.032712 -0.002398 -0.001349
# 5 0.006150 -0.012874 -0.005123 -0.002398 0.032271 -0.009377
# 6 0.000293 0.006828 0.002604 -0.001349 -0.009377 0.032800
#
#
# Mechanical properties :
#
#
# Convention : Reuss Voigt Hill
#
# Bulk Modulus (GPa) = 47.09558 69.62560 58.36059
# Shear Modulus (GPa) = 29.26837 37.32627 33.29732
#
# Velocity S-wave (km/s) = 3.79204 4.28234 4.04463
# Velocity P-wave (km/s) = 6.50468 7.65888 7.10525
#
# Compressibility (1/GPa) = 0.02123341
#
# Stress axis : x y z
#
# Youngs Moduli (GPa) = 73.87401 51.52379 93.83156
#
# Poissons Ratio (x) = 0.38972 0.52719
# Poissons Ratio (y) = 0.55878 -0.18747
# Poissons Ratio (z) = 0.41506 -0.10294
#
# Static dielectric constant tensor:
#      x y z
#    x 3.524410 0.077900 -0.208160 
#    y 0.077900 3.974380 0.036960 
#    z -0.208160 0.036960 3.638700 
# 
# 
# High freq. dielectric constant tensor:
#      x y z
#    x 1.796720 0.001110 -0.007310 
#    y 0.001110 1.814650 -0.002780 
#    z -0.007310 -0.002780 1.806280 
# 
# From -- ./inp_files/186366.got.cif
#   From: 2010.06.25/outbox.cif.g09.slc.cpg/sg2_94_cif.got.tgz:186366.got - 2010.06.27 13:26:56.
