data_PCOD8029667
_publ_section_title
;
Structure prediction by ZEFSAII (Michael W. Deem and Ramdas Pophale) SiO2 
 PCOD8029667
Probable space group: P -1
;
_chemical_formula_sum "Si O2"
_cell_formula_units_Z 16
_cell_length_a 11.975925
_cell_length_b 8.717944
_cell_length_c 8.599493
_cell_angle_alpha 85.521746
_cell_angle_beta 59.824144
_cell_angle_gamma 72.848267
_cell_volume 738.967630
_symmetry_space_group_name_H-M "P -1"
_symmetry_group_IT_number 2
_symmetry_cell_setting 'triclinic'
loop_
_space_group_symop_operation_xyz
x,y,z
-x,-y,-z
loop_
_atom_site_type_symbol
_atom_site_label
_atom_site_fract_x
_atom_site_fract_y
_atom_site_fract_z
Si Si1 0.785273 0.060635 0.268146
Si Si2 0.455013 0.736193 0.409825
Si Si3 0.625627 0.396448 0.821587
Si Si4 0.483672 0.030943 0.192243
Si Si5 0.250097 0.921862 0.038061
Si Si6 0.873546 0.467186 0.508944
Si Si7 0.995383 0.107009 0.346431
Si Si8 0.308630 0.242741 0.544565
O O1 0.669264 0.222012 0.387816
O O2 0.827857 0.104167 0.061400
O O3 0.918073 0.033950 0.279554
O O4 0.734750 0.901193 0.333622
O O5 0.436865 0.604790 0.308607
O O6 0.594879 0.693767 0.410519
O O7 0.434934 0.890580 0.305762
O O8 0.750185 0.472438 0.713904
O O9 0.500000 0.500000 0.000000
O O10 0.688605 0.226084 0.877125
O O11 0.633225 0.025058 0.138003
O O12 0.380719 0.192048 0.327864
O O13 0.500000 0.000000 0.000000
O O14 0.152206 0.071632 0.189473
O O15 0.923791 0.294201 0.406091
O O16 0.822011 0.604830 0.404004
O O17 0.000000 0.500000 0.500000
O O18 0.000000 0.000000 0.500000
#
# Coordination Sequence:
#
# PCOD8029667 Si02
#       8
#     2   2   2   2   2   2   2   2
#     4  11  22  44  70 104 135 179 232 283 347 419
#     4  11  21  42  70 102 142 178 228 284 354 415
#     4  12  27  44  71 107 139 183 239 296 346 412
#     4  11  21  37  69 108 132 173 229 287 340 411
#     4  12  23  42  71 100 135 179 236 284 341 420
#     4  12  28  47  68  99 142 188 230 284 358 414
#     4  12  25  46  69  95 133 189 234 277 348 420
#     4  11  24  43  72 103 142 179 225 292 354 418
#
# _framework density 21.651828999999999
#
# number of rings (size 3 to 8) (size 9 to 14) (size 15 to 20)
#    0.000    0.500    6.250    2.625    3.500    1.500 
#    0.000    0.625    0.000    0.000    0.000    0.000 
#    0.000    0.000    0.000    0.000    0.000    0.000 
#
# Total GULP energy -198209.867203 kJ/mol
# GULP energy per Si atom -12388.116700 kJ/mol
# Density = 2.160255 g / cm^3
# Si number density = 21.651829 Si / 1000 Ang^3
#
#
#
# Elastic Constant Matrix: (Units=GPa)
#
#
# Indices 1 2 3 4 5 6 
#
# 1 139.2281 46.3946 36.8016 1.1727 12.8916 -8.0739
# 2 46.3946 98.2327 50.7023 18.4000 3.0960 -20.7601
# 3 36.8016 50.7023 105.0448 16.6313 9.0970 -2.1433
# 4 1.1727 18.4000 16.6313 27.7918 -6.4171 -2.4534
# 5 12.8916 3.0960 9.0970 -6.4171 48.7134 -6.0151
# 6 -8.0739 -20.7601 -2.1433 -2.4534 -6.0151 32.1437
#
#
#
# Elastic Compliance Matrix: (Units=1/GPa)
#
#
# Indices 1 2 3 4 5 6 
#
# 1 0.009030 -0.004073 -0.001522 0.002823 -0.001541 -0.000537
# 2 -0.004073 0.018999 -0.006504 -0.007255 0.001429 0.010528
# 3 -0.001522 -0.006504 0.014197 -0.005248 -0.003096 -0.004616
# 4 0.002823 -0.007255 -0.005248 0.045394 0.006723 0.000396
# 5 -0.001541 0.001429 -0.003096 0.006723 0.022943 0.005136
# 6 -0.000537 0.010528 -0.004616 0.000396 0.005136 0.038458
#
#
# Mechanical properties :
#
#
# Convention : Reuss Voigt Hill
#
# Bulk Modulus (GPa) = 55.46697 67.81140 61.63919
# Shear Modulus (GPa) = 27.89733 35.63692 31.76713
#
# Velocity S-wave (km/s) = 3.59339 4.06138 3.83453
# Velocity P-wave (km/s) = 6.54904 7.30617 6.93794
#
# Compressibility (1/GPa) = 0.01802875
#
# Stress axis : x y z
#
# Youngs Moduli (GPa) = 110.74564 52.63400 70.43676
#
# Poissons Ratio (x) = 0.21436 0.10722
# Poissons Ratio (y) = 0.45102 0.45811
# Poissons Ratio (z) = 0.16858 0.34232
#
# Static dielectric constant tensor:
#      x y z
#    x 6.023870 0.615930 -1.416520 
#    y 0.615930 4.694800 0.660290 
#    z -1.416520 0.660290 7.539460 
# 
# 
# High freq. dielectric constant tensor:
#      x y z
#    x 1.867820 -0.010540 0.003550 
#    y -0.010540 1.836270 -0.000910 
#    z 0.003550 -0.000910 1.858650 
# 
# From -- ./inp_files/243421.got.cif
#   From: 2010.06.25/outbox.cif.g09.slc.cpg/sg2_122_cif.got.tgz:243421.got - 2010.06.27 13:26:56.
