data_PCOD8029191
_publ_section_title
;
Structure prediction by ZEFSAII (Michael W. Deem and Ramdas Pophale) SiO2 
 PCOD8029191
Probable space group: P -1
;
_chemical_formula_sum "Si O2"
_cell_formula_units_Z 16
_cell_length_a 21.125216
_cell_length_b 11.463365
_cell_length_c 12.587829
_cell_angle_alpha 34.854912
_cell_angle_beta 154.779838
_cell_angle_gamma 138.190295
_cell_volume 742.261838
_symmetry_space_group_name_H-M "P -1"
_symmetry_group_IT_number 2
_symmetry_cell_setting 'triclinic'
loop_
_space_group_symop_operation_xyz
x,y,z
-x,-y,-z
loop_
_atom_site_type_symbol
_atom_site_label
_atom_site_fract_x
_atom_site_fract_y
_atom_site_fract_z
Si Si1 0.924024 0.737567 0.184017
Si Si2 0.568989 0.022726 0.703680
Si Si3 0.690378 0.432508 0.159577
Si Si4 0.945596 0.395123 0.322855
Si Si5 0.664412 0.577894 0.666605
Si Si6 0.359126 0.517363 0.531837
Si Si7 0.707376 0.985653 0.555382
Si Si8 0.767071 0.640417 0.329980
O O1 0.782317 0.594306 0.108887
O O2 0.004888 0.609102 0.308790
O O3 0.032454 0.774513 0.422660
O O4 0.854152 0.946852 0.879833
O O5 0.500000 0.000000 0.500000
O O6 0.649199 0.240070 0.674614
O O7 0.440279 0.994101 0.615490
O O8 0.695125 0.859760 0.039825
O O9 0.692912 0.483196 0.251141
O O10 0.742279 0.199849 0.390695
O O11 0.523400 0.445143 0.857487
O O12 0.055285 0.342534 0.432237
O O13 0.777092 0.415991 0.012566
O O14 0.500000 0.500000 0.500000
O O15 0.696503 0.586458 0.583875
O O16 0.690536 0.805051 0.579716
O O17 0.251164 0.442463 0.517319
#
# Coordination Sequence:
#
# PCOD8029191 Si02
#       8
#     2   2   2   2   2   2   2   2
#     4   9  18  39  63  89 123 158 200 263 307 344
#     4  12  20  36  63  92 125 160 204 250 305 358
#     4  11  20  37  63  98 123 151 207 258 304 358
#     4   9  20  40  62  85 124 164 200 251 312 362
#     4  11  23  43  65  87 120 166 213 252 303 370
#     4  12  22  37  62  90 129 168 199 252 304 361
#     4  11  21  37  64  97 120 155 210 254 302 362
#     4  11  23  38  59  95 129 157 203 257 307 367
#
# _framework density 21.555734999999999
#
# number of rings (size 3 to 8) (size 9 to 14) (size 15 to 20)
#    0.000    1.250    5.000    2.625    0.000    1.000 
#    0.000   18.750    0.000    0.000    0.000    0.000 
#    0.000    0.000    0.000    0.000    0.000    0.000 
#
# Total GULP energy -198375.681936 kJ/mol
# GULP energy per Si atom -12398.480121 kJ/mol
# Density = 2.150667 g / cm^3
# Si number density = 21.555735 Si / 1000 Ang^3
#
#
#
# Elastic Constant Matrix: (Units=GPa)
#
#
# Indices 1 2 3 4 5 6 
#
# 1 115.5760 22.4028 33.5595 1.6099 -2.4732 -18.8503
# 2 22.4028 76.3995 36.9866 -10.6807 -7.5369 -15.9041
# 3 33.5595 36.9866 127.9339 3.0107 13.4991 -11.8890
# 4 1.6099 -10.6807 3.0107 37.7634 -6.9409 -3.1100
# 5 -2.4732 -7.5369 13.4991 -6.9409 33.0679 3.3607
# 6 -18.8503 -15.9041 -11.8890 -3.1100 3.3607 27.0318
#
#
#
# Elastic Compliance Matrix: (Units=1/GPa)
#
#
# Indices 1 2 3 4 5 6 
#
# 1 0.010354 -0.000716 -0.002070 0.000164 0.000901 0.005796
# 2 -0.000716 0.019757 -0.005722 0.008185 0.007629 0.008601
# 3 -0.002070 -0.005722 0.010837 -0.003590 -0.006675 0.000373
# 4 0.000164 0.008185 -0.003590 0.031264 0.009317 0.005790
# 5 0.000901 0.007629 -0.006675 0.009317 0.036863 -0.001329
# 6 0.005796 0.008601 0.000373 0.005790 -0.001329 0.047091
#
#
# Mechanical properties :
#
#
# Convention : Reuss Voigt Hill
#
# Bulk Modulus (GPa) = 41.78391 56.20078 48.99234
# Shear Modulus (GPa) = 27.60000 34.70332 31.15166
#
# Velocity S-wave (km/s) = 3.58215 4.01675 3.80566
# Velocity P-wave (km/s) = 6.04444 6.90227 6.48755
#
# Compressibility (1/GPa) = 0.02393266
#
# Stress axis : x y z
#
# Youngs Moduli (GPa) = 96.57815 50.61565 92.27439
#
# Poissons Ratio (x) = 0.03624 0.19096
# Poissons Ratio (y) = 0.06914 0.52803
# Poissons Ratio (z) = 0.19987 0.28964
#
# Static dielectric constant tensor:
#      x y z
#    x 4.154400 -0.174220 0.062660 
#    y -0.174220 3.681300 -0.130640 
#    z 0.062660 -0.130640 4.282700 
# 
# 
# High freq. dielectric constant tensor:
#      x y z
#    x 1.859420 -0.001400 0.009610 
#    y -0.001400 1.809310 -0.009870 
#    z 0.009610 -0.009870 1.864880 
# 
# From -- ./inp_files/470633.got.cif
#   From: 2010.06.25/outbox.cif.g09.slc.cpg/sg2_236_cif.got.tgz:470633.got - 2010.06.27 13:26:56.
