data_PCOD8029369
_publ_section_title
;
Structure prediction by ZEFSAII (Michael W. Deem and Ramdas Pophale) SiO2 
 PCOD8029369
Probable space group: P -1
;
_chemical_formula_sum "Si O2"
_cell_formula_units_Z 16
_cell_length_a 9.178889
_cell_length_b 8.920664
_cell_length_c 15.284242
_cell_angle_alpha 90.207207
_cell_angle_beta 142.359229
_cell_angle_gamma 80.751286
_cell_volume 738.323665
_symmetry_space_group_name_H-M "P -1"
_symmetry_group_IT_number 2
_symmetry_cell_setting 'triclinic'
loop_
_space_group_symop_operation_xyz
x,y,z
-x,-y,-z
loop_
_atom_site_type_symbol
_atom_site_label
_atom_site_fract_x
_atom_site_fract_y
_atom_site_fract_z
Si Si1 0.419172 0.278932 0.170129
Si Si2 0.315719 0.425212 0.465244
Si Si3 0.486725 0.336226 0.022364
Si Si4 0.040685 0.181006 0.274218
Si Si5 0.990354 0.158925 0.045600
Si Si6 0.832409 0.685910 0.281185
Si Si7 0.900833 0.013688 0.357342
Si Si8 0.504569 0.403325 0.742797
O O1 0.312851 0.352596 0.026035
O O2 0.222186 0.221071 0.131187
O O3 0.490732 0.416033 0.258903
O O4 0.635581 0.134247 0.241118
O O5 0.500000 0.500000 0.500000
O O6 0.235731 0.286025 0.375388
O O7 0.454166 0.354391 0.620341
O O8 0.071685 0.561084 0.362287
O O9 0.767929 0.258504 0.178355
O O10 0.500000 0.500000 0.000000
O O11 0.369958 0.256105 0.890742
O O12 0.016972 0.126704 0.162704
O O13 0.093472 0.046292 0.374273
O O14 0.746200 0.288760 0.900898
O O15 0.000000 0.000000 0.000000
O O16 0.889362 0.841688 0.335012
O O17 0.729860 0.605174 0.311999
O O18 0.000000 0.000000 0.500000
#
# Coordination Sequence:
#
# PCOD8029369 Si02
#       8
#     2   2   2   2   2   2   2   2
#     4  11  24  41  69  98 140 176 230 277 343 397
#     4  12  27  43  70 102 136 180 232 278 343 409
#     4  11  20  40  71 102 126 176 228 287 328 403
#     4  11  24  46  67  97 137 180 227 278 342 412
#     4  12  27  44  67 102 139 181 228 282 344 405
#     4  12  23  42  72  99 137 175 235 274 345 400
#     4  11  25  44  70 103 140 182 227 283 343 408
#     4  12  24  45  69  99 136 180 226 283 337 409
#
# _framework density 21.670714
#
# number of rings (size 3 to 8) (size 9 to 14) (size 15 to 20)
#    0.000    0.500    3.750    4.500    3.500    1.000 
#    0.000    1.875    0.000    0.000    0.000    0.000 
#    0.000    0.000    0.000    0.000    0.000    0.000 
#
# Total GULP energy -198224.216521 kJ/mol
# GULP energy per Si atom -12389.013533 kJ/mol
# Density = 2.162139 g / cm^3
# Si number density = 21.670714 Si / 1000 Ang^3
#
#
#
# Elastic Constant Matrix: (Units=GPa)
#
#
# Indices 1 2 3 4 5 6 
#
# 1 141.1992 25.6238 54.5469 6.1128 0.5710 16.5819
# 2 25.6238 112.0567 14.9417 25.1291 5.6034 15.4506
# 3 54.5469 14.9417 80.3413 24.3823 -35.7534 27.4701
# 4 6.1128 25.1291 24.3823 39.2566 -3.1669 -0.7692
# 5 0.5710 5.6034 -35.7534 -3.1669 35.0191 18.9382
# 6 16.5819 15.4506 27.4701 -0.7692 18.9382 19.0618
#
#
#
# Elastic Compliance Matrix: (Units=1/GPa)
#
#
# Indices 1 2 3 4 5 6 
#
# 1 0.008691 -0.000796 -0.001152 -0.000013 0.003568 -0.008801
# 2 -0.000796 0.010829 -0.002713 -0.005555 -0.005644 0.001207
# 3 -0.001152 -0.002713 -0.003843 0.003423 -0.017206 0.025972
# 4 -0.000013 -0.005555 0.003423 0.027781 0.014084 -0.013291
# 5 0.003568 -0.005644 -0.017206 0.014084 -0.003038 0.029854
# 6 -0.008801 0.001207 0.025972 -0.013291 0.029854 -0.008486
#
#
# Mechanical properties :
#
#
# Convention : Reuss Voigt Hill
#
# Bulk Modulus (GPa) = 157.29836 58.20244 107.75040
# Shear Modulus (GPa) = 115.27598 34.56649 74.92123
#
# Velocity S-wave (km/s) = 7.30136 3.99818 5.88622
# Velocity P-wave (km/s) = 11.99262 6.94477 9.79931
#
# Compressibility (1/GPa) = 0.00635735
#
# Stress axis : x y z
#
# Youngs Moduli (GPa) = 115.05802 92.34248 -260.22201
#
# Poissons Ratio (x) = 0.07349 -0.29973
# Poissons Ratio (y) = 0.09156 -0.70585
# Poissons Ratio (z) = 0.13253 0.25048
#
# Static dielectric constant tensor:
#      x y z
#    x 4.171010 0.107090 -0.107930 
#    y 0.107090 3.895520 0.101460 
#    z -0.107930 0.101460 3.856500 
# 
# 
# High freq. dielectric constant tensor:
#      x y z
#    x 1.868600 0.010960 -0.015300 
#    y 0.010960 1.856260 0.006870 
#    z -0.015300 0.006870 1.858210 
# 
# From -- ./inp_files/329031.got.cif
#   From: 2010.06.25/outbox.cif.g09.slc.cpg/sg2_165_cif.got.tgz:329031.got - 2010.06.27 13:26:56.
