data_PCOD8029898
_publ_section_title
;
Structure prediction by ZEFSAII (Michael W. Deem and Ramdas Pophale) SiO2 
 PCOD8029898
Probable space group: P -1
;
_chemical_formula_sum "Si O2"
_cell_formula_units_Z 16
_cell_length_a 9.568230
_cell_length_b 15.433535
_cell_length_c 12.712243
_cell_angle_alpha 139.546246
_cell_angle_beta 133.428534
_cell_angle_gamma 35.380322
_cell_volume 693.911607
_symmetry_space_group_name_H-M "P -1"
_symmetry_group_IT_number 2
_symmetry_cell_setting 'triclinic'
loop_
_space_group_symop_operation_xyz
x,y,z
-x,-y,-z
loop_
_atom_site_type_symbol
_atom_site_label
_atom_site_fract_x
_atom_site_fract_y
_atom_site_fract_z
Si Si1 0.618675 0.122235 0.886901
Si Si2 0.081715 0.919020 0.807411
Si Si3 0.797862 0.405875 0.739831
Si Si4 0.448861 0.107406 0.469908
Si Si5 0.092222 0.502456 0.684354
Si Si6 0.123951 0.495148 0.927416
Si Si7 0.764015 0.430597 0.383899
Si Si8 0.968497 0.949100 0.549035
O O1 0.363630 0.302606 0.894993
O O2 0.595172 0.972498 0.725474
O O3 0.689045 0.124858 0.046810
O O4 0.829388 0.084269 0.880384
O O5 0.068796 0.762066 0.662575
O O6 0.109095 0.947768 0.724284
O O7 0.513752 0.490239 0.659536
O O8 0.958349 0.236386 0.597638
O O9 0.872343 0.519924 0.838915
O O10 0.870302 0.378182 0.875949
O O11 0.233709 0.303567 0.554738
O O12 0.500000 0.000000 0.500000
O O13 0.685678 0.094021 0.559573
O O14 0.125290 0.549815 0.860252
O O15 0.177227 0.582340 0.722907
O O16 0.818301 0.556638 0.575779
O O17 0.000000 0.000000 0.500000
#
# Coordination Sequence:
#
# PCOD8029898 Si02
#       8
#     2   2   2   2   2   2   2   2
#     4  11  21  40  70  95 117 163 224 258 309 363
#     4  11  23  42  67  93 124 165 209 269 313 370
#     4  11  24  41  62  90 131 171 205 245 321 389
#     4  12  19  40  70  91 121 168 216 261 299 371
#     4  11  23  39  64  96 125 161 216 270 305 359
#     4  11  22  42  64  92 124 169 215 254 307 383
#     4  11  23  41  60  96 127 165 208 258 322 370
#     4  12  25  43  64  95 127 164 210 254 317 381
#
# _framework density 23.057693
#
# number of rings (size 3 to 8) (size 9 to 14) (size 15 to 20)
#    0.000    0.750    6.250    1.500    0.000    2.500 
#    4.500    0.625    0.000    0.000    0.000    0.000 
#    0.000    0.000    0.000    0.000    0.000    0.000 
#
# Total GULP energy -198272.312455 kJ/mol
# GULP energy per Si atom -12392.019528 kJ/mol
# Density = 2.300521 g / cm^3
# Si number density = 23.057693 Si / 1000 Ang^3
#
#
#
# Elastic Constant Matrix: (Units=GPa)
#
#
# Indices 1 2 3 4 5 6 
#
# 1 106.1019 35.5960 24.9416 -27.2342 -15.1291 3.6366
# 2 35.5960 41.7211 16.3214 -17.3685 -3.8440 -1.0364
# 3 24.9416 16.3214 117.6526 -20.9498 -35.5795 6.3827
# 4 -27.2342 -17.3685 -20.9498 32.0368 6.8535 -4.3379
# 5 -15.1291 -3.8440 -35.5795 6.8535 46.7245 -16.6026
# 6 3.6366 -1.0364 6.3827 -4.3379 -16.6026 37.2702
#
#
#
# Elastic Compliance Matrix: (Units=1/GPa)
#
#
# Indices 1 2 3 4 5 6 
#
# 1 0.014811 -0.009547 0.000485 0.007053 0.003563 0.000615
# 2 -0.009547 0.037677 -0.001903 0.011909 -0.002228 0.002699
# 3 0.000485 -0.001903 0.012455 0.005841 0.009594 0.002721
# 4 0.007053 0.011909 0.005841 0.047650 0.002626 0.005358
# 5 0.003563 -0.002228 0.009594 0.002626 0.034064 0.013427
# 6 0.000615 0.002699 0.002721 0.005358 0.013427 0.032985
#
#
# Mechanical properties :
#
#
# Convention : Reuss Voigt Hill
#
# Bulk Modulus (GPa) = 23.24817 46.57706 34.91261
# Shear Modulus (GPa) = 23.15782 35.78074 29.46928
#
# Velocity S-wave (km/s) = 3.17257 3.94355 3.57888
# Velocity P-wave (km/s) = 4.85024 6.40153 5.67910
#
# Compressibility (1/GPa) = 0.04301415
#
# Stress axis : x y z
#
# Youngs Moduli (GPa) = 67.51669 26.54104 80.29105
#
# Poissons Ratio (x) = 0.25337 -0.03891
# Poissons Ratio (y) = 0.64455 0.15277
# Poissons Ratio (z) = -0.03272 0.05050
#
# Static dielectric constant tensor:
#      x y z
#    x 4.021460 -0.158640 -0.200670 
#    y -0.158640 4.142650 -0.084920 
#    z -0.200670 -0.084920 4.641220 
# 
# 
# High freq. dielectric constant tensor:
#      x y z
#    x 1.899460 -0.019320 -0.008750 
#    y -0.019320 1.893800 -0.014800 
#    z -0.008750 -0.014800 1.923020 
# 
# From -- ./inp_files/399668.got.cif
#   From: 2010.06.25/outbox.cif.g09.slc.cpg/sg2_200_cif.got.tgz:399668.got - 2010.06.27 13:26:56.
