data_PCOD8029663
_publ_section_title
;
Structure prediction by ZEFSAII (Michael W. Deem and Ramdas Pophale) SiO2 
 PCOD8029663
Probable space group: P -1
;
_chemical_formula_sum "Si O2"
_cell_formula_units_Z 14
_cell_length_a 16.758706
_cell_length_b 8.385453
_cell_length_c 14.334331
_cell_angle_alpha 141.588753
_cell_angle_beta 33.940895
_cell_angle_gamma 142.752865
_cell_volume 633.908486
_symmetry_space_group_name_H-M "P -1"
_symmetry_group_IT_number 2
_symmetry_cell_setting 'triclinic'
loop_
_space_group_symop_operation_xyz
x,y,z
-x,-y,-z
loop_
_atom_site_type_symbol
_atom_site_label
_atom_site_fract_x
_atom_site_fract_y
_atom_site_fract_z
Si Si1 0.312571 0.395385 0.458320
Si Si2 0.752784 0.151566 0.829248
Si Si3 0.974131 0.730531 0.069330
Si Si4 0.350014 0.452295 0.790018
Si Si5 0.023579 0.955351 0.307186
Si Si6 0.000598 0.517197 0.396500
Si Si7 0.802528 0.144827 0.265566
O O1 0.479788 0.486527 0.392266
O O2 0.302243 0.679253 0.561530
O O3 0.320942 0.184555 0.271586
O O4 0.165029 0.229764 0.591081
O O5 0.824985 0.339587 0.752292
O O6 0.891151 0.219154 0.804661
O O7 0.631076 0.263536 0.041871
O O8 0.787321 0.630454 0.190981
O O9 0.051256 0.003282 0.189844
O O10 0.066390 0.795401 0.913123
O O11 0.000000 0.500000 0.000000
O O12 0.308476 0.187500 0.779727
O O13 0.072976 0.253763 0.449295
O O14 0.000000 0.500000 0.500000
O O15 0.895192 0.224923 0.312390
#
# Coordination Sequence:
#
# PCOD8029663 Si02
#       7
#     2   2   2   2   2   2   2
#     4  11  22  42  64  91 130 171 208 251 321 377
#     4  11  21  43  65  90 125 171 214 251 307 380
#     4  12  22  40  66  96 128 165 212 261 308 376
#     4  12  25  37  65  96 131 164 205 264 322 364
#     4  11  21  41  69  91 122 172 213 251 308 380
#     4  11  21  37  67  95 120 158 219 263 302 363
#     4  12  23  43  64  95 129 165 209 262 317 368
#
# _framework density 22.085207
#
# number of rings (size 3 to 8) (size 9 to 14) (size 15 to 20)
#    0.000    0.571    7.143    3.000    2.000    0.571 
#    0.000    0.000    0.000    1.714    0.000    0.000 
#    0.000    0.000    0.000    0.000    0.000    0.000 
#
# Total GULP energy -173462.886921 kJ/mol
# GULP energy per Si atom -12390.206209 kJ/mol
# Density = 2.203494 g / cm^3
# Si number density = 22.085207 Si / 1000 Ang^3
#
#
#
# Elastic Constant Matrix: (Units=GPa)
#
#
# Indices 1 2 3 4 5 6 
#
# 1 100.4161 14.9270 44.4825 -19.4657 1.5624 0.2823
# 2 14.9270 57.0478 20.8508 9.6363 -10.9409 2.6872
# 3 44.4825 20.8508 91.1476 2.6943 -8.3883 9.6197
# 4 -19.4657 9.6363 2.6943 40.8750 7.1224 2.2224
# 5 1.5624 -10.9409 -8.3883 7.1224 42.7972 -4.3198
# 6 0.2823 2.6872 9.6197 2.2224 -4.3198 25.2716
#
#
#
# Elastic Compliance Matrix: (Units=1/GPa)
#
#
# Indices 1 2 3 4 5 6 
#
# 1 0.015928 -0.003930 -0.007746 0.009734 -0.004568 0.001552
# 2 -0.003930 0.022040 -0.002313 -0.008110 0.006719 0.000442
# 3 -0.007746 -0.002313 0.016219 -0.004490 0.003122 -0.004913
# 4 0.009734 -0.008110 -0.004490 0.032983 -0.008997 -0.001976
# 5 -0.004568 0.006719 0.003122 -0.008997 0.027731 0.003680
# 6 0.001552 0.000442 -0.004913 -0.001976 0.003680 0.042179
#
#
# Mechanical properties :
#
#
# Convention : Reuss Voigt Hill
#
# Bulk Modulus (GPa) = 38.15321 45.45913 41.80617
# Shear Modulus (GPa) = 25.80062 33.01215 29.40639
#
# Velocity S-wave (km/s) = 3.42165 3.87041 3.65293
# Velocity P-wave (km/s) = 5.73787 6.37194 6.06320
#
# Compressibility (1/GPa) = 0.02621011
#
# Stress axis : x y z
#
# Youngs Moduli (GPa) = 62.78379 45.37141 61.65581
#
# Poissons Ratio (x) = 0.17830 0.47759
# Poissons Ratio (y) = 0.24672 0.14259
# Poissons Ratio (z) = 0.48633 0.10493
#
# Static dielectric constant tensor:
#      x y z
#    x 4.167210 0.175010 0.346660 
#    y 0.175010 4.070480 0.728320 
#    z 0.346660 0.728320 4.760540 
# 
# 
# High freq. dielectric constant tensor:
#      x y z
#    x 1.856120 -0.001480 -0.001110 
#    y -0.001480 1.859080 0.037080 
#    z -0.001110 0.037080 1.881890 
# 
# From -- ./inp_files/246862.got.cif
#   From: 2010.06.25/outbox.cif.g09.slc.cpg/sg2_124_cif.got.tgz:246862.got - 2010.06.27 13:26:56.
