data_PCOD8029345
_publ_section_title
;
Structure prediction by ZEFSAII (Michael W. Deem and Ramdas Pophale) SiO2 
 PCOD8029345
Probable space group: P -1
;
_chemical_formula_sum "Si O2"
_cell_formula_units_Z 16
_cell_length_a 8.501810
_cell_length_b 17.563960
_cell_length_c 11.284742
_cell_angle_alpha 40.194315
_cell_angle_beta 57.927280
_cell_angle_gamma 85.288802
_cell_volume 743.057185
_symmetry_space_group_name_H-M "P -1"
_symmetry_group_IT_number 2
_symmetry_cell_setting 'triclinic'
loop_
_space_group_symop_operation_xyz
x,y,z
-x,-y,-z
loop_
_atom_site_type_symbol
_atom_site_label
_atom_site_fract_x
_atom_site_fract_y
_atom_site_fract_z
Si Si1 0.934356 0.431853 0.737625
Si Si2 0.985969 0.963498 0.683769
Si Si3 0.492183 0.136022 0.352531
Si Si4 0.152600 0.354092 0.909898
Si Si5 0.402958 0.521972 0.824602
Si Si6 0.274514 0.730385 0.669797
Si Si7 0.162167 0.363592 0.345991
Si Si8 0.253948 0.912714 0.258514
O O1 0.904041 0.528730 0.723784
O O2 0.000000 0.500000 0.500000
O O3 0.149555 0.431938 0.698364
O O4 0.691079 0.268487 0.031904
O O5 0.801850 0.975923 0.809454
O O6 0.903981 0.798737 0.927710
O O7 0.000000 0.000000 0.500000
O O8 0.240546 0.088179 0.479680
O O9 0.517053 0.178503 0.429740
O O10 0.500000 0.000000 0.500000
O O11 0.377241 0.445841 0.797029
O O12 0.957816 0.343935 0.076666
O O13 0.298486 0.612597 0.738771
O O14 0.670127 0.625892 0.632258
O O15 0.271671 0.401854 0.124576
O O16 0.267070 0.830494 0.460175
O O17 0.934293 0.198222 0.631048
O O18 0.500000 0.000000 0.000000
#
# Coordination Sequence:
#
# PCOD8029345 Si02
#       8
#     2   2   2   2   2   2   2   2
#     4  11  25  43  66 102 148 184 230 296 363 419
#     4  12  23  42  72 103 136 185 246 288 346 435
#     4  11  21  41  69 104 134 187 243 289 345 427
#     4  11  21  41  70 101 133 183 235 289 348 428
#     4  11  21  40  72 103 128 166 245 290 335 414
#     4  11  20  40  68  96 131 180 230 287 342 420
#     4  11  23  42  70 100 133 179 227 290 350 420
#     4  12  27  46  66 102 144 184 233 298 365 416
#
# _framework density 21.532661999999998
#
# number of rings (size 3 to 8) (size 9 to 14) (size 15 to 20)
#    0.000    0.750    7.500    1.875    3.500    2.000 
#    2.250    1.875    0.000    0.000    0.000    0.000 
#    0.000    0.000    0.000    0.000    0.000    0.000 
#
# Total GULP energy -198352.303660 kJ/mol
# GULP energy per Si atom -12397.018979 kJ/mol
# Density = 2.148365 g / cm^3
# Si number density = 21.532662 Si / 1000 Ang^3
#
#
#
# Elastic Constant Matrix: (Units=GPa)
#
#
# Indices 1 2 3 4 5 6 
#
# 1 157.2676 51.8146 56.3839 -5.7536 -6.2518 14.8418
# 2 51.8146 107.2156 58.8596 -19.4554 -5.6793 -4.2233
# 3 56.3839 58.8596 81.9330 -12.2568 -13.2692 4.7046
# 4 -5.7536 -19.4554 -12.2568 27.7000 -1.0877 -0.1536
# 5 -6.2518 -5.6793 -13.2692 -1.0877 40.5043 -7.0346
# 6 14.8418 -4.2233 4.7046 -0.1536 -7.0346 46.8176
#
#
#
# Elastic Compliance Matrix: (Units=1/GPa)
#
#
# Indices 1 2 3 4 5 6 
#
# 1 0.008977 -0.002125 -0.004947 -0.001873 -0.001053 -0.002705
# 2 -0.002125 0.017364 -0.010190 0.007245 -0.000479 0.003216
# 3 -0.004947 -0.010190 0.024323 0.002796 0.005689 -0.000931
# 4 -0.001873 0.007245 0.002796 0.042166 0.003046 0.001562
# 5 -0.001053 -0.000479 0.005689 0.003046 0.027064 0.003795
# 6 -0.002705 0.003216 -0.000931 0.001562 0.003795 0.023176
#
#
# Mechanical properties :
#
#
# Convention : Reuss Voigt Hill
#
# Bulk Modulus (GPa) = 61.95615 75.61472 68.78543
# Shear Modulus (GPa) = 27.32636 34.96159 31.14398
#
# Velocity S-wave (km/s) = 3.56626 4.03383 3.80723
# Velocity P-wave (km/s) = 6.76707 7.54243 7.16524
#
# Compressibility (1/GPa) = 0.01614045
#
# Stress axis : x y z
#
# Youngs Moduli (GPa) = 111.39534 57.58989 41.11364
#
# Poissons Ratio (x) = 0.12238 0.20337
# Poissons Ratio (y) = 0.23671 0.41896
# Poissons Ratio (z) = 0.55102 0.58685
#
# Static dielectric constant tensor:
#      x y z
#    x 4.410930 0.264920 -0.324890 
#    y 0.264920 4.673720 -0.494280 
#    z -0.324890 -0.494280 3.698870 
# 
# 
# High freq. dielectric constant tensor:
#      x y z
#    x 1.871490 0.000870 -0.002740 
#    y 0.000870 1.851490 -0.021030 
#    z -0.002740 -0.021030 1.813880 
# 
# From -- ./inp_files/402815.got.cif
#   From: 2010.06.25/outbox.cif.g09.slc.cpg/sg2_202_cif.got.tgz:402815.got - 2010.06.27 13:26:56.
