data_PCOD8029533
_publ_section_title
;
Structure prediction by ZEFSAII (Michael W. Deem and Ramdas Pophale) SiO2 
 PCOD8029533
Probable space group: P -1
;
_chemical_formula_sum "Si O2"
_cell_formula_units_Z 16
_cell_length_a 17.447895
_cell_length_b 8.915012
_cell_length_c 17.965506
_cell_angle_alpha 52.784181
_cell_angle_beta 158.678428
_cell_angle_gamma 126.189824
_cell_volume 805.637599
_symmetry_space_group_name_H-M "P -1"
_symmetry_group_IT_number 2
_symmetry_cell_setting 'triclinic'
loop_
_space_group_symop_operation_xyz
x,y,z
-x,-y,-z
loop_
_atom_site_type_symbol
_atom_site_label
_atom_site_fract_x
_atom_site_fract_y
_atom_site_fract_z
Si Si1 0.336542 0.416749 0.000089
Si Si2 0.067359 0.288690 0.933777
Si Si3 0.270361 0.024056 0.312921
Si Si4 0.445368 0.208541 0.558606
Si Si5 0.370011 0.875855 0.697497
Si Si6 0.838135 0.462254 0.796413
Si Si7 0.922873 0.696205 0.345047
Si Si8 0.521255 0.831211 0.011343
O O1 0.241324 0.374275 0.007933
O O2 0.176466 0.337070 0.815790
O O3 0.384184 0.641779 0.971123
O O4 0.546374 0.308668 0.210761
O O5 0.974063 0.453905 0.846856
O O6 0.170984 0.161934 0.125364
O O7 0.875376 0.171821 0.752170
O O8 0.290910 0.108933 0.387561
O O9 0.500000 0.000000 0.500000
O O10 0.687898 0.267385 0.734309
O O11 0.324845 0.387768 0.417583
O O12 0.466914 0.068366 0.688932
O O13 0.430572 0.896674 0.831987
O O14 0.117558 0.855849 0.467052
O O15 0.000000 0.500000 0.000000
O O16 0.000000 0.500000 0.500000
O O17 0.761220 0.778239 0.232890
O O18 0.500000 0.000000 0.000000
#
# Coordination Sequence:
#
# PCOD8029533 Si02
#       8
#     2   2   2   2   2   2   2   2
#     4  11  23  41  66  97 128 167 217 267 317 378
#     4  11  24  38  65  93 128 168 210 266 322 372
#     4  11  21  40  61  93 125 159 216 266 306 374
#     4  11  24  41  65  93 126 171 214 259 320 382
#     4  11  23  43  69  95 125 170 219 263 316 385
#     4  11  24  44  61  88 137 171 204 262 323 384
#     4  11  20  44  70  90 125 173 215 263 321 378
#     4  11  25  44  64  98 138 164 208 274 322 381
#
# _framework density 19.860047000000002
#
# number of rings (size 3 to 8) (size 9 to 14) (size 15 to 20)
#    0.000    1.000    5.000    2.250    1.750    4.500 
#    2.250    0.000    0.000    0.000    0.000    0.000 
#    0.000    0.000    0.000    0.000    0.000    0.000 
#
# Total GULP energy -198401.225025 kJ/mol
# GULP energy per Si atom -12400.076564 kJ/mol
# Density = 1.981484 g / cm^3
# Si number density = 19.860047 Si / 1000 Ang^3
#
#
#
# Elastic Constant Matrix: (Units=GPa)
#
#
# Indices 1 2 3 4 5 6 
#
# 1 144.1761 58.4477 36.1797 7.3394 2.0287 -9.9270
# 2 58.4477 102.0313 31.6374 4.1556 -9.8283 -3.2977
# 3 36.1797 31.6374 90.7761 11.2458 5.8435 -5.5271
# 4 7.3394 4.1556 11.2458 33.2974 -0.8130 0.7739
# 5 2.0287 -9.8283 5.8435 -0.8130 29.5801 -6.9850
# 6 -9.9270 -3.2977 -5.5271 0.7739 -6.9850 37.0011
#
#
#
# Elastic Compliance Matrix: (Units=1/GPa)
#
#
# Indices 1 2 3 4 5 6 
#
# 1 0.009591 -0.005017 -0.001752 -0.000973 -0.001633 0.001576
# 2 -0.005017 0.014292 -0.003404 0.000604 0.005905 0.000521
# 3 -0.001752 -0.003404 0.013661 -0.003907 -0.003662 0.000658
# 4 -0.000973 0.000604 -0.003907 0.031558 0.001637 -0.001142
# 5 -0.001633 0.005905 -0.003662 0.001637 0.038237 0.006725
# 6 0.001576 0.000521 0.000658 -0.001142 0.006725 0.028887
#
#
# Mechanical properties :
#
#
# Convention : Reuss Voigt Hill
#
# Bulk Modulus (GPa) = 58.15607 65.50145 61.82876
# Shear Modulus (GPa) = 30.80623 34.02363 32.41493
#
# Velocity S-wave (km/s) = 3.94276 4.14354 4.04439
# Velocity P-wave (km/s) = 7.07627 7.47964 7.28075
#
# Compressibility (1/GPa) = 0.01719511
#
# Stress axis : x y z
#
# Youngs Moduli (GPa) = 104.26790 69.97041 73.20203
#
# Poissons Ratio (x) = 0.35107 0.12827
# Poissons Ratio (y) = 0.52315 0.24922
# Poissons Ratio (z) = 0.18270 0.23821
#
# Static dielectric constant tensor:
#      x y z
#    x 3.461220 0.483870 0.452920 
#    y 0.483870 2.172510 -0.892520 
#    z 0.452920 -0.892520 3.259630 
# 
# 
# High freq. dielectric constant tensor:
#      x y z
#    x 1.777640 0.001880 0.007030 
#    y 0.001880 1.772500 0.002860 
#    z 0.007030 0.002860 1.789310 
# 
# From -- ./inp_files/56548.got.cif
#   From: 2010.06.25/outbox.cif.g09.slc.cpg/sg2_29_cif.got.tgz:56548.got - 2010.06.27 13:26:56.
