data_PCOD8029865
_publ_section_title
;
Structure prediction by ZEFSAII (Michael W. Deem and Ramdas Pophale) SiO2 
 PCOD8029865
Probable space group: P -1
;
_chemical_formula_sum "Si O2"
_cell_formula_units_Z 16
_cell_length_a 15.756258
_cell_length_b 9.241042
_cell_length_c 8.668859
_cell_angle_alpha 79.478994
_cell_angle_beta 93.382057
_cell_angle_gamma 142.789448
_cell_volume 742.519568
_symmetry_space_group_name_H-M "P -1"
_symmetry_group_IT_number 2
_symmetry_cell_setting 'triclinic'
loop_
_space_group_symop_operation_xyz
x,y,z
-x,-y,-z
loop_
_atom_site_type_symbol
_atom_site_label
_atom_site_fract_x
_atom_site_fract_y
_atom_site_fract_z
Si Si1 0.503827 0.064938 0.161943
Si Si2 0.114962 0.129388 0.118506
Si Si3 0.402104 0.485453 0.917632
Si Si4 0.928886 0.248458 0.838008
Si Si5 0.221285 0.032350 0.800794
Si Si6 0.775715 0.293995 0.631344
Si Si7 0.751727 0.224837 0.288869
Si Si8 0.978652 0.823936 0.626473
O O1 0.502023 0.238797 0.150990
O O2 0.644106 0.203666 0.235629
O O3 0.361819 0.820693 0.284098
O O4 0.500000 0.000000 0.000000
O O5 0.105893 0.247256 0.216259
O O6 0.084793 0.923891 0.225363
O O7 0.275457 0.362455 0.036159
O O8 0.000000 0.000000 0.000000
O O9 0.336029 0.319737 0.789263
O O10 0.500000 0.500000 0.000000
O O11 0.833958 0.242906 0.752859
O O12 0.091887 0.523159 0.807981
O O13 0.872346 0.134823 0.025739
O O14 0.301313 0.997198 0.757651
O O15 0.127048 0.957851 0.663742
O O16 0.746920 0.193656 0.477395
O O17 0.891835 0.582984 0.568613
O O18 0.000000 0.000000 0.500000
#
# Coordination Sequence:
#
# PCOD8029865 Si02
#       8
#     2   2   2   2   2   2   2   2
#     4  12  26  45  73  97 136 185 229 277 334 413
#     4  11  21  40  68 101 133 174 229 281 334 398
#     4  11  23  43  69 100 135 172 229 279 336 397
#     4  11  22  41  72 100 134 174 231 281 335 400
#     4  11  25  43  70 104 132 179 232 286 335 404
#     4  12  27  45  67 104 140 180 225 282 346 410
#     4  12  25  43  67 100 141 177 227 280 347 400
#     4  12  26  43  68 103 141 174 227 285 352 400
#
# _framework density 21.548255999999999
#
# number of rings (size 3 to 8) (size 9 to 14) (size 15 to 20)
#    0.000    0.500    3.750    6.375    5.250    0.000 
#    0.000    0.625    0.000    0.000    0.000    0.000 
#    0.000    0.000    0.000    0.000    0.000    0.000 
#
# Total GULP energy -198425.541234 kJ/mol
# GULP energy per Si atom -12401.596327 kJ/mol
# Density = 2.149921 g / cm^3
# Si number density = 21.548256 Si / 1000 Ang^3
#
#
#
# Elastic Constant Matrix: (Units=GPa)
#
#
# Indices 1 2 3 4 5 6 
#
# 1 112.2665 26.5088 24.0110 6.5470 15.7607 3.4691
# 2 26.5088 104.5199 27.9253 6.9459 1.7602 -8.8592
# 3 24.0110 27.9253 83.1633 4.1651 13.5196 4.1766
# 4 6.5470 6.9459 4.1651 24.3858 -6.3810 1.8516
# 5 15.7607 1.7602 13.5196 -6.3810 39.5612 3.8458
# 6 3.4691 -8.8592 4.1766 1.8516 3.8458 53.3353
#
#
#
# Elastic Compliance Matrix: (Units=1/GPa)
#
#
# Indices 1 2 3 4 5 6 
#
# 1 0.010459 -0.002025 -0.001517 -0.002978 -0.003989 -0.000507
# 2 -0.002025 0.011294 -0.003367 -0.002034 0.000906 0.002277
# 3 -0.001517 -0.003367 0.014482 -0.002175 -0.004429 -0.001200
# 4 -0.002978 -0.002034 -0.002175 0.045431 0.009566 -0.002241
# 5 -0.003989 0.000906 -0.004429 0.009566 0.030052 -0.001742
# 6 -0.000507 0.002277 -0.001200 -0.002241 -0.001742 0.019458
#
#
# Mechanical properties :
#
#
# Convention : Reuss Voigt Hill
#
# Bulk Modulus (GPa) = 44.60916 50.76000 47.68458
# Shear Modulus (GPa) = 32.79390 38.22343 35.50866
#
# Velocity S-wave (km/s) = 3.90536 4.21628 4.06380
# Velocity P-wave (km/s) = 6.40958 6.87825 6.64805
#
# Compressibility (1/GPa) = 0.02241692
#
# Stress axis : x y z
#
# Youngs Moduli (GPa) = 95.60806 88.54425 69.04950
#
# Poissons Ratio (x) = 0.17934 0.10472
# Poissons Ratio (y) = 0.19365 0.23251
# Poissons Ratio (z) = 0.14500 0.29815
#
# Static dielectric constant tensor:
#      x y z
#    x 4.241090 -0.290820 -0.155260 
#    y -0.290820 4.318790 0.247630 
#    z -0.155260 0.247630 4.024370 
# 
# 
# High freq. dielectric constant tensor:
#      x y z
#    x 1.871250 -0.007950 0.003720 
#    y -0.007950 1.852600 0.007340 
#    z 0.003720 0.007340 1.831190 
# 
# From -- ./inp_files/297947.got.cif
#   From: 2010.06.25/outbox.cif.g09.slc.cpg/sg2_149_cif.got.tgz:297947.got - 2010.06.27 13:26:56.
