data_PCOD8029839
_publ_section_title
;
Structure prediction by ZEFSAII (Michael W. Deem and Ramdas Pophale) SiO2 
 PCOD8029839
Probable space group: P -1
;
_chemical_formula_sum "Si O2"
_cell_formula_units_Z 14
_cell_length_a 7.001300
_cell_length_b 12.959735
_cell_length_c 18.547192
_cell_angle_alpha 136.354832
_cell_angle_beta 40.019547
_cell_angle_gamma 135.048535
_cell_volume 700.791827
_symmetry_space_group_name_H-M "P -1"
_symmetry_group_IT_number 2
_symmetry_cell_setting 'triclinic'
loop_
_space_group_symop_operation_xyz
x,y,z
-x,-y,-z
loop_
_atom_site_type_symbol
_atom_site_label
_atom_site_fract_x
_atom_site_fract_y
_atom_site_fract_z
Si Si1 0.324401 0.669834 0.222387
Si Si2 0.358715 0.813226 0.433726
Si Si3 0.353492 0.422805 0.699788
Si Si4 0.644826 0.620477 0.584467
Si Si5 0.672730 0.826222 0.066201
Si Si6 0.416489 0.383327 0.134647
Si Si7 0.213728 0.830428 0.817199
O O1 0.364930 0.797511 0.338050
O O2 0.598701 0.738457 0.119285
O O3 0.349124 0.511307 0.167421
O O4 0.989592 0.634947 0.263902
O O5 0.577446 0.730509 0.368761
O O6 0.004614 0.727823 0.521328
O O7 0.500000 0.000000 0.500000
O O8 0.614527 0.515469 0.612101
O O9 0.359291 0.541320 0.825087
O O10 0.500000 0.500000 0.500000
O O11 0.462330 0.743134 0.712898
O O12 0.611730 0.993070 0.175448
O O13 0.450332 0.722123 0.011813
O O14 0.039728 0.848816 0.952342
O O15 0.065766 0.272776 0.208969
#
# Coordination Sequence:
#
# PCOD8029839 Si02
#       7
#     2   2   2   2   2   2   2
#     4  11  21  40  66  91 126 168 204 261 323 369
#     4  11  27  42  60 101 128 163 219 262 315 377
#     4  11  22  40  65  92 123 170 213 255 319 374
#     4  12  22  43  68  89 127 173 214 258 310 387
#     4   9  20  38  66  90 131 162 203 269 317 372
#     4   9  19  39  61  93 121 154 219 247 306 388
#     4   9  20  40  63  91 124 166 209 253 327 366
#
# _framework density 19.977399999999999
#
# number of rings (size 3 to 8) (size 9 to 14) (size 15 to 20)
#    0.857    0.857    2.857    1.714    2.000    3.429 
#    0.000    2.143    0.000    0.000    0.000    0.000 
#    0.000    0.000    0.000    0.000    0.000    0.000 
#
# Total GULP energy -173481.867540 kJ/mol
# GULP energy per Si atom -12391.561967 kJ/mol
# Density = 1.993193 g / cm^3
# Si number density = 19.977400 Si / 1000 Ang^3
#
#
#
# Elastic Constant Matrix: (Units=GPa)
#
#
# Indices 1 2 3 4 5 6 
#
# 1 107.9837 53.3789 37.5082 8.7270 19.4620 -3.9984
# 2 53.3789 113.8279 57.8898 26.3478 16.4692 8.4963
# 3 37.5082 57.8898 80.6480 5.4374 16.3670 -13.6403
# 4 8.7270 26.3478 5.4374 36.7648 4.0419 -2.8469
# 5 19.4620 16.4692 16.3670 4.0419 29.5489 -3.5148
# 6 -3.9984 8.4963 -13.6403 -2.8469 -3.5148 18.2432
#
#
#
# Elastic Compliance Matrix: (Units=1/GPa)
#
#
# Indices 1 2 3 4 5 6 
#
# 1 0.013384 -0.006990 0.000647 0.002754 -0.004922 0.006154
# 2 -0.006990 0.033089 -0.025451 -0.021184 -0.001551 -0.039577
# 3 0.000647 -0.025451 0.037120 0.016259 -0.004089 0.041499
# 4 0.002754 -0.021184 0.016259 0.041701 -0.001281 0.028888
# 5 -0.004922 -0.001551 -0.004089 -0.001281 0.040896 0.004265
# 6 0.006154 -0.039577 0.041499 0.028888 0.004265 0.110954
#
#
# Mechanical properties :
#
#
# Convention : Reuss Voigt Hill
#
# Bulk Modulus (GPa) = 49.98907 66.66813 58.32860
# Shear Modulus (GPa) = 14.39259 27.15691 20.77475
#
# Velocity S-wave (km/s) = 2.68702 3.69098 3.22827
# Velocity P-wave (km/s) = 5.89100 7.18392 6.56934
#
# Compressibility (1/GPa) = 0.02000437
#
# Stress axis : x y z
#
# Youngs Moduli (GPa) = 74.71831 30.22161 26.93936
#
# Poissons Ratio (x) = 0.21125 -0.01743
# Poissons Ratio (y) = 0.52228 0.68564
# Poissons Ratio (z) = -0.04834 0.76918
#
# Static dielectric constant tensor:
#      x y z
#    x 3.478910 -0.033070 0.207310 
#    y -0.033070 4.033200 -0.052150 
#    z 0.207310 -0.052150 3.824670 
# 
# 
# High freq. dielectric constant tensor:
#      x y z
#    x 1.758830 -0.003590 0.008950 
#    y -0.003590 1.791840 0.007440 
#    z 0.008950 0.007440 1.781980 
# 
# From -- ./inp_files/549230.got.cif
#   From: 2010.06.25/outbox.cif.g09.slc.cpg/sg2_275_cif.got.tgz:549230.got - 2010.06.27 13:26:56.
