data_PCOD8029582
_publ_section_title
;
Structure prediction by ZEFSAII (Michael W. Deem and Ramdas Pophale) SiO2 
 PCOD8029582
Probable space group: P -1
;
_chemical_formula_sum "Si O2"
_cell_formula_units_Z 16
_cell_length_a 14.656205
_cell_length_b 16.761854
_cell_length_c 6.638687
_cell_angle_alpha 52.429846
_cell_angle_beta 82.589940
_cell_angle_gamma 46.967402
_cell_volume 820.697889
_symmetry_space_group_name_H-M "P -1"
_symmetry_group_IT_number 2
_symmetry_cell_setting 'triclinic'
loop_
_space_group_symop_operation_xyz
x,y,z
-x,-y,-z
loop_
_atom_site_type_symbol
_atom_site_label
_atom_site_fract_x
_atom_site_fract_y
_atom_site_fract_z
Si Si1 0.962505 0.255691 0.678484
Si Si2 0.666715 0.230082 0.635867
Si Si3 0.676049 0.443003 0.324642
Si Si4 0.089292 0.015516 0.356148
Si Si5 0.779714 0.992329 0.286635
Si Si6 0.493927 0.122505 0.279485
Si Si7 0.286761 0.414963 0.633481
Si Si8 0.420124 0.330398 0.331063
O O1 0.103643 0.161572 0.652697
O O2 0.850456 0.285358 0.527284
O O3 0.881383 0.429226 0.495150
O O4 0.992763 0.166726 0.007820
O O5 0.602893 0.395279 0.438985
O O6 0.551228 0.247536 0.565857
O O7 0.785214 0.141619 0.564662
O O8 0.732884 0.134934 0.972167
O O9 0.626203 0.558833 0.344102
O O10 0.629467 0.530836 0.991889
O O11 0.155125 0.033779 0.477355
O O12 0.000000 0.000000 0.500000
O O13 0.645734 0.030365 0.288460
O O14 0.463423 0.201077 0.379507
O O15 0.500000 0.000000 0.500000
O O16 0.361282 0.255653 0.959827
O O17 0.294178 0.401836 0.409739
#
# Coordination Sequence:
#
# PCOD8029582 Si02
#       8
#     2   2   2   2   2   2   2   2
#     4   9  22  38  57  87 128 163 198 237 298 353
#     4  11  21  35  56  92 126 162 207 238 295 359
#     4   9  21  35  57  88 127 168 194 232 293 363
#     4  11  22  33  58  87 128 172 205 234 286 357
#     4  11  22  40  59  88 129 157 205 257 290 360
#     4  11  24  45  68  88 111 155 209 270 317 349
#     4   9  22  41  60  88 123 156 202 249 302 363
#     4  11  21  39  61  90 119 158 204 250 304 365
#
# _framework density 19.495602999999999
#
# number of rings (size 3 to 8) (size 9 to 14) (size 15 to 20)
#    0.750    1.000    2.500    1.875    3.500    3.000 
#    0.000    0.625    0.000    1.500    0.000    0.000 
#    0.000    0.000    0.000    0.000    0.000    0.000 
#
# Total GULP energy -198332.405906 kJ/mol
# GULP energy per Si atom -12395.775369 kJ/mol
# Density = 1.945123 g / cm^3
# Si number density = 19.495603 Si / 1000 Ang^3
#
#
#
# Elastic Constant Matrix: (Units=GPa)
#
#
# Indices 1 2 3 4 5 6 
#
# 1 53.3249 41.9680 36.8378 -6.1000 -14.5789 0.4721
# 2 41.9680 106.9024 56.6573 0.8105 -16.1331 -1.7592
# 3 36.8378 56.6573 103.4770 -10.3411 -4.3736 7.7638
# 4 -6.1000 0.8105 -10.3411 33.5365 1.8676 -2.2191
# 5 -14.5789 -16.1331 -4.3736 1.8676 31.7343 -3.3178
# 6 0.4721 -1.7592 7.7638 -2.2191 -3.3178 19.2796
#
#
#
# Elastic Compliance Matrix: (Units=1/GPa)
#
#
# Indices 1 2 3 4 5 6 
#
# 1 0.032753 -0.007558 -0.006983 0.003641 0.010397 0.003529
# 2 -0.007558 0.016974 -0.007165 -0.003937 0.004926 0.005014
# 3 -0.006983 -0.007165 0.016808 0.003882 -0.005575 -0.007764
# 4 0.003641 -0.003937 0.003882 0.031951 -0.001527 0.001403
# 5 0.010397 0.004926 -0.005575 -0.001527 0.039053 0.008985
# 6 0.003529 0.005014 -0.007764 0.001403 0.008985 0.057074
#
#
# Mechanical properties :
#
#
# Convention : Reuss Voigt Hill
#
# Bulk Modulus (GPa) = 43.24610 59.40338 51.32474
# Shear Modulus (GPa) = 20.34726 25.45949 22.90338
#
# Velocity S-wave (km/s) = 3.23412 3.61766 3.43125
# Velocity P-wave (km/s) = 6.01470 6.92721 6.48702
#
# Compressibility (1/GPa) = 0.02312347
#
# Stress axis : x y z
#
# Youngs Moduli (GPa) = 30.53147 58.91208 59.49507
#
# Poissons Ratio (x) = 0.44523 0.41548
# Poissons Ratio (y) = 0.23074 0.42628
# Poissons Ratio (z) = 0.21322 0.42211
#
# Static dielectric constant tensor:
#      x y z
#    x 3.106970 -0.127650 0.172910 
#    y -0.127650 3.716810 0.048030 
#    z 0.172910 0.048030 3.622200 
# 
# 
# High freq. dielectric constant tensor:
#      x y z
#    x 1.713650 -0.008870 0.014130 
#    y -0.008870 1.769750 0.004600 
#    z 0.014130 0.004600 1.772130 
# 
# From -- ./inp_files/99495.got.cif
#   From: 2010.06.25/outbox.cif.g09.slc.cpg/sg2_50_cif.got.tgz:99495.got - 2010.06.27 13:26:56.
