data_PCOD8029828
_publ_section_title
;
Structure prediction by ZEFSAII (Michael W. Deem and Ramdas Pophale) SiO2 
 PCOD8029828
Probable space group: P -1
;
_chemical_formula_sum "Si O2"
_cell_formula_units_Z 16
_cell_length_a 15.031910
_cell_length_b 15.033039
_cell_length_c 12.140190
_cell_angle_alpha 122.938003
_cell_angle_beta 37.136818
_cell_angle_gamma 149.575821
_cell_volume 740.302808
_symmetry_space_group_name_H-M "P -1"
_symmetry_group_IT_number 2
_symmetry_cell_setting 'triclinic'
loop_
_space_group_symop_operation_xyz
x,y,z
-x,-y,-z
loop_
_atom_site_type_symbol
_atom_site_label
_atom_site_fract_x
_atom_site_fract_y
_atom_site_fract_z
Si Si1 0.612607 0.745257 0.548807
Si Si2 0.413528 0.556146 0.850622
Si Si3 0.804300 0.119463 0.114703
Si Si4 0.792929 0.962503 0.813261
Si Si5 0.388401 0.043717 0.414362
Si Si6 0.776346 0.119158 0.758079
Si Si7 0.367311 0.526710 0.433066
Si Si8 0.742889 0.919274 0.223965
O O1 0.457318 0.607097 0.713941
O O2 0.482996 0.779677 0.663229
O O3 0.560208 0.634965 0.423769
O O4 0.942906 0.952651 0.378910
O O5 0.594935 0.566462 0.721397
O O6 0.516959 0.720827 0.931560
O O7 0.091385 0.332032 0.029238
O O8 0.622513 0.114342 0.285879
O O9 0.673855 0.952562 0.212133
O O10 0.807775 0.068031 0.956172
O O11 0.802699 0.018316 0.717839
O O12 0.195115 0.972279 0.654967
O O13 0.220279 0.876652 0.375832
O O14 0.052005 0.355475 0.669481
O O15 0.500000 0.000000 0.000000
O O16 0.469369 0.681684 0.355178
O O17 0.000000 0.000000 0.000000
#
# Coordination Sequence:
#
# PCOD8029828 Si02
#       8
#     2   2   2   2   2   2   2   2
#     4  11  21  40  65 101 141 179 233 288 347 432
#     4  12  22  38  71 102 136 187 230 281 361 412
#     4  12  25  46  68 101 144 186 234 293 343 409
#     4  12  23  41  70 103 143 181 230 289 353 428
#     4  11  25  43  69  99 145 183 223 298 357 401
#     4  12  24  43  67 107 152 175 223 298 362 427
#     4  11  23  41  71 101 136 192 236 285 353 410
#     4  11  24  50  72  95 135 190 253 289 329 416
#
# _framework density 21.612777000000001
#
# number of rings (size 3 to 8) (size 9 to 14) (size 15 to 20)
#    0.000    0.500    6.250    3.375    0.000    2.500 
#    2.250    1.875    0.000    0.000    0.000    0.000 
#    0.000    0.000    0.000    0.000    0.000    0.000 
#
# Total GULP energy -198328.406736 kJ/mol
# GULP energy per Si atom -12395.525421 kJ/mol
# Density = 2.156359 g / cm^3
# Si number density = 21.612777 Si / 1000 Ang^3
#
#
#
# Elastic Constant Matrix: (Units=GPa)
#
#
# Indices 1 2 3 4 5 6 
#
# 1 126.5001 36.1576 55.6366 -6.8564 -9.3864 -17.8944
# 2 36.1576 116.5866 49.7182 -15.1008 -12.4606 -1.5244
# 3 55.6366 49.7182 111.6840 -3.0252 -11.8644 -4.0813
# 4 -6.8564 -15.1008 -3.0252 38.8769 -0.1224 3.4768
# 5 -9.3864 -12.4606 -11.8644 -0.1224 35.5222 0.9533
# 6 -17.8944 -1.5244 -4.0813 3.4768 0.9533 38.2855
#
#
#
# Elastic Compliance Matrix: (Units=1/GPa)
#
#
# Indices 1 2 3 4 5 6 
#
# 1 0.011055 -0.001180 -0.004710 0.000722 0.000815 0.004532
# 2 -0.001180 0.011498 -0.004207 0.004024 0.002356 -0.000966
# 3 -0.004710 -0.004207 0.013289 -0.001347 0.001737 -0.000873
# 4 0.000722 0.004024 -0.001347 0.027507 0.001306 -0.002176
# 5 0.000815 0.002356 0.001737 0.001306 0.029783 -0.000200
# 6 0.004532 -0.000966 -0.000873 -0.002176 -0.000200 0.028309
#
#
# Mechanical properties :
#
#
# Convention : Reuss Voigt Hill
#
# Bulk Modulus (GPa) = 63.90537 70.86619 67.38578
# Shear Modulus (GPa) = 34.04862 36.75413 35.40138
#
# Velocity S-wave (km/s) = 3.97343 4.12828 4.05159
# Velocity P-wave (km/s) = 7.11922 7.45545 7.28928
#
# Compressibility (1/GPa) = 0.01564814
#
# Stress axis : x y z
#
# Youngs Moduli (GPa) = 90.46025 86.97474 75.25083
#
# Poissons Ratio (x) = 0.10263 0.35442
# Poissons Ratio (y) = 0.10674 0.31655
# Poissons Ratio (z) = 0.42606 0.36586
#
# Static dielectric constant tensor:
#      x y z
#    x 4.074830 0.021870 0.045700 
#    y 0.021870 4.056040 0.078740 
#    z 0.045700 0.078740 3.720600 
# 
# 
# High freq. dielectric constant tensor:
#      x y z
#    x 1.854870 -0.006010 -0.003830 
#    y -0.006010 1.853920 0.009070 
#    z -0.003830 0.009070 1.827070 
# 
# From -- ./inp_files/455803.got.cif
#   From: 2010.06.25/outbox.cif.g09.slc.cpg/sg2_228_cif.got.tgz:455803.got - 2010.06.27 13:26:56.
