data_PCOD8029866
_publ_section_title
;
Structure prediction by ZEFSAII (Michael W. Deem and Ramdas Pophale) SiO2 
 PCOD8029866
Probable space group: P -1
;
_chemical_formula_sum "Si O2"
_cell_formula_units_Z 16
_cell_length_a 9.327007
_cell_length_b 8.591344
_cell_length_c 18.952476
_cell_angle_alpha 101.848474
_cell_angle_beta 150.545034
_cell_angle_gamma 79.985361
_cell_volume 730.851036
_symmetry_space_group_name_H-M "P -1"
_symmetry_group_IT_number 2
_symmetry_cell_setting 'triclinic'
loop_
_space_group_symop_operation_xyz
x,y,z
-x,-y,-z
loop_
_atom_site_type_symbol
_atom_site_label
_atom_site_fract_x
_atom_site_fract_y
_atom_site_fract_z
Si Si1 0.750290 0.404663 0.206496
Si Si2 0.079153 0.143264 0.691145
Si Si3 0.771896 0.806457 0.546249
Si Si4 0.477276 0.678173 0.537316
Si Si5 0.412819 0.702544 0.134829
Si Si6 0.768275 0.265784 0.784014
Si Si7 0.026055 0.414755 0.174453
Si Si8 0.699835 0.847948 0.062632
O O1 0.618916 0.550283 0.206085
O O2 0.882010 0.455182 0.192015
O O3 0.993507 0.332369 0.355845
O O4 0.486648 0.283815 0.069415
O O5 0.365422 0.145754 0.763592
O O6 0.192226 0.208712 0.820371
O O7 0.847542 0.272969 0.575416
O O8 0.943620 0.968923 0.621176
O O9 0.579514 0.810446 0.535721
O O10 0.557958 0.772607 0.385952
O O11 0.500000 0.500000 0.500000
O O12 0.680978 0.686128 0.694604
O O13 0.237681 0.711026 0.132919
O O14 0.182092 0.697975 0.971609
O O15 0.897238 0.423511 0.817547
O O16 0.000720 0.125883 0.852358
O O17 0.500000 0.000000 0.000000
#
# Coordination Sequence:
#
# PCOD8029866 Si02
#       8
#     2   2   2   2   2   2   2   2
#     4  11  23  42  73 103 129 173 232 274 335 391
#     4  12  24  43  67  99 135 179 229 269 335 402
#     4  11  24  42  69 100 136 175 219 281 334 398
#     4  11  21  40  68 104 126 169 231 286 325 382
#     4  12  26  43  68 100 137 182 218 280 334 400
#     4  12  26  44  66 100 141 173 224 277 344 394
#     4  11  22  41  69 100 129 168 230 286 323 386
#     4  12  23  43  72 101 131 177 225 281 333 401
#
# _framework density 21.892287
#
# number of rings (size 3 to 8) (size 9 to 14) (size 15 to 20)
#    0.000    0.500    6.250    3.375    0.000    1.000 
#    0.000    0.625    2.750    0.000    0.000    0.000 
#    0.000    0.000    0.000    0.000    0.000    0.000 
#
# Total GULP energy -198362.569751 kJ/mol
# GULP energy per Si atom -12397.660609 kJ/mol
# Density = 2.184246 g / cm^3
# Si number density = 21.892287 Si / 1000 Ang^3
#
#
#
# Elastic Constant Matrix: (Units=GPa)
#
#
# Indices 1 2 3 4 5 6 
#
# 1 123.1764 42.8864 44.9569 -13.1991 7.4546 -2.3938
# 2 42.8864 90.4928 45.4679 5.7027 5.5141 16.8383
# 3 44.9569 45.4679 163.3194 -11.2607 17.6437 -6.5355
# 4 -13.1991 5.7027 -11.2607 40.7090 2.0727 13.0334
# 5 7.4546 5.5141 17.6437 2.0727 20.6107 4.6007
# 6 -2.3938 16.8383 -6.5355 13.0334 4.6007 20.8933
#
#
#
# Elastic Compliance Matrix: (Units=1/GPa)
#
#
# Indices 1 2 3 4 5 6 
#
# 1 0.010927 -0.005635 -0.000728 0.002859 -0.003106 0.004466
# 2 -0.005635 0.019643 -0.005310 -0.000163 0.005649 -0.019279
# 3 -0.000728 -0.005310 0.009050 0.000756 -0.007996 0.008316
# 4 0.002859 -0.000163 0.000756 0.031851 -0.000590 -0.019043
# 5 -0.003106 0.005649 -0.007996 -0.000590 0.059533 -0.020151
# 6 0.004466 -0.019279 0.008316 -0.019043 -0.020151 0.082829
#
#
# Mechanical properties :
#
#
# Convention : Reuss Voigt Hill
#
# Bulk Modulus (GPa) = 61.44637 71.51233 66.47935
# Shear Modulus (GPa) = 20.60973 32.68776 26.64875
#
# Velocity S-wave (km/s) = 3.07158 3.86828 3.49272
# Velocity P-wave (km/s) = 6.38028 7.25864 6.83359
#
# Compressibility (1/GPa) = 0.01627435
#
# Stress axis : x y z
#
# Youngs Moduli (GPa) = 91.51562 50.90967 110.49162
#
# Poissons Ratio (x) = 0.28687 0.08041
# Poissons Ratio (y) = 0.51567 0.58675
# Poissons Ratio (z) = 0.06660 0.27035
#
# Static dielectric constant tensor:
#      x y z
#    x 3.684790 -0.092330 0.316380 
#    y -0.092330 3.161790 -0.115220 
#    z 0.316380 -0.115220 4.662950 
# 
# 
# High freq. dielectric constant tensor:
#      x y z
#    x 1.826190 0.014640 0.023520 
#    y 0.014640 1.851950 0.000260 
#    z 0.023520 0.000260 1.894190 
# 
# From -- ./inp_files/557286.got.cif
#   From: 2010.06.25/outbox.cif.g09.slc.cpg/sg2_279_cif.got.tgz:557286.got - 2010.06.27 13:26:56.
