data_PCOD8029693
_publ_section_title
;
Structure prediction by ZEFSAII (Michael W. Deem and Ramdas Pophale) SiO2 
 PCOD8029693
Probable space group: P -1
;
_chemical_formula_sum "Si O2"
_cell_formula_units_Z 14
_cell_length_a 17.243661
_cell_length_b 8.399656
_cell_length_c 25.899486
_cell_angle_alpha 40.926380
_cell_angle_beta 18.822391
_cell_angle_gamma 31.783231
_cell_volume 610.357482
_symmetry_space_group_name_H-M "P -1"
_symmetry_group_IT_number 2
_symmetry_cell_setting 'triclinic'
loop_
_space_group_symop_operation_xyz
x,y,z
-x,-y,-z
loop_
_atom_site_type_symbol
_atom_site_label
_atom_site_fract_x
_atom_site_fract_y
_atom_site_fract_z
Si Si1 0.257925 0.957574 0.291576
Si Si2 0.836365 0.545843 0.538751
Si Si3 0.655328 0.410222 0.506211
Si Si4 0.670571 0.724947 0.182066
Si Si5 0.838061 0.025856 0.381180
Si Si6 0.201077 0.102406 0.841340
Si Si7 0.738851 0.813529 0.941233
O O1 0.145193 0.748090 0.416501
O O2 0.369558 0.966179 0.275945
O O3 0.561761 0.813385 0.101360
O O4 0.962355 0.299223 0.372154
O O5 0.000000 0.500000 0.500000
O O6 0.965630 0.664298 0.387117
O O7 0.476100 0.855495 0.690517
O O8 0.398163 0.472058 0.693052
O O9 0.767645 0.144107 0.456848
O O10 0.484501 0.744507 0.504128
O O11 0.673944 0.935460 0.170026
O O12 0.000000 0.500000 0.000000
O O13 0.104480 0.024878 0.188302
O O14 0.019482 0.443399 0.844881
O O15 0.000000 0.000000 0.000000
O O16 0.500000 0.000000 0.000000
#
# Coordination Sequence:
#
# PCOD8029693 Si02
#       7
#     2   2   2   2   2   2   2
#     4  12  24  40  66  99 130 172 217 264 326 391
#     4  12  22  40  63 101 127 165 219 271 313 373
#     4  11  21  39  63  94 126 174 217 264 320 383
#     4  12  22  41  63  93 134 171 213 264 334 387
#     4  11  21  38  65  94 131 165 216 275 313 372
#     4  12  23  41  66  96 125 164 221 267 313 380
#     4  12  22  40  66  97 128 171 218 266 325 384
#
# _framework density 22.937377999999999
#
# number of rings (size 3 to 8) (size 9 to 14) (size 15 to 20)
#    0.000    0.286    8.571    1.286    0.000    0.000 
#    0.000    0.714    0.000    2.571    0.000    0.000 
#    0.000    0.000    0.000    0.000    0.000    0.000 
#
# Total GULP energy -173457.100868 kJ/mol
# GULP energy per Si atom -12389.792919 kJ/mol
# Density = 2.288517 g / cm^3
# Si number density = 22.937378 Si / 1000 Ang^3
#
#
#
# Elastic Constant Matrix: (Units=GPa)
#
#
# Indices 1 2 3 4 5 6 
#
# 1 123.3487 30.1913 7.6023 2.6402 -37.1526 -31.9641
# 2 30.1913 99.4415 29.6904 -17.6719 -27.3189 -26.9542
# 3 7.6023 29.6904 110.8551 -11.0417 -5.9147 -11.4369
# 4 2.6402 -17.6719 -11.0417 40.5255 -3.9032 -4.4504
# 5 -37.1526 -27.3189 -5.9147 -3.9032 47.0597 6.2988
# 6 -31.9641 -26.9542 -11.4369 -4.4504 6.2988 33.0930
#
#
#
# Elastic Compliance Matrix: (Units=1/GPa)
#
#
# Indices 1 2 3 4 5 6 
#
# 1 0.014766 0.003441 0.000658 0.003572 0.011960 0.015496
# 2 0.003441 0.019862 -0.001932 0.011087 0.012522 0.017941
# 3 0.000658 -0.001932 0.010018 0.002189 0.000474 0.002729
# 4 0.003572 0.011087 0.002189 0.032573 0.010133 0.015688
# 5 0.011960 0.012522 0.000474 0.010133 0.036680 0.016296
# 6 0.015496 0.017941 0.002729 0.015688 0.016296 0.059749
#
#
# Mechanical properties :
#
#
# Convention : Reuss Voigt Hill
#
# Bulk Modulus (GPa) = 20.41649 52.06816 36.24232
# Shear Modulus (GPa) = 26.93394 41.87975 34.40685
#
# Velocity S-wave (km/s) = 3.43043 4.27761 3.87723
# Velocity P-wave (km/s) = 4.96093 6.86634 5.98989
#
# Compressibility (1/GPa) = 0.04898002
#
# Stress axis : x y z
#
# Youngs Moduli (GPa) = 67.72437 50.34841 99.82053
#
# Poissons Ratio (x) = -0.17326 -0.06572
# Poissons Ratio (y) = -0.23305 0.19287
# Poissons Ratio (z) = -0.04459 0.09728
#
# Static dielectric constant tensor:
#      x y z
#    x 2.384800 1.559460 0.671750 
#    y 1.559460 2.193360 -0.868000 
#    z 0.671750 -0.868000 4.337580 
# 
# 
# High freq. dielectric constant tensor:
#      x y z
#    x 1.891940 -0.040230 -0.012660 
#    y -0.040230 1.887480 -0.004080 
#    z -0.012660 -0.004080 1.933870 
# 
# From -- ./inp_files/250666.got.cif
#   From: 2010.06.25/outbox.cif.g09.slc.cpg/sg2_126_cif.got.tgz:250666.got - 2010.06.27 13:26:56.
