data_PCOD8029178
_publ_section_title
;
Structure prediction by ZEFSAII (Michael W. Deem and Ramdas Pophale) SiO2 
 PCOD8029178
Probable space group: P -1
;
_chemical_formula_sum "Si O2"
_cell_formula_units_Z 16
_cell_length_a 14.398489
_cell_length_b 9.832544
_cell_length_c 13.185980
_cell_angle_alpha 71.556305
_cell_angle_beta 130.155461
_cell_angle_gamma 68.666038
_cell_volume 841.633858
_symmetry_space_group_name_H-M "P -1"
_symmetry_group_IT_number 2
_symmetry_cell_setting 'triclinic'
loop_
_space_group_symop_operation_xyz
x,y,z
-x,-y,-z
loop_
_atom_site_type_symbol
_atom_site_label
_atom_site_fract_x
_atom_site_fract_y
_atom_site_fract_z
Si Si1 0.100504 0.292654 0.547508
Si Si2 0.931431 0.046849 0.055252
Si Si3 0.602661 0.184358 0.024044
Si Si4 0.656663 0.298789 0.524131
Si Si5 0.521841 0.912893 0.213943
Si Si6 0.713096 0.588825 0.095199
Si Si7 0.342944 0.560585 0.090837
Si Si8 0.596352 0.203322 0.702325
O O1 0.262591 0.218972 0.608297
O O2 0.000000 0.500000 0.500000
O O3 0.934475 0.374308 0.341752
O O4 0.205814 0.073103 0.739208
O O5 0.807037 0.296693 0.952631
O O6 0.785402 0.045017 0.948355
O O7 0.120996 0.855818 0.304991
O O8 0.000000 0.000000 0.000000
O O9 0.498580 0.191840 0.859763
O O10 0.437489 0.358636 0.952453
O O11 0.674606 0.273298 0.019739
O O12 0.561151 0.336700 0.342282
O O13 0.652648 0.168233 0.631673
O O14 0.554183 0.531801 0.442713
O O15 0.495768 0.865946 0.318583
O O16 0.354325 0.184310 0.012462
O O17 0.710091 0.522843 0.997380
#
# Coordination Sequence:
#
# PCOD8029178 Si02
#       8
#     2   2   2   2   2   2   2   2
#     4  11  21  36  59  82 114 154 194 234 280 331
#     4   9  18  33  57  85 112 142 189 235 275 335
#     4  11  21  38  59  85 112 150 196 234 272 347
#     4   9  18  34  58  82 116 143 184 236 289 325
#     4  11  20  37  60  83 113 148 195 234 277 340
#     4  11  24  39  55  83 123 152 186 238 284 337
#     4  11  23  38  57  87 120 149 186 238 291 331
#     4   9  18  34  57  89 108 143 192 237 273 336
#
# _framework density 19.010643000000002
#
# number of rings (size 3 to 8) (size 9 to 14) (size 15 to 20)
#    0.000    1.750    5.000    1.875    0.000    5.500 
#    0.000    0.625    0.000    3.750    0.000    0.000 
#    0.000    0.000    0.000    0.000    0.000    0.000 
#
# Total GULP energy -198311.597490 kJ/mol
# GULP energy per Si atom -12394.474843 kJ/mol
# Density = 1.896737 g / cm^3
# Si number density = 19.010643 Si / 1000 Ang^3
#
#
#
# Elastic Constant Matrix: (Units=GPa)
#
#
# Indices 1 2 3 4 5 6 
#
# 1 80.1331 14.0806 31.5485 -11.5127 -1.4699 3.2847
# 2 14.0806 54.3671 21.3885 12.9956 3.8681 -13.2269
# 3 31.5485 21.3885 150.9879 6.0243 11.9265 -0.6140
# 4 -11.5127 12.9956 6.0243 21.7738 -3.3713 -3.3354
# 5 -1.4699 3.8681 11.9265 -3.3713 25.3018 -4.3983
# 6 3.2847 -13.2269 -0.6140 -3.3354 -4.3983 23.6454
#
#
#
# Elastic Compliance Matrix: (Units=1/GPa)
#
#
# Indices 1 2 3 4 5 6 
#
# 1 0.017874 -0.008298 -0.003626 0.015629 0.005401 -0.004010
# 2 -0.008298 0.029605 -0.001220 -0.020315 -0.004717 0.013939
# 3 -0.003626 -0.001220 0.008091 -0.004374 -0.004674 -0.001455
# 4 0.015629 -0.020315 -0.004374 0.069727 0.015195 -0.000987
# 5 0.005401 -0.004717 -0.004674 0.015195 0.046036 0.007196
# 6 -0.004010 0.013939 -0.001455 -0.000987 0.007196 0.051807
#
#
# Mechanical properties :
#
#
# Convention : Reuss Voigt Hill
#
# Bulk Modulus (GPa) = 34.15051 46.61370 40.38211
# Shear Modulus (GPa) = 19.29089 28.70890 23.99990
#
# Velocity S-wave (km/s) = 3.18896 3.89028 3.55695
# Velocity P-wave (km/s) = 5.61802 6.68970 6.17714
#
# Compressibility (1/GPa) = 0.02928214
#
# Stress axis : x y z
#
# Youngs Moduli (GPa) = 55.94846 33.77763 123.59036
#
# Poissons Ratio (x) = 0.28030 0.44810
# Poissons Ratio (y) = 0.46428 0.15079
# Poissons Ratio (z) = 0.20285 0.04121
#
# Static dielectric constant tensor:
#      x y z
#    x 3.741150 -0.109180 0.195330 
#    y -0.109180 3.192130 -0.038940 
#    z 0.195330 -0.038940 3.951300 
# 
# 
# High freq. dielectric constant tensor:
#      x y z
#    x 1.738050 -0.007790 0.008750 
#    y -0.007790 1.703850 -0.001450 
#    z 0.008750 -0.001450 1.750720 
# 
# From -- ./inp_files/529554.got.cif
#   From: 2010.06.25/outbox.cif.g09.slc.cpg/sg2_265_cif.got.tgz:529554.got - 2010.06.27 13:26:56.
