data_PCOD8029181
_publ_section_title
;
Structure prediction by ZEFSAII (Michael W. Deem and Ramdas Pophale) SiO2 
 PCOD8029181
Probable space group: P -1
;
_chemical_formula_sum "Si O2"
_cell_formula_units_Z 16
_cell_length_a 11.984733
_cell_length_b 11.964377
_cell_length_c 15.045665
_cell_angle_alpha 53.381259
_cell_angle_beta 151.414006
_cell_angle_gamma 118.694724
_cell_volume 823.153920
_symmetry_space_group_name_H-M "P -1"
_symmetry_group_IT_number 2
_symmetry_cell_setting 'triclinic'
loop_
_space_group_symop_operation_xyz
x,y,z
-x,-y,-z
loop_
_atom_site_type_symbol
_atom_site_label
_atom_site_fract_x
_atom_site_fract_y
_atom_site_fract_z
Si Si1 0.394019 0.142575 0.308417
Si Si2 0.998630 0.892148 0.712081
Si Si3 0.653451 0.961075 0.211177
Si Si4 0.654591 0.579208 0.776955
Si Si5 0.919964 0.595420 0.773776
Si Si6 0.500340 0.986330 0.732694
Si Si7 0.439946 0.345035 0.654293
Si Si8 0.861225 0.158404 0.973768
O O1 0.493898 0.279468 0.355025
O O2 0.453265 0.140102 0.245511
O O3 0.500000 0.000000 0.500000
O O4 0.114410 0.177276 0.105196
O O5 0.062877 0.731661 0.803282
O O6 0.716897 0.913002 0.507480
O O7 0.088640 0.998050 0.652192
O O8 0.111725 0.918528 0.874613
O O9 0.656861 0.795773 0.310429
O O10 0.558231 0.052170 0.188062
O O11 0.500000 0.000000 0.000000
O O12 0.752731 0.613721 0.733417
O O13 0.482272 0.456820 0.707718
O O14 0.877885 0.534615 0.018092
O O15 0.756401 0.577235 0.583731
O O16 0.733218 0.065525 0.858721
O O17 0.692224 0.305238 0.799624
#
# Coordination Sequence:
#
# PCOD8029181 Si02
#       8
#     2   2   2   2   2   2   2   2
#     4  12  24  41  60  87 129 169 199 246 307 383
#     4  12  19  39  64  96 122 156 207 261 308 350
#     4  11  21  37  66  97 121 155 209 266 303 347
#     4  11  22  39  58  86 130 161 199 252 303 368
#     4  11  20  37  60  92 122 160 204 251 310 357
#     4  11  23  37  59  90 123 165 195 250 314 360
#     4  11  22  37  63  95 122 159 204 256 310 353
#     4  11  20  38  62  91 126 152 204 254 307 360
#
# _framework density 19.437434
#
# number of rings (size 3 to 8) (size 9 to 14) (size 15 to 20)
#    0.000    0.750    8.750    1.875    0.000    0.000 
#    2.250    0.000    0.000    3.750    0.000    0.000 
#    0.000    0.000    0.000    0.000    0.000    0.000 
#
# Total GULP energy -198275.128708 kJ/mol
# GULP energy per Si atom -12392.195544 kJ/mol
# Density = 1.939319 g / cm^3
# Si number density = 19.437434 Si / 1000 Ang^3
#
#
#
# Elastic Constant Matrix: (Units=GPa)
#
#
# Indices 1 2 3 4 5 6 
#
# 1 89.8536 49.4322 26.3922 -3.5631 -9.3981 -13.5686
# 2 49.4322 109.5424 29.1967 -2.5053 1.1805 -12.1012
# 3 26.3922 29.1967 107.0600 5.7806 -20.1172 -6.5266
# 4 -3.5631 -2.5053 5.7806 27.2846 -2.2275 1.2113
# 5 -9.3981 1.1805 -20.1172 -2.2275 24.5350 7.8720
# 6 -13.5686 -12.1012 -6.5266 1.2113 7.8720 34.7922
#
#
#
# Elastic Compliance Matrix: (Units=1/GPa)
#
#
# Indices 1 2 3 4 5 6 
#
# 1 0.016137 -0.006688 -0.001189 0.002030 0.004889 0.002567
# 2 -0.006688 0.013376 -0.003088 0.000334 -0.006656 0.002959
# 3 -0.001189 -0.003088 0.012409 -0.002178 0.010128 -0.001425
# 4 0.002030 0.000334 -0.002178 0.037707 0.002869 -0.001462
# 5 0.004889 -0.006656 0.010128 0.002869 0.055067 -0.011068
# 6 0.002567 0.002959 -0.001425 -0.001462 -0.011068 0.033060
#
#
# Mechanical properties :
#
#
# Convention : Reuss Voigt Hill
#
# Bulk Modulus (GPa) = 50.01378 57.38870 53.70124
# Shear Modulus (GPa) = 25.46476 30.75134 28.10805
#
# Velocity S-wave (km/s) = 3.62344 3.98184 3.80686
# Velocity P-wave (km/s) = 6.57969 7.12243 6.85643
#
# Compressibility (1/GPa) = 0.01999449
#
# Stress axis : x y z
#
# Youngs Moduli (GPa) = 61.96853 74.76013 80.58451
#
# Poissons Ratio (x) = 0.49999 0.09579
# Poissons Ratio (y) = 0.41444 0.24881
# Poissons Ratio (z) = 0.07366 0.23082
#
# Static dielectric constant tensor:
#      x y z
#    x 3.640130 0.038160 -0.091540 
#    y 0.038160 3.827110 0.195560 
#    z -0.091540 0.195560 3.684990 
# 
# 
# High freq. dielectric constant tensor:
#      x y z
#    x 1.718590 -0.001170 -0.014740 
#    y -0.001170 1.755120 0.021970 
#    z -0.014740 0.021970 1.769010 
# 
# From -- ./inp_files/434071.got.cif
#   From: 2010.06.25/outbox.cif.g09.slc.cpg/sg2_218_cif.got.tgz:434071.got - 2010.06.27 13:26:56.
