data_PCOD8029489
_publ_section_title
;
Structure prediction by ZEFSAII (Michael W. Deem and Ramdas Pophale) SiO2 
 PCOD8029489
Probable space group: P -1
;
_chemical_formula_sum "Si O2"
_cell_formula_units_Z 14
_cell_length_a 8.765701
_cell_length_b 12.160037
_cell_length_c 15.915894
_cell_angle_alpha 154.007751
_cell_angle_beta 134.300819
_cell_angle_gamma 52.793534
_cell_volume 530.657441
_symmetry_space_group_name_H-M "P -1"
_symmetry_group_IT_number 2
_symmetry_cell_setting 'triclinic'
loop_
_space_group_symop_operation_xyz
x,y,z
-x,-y,-z
loop_
_atom_site_type_symbol
_atom_site_label
_atom_site_fract_x
_atom_site_fract_y
_atom_site_fract_z
Si Si1 0.209422 0.576398 0.083310
Si Si2 0.806737 0.289760 0.491091
Si Si3 0.938725 0.253991 0.022914
Si Si4 0.466931 0.081516 0.343284
Si Si5 0.374950 0.481063 0.722633
Si Si6 0.777629 0.910559 0.475463
Si Si7 0.736719 0.122363 0.167482
O O1 0.169027 0.559478 0.956697
O O2 0.395200 0.409244 0.075030
O O3 0.286302 0.866229 0.334326
O O4 0.000000 0.500000 0.000000
O O5 0.579756 0.220230 0.401629
O O6 0.780592 0.290171 0.381716
O O7 0.968974 0.082499 0.443653
O O8 0.898513 0.576278 0.740851
O O9 0.744493 0.094982 0.887839
O O10 0.081425 0.071843 0.899844
O O11 0.399403 0.293740 0.526229
O O12 0.635043 0.910601 0.336929
O O13 0.252496 0.353735 0.667472
O O14 0.246877 0.708237 0.794183
O O15 0.500000 0.000000 0.000000
#
# Coordination Sequence:
#
# PCOD8029489 Si02
#       7
#     2   2   2   2   2   2   2
#     4  11  20  42  79 109 139 192 253 311 373 439
#     4  12  28  47  77 118 151 196 261 313 375 459
#     4  12  25  50  79 111 150 201 256 313 382 445
#     4  11  23  46  76 115 156 191 250 328 379 442
#     4  11  23  45  79 104 150 205 248 307 377 458
#     4  11  22  47  73 113 154 191 254 314 381 450
#     4  12  28  52  77 109 156 208 252 307 383 455
#
# _framework density 26.382369000000001
#
# number of rings (size 3 to 8) (size 9 to 14) (size 15 to 20)
#    0.000    0.571    4.286    4.714    0.000    6.286 
#    0.000    3.571    0.000    0.000    0.000    0.000 
#    0.000    0.000    0.000    0.000    0.000    0.000 
#
# Total GULP energy -173627.077324 kJ/mol
# GULP energy per Si atom -12401.934095 kJ/mol
# Density = 2.632232 g / cm^3
# Si number density = 26.382369 Si / 1000 Ang^3
#
#
#
# Elastic Constant Matrix: (Units=GPa)
#
#
# Indices 1 2 3 4 5 6 
#
# 1 109.2709 19.9787 36.2889 -11.2078 24.8322 6.3314
# 2 19.9787 110.4927 37.4032 -5.5811 6.4559 9.4851
# 3 36.2889 37.4032 130.5983 -30.1744 19.8657 14.4534
# 4 -11.2078 -5.5811 -30.1744 25.5962 -7.1208 5.1009
# 5 24.8322 6.4559 19.8657 -7.1208 37.5127 -1.4162
# 6 6.3314 9.4851 14.4534 5.1009 -1.4162 36.9796
#
#
#
# Elastic Compliance Matrix: (Units=1/GPa)
#
#
# Indices 1 2 3 4 5 6 
#
# 1 0.011533 -0.001023 -0.001322 0.001803 -0.006480 -0.001692
# 2 -0.001023 0.010221 -0.002834 -0.001293 0.000130 -0.001156
# 3 -0.001322 -0.002834 0.013562 0.015215 -0.003179 -0.006568
# 4 0.001803 -0.001293 0.015215 0.060907 0.001995 -0.014249
# 5 -0.006480 0.000130 -0.003179 0.001995 0.033112 0.003311
# 6 -0.001692 -0.001156 -0.006568 -0.014249 0.003311 0.032287
#
#
# Mechanical properties :
#
#
# Convention : Reuss Voigt Hill
#
# Bulk Modulus (GPa) = 40.06652 59.74483 49.90567
# Shear Modulus (GPa) = 27.73159 37.13043 32.43101
#
# Velocity S-wave (km/s) = 3.24565 3.75560 3.50990
# Velocity P-wave (km/s) = 5.40976 6.44212 5.94838
#
# Compressibility (1/GPa) = 0.02495849
#
# Stress axis : x y z
#
# Youngs Moduli (GPa) = 86.70548 97.83916 73.73585
#
# Poissons Ratio (x) = 0.10007 0.09750
# Poissons Ratio (y) = 0.08869 0.20895
# Poissons Ratio (z) = 0.11465 0.27725
#
# Static dielectric constant tensor:
#      x y z
#    x 4.716140 -0.221550 0.044460 
#    y -0.221550 4.958190 -0.063970 
#    z 0.044460 -0.063970 4.503860 
# 
# 
# High freq. dielectric constant tensor:
#      x y z
#    x 2.066000 -0.008080 0.007620 
#    y -0.008080 2.053140 -0.009170 
#    z 0.007620 -0.009170 2.059580 
# 
# From -- ./inp_files/501301.got.cif
#   From: 2010.06.25/outbox.cif.g09.slc.cpg/sg2_251_cif.got.tgz:501301.got - 2010.06.27 13:26:56.
