data_PCOD8029297
_publ_section_title
;
Structure prediction by ZEFSAII (Michael W. Deem and Ramdas Pophale) SiO2 
 PCOD8029297
Probable space group: P -1
;
_chemical_formula_sum "Si O2"
_cell_formula_units_Z 16
_cell_length_a 9.261012
_cell_length_b 11.970542
_cell_length_c 12.854983
_cell_angle_alpha 87.066156
_cell_angle_beta 46.722366
_cell_angle_gamma 58.466998
_cell_volume 768.238420
_symmetry_space_group_name_H-M "P -1"
_symmetry_group_IT_number 2
_symmetry_cell_setting 'triclinic'
loop_
_space_group_symop_operation_xyz
x,y,z
-x,-y,-z
loop_
_atom_site_type_symbol
_atom_site_label
_atom_site_fract_x
_atom_site_fract_y
_atom_site_fract_z
Si Si1 0.968231 0.582687 0.672365
Si Si2 0.651979 0.438329 0.180837
Si Si3 0.236209 0.195551 0.847696
Si Si4 0.278694 0.764113 0.679829
Si Si5 0.522869 0.911672 0.591021
Si Si6 0.100508 0.615454 0.389256
Si Si7 0.258867 0.159831 0.069159
Si Si8 0.637330 0.631602 0.338344
O O1 0.822588 0.533749 0.690922
O O2 0.788308 0.720927 0.834050
O O3 0.057777 0.630336 0.533665
O O4 0.202556 0.437283 0.629303
O O5 0.568716 0.367481 0.301619
O O6 0.388280 0.571437 0.236474
O O7 0.741545 0.508241 0.205638
O O8 0.911697 0.312056 0.988062
O O9 0.352337 0.246867 0.713352
O O10 0.380728 0.025384 0.753474
O O11 0.317020 0.192628 0.926504
O O12 0.348838 0.866048 0.663177
O O13 0.346605 0.711720 0.526498
O O14 0.971214 0.845313 0.835480
O O15 0.841067 0.771212 0.458766
O O16 0.500000 0.000000 0.500000
O O17 0.500000 0.000000 0.000000
#
# Coordination Sequence:
#
# PCOD8029297 Si02
#       8
#     2   2   2   2   2   2   2   2
#     4  11  20  39  69  93 131 166 220 273 319 390
#     4  11  23  39  68 104 124 169 228 278 327 389
#     4  11  25  41  66  94 138 178 213 273 345 385
#     4  11  21  40  71  89 125 179 221 260 329 392
#     4  12  24  45  64  95 139 179 218 271 333 400
#     4  11  22  39  67 102 124 171 228 276 311 394
#     4  11  25  42  62 101 135 173 220 276 328 393
#     4  12  20  43  69  95 130 176 221 269 328 397
#
# _framework density 20.826868000000001
#
# number of rings (size 3 to 8) (size 9 to 14) (size 15 to 20)
#    0.000    0.750    6.250    3.000    0.000    3.000 
#    2.250    3.750    0.000    0.000    0.000    0.000 
#    0.000    0.000    0.000    0.000    0.000    0.000 
#
# Total GULP energy -198253.322551 kJ/mol
# GULP energy per Si atom -12390.832659 kJ/mol
# Density = 2.077947 g / cm^3
# Si number density = 20.826868 Si / 1000 Ang^3
#
#
#
# Elastic Constant Matrix: (Units=GPa)
#
#
# Indices 1 2 3 4 5 6 
#
# 1 86.6891 33.9265 29.9283 10.8255 8.1612 -10.0543
# 2 33.9265 105.4755 35.6606 1.9624 1.2856 -7.1075
# 3 29.9283 35.6606 87.6516 13.4510 7.4828 -5.0739
# 4 10.8255 1.9624 13.4510 39.9933 6.2174 2.1239
# 5 8.1612 1.2856 7.4828 6.2174 32.4180 11.1478
# 6 -10.0543 -7.1075 -5.0739 2.1239 11.1478 43.7956
#
#
#
# Elastic Compliance Matrix: (Units=1/GPa)
#
#
# Indices 1 2 3 4 5 6 
#
# 1 0.014964 -0.003549 -0.002743 -0.002564 -0.003746 0.003620
# 2 -0.003549 0.011938 -0.003938 0.001539 0.000910 0.000360
# 3 -0.002743 -0.003938 0.014786 -0.003750 -0.002260 0.001201
# 4 -0.002564 0.001539 -0.003750 0.027477 -0.003393 -0.001242
# 5 -0.003746 0.000910 -0.002260 -0.003393 0.036390 -0.010073
# 6 0.003620 0.000360 0.001201 -0.001242 -0.010073 0.026486
#
#
# Mechanical properties :
#
#
# Convention : Reuss Voigt Hill
#
# Bulk Modulus (GPa) = 47.10732 53.20523 50.15628
# Shear Modulus (GPa) = 31.33289 35.26144 33.29716
#
# Velocity S-wave (km/s) = 3.88293 4.11916 4.00279
# Velocity P-wave (km/s) = 6.53991 6.94444 6.74521
#
# Compressibility (1/GPa) = 0.02122812
#
# Stress axis : x y z
#
# Youngs Moduli (GPa) = 66.82793 83.76343 67.63359
#
# Poissons Ratio (x) = 0.29724 0.18551
# Poissons Ratio (y) = 0.23714 0.26637
# Poissons Ratio (z) = 0.18330 0.32989
#
# Static dielectric constant tensor:
#      x y z
#    x 3.945710 -0.123520 0.286170 
#    y -0.123520 3.841870 0.180990 
#    z 0.286170 0.180990 4.171190 
# 
# 
# High freq. dielectric constant tensor:
#      x y z
#    x 1.813750 -0.001340 0.012230 
#    y -0.001340 1.810130 0.008040 
#    z 0.012230 0.008040 1.820180 
# 
# From -- ./inp_files/190156.got.cif
#   From: 2010.06.25/outbox.cif.g09.slc.cpg/sg2_96_cif.got.tgz:190156.got - 2010.06.27 13:26:56.
