data_PCOD8029771
_publ_section_title
;
Structure prediction by ZEFSAII (Michael W. Deem and Ramdas Pophale) SiO2 
 PCOD8029771
Probable space group: P -1
;
_chemical_formula_sum "Si O2"
_cell_formula_units_Z 16
_cell_length_a 15.898690
_cell_length_b 15.784686
_cell_length_c 9.424742
_cell_angle_alpha 144.918578
_cell_angle_beta 38.946081
_cell_angle_gamma 141.143274
_cell_volume 785.443817
_symmetry_space_group_name_H-M "P -1"
_symmetry_group_IT_number 2
_symmetry_cell_setting 'triclinic'
loop_
_space_group_symop_operation_xyz
x,y,z
-x,-y,-z
loop_
_atom_site_type_symbol
_atom_site_label
_atom_site_fract_x
_atom_site_fract_y
_atom_site_fract_z
Si Si1 0.188497 0.647238 0.853226
Si Si2 0.850032 0.420478 0.673711
Si Si3 0.111805 0.397028 0.835997
Si Si4 0.372179 0.274973 0.984015
Si Si5 0.678358 0.455901 0.709941
Si Si6 0.445520 0.864512 0.999343
Si Si7 0.612076 0.672120 0.636299
Si Si8 0.647798 0.057772 0.476314
O O1 0.124520 0.469233 0.760059
O O2 0.257335 0.649539 0.612316
O O3 0.303612 0.730954 0.937936
O O4 0.061941 0.716425 0.087283
O O5 0.744138 0.488512 0.826054
O O6 0.775549 0.225539 0.490719
O O7 0.000000 0.500000 0.500000
O O8 0.860247 0.472623 0.895319
O O9 0.220199 0.304114 0.581552
O O10 0.276320 0.372416 0.193390
O O11 0.417388 0.310721 0.136875
O O12 0.508885 0.346275 0.795998
O O13 0.290514 0.083169 0.806979
O O14 0.573695 0.802406 0.777863
O O15 0.399454 0.932308 0.289833
O O16 0.500000 0.000000 0.000000
O O17 0.500000 0.500000 0.500000
O O18 0.500000 0.000000 0.500000
#
# Coordination Sequence:
#
# PCOD8029771 Si02
#       8
#     2   2   2   2   2   2   2   2
#     4  11  22  41  66  97 129 174 222 271 332 403
#     4  12  24  42  69  96 129 179 230 265 331 410
#     4  11  23  41  70  92 131 176 221 276 332 398
#     4  11  23  38  67  99 133 169 221 282 335 390
#     4  11  21  39  67 100 128 169 225 274 327 402
#     4  12  25  40  69 101 133 171 225 280 340 399
#     4  12  21  42  66  99 130 174 225 277 333 396
#     4  12  23  43  64  96 136 177 215 280 341 393
#
# _framework density 20.370647999999999
#
# number of rings (size 3 to 8) (size 9 to 14) (size 15 to 20)
#    0.000    0.500    7.500    1.500    0.000    3.000 
#    0.000    1.250    0.000    0.000    0.000    0.000 
#    0.000    0.000    0.000    0.000    0.000    0.000 
#
# Total GULP energy -198244.780428 kJ/mol
# GULP energy per Si atom -12390.298777 kJ/mol
# Density = 2.032428 g / cm^3
# Si number density = 20.370648 Si / 1000 Ang^3
#
#
#
# Elastic Constant Matrix: (Units=GPa)
#
#
# Indices 1 2 3 4 5 6 
#
# 1 110.3845 33.5034 44.6980 -1.4075 -18.1083 -10.6588
# 2 33.5034 104.8331 46.7343 -0.6560 -11.1763 -15.0557
# 3 44.6980 46.7343 117.8939 -7.6551 -4.6460 -1.3410
# 4 -1.4075 -0.6560 -7.6551 31.7935 -5.8299 -6.0978
# 5 -18.1083 -11.1763 -4.6460 -5.8299 34.3244 -4.4819
# 6 -10.6588 -15.0557 -1.3410 -6.0978 -4.4819 32.9161
#
#
#
# Elastic Compliance Matrix: (Units=1/GPa)
#
#
# Indices 1 2 3 4 5 6 
#
# 1 0.012500 -0.000810 -0.003989 0.001715 0.006702 0.004745
# 2 -0.000810 0.013244 -0.004627 0.001137 0.004288 0.006402
# 3 -0.003989 -0.004627 0.011818 0.001627 -0.002115 -0.002913
# 4 0.001715 0.001137 0.001627 0.035223 0.008632 0.008842
# 5 0.006702 0.004288 -0.002115 0.008632 0.036634 0.010632
# 6 0.004745 0.006402 -0.002913 0.008842 0.010632 0.037812
#
#
# Mechanical properties :
#
#
# Convention : Reuss Voigt Hill
#
# Bulk Modulus (GPa) = 53.44774 64.77587 59.11180
# Shear Modulus (GPa) = 29.01596 33.68519 31.35057
#
# Velocity S-wave (km/s) = 3.77822 4.07088 3.92727
# Velocity P-wave (km/s) = 6.73259 7.34600 7.04598
#
# Compressibility (1/GPa) = 0.01870987
#
# Stress axis : x y z
#
# Youngs Moduli (GPa) = 80.00272 75.50371 84.61748
#
# Poissons Ratio (x) = 0.06116 0.33750
# Poissons Ratio (y) = 0.06480 0.39156
# Poissons Ratio (z) = 0.31909 0.34939
#
# Static dielectric constant tensor:
#      x y z
#    x 4.007190 -0.285740 0.037970 
#    y -0.285740 3.370240 0.063810 
#    z 0.037970 0.063810 3.906880 
# 
# 
# High freq. dielectric constant tensor:
#      x y z
#    x 1.812680 -0.009510 0.009010 
#    y -0.009510 1.775260 -0.015040 
#    z 0.009010 -0.015040 1.796640 
# 
# From -- ./inp_files/271611.got.cif
#   From: 2010.06.25/outbox.cif.g09.slc.cpg/sg2_136_cif.got.tgz:271611.got - 2010.06.27 13:26:56.
