data_PCOD8029794
_publ_section_title
;
Structure prediction by ZEFSAII (Michael W. Deem and Ramdas Pophale) SiO2 
 PCOD8029794
Probable space group: P -1
;
_chemical_formula_sum "Si O2"
_cell_formula_units_Z 16
_cell_length_a 17.822510
_cell_length_b 12.377500
_cell_length_c 21.062219
_cell_angle_alpha 29.301691
_cell_angle_beta 19.725574
_cell_angle_gamma 28.929590
_cell_volume 724.781576
_symmetry_space_group_name_H-M "P -1"
_symmetry_group_IT_number 2
_symmetry_cell_setting 'triclinic'
loop_
_space_group_symop_operation_xyz
x,y,z
-x,-y,-z
loop_
_atom_site_type_symbol
_atom_site_label
_atom_site_fract_x
_atom_site_fract_y
_atom_site_fract_z
Si Si1 0.756546 0.516303 0.280407
Si Si2 0.863774 0.743723 0.451263
Si Si3 0.991558 0.991100 0.331600
Si Si4 0.294317 0.740241 0.030795
Si Si5 0.670493 0.135399 0.201750
Si Si6 0.959745 0.653201 0.176459
Si Si7 0.095652 0.155856 0.388667
Si Si8 0.629176 0.955314 0.082813
O O1 0.500000 0.500000 0.500000
O O2 0.839679 0.612560 0.228279
O O3 0.757618 0.679136 0.134983
O O4 0.929181 0.259703 0.261025
O O5 0.609636 0.766447 0.611721
O O6 0.000000 0.500000 0.500000
O O7 0.032392 0.765936 0.249440
O O8 0.819829 0.940836 0.440683
O O9 0.246925 0.926624 0.128039
O O10 0.000804 0.836469 0.466273
O O11 0.500000 0.500000 0.000000
O O12 0.265476 0.786438 0.956927
O O13 0.382206 0.930573 0.897569
O O14 0.771347 0.852713 0.267168
O O15 0.817504 0.259648 0.065371
O O16 0.039252 0.419496 0.275190
O O17 0.367381 0.009527 0.240704
O O18 0.000000 0.000000 0.500000
#
# Coordination Sequence:
#
# PCOD8029794 Si02
#       8
#     2   2   2   2   2   2   2   2
#     4  12  21  45  73  98 136 181 237 283 340 412
#     4  11  24  40  70 105 127 176 236 278 343 407
#     4  11  25  42  69 101 133 174 233 288 334 406
#     4  11  21  39  70 100 130 172 226 289 335 403
#     4  11  23  45  66  98 147 178 224 283 353 419
#     4  11  25  42  71 100 142 190 218 285 359 405
#     4  12  24  45  66  99 138 181 230 278 346 405
#     4  11  24  42  71  97 131 180 232 283 340 402
#
# _framework density 22.075614999999999
#
# number of rings (size 3 to 8) (size 9 to 14) (size 15 to 20)
#    0.000    0.750    5.000    2.625    3.500    0.500 
#    0.000    3.750    5.500    0.000    0.000    0.000 
#    0.000    0.000    0.000    0.000    0.000    0.000 
#
# Total GULP energy -198325.802614 kJ/mol
# GULP energy per Si atom -12395.362663 kJ/mol
# Density = 2.202537 g / cm^3
# Si number density = 22.075615 Si / 1000 Ang^3
#
#
#
# Elastic Constant Matrix: (Units=GPa)
#
#
# Indices 1 2 3 4 5 6 
#
# 1 90.6380 30.1199 55.4685 3.5783 -14.9671 -3.4936
# 2 30.1199 125.7220 34.0120 -17.5469 -9.1736 -14.3253
# 3 55.4685 34.0120 117.9785 8.8666 -20.9103 -1.7093
# 4 3.5783 -17.5469 8.8666 38.9528 -3.5247 0.3722
# 5 -14.9671 -9.1736 -20.9103 -3.5247 51.8483 -7.3317
# 6 -3.4936 -14.3253 -1.7093 0.3722 -7.3317 38.3786
#
#
#
# Elastic Compliance Matrix: (Units=1/GPa)
#
#
# Indices 1 2 3 4 5 6 
#
# 1 0.016074 -0.001942 -0.006636 -0.000696 0.001682 0.000771
# 2 -0.001942 0.010280 -0.002174 0.005384 0.001278 0.003756
# 3 -0.006636 -0.002174 0.012920 -0.003067 0.002659 -0.000302
# 4 -0.000696 0.005384 -0.003067 0.029000 0.001749 0.001863
# 5 0.001682 0.001278 0.002659 0.001749 0.021885 0.004913
# 6 0.000771 0.003756 -0.000302 0.001863 0.004913 0.028435
#
#
# Mechanical properties :
#
#
# Convention : Reuss Voigt Hill
#
# Bulk Modulus (GPa) = 56.27448 63.72657 60.00053
# Shear Modulus (GPa) = 34.24122 40.15182 37.19652
#
# Velocity S-wave (km/s) = 3.94266 4.26940 4.10928
# Velocity P-wave (km/s) = 6.80243 7.29615 7.05361
#
# Compressibility (1/GPa) = 0.01777004
#
# Stress axis : x y z
#
# Youngs Moduli (GPa) = 62.21099 97.27410 77.39798
#
# Poissons Ratio (x) = 0.18895 0.51360
# Poissons Ratio (y) = 0.12084 0.16827
# Poissons Ratio (z) = 0.41283 0.21148
#
# Static dielectric constant tensor:
#      x y z
#    x 4.114100 0.140780 -0.120590 
#    y 0.140780 4.420350 -0.219810 
#    z -0.120590 -0.219810 4.205390 
# 
# 
# High freq. dielectric constant tensor:
#      x y z
#    x 1.868110 -0.003500 -0.012400 
#    y -0.003500 1.878020 -0.013080 
#    z -0.012400 -0.013080 1.877280 
# 
# From -- ./inp_files/282963.got.cif
#   From: 2010.06.25/outbox.cif.g09.slc.cpg/sg2_142_cif.got.tgz:282963.got - 2010.06.27 13:26:56.
