data_PCOD8029838
_publ_section_title
;
Structure prediction by ZEFSAII (Michael W. Deem and Ramdas Pophale) SiO2 
 PCOD8029838
Probable space group: P -1
;
_chemical_formula_sum "Si O2"
_cell_formula_units_Z 16
_cell_length_a 14.879727
_cell_length_b 11.432889
_cell_length_c 11.739761
_cell_angle_alpha 76.186229
_cell_angle_beta 150.770063
_cell_angle_gamma 122.260201
_cell_volume 688.863341
_symmetry_space_group_name_H-M "P -1"
_symmetry_group_IT_number 2
_symmetry_cell_setting 'triclinic'
loop_
_space_group_symop_operation_xyz
x,y,z
-x,-y,-z
loop_
_atom_site_type_symbol
_atom_site_label
_atom_site_fract_x
_atom_site_fract_y
_atom_site_fract_z
Si Si1 0.431814 0.592215 0.664554
Si Si2 0.605037 0.032563 0.734391
Si Si3 0.834487 0.152631 0.538724
Si Si4 0.683654 0.466090 0.003965
Si Si5 0.857373 0.327811 0.094111
Si Si6 0.845206 0.111407 0.311049
Si Si7 0.376602 0.235329 0.920534
Si Si8 0.123766 0.075196 0.998285
O O1 0.470451 0.465869 0.731399
O O2 0.608638 0.735224 0.731822
O O3 0.143267 0.492709 0.342342
O O4 0.520289 0.685945 0.860599
O O5 0.500000 0.000000 0.500000
O O6 0.378380 0.894118 0.600644
O O7 0.822859 0.028506 0.979622
O O8 0.727970 0.214073 0.865629
O O9 0.714954 0.079450 0.297566
O O10 0.049428 0.349683 0.722567
O O11 0.940118 0.070788 0.715872
O O12 0.603166 0.363408 0.054211
O O13 0.705383 0.379450 0.946871
O O14 0.841047 0.227008 0.202681
O O15 0.137489 0.211000 0.633648
O O16 0.698276 0.938418 0.125366
O O17 0.000000 0.000000 0.000000
#
# Coordination Sequence:
#
# PCOD8029838 Si02
#       8
#     2   2   2   2   2   2   2   2
#     4  11  23  45  68 102 143 178 232 283 345 410
#     4  12  27  48  72  99 135 179 241 291 334 408
#     4  11  24  46  71 103 142 181 231 287 343 406
#     4  11  23  41  66 102 148 183 220 283 342 413
#     4  12  27  43  71 106 139 186 225 278 357 412
#     4  11  23  40  70 108 142 183 230 276 342 417
#     4  11  21  40  66 101 145 185 217 285 332 409
#     4  11  23  46  78  96 127 190 230 284 349 398
#
# _framework density 23.226668
#
# number of rings (size 3 to 8) (size 9 to 14) (size 15 to 20)
#    0.000    0.750    5.000    3.375    1.750    6.000 
#    0.000    3.125    0.000    0.000    0.000    0.000 
#    0.000    0.000    0.000    0.000    0.000    0.000 
#
# Total GULP energy -198496.773632 kJ/mol
# GULP energy per Si atom -12406.048352 kJ/mol
# Density = 2.317380 g / cm^3
# Si number density = 23.226668 Si / 1000 Ang^3
#
#
#
# Elastic Constant Matrix: (Units=GPa)
#
#
# Indices 1 2 3 4 5 6 
#
# 1 166.5193 54.5166 58.8697 7.2311 7.2195 -4.2165
# 2 54.5166 87.4098 25.3668 12.8986 -4.9144 -6.8735
# 3 58.8697 25.3668 78.4084 19.5813 -7.4516 1.2894
# 4 7.2311 12.8986 19.5813 35.8527 2.7041 7.9691
# 5 7.2195 -4.9144 -7.4516 2.7041 43.6456 3.9204
# 6 -4.2165 -6.8735 1.2894 7.9691 3.9204 50.0519
#
#
#
# Elastic Compliance Matrix: (Units=1/GPa)
#
#
# Indices 1 2 3 4 5 6 
#
# 1 0.010297 -0.005073 -0.007481 0.004120 -0.003807 0.000006
# 2 -0.005073 0.015664 0.000352 -0.005544 0.002793 0.002379
# 3 -0.007481 0.000352 0.021485 -0.010807 0.005602 0.000147
# 4 0.004120 -0.005544 -0.010807 0.036567 -0.004916 -0.005573
# 5 -0.003807 0.002793 0.005602 -0.004916 0.025232 -0.001275
# 6 0.000006 0.002379 0.000147 -0.005573 -0.001275 0.021290
#
#
# Mechanical properties :
#
#
# Convention : Reuss Voigt Hill
#
# Bulk Modulus (GPa) = 43.39676 67.76040 55.57858
# Shear Modulus (GPa) = 30.74648 38.81567 34.78107
#
# Velocity S-wave (km/s) = 3.64230 4.09243 3.87390
# Velocity P-wave (km/s) = 6.03432 7.18105 6.63251
#
# Compressibility (1/GPa) = 0.02304320
#
# Stress axis : x y z
#
# Youngs Moduli (GPa) = 97.11497 63.83958 46.54308
#
# Poissons Ratio (x) = 0.32384 0.34818
# Poissons Ratio (y) = 0.49264 -0.01637
# Poissons Ratio (z) = 0.72649 -0.02245
#
# Static dielectric constant tensor:
#      x y z
#    x 4.402360 -0.085240 0.363560 
#    y -0.085240 4.404400 0.105370 
#    z 0.363560 0.105370 4.259080 
# 
# 
# High freq. dielectric constant tensor:
#      x y z
#    x 1.927320 -0.006840 0.023390 
#    y -0.006840 1.927690 0.004450 
#    z 0.023390 0.004450 1.912130 
# 
# From -- ./inp_files/452303.got.cif
#   From: 2010.06.25/outbox.cif.g09.slc.cpg/sg2_227_cif.got.tgz:452303.got - 2010.06.27 13:26:56.
