data_PCOD8029088
_publ_section_title
;
Structure prediction by ZEFSAII (Michael W. Deem and Ramdas Pophale) SiO2 
 PCOD8029088
Probable space group: P -1
;
_chemical_formula_sum "Si O2"
_cell_formula_units_Z 16
_cell_length_a 16.990506
_cell_length_b 8.535933
_cell_length_c 20.202446
_cell_angle_alpha 41.124088
_cell_angle_beta 150.136065
_cell_angle_gamma 144.626561
_cell_volume 833.687735
_symmetry_space_group_name_H-M "P -1"
_symmetry_group_IT_number 2
_symmetry_cell_setting 'triclinic'
loop_
_space_group_symop_operation_xyz
x,y,z
-x,-y,-z
loop_
_atom_site_type_symbol
_atom_site_label
_atom_site_fract_x
_atom_site_fract_y
_atom_site_fract_z
Si Si1 0.850336 0.470766 0.349168
Si Si2 0.660510 0.991166 0.033978
Si Si3 0.146846 0.013242 0.552056
Si Si4 0.026905 0.073846 0.299523
Si Si5 0.500330 0.574693 0.834105
Si Si6 0.191086 0.376681 0.199811
Si Si7 0.215641 0.944605 0.036054
Si Si8 0.478602 0.599012 0.234075
O O1 0.652365 0.352457 0.275898
O O2 0.000000 0.500000 0.500000
O O3 0.843675 0.268864 0.350340
O O4 0.919472 0.778757 0.277673
O O5 0.868088 0.157814 0.162546
O O6 0.531476 0.716336 0.068345
O O7 0.671990 0.901286 0.996441
O O8 0.580423 0.197201 0.908507
O O9 0.105177 0.074449 0.428311
O O10 0.338717 0.251651 0.638646
O O11 0.000000 0.000000 0.500000
O O12 0.192461 0.264159 0.310419
O O13 0.492558 0.565020 0.752075
O O14 0.699498 0.824100 0.919004
O O15 0.243840 0.688097 0.152516
O O16 0.334941 0.381374 0.250693
O O17 0.998603 0.177837 0.088686
#
# Coordination Sequence:
#
# PCOD8029088 Si02
#       8
#     2   2   2   2   2   2   2   2
#     4   9  18  34  56  79 105 138 179 224 273 319
#     4   9  18  35  56  84 109 140 184 230 273 317
#     4  11  22  38  59  84 110 140 177 230 283 322
#     4   9  19  37  60  80 111 147 182 220 268 331
#     4  11  20  33  55  84 111 144 183 228 277 318
#     4   9  19  36  53  78 108 148 184 217 269 325
#     4   9  18  33  55  76 108 144 184 227 270 323
#     4  11  22  34  54  83 118 145 181 226 267 324
#
# _framework density 19.191838000000001
#
# number of rings (size 3 to 8) (size 9 to 14) (size 15 to 20)
#    0.000    2.250    0.000    5.250    0.000    3.000 
#    0.000    1.250    0.000    4.500    0.000    0.000 
#    0.000    0.000    0.000    0.000    0.000    0.000 
#
# Total GULP energy -198270.544620 kJ/mol
# GULP energy per Si atom -12391.909039 kJ/mol
# Density = 1.914816 g / cm^3
# Si number density = 19.191838 Si / 1000 Ang^3
#
#
#
# Elastic Constant Matrix: (Units=GPa)
#
#
# Indices 1 2 3 4 5 6 
#
# 1 149.6112 65.7707 44.0849 3.0312 -4.9518 7.4518
# 2 65.7707 86.6123 31.0087 17.8525 -12.4323 11.1088
# 3 44.0849 31.0087 83.4267 5.5847 -5.1949 -0.0581
# 4 3.0312 17.8525 5.5847 25.1402 -1.1424 -4.9088
# 5 -4.9518 -12.4323 -5.1949 -1.1424 34.1301 0.7475
# 6 7.4518 11.1088 -0.0581 -4.9088 0.7475 33.3621
#
#
#
# Elastic Compliance Matrix: (Units=1/GPa)
#
#
# Indices 1 2 3 4 5 6 
#
# 1 0.011428 -0.009307 -0.003115 0.006121 -0.002034 0.001487
# 2 -0.009307 0.025550 -0.002947 -0.017843 0.007112 -0.009218
# 3 -0.003115 -0.002947 0.014803 -0.000473 0.000676 0.001618
# 4 0.006121 -0.017843 -0.000473 0.054091 -0.004149 0.012625
# 5 -0.002034 0.007112 0.000676 -0.004149 0.031630 -0.003232
# 6 0.001487 -0.009218 0.001618 0.012625 -0.003232 0.034644
#
#
# Mechanical properties :
#
#
# Convention : Reuss Voigt Hill
#
# Bulk Modulus (GPa) = 47.52493 66.81987 57.17240
# Shear Modulus (GPa) = 23.82090 30.44553 27.13321
#
# Velocity S-wave (km/s) = 3.52689 3.98726 3.76412
# Velocity P-wave (km/s) = 6.43445 7.48933 6.98184
#
# Compressibility (1/GPa) = 0.02104159
#
# Stress axis : x y z
#
# Youngs Moduli (GPa) = 87.50416 39.13923 67.55423
#
# Poissons Ratio (x) = 0.36429 0.21042
# Poissons Ratio (y) = 0.81444 0.19911
# Poissons Ratio (z) = 0.27256 0.11536
#
# Static dielectric constant tensor:
#      x y z
#    x 3.665990 -0.141800 0.234190 
#    y -0.141800 3.848240 -0.286830 
#    z 0.234190 -0.286830 3.808570 
# 
# 
# High freq. dielectric constant tensor:
#      x y z
#    x 1.739450 0.005850 0.000670 
#    y 0.005850 1.736100 0.008480 
#    z 0.000670 0.008480 1.745420 
# 
# From -- ./inp_files/348772.got.cif
#   From: 2010.06.25/outbox.cif.g09.slc.cpg/sg2_175_cif.got.tgz:348772.got - 2010.06.27 13:26:56.
