data_PCOD8029457
_publ_section_title
;
Structure prediction by ZEFSAII (Michael W. Deem and Ramdas Pophale) SiO2 
 PCOD8029457
Probable space group: P -1
;
_chemical_formula_sum "Si O2"
_cell_formula_units_Z 16
_cell_length_a 17.372068
_cell_length_b 20.056374
_cell_length_c 11.476673
_cell_angle_alpha 139.289677
_cell_angle_beta 148.351336
_cell_angle_gamma 21.565554
_cell_volume 759.365807
_symmetry_space_group_name_H-M "P -1"
_symmetry_group_IT_number 2
_symmetry_cell_setting 'triclinic'
loop_
_space_group_symop_operation_xyz
x,y,z
-x,-y,-z
loop_
_atom_site_type_symbol
_atom_site_label
_atom_site_fract_x
_atom_site_fract_y
_atom_site_fract_z
Si Si1 0.806502 0.549213 0.468374
Si Si2 0.708044 0.961709 0.761038
Si Si3 0.217093 0.956233 0.245998
Si Si4 0.599081 0.226101 0.108588
Si Si5 0.080965 0.091892 0.505516
Si Si6 0.082741 0.587444 0.820494
Si Si7 0.570475 0.751354 0.833882
Si Si8 0.069234 0.597618 0.319759
O O1 0.498531 0.741444 0.301241
O O2 0.939089 0.423048 0.358916
O O3 0.854781 0.448083 0.506684
O O4 0.940931 0.581845 0.707406
O O5 0.923439 0.785898 0.892732
O O6 0.500000 0.000000 0.500000
O O7 0.843397 0.921432 0.763836
O O8 0.576479 0.130842 0.886749
O O9 0.204938 0.008999 0.428237
O O10 0.000000 0.000000 0.000000
O O11 0.536397 0.247670 0.191342
O O12 0.882659 0.114096 0.308578
O O13 0.380428 0.428445 0.038870
O O14 0.932514 0.286387 0.578321
O O15 0.321384 0.951036 0.718962
O O16 0.703256 0.593505 0.709319
O O17 0.779925 0.716905 0.090763
#
# Coordination Sequence:
#
# PCOD8029457 Si02
#       8
#     2   2   2   2   2   2   2   2
#     4  11  20  42  68  95 136 171 215 279 327 391
#     4  12  24  41  70 102 134 180 220 269 339 398
#     4  12  23  42  67 102 139 168 215 277 338 399
#     4  12  26  45  66 102 137 176 225 275 328 405
#     4  12  26  45  69  97 139 178 218 277 341 393
#     4  11  22  39  68  99 132 172 219 270 329 396
#     4  11  26  46  69  96 134 175 234 277 320 399
#     4  11  25  45  72  99 129 178 227 277 335 387
#
# _framework density 21.070212999999999
#
# number of rings (size 3 to 8) (size 9 to 14) (size 15 to 20)
#    0.000    0.500    6.250    2.250    1.750    3.500 
#    0.000    2.500    0.000    0.000    0.000    0.000 
#    0.000    0.000    0.000    0.000    0.000    0.000 
#
# Total GULP energy -198477.852789 kJ/mol
# GULP energy per Si atom -12404.865799 kJ/mol
# Density = 2.102226 g / cm^3
# Si number density = 21.070213 Si / 1000 Ang^3
#
#
#
# Elastic Constant Matrix: (Units=GPa)
#
#
# Indices 1 2 3 4 5 6 
#
# 1 127.7957 29.9429 22.3249 -0.3262 -3.6957 7.5423
# 2 29.9429 100.4849 25.4967 -15.3367 0.5759 22.4538
# 3 22.3249 25.4967 63.5334 -8.6149 8.4747 7.2384
# 4 -0.3262 -15.3367 -8.6149 32.6973 2.9659 -1.6722
# 5 -3.6957 0.5759 8.4747 2.9659 39.4506 -5.8641
# 6 7.5423 22.4538 7.2384 -1.6722 -5.8641 37.3033
#
#
#
# Elastic Compliance Matrix: (Units=1/GPa)
#
#
# Indices 1 2 3 4 5 6 
#
# 1 0.008861 -0.002315 -0.002684 -0.001837 0.001622 0.000295
# 2 -0.002315 0.013862 -0.003021 0.005426 -0.001255 -0.007244
# 3 -0.002684 -0.003021 0.019324 0.003995 -0.004954 -0.001988
# 4 -0.001837 0.005426 0.003995 0.034394 -0.004108 -0.002774
# 5 0.001622 -0.001255 -0.004954 -0.004108 0.027718 0.005562
# 6 0.000295 -0.007244 -0.001988 -0.002774 0.005562 0.032244
#
#
# Mechanical properties :
#
#
# Convention : Reuss Voigt Hill
#
# Bulk Modulus (GPa) = 38.44998 49.70476 44.07737
# Shear Modulus (GPa) = 31.03422 36.16022 33.59722
#
# Velocity S-wave (km/s) = 3.84200 4.14717 3.99750
# Velocity P-wave (km/s) = 6.16193 6.82446 6.50164
#
# Compressibility (1/GPa) = 0.02600782
#
# Stress axis : x y z
#
# Youngs Moduli (GPa) = 112.85343 72.13841 51.74819
#
# Poissons Ratio (x) = 0.16701 0.13888
# Poissons Ratio (y) = 0.26127 0.15634
# Poissons Ratio (z) = 0.30286 0.21794
#
# Static dielectric constant tensor:
#      x y z
#    x 3.480650 0.645620 -0.015630 
#    y 0.645620 3.076790 -0.155230 
#    z -0.015630 -0.155230 3.672320 
# 
# 
# High freq. dielectric constant tensor:
#      x y z
#    x 1.839940 0.002780 -0.002540 
#    y 0.002780 1.831410 -0.014850 
#    z -0.002540 -0.014850 1.817960 
# 
# From -- ./inp_files/307068.got.cif
#   From: 2010.06.25/outbox.cif.g09.slc.cpg/sg2_154_cif.got.tgz:307068.got - 2010.06.27 13:26:56.
