data_PCOD8029115
_publ_section_title
;
Structure prediction by ZEFSAII (Michael W. Deem and Ramdas Pophale) SiO2 
 PCOD8029115
Probable space group: P -1
;
_chemical_formula_sum "Si O2"
_cell_formula_units_Z 16
_cell_length_a 7.903475
_cell_length_b 14.380473
_cell_length_c 8.240380
_cell_angle_alpha 125.948553
_cell_angle_beta 87.102389
_cell_angle_gamma 62.620859
_cell_volume 602.631601
_symmetry_space_group_name_H-M "P -1"
_symmetry_group_IT_number 2
_symmetry_cell_setting 'triclinic'
loop_
_space_group_symop_operation_xyz
x,y,z
-x,-y,-z
loop_
_atom_site_type_symbol
_atom_site_label
_atom_site_fract_x
_atom_site_fract_y
_atom_site_fract_z
Si Si1 0.760767 0.292458 0.671581
Si Si2 0.989627 0.535952 0.851570
Si Si3 0.380190 0.829368 0.958525
Si Si4 0.429946 0.381274 0.011610
Si Si5 0.017332 0.128876 0.173335
Si Si6 0.540328 0.979314 0.291523
Si Si7 0.723421 0.757433 0.635577
Si Si8 0.961251 0.232824 0.947177
O O1 0.532410 0.329130 0.772262
O O2 0.864800 0.192340 0.406094
O O3 0.908574 0.214757 0.745932
O O4 0.706509 0.446498 0.790320
O O5 0.082302 0.397243 0.596334
O O6 0.732441 0.654179 0.965294
O O7 0.107665 0.605359 0.872922
O O8 0.000000 0.500000 0.000000
O O9 0.379152 0.714120 0.961079
O O10 0.164179 0.951159 0.988874
O O11 0.408154 0.927361 0.173094
O O12 0.585332 0.733832 0.736576
O O13 0.175975 0.173307 0.209217
O O14 0.876518 0.199587 0.082524
O O15 0.436530 0.137745 0.388727
O O16 0.500000 0.000000 0.500000
O O17 0.789496 0.881663 0.148353
#
# Coordination Sequence:
#
# PCOD8029115 Si02
#       8
#     2   2   2   2   2   2   2   2
#     4  11  26  45  65  93 134 178 212 263 330 379
#     4  12  22  39  67 101 127 166 223 268 320 382
#     4  11  22  40  64  95 129 168 213 265 333 379
#     4  11  24  44  65  88 139 172 210 269 320 387
#     4  11  21  42  66  94 132 173 212 266 330 384
#     4  11  20  34  63  98 131 161 203 273 327 376
#     4  11  21  37  62 101 134 158 208 278 331 374
#     4  12  22  41  69 100 128 162 222 274 315 389
#
# _framework density 26.550217
#
# number of rings (size 3 to 8) (size 9 to 14) (size 15 to 20)
#    0.000    0.750    6.250    3.000    1.750    1.500 
#    0.000    4.375    0.000    0.000    0.000    0.000 
#    0.000    0.000    0.000    0.000    0.000    0.000 
#
# Total GULP energy -198250.856706 kJ/mol
# GULP energy per Si atom -12390.678544 kJ/mol
# Density = 2.648979 g / cm^3
# Si number density = 26.550217 Si / 1000 Ang^3
#
#
#
# Elastic Constant Matrix: (Units=GPa)
#
#
# Indices 1 2 3 4 5 6 
#
# 1 58.1113 53.4944 35.6929 -3.5062 -4.4913 -0.6487
# 2 53.4944 180.6984 74.2898 -31.5012 -4.9847 4.8749
# 3 35.6929 74.2898 148.6545 -22.5258 -23.6068 1.3234
# 4 -3.5062 -31.5012 -22.5258 43.2300 -1.2878 -0.1776
# 5 -4.4913 -4.9847 -23.6068 -1.2878 35.1899 -3.9242
# 6 -0.6487 4.8749 1.3234 -0.1776 -3.9242 56.1808
#
#
#
# Elastic Compliance Matrix: (Units=1/GPa)
#
#
# Indices 1 2 3 4 5 6 
#
# 1 0.025442 -0.007020 -0.003345 -0.004792 -0.000059 0.000962
# 2 -0.007020 0.009497 -0.002470 0.005027 -0.001125 -0.000910
# 3 -0.003345 -0.002470 0.010288 0.003479 0.006295 0.000384
# 4 -0.004792 0.005027 0.003479 0.028321 0.003443 -0.000243
# 5 -0.000059 -0.001125 0.006295 0.003443 0.032851 0.002254
# 6 0.000962 -0.000910 0.000384 -0.000243 0.002254 0.018037
#
#
# Mechanical properties :
#
#
# Convention : Reuss Voigt Hill
#
# Bulk Modulus (GPa) = 51.12817 79.37981 65.25399
# Shear Modulus (GPa) = 31.92361 41.85262 36.88811
#
# Velocity S-wave (km/s) = 3.47131 3.97464 3.73147
# Velocity P-wave (km/s) = 5.94690 7.14329 6.57237
#
# Compressibility (1/GPa) = 0.01955869
#
# Stress axis : x y z
#
# Youngs Moduli (GPa) = 39.30520 105.29112 97.20402
#
# Poissons Ratio (x) = 0.73913 0.32513
# Poissons Ratio (y) = 0.27592 0.24005
# Poissons Ratio (z) = 0.13147 0.26002
#
# Static dielectric constant tensor:
#      x y z
#    x 9.639470 -2.179940 -0.703750 
#    y -2.179940 6.395910 0.193300 
#    z -0.703750 0.193300 4.533500 
# 
# 
# High freq. dielectric constant tensor:
#      x y z
#    x 2.100030 -0.007900 -0.017280 
#    y -0.007900 2.111910 -0.008620 
#    z -0.017280 -0.008620 2.045540 
# 
# From -- ./inp_files/208664.got.cif
#   From: 2010.06.25/outbox.cif.g09.slc.cpg/sg2_105_cif.got.tgz:208664.got - 2010.06.27 13:26:56.
