data_PCOD8029528
_publ_section_title
;
Structure prediction by ZEFSAII (Michael W. Deem and Ramdas Pophale) SiO2 
 PCOD8029528
Probable space group: P -1
;
_chemical_formula_sum "Si O2"
_cell_formula_units_Z 16
_cell_length_a 9.861237
_cell_length_b 26.602311
_cell_length_c 9.566765
_cell_angle_alpha 135.277186
_cell_angle_beta 127.139746
_cell_angle_gamma 24.632587
_cell_volume 728.440433
_symmetry_space_group_name_H-M "P -1"
_symmetry_group_IT_number 2
_symmetry_cell_setting 'triclinic'
loop_
_space_group_symop_operation_xyz
x,y,z
-x,-y,-z
loop_
_atom_site_type_symbol
_atom_site_label
_atom_site_fract_x
_atom_site_fract_y
_atom_site_fract_z
Si Si1 0.447524 0.746103 0.969887
Si Si2 0.835775 0.744042 0.731757
Si Si3 0.183281 0.759302 0.083192
Si Si4 0.496973 0.940030 0.671382
Si Si5 0.270604 0.988093 0.049943
Si Si6 0.241637 0.461106 0.484428
Si Si7 0.388840 0.157185 0.750991
Si Si8 0.679572 0.363147 0.801807
O O1 0.609321 0.636610 0.742044
O O2 0.094789 0.901014 0.003013
O O3 0.431141 0.710214 0.035741
O O4 0.664902 0.739478 0.110720
O O5 0.685292 0.810130 0.614753
O O6 0.045521 0.597260 0.565728
O O7 0.073503 0.723229 0.880540
O O8 0.538279 0.841774 0.850261
O O9 0.366672 0.677747 0.182977
O O10 0.879371 0.922060 0.240744
O O11 0.671974 0.951215 0.842839
O O12 0.513470 0.920645 0.479485
O O13 0.314305 0.962345 0.191854
O O14 0.539561 0.381545 0.608255
O O15 0.000000 0.500000 0.500000
O O16 0.064261 0.240610 0.782099
O O17 0.500000 0.500000 0.000000
#
# Coordination Sequence:
#
# PCOD8029528 Si02
#       8
#     2   2   2   2   2   2   2   2
#     4  12  26  44  68 105 143 182 232 282 347 406
#     4  11  21  45  72  98 142 180 230 280 351 411
#     4  11  23  44  72 102 139 181 230 286 342 415
#     4  11  22  41  73 100 135 181 238 279 348 405
#     4  11  20  44  69 101 136 186 225 284 340 416
#     4  12  28  47  72 103 138 185 233 281 348 415
#     4  12  26  41  68 106 140 179 233 290 338 407
#     4  12  24  46  72  98 140 184 227 283 346 409
#
# _framework density 21.964732999999999
#
# number of rings (size 3 to 8) (size 9 to 14) (size 15 to 20)
#    0.000    0.500    6.250    3.750    1.750    3.000 
#    0.000    1.875    0.000    0.000    0.000    0.000 
#    0.000    0.000    0.000    0.000    0.000    0.000 
#
# Total GULP energy -198509.063018 kJ/mol
# GULP energy per Si atom -12406.816439 kJ/mol
# Density = 2.191474 g / cm^3
# Si number density = 21.964733 Si / 1000 Ang^3
#
#
#
# Elastic Constant Matrix: (Units=GPa)
#
#
# Indices 1 2 3 4 5 6 
#
# 1 118.9611 37.2293 29.6414 4.5672 -14.3507 12.7218
# 2 37.2293 75.0622 7.9835 6.6699 -0.1084 20.2859
# 3 29.6414 7.9835 75.9064 11.9143 -10.9126 -7.5799
# 4 4.5672 6.6699 11.9143 26.2323 6.8805 -1.7672
# 5 -14.3507 -0.1084 -10.9126 6.8805 35.6605 -1.1471
# 6 12.7218 20.2859 -7.5799 -1.7672 -1.1471 31.4686
#
#
#
# Elastic Compliance Matrix: (Units=1/GPa)
#
#
# Indices 1 2 3 4 5 6 
#
# 1 0.011452 -0.004603 -0.003709 -0.000201 0.003420 -0.002443
# 2 -0.004603 0.018987 -0.000913 -0.003907 -0.001670 -0.010879
# 3 -0.003709 -0.000913 0.017390 -0.008078 0.005579 0.006026
# 4 -0.000201 -0.003907 -0.008078 0.045984 -0.011346 0.002823
# 5 0.003420 -0.001670 0.005579 -0.011346 0.033362 0.001617
# 6 -0.002443 -0.010879 0.006026 0.002823 0.001617 0.041447
#
#
# Mechanical properties :
#
#
# Convention : Reuss Voigt Hill
#
# Bulk Modulus (GPa) = 34.03601 46.62647 40.33124
# Shear Modulus (GPa) = 25.39817 31.67733 28.53775
#
# Velocity S-wave (km/s) = 3.40415 3.80174 3.60843
# Velocity P-wave (km/s) = 5.56600 6.36749 5.98019
#
# Compressibility (1/GPa) = 0.02938065
#
# Stress axis : x y z
#
# Youngs Moduli (GPa) = 87.32029 52.66733 57.50409
#
# Poissons Ratio (x) = 0.24241 0.21327
# Poissons Ratio (y) = 0.40191 0.05250
# Poissons Ratio (z) = 0.32385 0.04808
#
# Static dielectric constant tensor:
#      x y z
#    x 4.598240 -1.008130 -1.115950 
#    y -1.008130 6.474510 2.217790 
#    z -1.115950 2.217790 6.144580 
# 
# 
# High freq. dielectric constant tensor:
#      x y z
#    x 1.870440 0.014750 -0.008400 
#    y 0.014750 1.864190 0.000050 
#    z -0.008400 0.000050 1.863350 
# 
# From -- ./inp_files/206245.got.cif
#   From: 2010.06.25/outbox.cif.g09.slc.cpg/sg2_104_cif.got.tgz:206245.got - 2010.06.27 13:26:56.
