data_PCOD8029969
_publ_section_title
;
Structure prediction by ZEFSAII (Michael W. Deem and Ramdas Pophale) SiO2 
 PCOD8029969
Probable space group: P -1
;
_chemical_formula_sum "Si O2"
_cell_formula_units_Z 16
_cell_length_a 8.963031
_cell_length_b 11.320313
_cell_length_c 16.783762
_cell_angle_alpha 152.291799
_cell_angle_beta 73.556336
_cell_angle_gamma 114.367429
_cell_volume 707.568822
_symmetry_space_group_name_H-M "P -1"
_symmetry_group_IT_number 2
_symmetry_cell_setting 'triclinic'
loop_
_space_group_symop_operation_xyz
x,y,z
-x,-y,-z
loop_
_atom_site_type_symbol
_atom_site_label
_atom_site_fract_x
_atom_site_fract_y
_atom_site_fract_z
Si Si1 0.115794 0.479576 0.363655
Si Si2 0.316203 0.100859 0.428621
Si Si3 0.083085 0.861947 0.007930
Si Si4 0.734032 0.391440 0.741340
Si Si5 0.170970 0.726078 0.083007
Si Si6 0.212683 0.561365 0.687238
Si Si7 0.504489 0.635744 0.997122
Si Si8 0.352241 0.758284 0.626827
O O1 0.256782 0.642667 0.375066
O O2 0.176957 0.597744 0.512616
O O3 0.955221 0.547874 0.404998
O O4 0.072585 0.154777 0.166916
O O5 0.238446 0.328367 0.600055
O O6 0.505691 0.251427 0.460637
O O7 0.298648 0.896794 0.382655
O O8 0.212828 0.950480 0.278445
O O9 0.209450 0.805259 0.891226
O O10 0.903209 0.619926 0.885528
O O11 0.157050 0.868886 0.088323
O O12 0.576733 0.483337 0.831035
O O13 0.319837 0.609590 0.982682
O O14 0.000000 0.500000 0.000000
O O15 0.357880 0.638853 0.643590
O O16 0.634252 0.938801 0.173062
O O17 0.500000 0.500000 0.000000
#
# Coordination Sequence:
#
# PCOD8029969 Si02
#       8
#     2   2   2   2   2   2   2   2
#     4  11  25  42  69  94 131 175 219 271 315 389
#     4  11  24  43  63  96 136 169 212 274 327 380
#     4  11  23  44  67  97 129 170 222 270 320 380
#     4  11  22  45  64  96 137 169 218 268 323 383
#     4  11  22  41  67  97 128 166 214 266 318 389
#     4  11  24  42  67  95 131 178 215 267 326 377
#     4  11  21  41  67  95 128 171 209 260 330 379
#     4  11  23  43  65  95 131 170 217 269 321 391
#
# _framework density 22.612641
#
# number of rings (size 3 to 8) (size 9 to 14) (size 15 to 20)
#    0.000    1.000    3.750    4.500    0.000    6.500 
#    2.250    3.750    0.000    0.000    0.000    0.000 
#    0.000    0.000    0.000    0.000    0.000    0.000 
#
# Total GULP energy -198345.969224 kJ/mol
# GULP energy per Si atom -12396.623077 kJ/mol
# Density = 2.256117 g / cm^3
# Si number density = 22.612641 Si / 1000 Ang^3
#
#
#
# Elastic Constant Matrix: (Units=GPa)
#
#
# Indices 1 2 3 4 5 6 
#
# 1 77.4879 22.1784 27.8343 20.1370 -23.3134 -3.0103
# 2 22.1784 116.2014 19.9456 8.2016 -19.7406 0.8304
# 3 27.8343 19.9456 64.3934 18.7255 -13.1665 -2.9468
# 4 20.1370 8.2016 18.7255 34.8164 -8.4738 -1.2553
# 5 -23.3134 -19.7406 -13.1665 -8.4738 41.8723 4.1269
# 6 -3.0103 0.8304 -2.9468 -1.2553 4.1269 30.8468
#
#
#
# Elastic Compliance Matrix: (Units=1/GPa)
#
#
# Indices 1 2 3 4 5 6 
#
# 1 0.018621 -0.001142 -0.004362 -0.006410 0.007140 0.000215
# 2 -0.001142 0.009739 -0.001916 0.000211 0.003496 -0.001016
# 3 -0.004362 -0.001916 0.020602 -0.007707 0.001480 0.001082
# 4 -0.006410 0.000211 -0.007707 0.036907 0.001584 -0.000077
# 5 0.007140 0.003496 0.001480 0.001584 0.030615 -0.003287
# 6 0.000215 -0.001016 0.001082 -0.000077 -0.003287 0.033007
#
#
# Mechanical properties :
#
#
# Convention : Reuss Voigt Hill
#
# Bulk Modulus (GPa) = 29.30614 44.22214 36.76414
# Shear Modulus (GPa) = 28.45696 34.04873 31.25284
#
# Velocity S-wave (km/s) = 3.55132 3.88459 3.72169
# Velocity P-wave (km/s) = 5.45931 6.30230 5.89589
#
# Compressibility (1/GPa) = 0.03412255
#
# Stress axis : x y z
#
# Youngs Moduli (GPa) = 53.70323 102.68194 48.53954
#
# Poissons Ratio (x) = 0.11722 0.21172
# Poissons Ratio (y) = 0.06131 0.09301
# Poissons Ratio (z) = 0.23424 0.19675
#
# Static dielectric constant tensor:
#      x y z
#    x 3.774910 -0.052620 0.080680 
#    y -0.052620 4.344330 -0.084600 
#    z 0.080680 -0.084600 4.291130 
# 
# 
# High freq. dielectric constant tensor:
#      x y z
#    x 1.892830 -0.001020 -0.007530 
#    y -0.001020 1.911370 -0.001000 
#    z -0.007530 -0.001000 1.880700 
# 
# From -- ./inp_files/560161.got.cif
#   From: 2010.06.25/outbox.cif.g09.slc.cpg/sg2_281_cif.got.tgz:560161.got - 2010.06.27 13:26:56.
