data_PCOD8029550
_publ_section_title
;
Structure prediction by ZEFSAII (Michael W. Deem and Ramdas Pophale) SiO2 
 PCOD8029550
Probable space group: P -1
;
_chemical_formula_sum "Si O2"
_cell_formula_units_Z 14
_cell_length_a 11.848588
_cell_length_b 8.274770
_cell_length_c 14.257282
_cell_angle_alpha 30.492265
_cell_angle_beta 59.451648
_cell_angle_gamma 57.671618
_cell_volume 595.672427
_symmetry_space_group_name_H-M "P -1"
_symmetry_group_IT_number 2
_symmetry_cell_setting 'triclinic'
loop_
_space_group_symop_operation_xyz
x,y,z
-x,-y,-z
loop_
_atom_site_type_symbol
_atom_site_label
_atom_site_fract_x
_atom_site_fract_y
_atom_site_fract_z
Si Si1 0.229024 0.487810 0.961920
Si Si2 0.345161 0.687910 0.990602
Si Si3 0.526339 0.622563 0.210922
Si Si4 0.725445 0.570551 0.657029
Si Si5 0.127308 0.876829 0.652201
Si Si6 0.834539 0.181209 0.642312
Si Si7 0.699485 0.566457 0.338099
O O1 0.243461 0.563651 0.026376
O O2 0.354835 0.560095 0.814685
O O3 0.107703 0.739377 0.834521
O O4 0.215805 0.119884 0.141490
O O5 0.316119 0.072902 0.794873
O O6 0.500000 0.500000 0.000000
O O7 0.292878 0.640219 0.139626
O O8 0.409554 0.424162 0.348271
O O9 0.565395 0.575813 0.328273
O O10 0.500000 0.000000 0.000000
O O11 0.843247 0.410299 0.614289
O O12 0.757807 0.909801 0.507450
O O13 0.172937 0.567070 0.718091
O O14 0.981036 0.085766 0.579596
O O15 0.722943 0.332911 0.535769
#
# Coordination Sequence:
#
# PCOD8029550 Si02
#       7
#     2   2   2   2   2   2   2
#     4  11  23  43  70 101 138 188 236 290 347 411
#     4  12  24  45  71 105 142 180 232 293 359 424
#     4  11  20  45  68 100 139 178 232 291 359 411
#     4  12  24  44  73 101 145 182 231 295 347 420
#     4  11  26  48  69 104 144 190 240 283 346 418
#     4  12  25  47  71 104 145 190 236 289 342 418
#     4  11  25  44  72 104 143 183 235 291 351 420
#
# _framework density 23.502851
#
# number of rings (size 3 to 8) (size 9 to 14) (size 15 to 20)
#    0.000    0.571    4.286    3.857    0.000    2.857 
#    7.714    2.143    0.000    0.000    0.000    0.000 
#    0.000    0.000    0.000    0.000    0.000    0.000 
#
# Total GULP energy -173484.594057 kJ/mol
# GULP energy per Si atom -12391.756718 kJ/mol
# Density = 2.344936 g / cm^3
# Si number density = 23.502851 Si / 1000 Ang^3
#
#
#
# Elastic Constant Matrix: (Units=GPa)
#
#
# Indices 1 2 3 4 5 6 
#
# 1 81.5938 28.4162 46.6880 -4.0833 11.9251 1.0442
# 2 28.4162 109.0089 11.7056 -8.7636 -1.9418 -1.8426
# 3 46.6880 11.7056 110.2722 -9.0795 11.3165 -8.4116
# 4 -4.0833 -8.7636 -9.0795 35.1980 6.5283 4.8020
# 5 11.9251 -1.9418 11.3165 6.5283 42.4923 5.2594
# 6 1.0442 -1.8426 -8.4116 4.8020 5.2594 35.8735
#
#
#
# Elastic Compliance Matrix: (Units=1/GPa)
#
#
# Indices 1 2 3 4 5 6 
#
# 1 0.018233 -0.004070 -0.007099 0.000129 -0.003190 -0.001954
# 2 -0.004070 0.010347 0.000713 0.002038 0.001064 0.000388
# 3 -0.007099 0.000713 0.012674 0.002586 -0.002142 0.003183
# 4 0.000129 0.002038 0.002586 0.030903 -0.005047 -0.002689
# 5 -0.003190 0.001064 -0.002142 -0.005047 0.026260 -0.003529
# 6 -0.001954 0.000388 0.003183 -0.002689 -0.003529 0.029576
#
#
# Mechanical properties :
#
#
# Convention : Reuss Voigt Hill
#
# Bulk Modulus (GPa) = 49.15762 52.72162 50.93962
# Shear Modulus (GPa) = 32.11602 36.98377 34.54990
#
# Velocity S-wave (km/s) = 3.70059 3.97115 3.83826
# Velocity P-wave (km/s) = 6.26260 6.59601 6.43147
#
# Compressibility (1/GPa) = 0.02034273
#
# Stress axis : x y z
#
# Youngs Moduli (GPa) = 54.84613 96.64340 78.90326
#
# Poissons Ratio (x) = 0.39335 0.56010
# Poissons Ratio (y) = 0.22323 -0.05626
# Poissons Ratio (z) = 0.38933 -0.06891
#
# Static dielectric constant tensor:
#      x y z
#    x 4.457850 0.012080 0.345520 
#    y 0.012080 4.363770 -0.143160 
#    z 0.345520 -0.143160 4.107180 
# 
# 
# High freq. dielectric constant tensor:
#      x y z
#    x 1.930060 0.009880 0.018230 
#    y 0.009880 1.936990 -0.002920 
#    z 0.018230 -0.002920 1.927950 
# 
# From -- ./inp_files/226531.got.cif
#   From: 2010.06.25/outbox.cif.g09.slc.cpg/sg2_114_cif.got.tgz:226531.got - 2010.06.27 13:26:56.
