data_PCOD8029061
_publ_section_title
;
Structure prediction by ZEFSAII (Michael W. Deem and Ramdas Pophale) SiO2 
 PCOD8029061
Probable space group: P -1
;
_chemical_formula_sum "Si O2"
_cell_formula_units_Z 16
_cell_length_a 15.372824
_cell_length_b 13.355216
_cell_length_c 9.148599
_cell_angle_alpha 133.076166
_cell_angle_beta 38.301342
_cell_angle_gamma 133.075960
_cell_volume 804.276367
_symmetry_space_group_name_H-M "P -1"
_symmetry_group_IT_number 2
_symmetry_cell_setting 'triclinic'
loop_
_space_group_symop_operation_xyz
x,y,z
-x,-y,-z
loop_
_atom_site_type_symbol
_atom_site_label
_atom_site_fract_x
_atom_site_fract_y
_atom_site_fract_z
Si Si1 0.876377 0.792979 0.519736
Si Si2 0.178036 0.815321 0.307131
Si Si3 0.367929 0.829586 0.809010
Si Si4 0.912938 0.792629 0.137317
Si Si5 0.702051 0.924224 0.391289
Si Si6 0.767657 0.001220 0.062630
Si Si7 0.845794 0.482166 0.270792
Si Si8 0.959935 0.500144 0.719966
O O1 0.893781 0.843087 0.378172
O O2 0.791064 0.620502 0.458937
O O3 0.035711 0.825740 0.417931
O O4 0.781871 0.875941 0.811690
O O5 0.156104 0.652745 0.227980
O O6 0.209474 0.915022 0.507890
O O7 0.318405 0.877867 0.076987
O O8 0.542184 0.860505 0.612728
O O9 0.324090 0.911356 0.812431
O O10 0.286083 0.657780 0.740455
O O11 0.795454 0.820477 0.209277
O O12 0.889738 0.622797 0.982173
O O13 0.078162 0.889101 0.971491
O O14 0.680520 0.924881 0.245823
O O15 0.881475 0.469647 0.381215
O O16 0.000000 0.500000 0.000000
O O17 0.000000 0.500000 0.500000
#
# Coordination Sequence:
#
# PCOD8029061 Si02
#       8
#     2   2   2   2   2   2   2   2
#     4  11  21  38  69  95 114 161 220 258 297 365
#     4  11  21  41  64  94 125 162 209 255 307 371
#     4  12  23  45  64  87 129 172 205 246 313 384
#     4  12  21  41  64  95 122 162 214 257 303 364
#     4  12  28  38  59  98 133 161 200 263 318 358
#     4  12  23  41  63  90 127 165 212 254 304 366
#     4  11  19  41  68  91 116 163 212 249 300 373
#     4  11  22  36  67  98 121 151 211 266 305 350
#
# _framework density 19.893659
#
# number of rings (size 3 to 8) (size 9 to 14) (size 15 to 20)
#    0.000    0.500    7.500    3.000    3.500    0.000 
#    0.000    4.375    0.000    0.000    0.000    0.000 
#    0.000    0.000    0.000    0.000    0.000    0.000 
#
# Total GULP energy -198429.774527 kJ/mol
# GULP energy per Si atom -12401.860908 kJ/mol
# Density = 1.984838 g / cm^3
# Si number density = 19.893659 Si / 1000 Ang^3
#
#
#
# Elastic Constant Matrix: (Units=GPa)
#
#
# Indices 1 2 3 4 5 6 
#
# 1 64.3689 21.6051 18.9494 -7.8385 7.5848 -11.6839
# 2 21.6051 95.0065 29.2313 17.0640 -3.8299 -4.1354
# 3 18.9494 29.2313 65.3568 0.1664 12.9413 0.6737
# 4 -7.8385 17.0640 0.1664 33.3329 -7.1496 7.2701
# 5 7.5848 -3.8299 12.9413 -7.1496 42.7336 -0.8129
# 6 -11.6839 -4.1354 0.6737 7.2701 -0.8129 26.4984
#
#
#
# Elastic Compliance Matrix: (Units=1/GPa)
#
#
# Indices 1 2 3 4 5 6 
#
# 1 0.020067 -0.004081 -0.003711 0.004926 -0.001848 0.006898
# 2 -0.004081 0.015166 -0.006108 -0.008859 0.002513 0.003230
# 3 -0.003711 -0.006108 0.020295 0.001725 -0.005818 -0.003757
# 4 0.004926 -0.008859 0.001725 0.038689 0.004097 -0.009744
# 5 -0.001848 0.002513 -0.005818 0.004097 0.026390 -0.000590
# 6 0.006898 0.003230 -0.003757 -0.009744 -0.000590 0.044034
#
#
# Mechanical properties :
#
#
# Convention : Reuss Voigt Hill
#
# Bulk Modulus (GPa) = 36.06386 40.47820 38.27103
# Shear Modulus (GPa) = 24.79136 30.84274 27.81705
#
# Velocity S-wave (km/s) = 3.53398 3.94176 3.74342
# Velocity P-wave (km/s) = 5.90082 6.41156 6.16148
#
# Compressibility (1/GPa) = 0.02772859
#
# Stress axis : x y z
#
# Youngs Moduli (GPa) = 49.83281 65.93757 49.27384
#
# Poissons Ratio (x) = 0.26907 0.18284
# Poissons Ratio (y) = 0.20335 0.30097
# Poissons Ratio (z) = 0.18492 0.40276
#
# Static dielectric constant tensor:
#      x y z
#    x 3.652430 -0.108040 0.218200 
#    y -0.108040 3.783350 0.202830 
#    z 0.218200 0.202830 3.595580 
# 
# 
# High freq. dielectric constant tensor:
#      x y z
#    x 1.771420 -0.016710 0.022400 
#    y -0.016710 1.781630 0.016200 
#    z 0.022400 0.016200 1.769000 
# 
# From -- ./inp_files/259389.got.cif
#   From: 2010.06.25/outbox.cif.g09.slc.cpg/sg2_130_cif.got.tgz:259389.got - 2010.06.27 13:26:56.
