data_PCOD8029849
_publ_section_title
;
Structure prediction by ZEFSAII (Michael W. Deem and Ramdas Pophale) SiO2 
 PCOD8029849
Probable space group: P -1
;
_chemical_formula_sum "Si O2"
_cell_formula_units_Z 14
_cell_length_a 11.879618
_cell_length_b 11.112962
_cell_length_c 11.415876
_cell_angle_alpha 106.278105
_cell_angle_beta 35.105521
_cell_angle_gamma 83.821988
_cell_volume 659.027694
_symmetry_space_group_name_H-M "P -1"
_symmetry_group_IT_number 2
_symmetry_cell_setting 'triclinic'
loop_
_space_group_symop_operation_xyz
x,y,z
-x,-y,-z
loop_
_atom_site_type_symbol
_atom_site_label
_atom_site_fract_x
_atom_site_fract_y
_atom_site_fract_z
Si Si1 0.398767 0.881318 0.314532
Si Si2 0.756534 0.416163 0.187385
Si Si3 0.874152 0.563295 0.500256
Si Si4 0.550864 0.902958 0.815392
Si Si5 0.561975 0.347377 0.970918
Si Si6 0.179244 0.368850 0.965867
Si Si7 0.149427 0.848989 0.130747
O O1 0.437411 0.009425 0.279752
O O2 0.479662 0.750440 0.109822
O O3 0.561367 0.799377 0.270690
O O4 0.111016 0.978570 0.613670
O O5 0.500000 0.500000 0.500000
O O6 0.995272 0.352071 0.046253
O O7 0.740757 0.535305 0.140637
O O8 0.814788 0.263815 0.033637
O O9 0.813531 0.730145 0.561780
O O10 0.617240 0.589191 0.744796
O O11 0.000000 0.500000 0.500000
O O12 0.044399 0.440833 0.223208
O O13 0.340147 0.886415 0.962297
O O14 0.500000 0.000000 0.000000
O O15 0.500000 0.500000 0.000000
O O16 0.825354 0.228141 0.781632
#
# Coordination Sequence:
#
# PCOD8029849 Si02
#       7
#     2   2   2   2   2   2   2
#     4  12  24  42  65 101 144 179 222 285 355 414
#     4  11  25  49  76  96 134 182 242 294 336 413
#     4  11  21  40  66  99 136 175 227 279 338 408
#     4  11  22  39  62  95 140 183 219 274 349 411
#     4  11  23  38  65  99 137 181 228 279 340 413
#     4  11  25  46  71 104 133 184 237 284 348 415
#     4  11  25  42  65  99 136 181 228 286 345 406
#
# _framework density 21.243417000000001
#
# number of rings (size 3 to 8) (size 9 to 14) (size 15 to 20)
#    0.000    0.857    4.286    3.857    2.000    4.000 
#    0.000    1.429    0.000    0.000    0.000    0.000 
#    0.000    0.000    0.000    0.000    0.000    0.000 
#
# Total GULP energy -173505.191913 kJ/mol
# GULP energy per Si atom -12393.227994 kJ/mol
# Density = 2.119507 g / cm^3
# Si number density = 21.243417 Si / 1000 Ang^3
#
#
#
# Elastic Constant Matrix: (Units=GPa)
#
#
# Indices 1 2 3 4 5 6 
#
# 1 130.0557 59.3426 47.2532 12.0600 -8.7667 -2.5074
# 2 59.3426 143.0896 44.3351 10.8315 -7.4740 -2.9525
# 3 47.2532 44.3351 87.3020 6.3993 -12.9247 -4.5517
# 4 12.0600 10.8315 6.3993 39.5781 -10.0182 -7.7554
# 5 -8.7667 -7.4740 -12.9247 -10.0182 35.4726 7.5504
# 6 -2.5074 -2.9525 -4.5517 -7.7554 7.5504 43.9174
#
#
#
# Elastic Compliance Matrix: (Units=1/GPa)
#
#
# Indices 1 2 3 4 5 6 
#
# 1 0.010750 -0.003038 -0.004151 -0.001826 0.000064 -0.000354
# 2 -0.003038 0.009257 -0.003004 -0.001185 -0.000223 -0.000033
# 3 -0.004151 -0.003004 0.015825 0.000705 0.004177 0.000608
# 4 -0.001826 -0.001185 0.000705 0.028490 0.006804 0.003751
# 5 0.000064 -0.000223 0.004177 0.006804 0.032445 -0.003955
# 6 -0.000354 -0.000033 0.000608 0.003751 -0.003955 0.024153
#
#
# Mechanical properties :
#
#
# Convention : Reuss Voigt Hill
#
# Bulk Modulus (GPa) = 64.74337 73.58988 69.16662
# Shear Modulus (GPa) = 34.13996 37.76139 35.95067
#
# Velocity S-wave (km/s) = 4.01319 4.22068 4.11825
# Velocity P-wave (km/s) = 7.21231 7.64648 7.43257
#
# Compressibility (1/GPa) = 0.01544560
#
# Stress axis : x y z
#
# Youngs Moduli (GPa) = 93.02145 108.02865 63.18924
#
# Poissons Ratio (x) = 0.32818 0.26230
# Poissons Ratio (y) = 0.28259 0.18985
# Poissons Ratio (z) = 0.38614 0.32457
#
# Static dielectric constant tensor:
#      x y z
#    x 4.050470 0.036130 -0.602520 
#    y 0.036130 4.420730 -0.395730 
#    z -0.602520 -0.395730 4.682100 
# 
# 
# High freq. dielectric constant tensor:
#      x y z
#    x 1.834030 -0.002390 -0.016940 
#    y -0.002390 1.842010 0.005210 
#    z -0.016940 0.005210 1.841570 
# 
# From -- ./inp_files/425180.got.cif
#   From: 2010.06.25/outbox.cif.g09.slc.cpg/sg2_213_cif.got.tgz:425180.got - 2010.06.27 13:26:56.
