data_PCOD8029823
_publ_section_title
;
Structure prediction by ZEFSAII (Michael W. Deem and Ramdas Pophale) SiO2 
 PCOD8029823
Probable space group: P -1
;
_chemical_formula_sum "Si O2"
_cell_formula_units_Z 16
_cell_length_a 16.033139
_cell_length_b 9.990738
_cell_length_c 6.994226
_cell_angle_alpha 137.990482
_cell_angle_beta 97.618397
_cell_angle_gamma 94.190273
_cell_volume 717.893618
_symmetry_space_group_name_H-M "P -1"
_symmetry_group_IT_number 2
_symmetry_cell_setting 'triclinic'
loop_
_space_group_symop_operation_xyz
x,y,z
-x,-y,-z
loop_
_atom_site_type_symbol
_atom_site_label
_atom_site_fract_x
_atom_site_fract_y
_atom_site_fract_z
Si Si1 0.487931 0.068521 0.282195
Si Si2 0.180071 0.899164 0.789809
Si Si3 0.093728 0.462298 0.441583
Si Si4 0.592209 0.642042 0.235544
Si Si5 0.627957 0.240946 0.809160
Si Si6 0.727803 0.961491 0.416597
Si Si7 0.972234 0.944369 0.219113
Si Si8 0.153374 0.154550 0.376358
O O1 0.422393 0.221314 0.441101
O O2 0.580771 0.184614 0.527548
O O3 0.442123 0.860136 0.159307
O O4 0.500000 0.000000 0.000000
O O5 0.167261 0.664346 0.609404
O O6 0.085995 0.901565 0.684959
O O7 0.252274 0.967818 0.719679
O O8 0.210990 0.068478 0.147366
O O9 0.137234 0.376526 0.548632
O O10 0.000000 0.500000 0.500000
O O11 0.080274 0.293469 0.086573
O O12 0.634428 0.792839 0.231777
O O13 0.500000 0.500000 0.000000
O O14 0.654528 0.487861 0.128292
O O15 0.716461 0.162864 0.746674
O O16 0.801561 0.858465 0.418444
O O17 0.058599 0.992258 0.166494
O O18 0.000000 0.000000 0.500000
#
# Coordination Sequence:
#
# PCOD8029823 Si02
#       8
#     2   2   2   2   2   2   2   2
#     4   9  18  36  65  94 121 159 205 259 316 384
#     4  11  23  41  62  93 128 173 217 270 323 380
#     4  11  21  40  66  90 124 171 219 266 316 383
#     4   9  20  42  66  91 126 166 210 263 320 385
#     4   9  20  38  58  89 126 160 208 260 316 382
#     4  11  24  40  62  93 134 171 210 275 331 380
#     4  11  21  40  64  93 128 169 219 268 321 382
#     4  11  23  41  61  92 135 168 218 275 324 378
#
# _framework density 22.287426
#
# number of rings (size 3 to 8) (size 9 to 14) (size 15 to 20)
#    0.000    1.750    3.750    1.500    0.000    6.000 
#    2.250    2.500    0.000    0.000    0.000    0.000 
#    0.000    0.000    0.000    0.000    0.000    0.000 
#
# Total GULP energy -198227.708268 kJ/mol
# GULP energy per Si atom -12389.231767 kJ/mol
# Density = 2.223670 g / cm^3
# Si number density = 22.287426 Si / 1000 Ang^3
#
#
#
# Elastic Constant Matrix: (Units=GPa)
#
#
# Indices 1 2 3 4 5 6 
#
# 1 75.3466 32.4898 8.7981 5.6659 -22.6776 7.5336
# 2 32.4898 130.8397 48.1919 17.6740 -22.7383 6.3842
# 3 8.7981 48.1919 82.8703 5.7048 -29.3501 3.8333
# 4 5.6659 17.6740 5.7048 41.2695 -5.8081 -5.1760
# 5 -22.6776 -22.7383 -29.3501 -5.8081 27.9920 -1.4279
# 6 7.5336 6.3842 3.8333 -5.1760 -1.4279 44.6016
#
#
#
# Elastic Compliance Matrix: (Units=1/GPa)
#
#
# Indices 1 2 3 4 5 6 
#
# 1 0.021107 -0.004363 0.008242 0.000592 0.022174 -0.002870
# 2 -0.004363 0.011332 -0.006542 -0.003735 -0.002006 -0.000820
# 3 0.008242 -0.006542 0.024703 0.001955 0.027595 -0.001468
# 4 0.000592 -0.003735 0.001955 0.026654 0.005206 0.003526
# 5 0.022174 -0.002006 0.027595 0.005206 0.081940 -0.002602
# 6 -0.002870 -0.000820 -0.001468 0.003526 -0.002602 0.023475
#
#
# Mechanical properties :
#
#
# Convention : Reuss Voigt Hill
#
# Bulk Modulus (GPa) = 19.29939 52.00180 35.65059
# Shear Modulus (GPa) = 23.60591 36.07774 29.84183
#
# Velocity S-wave (km/s) = 3.25800 4.02773 3.66314
# Velocity P-wave (km/s) = 4.77817 6.70919 5.82426
#
# Compressibility (1/GPa) = 0.05181511
#
# Stress axis : x y z
#
# Youngs Moduli (GPa) = 47.37674 88.24560 40.48041
#
# Poissons Ratio (x) = 0.38506 -0.33363
# Poissons Ratio (y) = 0.20673 0.26483
# Poissons Ratio (z) = -0.39047 0.57732
#
# Static dielectric constant tensor:
#      x y z
#    x 4.269220 -0.299220 -0.397950 
#    y -0.299220 4.549000 0.356150 
#    z -0.397950 0.356150 3.945100 
# 
# 
# High freq. dielectric constant tensor:
#      x y z
#    x 1.880150 -0.003930 -0.017900 
#    y -0.003930 1.877410 0.015460 
#    z -0.017900 0.015460 1.858330 
# 
# From -- ./inp_files/117532.got.cif
#   From: 2010.06.25/outbox.cif.g09.slc.cpg/sg2_59_cif.got.tgz:117532.got - 2010.06.27 13:26:56.
