data_PCOD8029555
_publ_section_title
;
Structure prediction by ZEFSAII (Michael W. Deem and Ramdas Pophale) SiO2 
 PCOD8029555
Probable space group: P -1
;
_chemical_formula_sum "Si O2"
_cell_formula_units_Z 16
_cell_length_a 12.405621
_cell_length_b 8.946654
_cell_length_c 18.420777
_cell_angle_alpha 76.124893
_cell_angle_beta 142.018529
_cell_angle_gamma 131.555721
_cell_volume 742.681433
_symmetry_space_group_name_H-M "P -1"
_symmetry_group_IT_number 2
_symmetry_cell_setting 'triclinic'
loop_
_space_group_symop_operation_xyz
x,y,z
-x,-y,-z
loop_
_atom_site_type_symbol
_atom_site_label
_atom_site_fract_x
_atom_site_fract_y
_atom_site_fract_z
Si Si1 0.196287 0.921103 0.709545
Si Si2 0.247499 0.634574 0.824671
Si Si3 0.110040 0.849933 0.904657
Si Si4 0.892970 0.095035 0.948207
Si Si5 0.723940 0.098660 0.546454
Si Si6 0.797682 0.791580 0.616124
Si Si7 0.714910 0.203038 0.371865
Si Si8 0.213331 0.574069 0.975272
O O1 0.145617 0.741812 0.758382
O O2 0.203913 0.873517 0.635080
O O3 0.936108 0.854321 0.602356
O O4 0.490091 0.216367 0.847712
O O5 0.256243 0.560608 0.915978
O O6 0.039051 0.393079 0.689729
O O7 0.569651 0.868027 0.938829
O O8 0.070775 0.642964 0.890821
O O9 0.000768 0.877882 0.778644
O O10 0.957975 0.767454 0.910927
O O11 0.008884 0.301782 0.929857
O O12 0.544588 0.870743 0.786957
O O13 0.000000 0.000000 0.000000
O O14 0.614165 0.060608 0.411644
O O15 0.500000 0.000000 0.500000
O O16 0.748860 0.935513 0.585344
O O17 0.500000 0.500000 0.500000
O O18 0.000000 0.500000 0.500000
#
# Coordination Sequence:
#
# PCOD8029555 Si02
#       8
#     2   2   2   2   2   2   2   2
#     4  11  22  46  74 105 136 188 244 301 357 433
#     4  11  20  45  74  98 138 186 236 287 363 428
#     4  11  23  44  71 101 137 185 236 297 356 423
#     4  12  28  43  70 110 145 188 243 303 354 431
#     4  12  28  45  71 106 145 195 235 293 374 431
#     4  12  28  44  71 110 143 186 249 303 360 441
#     4  12  26  48  75 101 153 198 234 296 376 431
#     4  11  22  43  76 101 139 180 236 294 364 412
#
# _framework density 21.543557
#
# number of rings (size 3 to 8) (size 9 to 14) (size 15 to 20)
#    0.000    0.500    6.250    2.625    5.250    3.000 
#    0.000    0.000    0.000    0.000    0.000    0.000 
#    0.000    0.000    0.000    0.000    0.000    0.000 
#
# Total GULP energy -198326.987145 kJ/mol
# GULP energy per Si atom -12395.436697 kJ/mol
# Density = 2.149452 g / cm^3
# Si number density = 21.543557 Si / 1000 Ang^3
#
#
#
# Elastic Constant Matrix: (Units=GPa)
#
#
# Indices 1 2 3 4 5 6 
#
# 1 142.9347 53.1554 49.8108 -23.9399 -4.1848 4.2530
# 2 53.1554 118.8740 47.5610 -2.0891 8.0304 -4.2947
# 3 49.8108 47.5610 95.3471 5.6947 -7.0080 -12.8781
# 4 -23.9399 -2.0891 5.6947 36.2444 3.4653 -4.7370
# 5 -4.1848 8.0304 -7.0080 3.4653 35.8617 -13.8889
# 6 4.2530 -4.2947 -12.8781 -4.7370 -13.8889 38.3326
#
#
#
# Elastic Compliance Matrix: (Units=1/GPa)
#
#
# Indices 1 2 3 4 5 6 
#
# 1 0.011295 -0.002775 -0.005430 0.007884 -0.000952 -0.002759
# 2 -0.002775 0.011932 -0.005075 -0.000133 -0.004658 -0.001764
# 3 -0.005430 -0.005075 0.017895 -0.006377 0.007738 0.008061
# 4 0.007884 -0.000133 -0.006377 0.034123 -0.003646 -0.000136
# 5 -0.000952 -0.004658 0.007738 -0.003646 0.036470 0.014947
# 6 -0.002759 -0.001764 0.008061 -0.000136 0.014947 0.034303
#
#
# Mechanical properties :
#
#
# Convention : Reuss Voigt Hill
#
# Bulk Modulus (GPa) = 68.67245 73.13447 70.90346
# Shear Modulus (GPa) = 28.17967 35.86298 32.02133
#
# Velocity S-wave (km/s) = 3.62060 4.08447 3.85951
# Velocity P-wave (km/s) = 7.03019 7.50099 7.26940
#
# Compressibility (1/GPa) = 0.01456188
#
# Stress axis : x y z
#
# Youngs Moduli (GPa) = 88.53274 83.80661 55.88238
#
# Poissons Ratio (x) = 0.23256 0.30345
# Poissons Ratio (y) = 0.24568 0.28361
# Poissons Ratio (z) = 0.48074 0.42532
#
# Static dielectric constant tensor:
#      x y z
#    x 4.110630 0.260730 -0.443180 
#    y 0.260730 4.159240 -0.857440 
#    z -0.443180 -0.857440 7.090220 
# 
# 
# High freq. dielectric constant tensor:
#      x y z
#    x 1.855770 0.013110 -0.012880 
#    y 0.013110 1.846620 0.006000 
#    z -0.012880 0.006000 1.847170 
# 
# From -- ./inp_files/283022.got.cif
#   From: 2010.06.25/outbox.cif.g09.slc.cpg/sg2_142_cif.got.tgz:283022.got - 2010.06.27 13:26:56.
