data_PCOD8029974
_publ_section_title
;
Structure prediction by ZEFSAII (Michael W. Deem and Ramdas Pophale) SiO2 
 PCOD8029974
Probable space group: P -1
;
_chemical_formula_sum "Si O2"
_cell_formula_units_Z 16
_cell_length_a 11.051513
_cell_length_b 10.961508
_cell_length_c 11.410804
_cell_angle_alpha 63.089740
_cell_angle_beta 50.564823
_cell_angle_gamma 46.674134
_cell_volume 776.312852
_symmetry_space_group_name_H-M "P -1"
_symmetry_group_IT_number 2
_symmetry_cell_setting 'triclinic'
loop_
_space_group_symop_operation_xyz
x,y,z
-x,-y,-z
loop_
_atom_site_type_symbol
_atom_site_label
_atom_site_fract_x
_atom_site_fract_y
_atom_site_fract_z
Si Si1 0.495391 0.460701 0.386928
Si Si2 0.579032 0.073012 0.297130
Si Si3 0.299308 0.644536 0.209127
Si Si4 0.982628 0.520441 0.813012
Si Si5 0.395341 0.353025 0.116543
Si Si6 0.092231 0.673151 0.871693
Si Si7 0.660855 0.743842 0.430483
Si Si8 0.033296 0.000752 0.841387
O O1 0.500000 0.500000 0.500000
O O2 0.314528 0.608852 0.356133
O O3 0.679784 0.422372 0.220736
O O4 0.494347 0.297683 0.468613
O O5 0.556966 0.174244 0.150770
O O6 0.375339 0.182309 0.446601
O O7 0.616915 0.897585 0.308449
O O8 0.753896 0.043010 0.282248
O O9 0.294123 0.501384 0.209766
O O10 0.110609 0.822940 0.211860
O O11 0.495855 0.618993 0.062446
O O12 0.771282 0.654356 0.834802
O O13 0.039164 0.629436 0.799899
O O14 0.128975 0.420433 0.658762
O O15 0.982126 0.385451 0.952722
O O16 0.002231 0.869796 0.854456
O O17 0.000000 0.000000 0.000000
#
# Coordination Sequence:
#
# PCOD8029974 Si02
#       8
#     2   2   2   2   2   2   2   2
#     4  12  23  47  69  92 136 182 221 268 335 396
#     4  11  23  40  66 100 134 171 213 283 329 389
#     4  11  23  39  68 102 127 173 226 273 327 396
#     4  11  24  41  65  95 132 178 220 268 326 399
#     4  11  21  41  67  99 133 166 225 276 328 390
#     4  11  23  43  65  93 132 177 225 265 324 403
#     4  11  23  42  63  98 132 175 214 267 338 385
#     4  12  22  41  70  99 131 168 222 278 333 383
#
# _framework density 20.610249
#
# number of rings (size 3 to 8) (size 9 to 14) (size 15 to 20)
#    0.000    0.750    6.250    2.250    0.000    0.500 
#    6.750    1.250    0.000    0.000    0.000    0.000 
#    0.000    0.000    0.000    0.000    0.000    0.000 
#
# Total GULP energy -198292.427344 kJ/mol
# GULP energy per Si atom -12393.276709 kJ/mol
# Density = 2.056334 g / cm^3
# Si number density = 20.610249 Si / 1000 Ang^3
#
#
#
# Elastic Constant Matrix: (Units=GPa)
#
#
# Indices 1 2 3 4 5 6 
#
# 1 120.9281 71.1144 35.8982 -14.3132 -9.9302 -4.1568
# 2 71.1144 128.4739 30.0977 -19.9588 4.9428 1.0559
# 3 35.8982 30.0977 75.5403 -0.3395 1.0526 0.9298
# 4 -14.3132 -19.9588 -0.3395 36.2736 -1.0671 -7.3542
# 5 -9.9302 4.9428 1.0526 -1.0671 35.3891 -6.0216
# 6 -4.1568 1.0559 0.9298 -7.3542 -6.0216 29.7234
#
#
#
# Elastic Compliance Matrix: (Units=1/GPa)
#
#
# Indices 1 2 3 4 5 6 
#
# 1 0.014589 -0.006864 -0.004323 0.003005 0.006017 0.004382
# 2 -0.006864 0.012757 -0.001737 0.003955 -0.003730 -0.001136
# 3 -0.004323 -0.001737 0.016024 -0.003009 -0.001908 -0.002175
# 4 0.003005 0.003955 -0.003009 0.032830 0.002917 0.009088
# 5 0.006017 -0.003730 -0.001908 0.002917 0.032014 0.008241
# 6 0.004382 -0.001136 -0.002175 0.009088 0.008241 0.038283
#
#
# Mechanical properties :
#
#
# Convention : Reuss Voigt Hill
#
# Bulk Modulus (GPa) = 57.06695 66.57364 61.82030
# Shear Modulus (GPa) = 28.06060 32.79935 30.42998
#
# Velocity S-wave (km/s) = 3.69384 3.99358 3.84663
# Velocity P-wave (km/s) = 6.77800 7.32368 7.05612
#
# Compressibility (1/GPa) = 0.01752328
#
# Stress axis : x y z
#
# Youngs Moduli (GPa) = 68.54331 78.38730 62.40531
#
# Poissons Ratio (x) = 0.53802 0.26976
# Poissons Ratio (y) = 0.47045 0.10842
# Poissons Ratio (z) = 0.29629 0.13619
#
# Static dielectric constant tensor:
#      x y z
#    x 3.688700 0.022290 -0.195360 
#    y 0.022290 3.560270 -0.053820 
#    z -0.195360 -0.053820 3.846510 
# 
# 
# High freq. dielectric constant tensor:
#      x y z
#    x 1.794830 0.008790 -0.018030 
#    y 0.008790 1.798780 -0.003940 
#    z -0.018030 -0.003940 1.815520 
# 
# From -- ./inp_files/416365.got.cif
#   From: 2010.06.25/outbox.cif.g09.slc.cpg/sg2_209_cif.got.tgz:416365.got - 2010.06.27 13:26:56.
