data_PCOD8029636
_publ_section_title
;
Structure prediction by ZEFSAII (Michael W. Deem and Ramdas Pophale) SiO2 
 PCOD8029636
Probable space group: P -1
;
_chemical_formula_sum "Si O2"
_cell_formula_units_Z 16
_cell_length_a 8.886494
_cell_length_b 15.736449
_cell_length_c 14.982513
_cell_angle_alpha 48.065086
_cell_angle_beta 138.765442
_cell_angle_gamma 101.920703
_cell_volume 819.036537
_symmetry_space_group_name_H-M "P -1"
_symmetry_group_IT_number 2
_symmetry_cell_setting 'triclinic'
loop_
_space_group_symop_operation_xyz
x,y,z
-x,-y,-z
loop_
_atom_site_type_symbol
_atom_site_label
_atom_site_fract_x
_atom_site_fract_y
_atom_site_fract_z
Si Si1 0.846497 0.646945 0.381351
Si Si2 0.091850 0.691652 0.138580
Si Si3 0.639390 0.920419 0.896175
Si Si4 0.656915 0.626893 0.495838
Si Si5 0.189046 0.141801 0.284737
Si Si6 0.547170 0.810634 0.482326
Si Si7 0.009061 0.144868 0.732966
Si Si8 0.741337 0.090324 0.140418
O O1 0.849276 0.614234 0.509681
O O2 0.000000 0.500000 0.500000
O O3 0.021887 0.711017 0.401490
O O4 0.523836 0.758979 0.123836
O O5 0.328124 0.714481 0.255952
O O6 0.231357 0.526183 0.309401
O O7 0.850607 0.762798 0.057763
O O8 0.964107 0.761454 0.937474
O O9 0.353665 0.942530 0.786879
O O10 0.580825 0.029588 0.716903
O O11 0.789546 0.938229 0.033715
O O12 0.688848 0.706354 0.534657
O O13 0.213771 0.234678 0.304330
O O14 0.000246 0.096786 0.273340
O O15 0.500000 0.000000 0.500000
O O16 0.305024 0.807476 0.422415
O O17 0.158104 0.037832 0.792297
#
# Coordination Sequence:
#
# PCOD8029636 Si02
#       8
#     2   2   2   2   2   2   2   2
#     4  11  23  40  66  97 129 159 211 269 326 370
#     4  11  23  41  65  91 126 165 218 260 315 378
#     4  11  21  37  63  96 123 161 215 271 312 366
#     4  11  23  41  65  95 123 166 214 269 312 372
#     4  12  24  43  63  95 130 177 207 260 316 382
#     4  12  24  38  66  94 132 165 215 259 318 378
#     4  11  21  37  62  97 128 163 208 269 319 370
#     4  11  22  39  64  93 130 166 210 263 322 371
#
# _framework density 19.535148
#
# number of rings (size 3 to 8) (size 9 to 14) (size 15 to 20)
#    0.000    0.750    5.000    4.875    1.750    1.000 
#    0.000    0.000    0.000    2.250    0.000    0.000 
#    0.000    0.000    0.000    0.000    0.000    0.000 
#
# Total GULP energy -198472.093987 kJ/mol
# GULP energy per Si atom -12404.505874 kJ/mol
# Density = 1.949069 g / cm^3
# Si number density = 19.535148 Si / 1000 Ang^3
#
#
#
# Elastic Constant Matrix: (Units=GPa)
#
#
# Indices 1 2 3 4 5 6 
#
# 1 139.1687 72.5386 48.1336 7.0306 9.3301 2.0893
# 2 72.5386 141.8078 59.6480 9.0601 11.6546 -6.9653
# 3 48.1336 59.6480 76.3456 1.2965 -1.1439 2.2238
# 4 7.0306 9.0601 1.2965 36.9921 -3.0962 5.6493
# 5 9.3301 11.6546 -1.1439 -3.0962 30.1052 -0.5274
# 6 2.0893 -6.9653 2.2238 5.6493 -0.5274 42.1162
#
#
#
# Elastic Compliance Matrix: (Units=1/GPa)
#
#
# Indices 1 2 3 4 5 6 
#
# 1 0.010608 -0.003590 -0.003874 -0.001060 -0.002168 -0.000800
# 2 -0.003590 0.012950 -0.007960 -0.003057 -0.004463 0.003094
# 3 -0.003874 -0.007960 0.021868 0.002762 0.005352 -0.002582
# 4 -0.001060 -0.003057 0.002762 0.028940 0.004516 -0.004424
# 5 -0.002168 -0.004463 0.005352 0.004516 0.036266 -0.001065
# 6 -0.000800 0.003094 -0.002582 -0.004424 -0.001065 0.025012
#
#
# Mechanical properties :
#
#
# Convention : Reuss Voigt Hill
#
# Bulk Modulus (GPa) = 68.59399 79.77363 74.18381
# Shear Modulus (GPa) = 29.18000 33.64282 31.41141
#
# Velocity S-wave (km/s) = 3.86906 4.15440 4.01427
# Velocity P-wave (km/s) = 7.42623 7.99604 7.71640
#
# Compressibility (1/GPa) = 0.01457854
#
# Stress axis : x y z
#
# Youngs Moduli (GPa) = 94.27270 77.21848 45.72842
#
# Poissons Ratio (x) = 0.27720 0.17716
# Poissons Ratio (y) = 0.33842 0.36399
# Poissons Ratio (z) = 0.36523 0.61464
#
# Static dielectric constant tensor:
#      x y z
#    x 3.800990 -0.008320 0.056150 
#    y -0.008320 3.687270 0.033620 
#    z 0.056150 0.033620 3.470620 
# 
# 
# High freq. dielectric constant tensor:
#      x y z
#    x 1.781380 -0.004230 -0.000520 
#    y -0.004230 1.764460 -0.007720 
#    z -0.000520 -0.007720 1.740900 
# 
# From -- ./inp_files/206955.got.cif
#   From: 2010.06.25/outbox.cif.g09.slc.cpg/sg2_104_cif.got.tgz:206955.got - 2010.06.27 13:26:56.
