data_PCOD8029756
_publ_section_title
;
Structure prediction by ZEFSAII (Michael W. Deem and Ramdas Pophale) SiO2 
 PCOD8029756
Probable space group: P -1
;
_chemical_formula_sum "Si O2"
_cell_formula_units_Z 16
_cell_length_a 11.697844
_cell_length_b 11.390608
_cell_length_c 9.800745
_cell_angle_alpha 100.266555
_cell_angle_beta 54.015176
_cell_angle_gamma 130.803309
_cell_volume 753.410427
_symmetry_space_group_name_H-M "P -1"
_symmetry_group_IT_number 2
_symmetry_cell_setting 'triclinic'
loop_
_space_group_symop_operation_xyz
x,y,z
-x,-y,-z
loop_
_atom_site_type_symbol
_atom_site_label
_atom_site_fract_x
_atom_site_fract_y
_atom_site_fract_z
Si Si1 0.056608 0.960559 0.286944
Si Si2 0.339947 0.383445 0.474584
Si Si3 0.393385 0.454687 0.925445
Si Si4 0.109525 0.446355 0.282238
Si Si5 0.209756 0.556103 0.522835
Si Si6 0.878825 0.093767 0.488769
Si Si7 0.208236 0.094153 0.930118
Si Si8 0.564409 0.903679 0.449362
O O1 0.822234 0.804060 0.398916
O O2 0.158185 0.940250 0.329545
O O3 0.057462 0.104527 0.340775
O O4 0.188717 0.017762 0.073874
O O5 0.500000 0.500000 0.500000
O O6 0.456026 0.405803 0.263172
O O7 0.200315 0.415014 0.549357
O O8 0.325183 0.286293 0.884815
O O9 0.500000 0.500000 0.000000
O O10 0.219816 0.448252 0.077942
O O11 0.250634 0.576426 0.333017
O O12 0.990871 0.490249 0.315089
O O13 0.953511 0.266556 0.425388
O O14 0.377813 0.711094 0.529085
O O15 0.677451 0.947797 0.521257
O O16 0.298458 0.045738 0.762968
O O17 0.000000 0.000000 0.000000
O O18 0.500000 0.000000 0.500000
#
# Coordination Sequence:
#
# PCOD8029756 Si02
#       8
#     2   2   2   2   2   2   2   2
#     4  11  23  39  67  97 134 167 218 270 335 380
#     4  12  24  41  65  99 139 165 213 275 335 383
#     4  12  22  41  67  99 124 167 227 269 310 386
#     4  11  21  42  70  93 127 175 225 264 319 398
#     4  11  23  41  66  94 131 173 217 262 333 387
#     4  11  21  39  65  95 127 173 212 270 325 382
#     4  12  23  41  67  98 127 168 227 268 313 393
#     4  12  23  41  66  96 128 169 222 270 320 385
#
# _framework density 21.236764999999998
#
# number of rings (size 3 to 8) (size 9 to 14) (size 15 to 20)
#    0.000    0.500    7.500    1.500    1.750    0.000 
#    0.000    1.250    2.750    0.000    0.000    0.000 
#    0.000    0.000    0.000    0.000    0.000    0.000 
#
# Total GULP energy -198326.193814 kJ/mol
# GULP energy per Si atom -12395.387113 kJ/mol
# Density = 2.118843 g / cm^3
# Si number density = 21.236765 Si / 1000 Ang^3
#
#
#
# Elastic Constant Matrix: (Units=GPa)
#
#
# Indices 1 2 3 4 5 6 
#
# 1 108.3801 6.5844 29.5433 15.3969 -8.8354 -3.2865
# 2 6.5844 60.1043 11.0895 9.5266 -8.8915 7.4099
# 3 29.5433 11.0895 100.9612 12.2105 -10.9247 -13.2063
# 4 15.3969 9.5266 12.2105 28.9814 -2.9972 0.7486
# 5 -8.8354 -8.8915 -10.9247 -2.9972 33.4401 13.1122
# 6 -3.2865 7.4099 -13.2063 0.7486 13.1122 44.5229
#
#
#
# Elastic Compliance Matrix: (Units=1/GPa)
#
#
# Indices 1 2 3 4 5 6 
#
# 1 0.010661 0.000344 -0.002469 -0.004530 0.001884 -0.000481
# 2 0.000344 0.019321 -0.001638 -0.005042 0.006387 -0.005472
# 3 -0.002469 -0.001638 0.011733 -0.003055 0.001189 0.003272
# 4 -0.004530 -0.005042 -0.003055 0.039942 0.000526 -0.001228
# 5 0.001884 0.006387 0.001189 0.000526 0.037041 -0.011489
# 6 -0.000481 -0.005472 0.003272 -0.001228 -0.011489 0.027710
#
#
# Mechanical properties :
#
#
# Convention : Reuss Voigt Hill
#
# Bulk Modulus (GPa) = 29.24844 40.43109 34.83977
# Shear Modulus (GPa) = 30.24250 36.20411 33.22331
#
# Velocity S-wave (km/s) = 3.77777 4.13338 3.95957
# Velocity P-wave (km/s) = 5.72985 6.46988 6.11108
#
# Compressibility (1/GPa) = 0.03418986
#
# Stress axis : x y z
#
# Youngs Moduli (GPa) = 93.79652 51.75758 85.22844
#
# Poissons Ratio (x) = -0.01778 0.21040
# Poissons Ratio (y) = -0.03223 0.13957
# Poissons Ratio (z) = 0.23156 0.08476
#
# Static dielectric constant tensor:
#      x y z
#    x 3.995900 -0.305330 0.157710 
#    y -0.305330 5.465100 0.713620 
#    z 0.157710 0.713620 3.702700 
# 
# 
# High freq. dielectric constant tensor:
#      x y z
#    x 1.837710 0.011900 0.002320 
#    y 0.011900 1.844680 0.016080 
#    z 0.002320 0.016080 1.810610 
# 
# From -- ./inp_files/258924.got.cif
#   From: 2010.06.25/outbox.cif.g09.slc.cpg/sg2_130_cif.got.tgz:258924.got - 2010.06.27 13:26:56.
