data_PCOD8029848
_publ_section_title
;
Structure prediction by ZEFSAII (Michael W. Deem and Ramdas Pophale) SiO2 
 PCOD8029848
Probable space group: P -1
;
_chemical_formula_sum "Si O2"
_cell_formula_units_Z 16
_cell_length_a 14.174613
_cell_length_b 13.031297
_cell_length_c 12.209805
_cell_angle_alpha 114.279248
_cell_angle_beta 54.517698
_cell_angle_gamma 68.781318
_cell_volume 983.707591
_symmetry_space_group_name_H-M "P -1"
_symmetry_group_IT_number 2
_symmetry_cell_setting 'triclinic'
loop_
_space_group_symop_operation_xyz
x,y,z
-x,-y,-z
loop_
_atom_site_type_symbol
_atom_site_label
_atom_site_fract_x
_atom_site_fract_y
_atom_site_fract_z
Si Si1 0.134161 0.080584 0.971595
Si Si2 0.871187 0.531186 0.184345
Si Si3 0.524359 0.031168 0.378007
Si Si4 0.774854 0.367094 0.203323
Si Si5 0.025173 0.580595 0.689575
Si Si6 0.388906 0.132917 0.969150
Si Si7 0.415355 0.701557 0.746771
Si Si8 0.539436 0.798433 0.843645
O O1 0.279988 0.047271 0.790419
O O2 0.252656 0.886116 0.860108
O O3 0.969049 0.158976 0.036129
O O4 0.018917 0.249991 0.212166
O O5 0.656102 0.750010 0.437814
O O6 0.843530 0.423407 0.113996
O O7 0.976866 0.452721 0.195873
O O8 0.000000 0.500000 0.000000
O O9 0.500000 0.000000 0.500000
O O10 0.534160 0.923361 0.232773
O O11 0.624886 0.528473 0.469352
O O12 0.667556 0.358261 0.195452
O O13 0.226647 0.386136 0.412134
O O14 0.846214 0.658978 0.781804
O O15 0.434255 0.971512 0.912379
O O16 0.495239 0.141753 0.978949
O O17 0.445812 0.750004 0.858368
#
# Coordination Sequence:
#
# PCOD8029848 Si02
#       8
#     2   2   2   2   2   2   2   2
#     4  10  17  31  46  72 102 132 167 201 254 290
#     4  11  19  33  51  75 104 129 167 212 248 300
#     4  11  19  33  51  75 104 129 167 212 248 300
#     4  10  20  30  49  72 101 137 165 202 259 289
#     4  10  17  31  46  72 102 132 167 201 254 290
#     4  10  20  30  49  72 101 137 165 202 259 289
#     4  11  18  32  48  70 107 133 165 206 245 308
#     4  11  18  32  48  70 107 133 165 206 245 308
#
# _framework density 16.264997000000001
#
# number of rings (size 3 to 8) (size 9 to 14) (size 15 to 20)
#    0.000    1.500    7.500    3.000    0.000    0.000 
#    0.000    0.000    0.000    0.000    0.000    7.000 
#    0.000    0.000    0.000    0.000    0.000    0.000 
#
# Total GULP energy -198267.600920 kJ/mol
# GULP energy per Si atom -12391.725058 kJ/mol
# Density = 1.622798 g / cm^3
# Si number density = 16.264997 Si / 1000 Ang^3
#
#
#
# Elastic Constant Matrix: (Units=GPa)
#
#
# Indices 1 2 3 4 5 6 
#
# 1 129.0926 39.3253 36.5080 -4.8395 8.9355 7.3369
# 2 39.3253 61.8294 33.9187 2.3189 -3.5072 2.6746
# 3 36.5080 33.9187 69.0334 10.2054 -4.4485 -8.1551
# 4 -4.8395 2.3189 10.2054 27.7313 -10.3687 -6.4652
# 5 8.9355 -3.5072 -4.4485 -10.3687 26.4531 2.7409
# 6 7.3369 2.6746 -8.1551 -6.4652 2.7409 24.8715
#
#
#
# Elastic Compliance Matrix: (Units=1/GPa)
#
#
# Indices 1 2 3 4 5 6 
#
# 1 0.010947 -0.004722 -0.004359 0.001618 -0.004083 -0.003280
# 2 -0.004722 0.025301 -0.010436 0.001347 0.004227 -0.004866
# 3 -0.004359 -0.010436 0.023921 -0.006447 0.000704 0.008498
# 4 0.001618 0.001347 -0.006447 0.046315 0.015919 0.007549
# 5 -0.004083 0.004227 0.000704 0.015919 0.046096 0.000039
# 6 -0.003280 -0.004866 0.008498 0.007549 0.000039 0.046442
#
#
# Mechanical properties :
#
#
# Convention : Reuss Voigt Hill
#
# Bulk Modulus (GPa) = 47.31320 53.27324 50.29322
# Shear Modulus (GPa) = 20.39965 25.82474 23.11220
#
# Velocity S-wave (km/s) = 3.54532 3.98898 3.77368
# Velocity P-wave (km/s) = 6.77578 7.35122 7.06935
#
# Compressibility (1/GPa) = 0.02113575
#
# Stress axis : x y z
#
# Youngs Moduli (GPa) = 91.34688 39.52343 41.80413
#
# Poissons Ratio (x) = 0.18662 0.18224
# Poissons Ratio (y) = 0.43131 0.43627
# Poissons Ratio (z) = 0.39821 0.41247
#
# Static dielectric constant tensor:
#      x y z
#    x 3.199130 -0.079130 -0.112350 
#    y -0.079130 3.087540 0.383120 
#    z -0.112350 0.383120 3.308500 
# 
# 
# High freq. dielectric constant tensor:
#      x y z
#    x 1.626130 -0.010120 -0.014520 
#    y -0.010120 1.598970 0.041200 
#    z -0.014520 0.041200 1.622880 
# 
# From -- ./inp_files/432953.got.cif
#   From: 2010.06.25/outbox.cif.g09.slc.cpg/sg2_217_cif.got.tgz:432953.got - 2010.06.27 13:26:56.
