data_PCOD8029715
_publ_section_title
;
Structure prediction by ZEFSAII (Michael W. Deem and Ramdas Pophale) SiO2 
 PCOD8029715
Probable space group: P -1
;
_chemical_formula_sum "Si O2"
_cell_formula_units_Z 16
_cell_length_a 10.392809
_cell_length_b 12.364187
_cell_length_c 11.892572
_cell_angle_alpha 92.415981
_cell_angle_beta 122.904146
_cell_angle_gamma 47.671845
_cell_volume 809.392284
_symmetry_space_group_name_H-M "P -1"
_symmetry_group_IT_number 2
_symmetry_cell_setting 'triclinic'
loop_
_space_group_symop_operation_xyz
x,y,z
-x,-y,-z
loop_
_atom_site_type_symbol
_atom_site_label
_atom_site_fract_x
_atom_site_fract_y
_atom_site_fract_z
Si Si1 0.592581 0.011786 0.706276
Si Si2 0.871591 0.068304 0.822248
Si Si3 0.484839 0.441129 0.602627
Si Si4 0.043159 0.525382 0.397964
Si Si5 0.622987 0.434282 0.208124
Si Si6 0.882244 0.742058 0.650409
Si Si7 0.369239 0.748411 0.963545
Si Si8 0.553200 0.883392 0.114137
O O1 0.651883 0.103882 0.712747
O O2 0.331567 0.125615 0.536237
O O3 0.597917 0.995426 0.842881
O O4 0.799396 0.824318 0.739056
O O5 0.755431 0.247586 0.745083
O O6 0.079164 0.922417 0.825303
O O7 0.000000 0.000000 0.000000
O O8 0.500000 0.500000 0.500000
O O9 0.297597 0.445443 0.504913
O O10 0.397316 0.567714 0.667625
O O11 0.040633 0.425221 0.307327
O O12 0.000000 0.500000 0.500000
O O13 0.835777 0.724487 0.274855
O O14 0.539165 0.366637 0.109032
O O15 0.894949 0.309010 0.290435
O O16 0.446626 0.631367 0.101145
O O17 0.485580 0.802294 0.032391
O O18 0.500000 0.000000 0.000000
#
# Coordination Sequence:
#
# PCOD8029715 Si02
#       8
#     2   2   2   2   2   2   2   2
#     4  11  22  39  64  95 120 163 214 265 307 370
#     4  12  21  39  65  91 121 164 215 257 308 380
#     4  12  26  41  63  96 132 168 205 265 329 379
#     4  12  21  44  70  89 122 175 226 255 303 387
#     4  11  21  42  66  95 121 165 218 267 310 376
#     4  11  21  38  68  93 117 158 228 267 298 363
#     4  11  23  39  67  91 123 166 216 262 310 378
#     4  12  25  42  63  94 134 169 204 258 331 386
#
# _framework density 19.767917000000001
#
# number of rings (size 3 to 8) (size 9 to 14) (size 15 to 20)
#    0.000    0.500    8.750    0.000    1.750    0.000 
#    2.250    1.250    0.000    0.000    0.000    0.000 
#    0.000    0.000    0.000    0.000    0.000    0.000 
#
# Total GULP energy -198393.386195 kJ/mol
# GULP energy per Si atom -12399.586637 kJ/mol
# Density = 1.972292 g / cm^3
# Si number density = 19.767917 Si / 1000 Ang^3
#
#
#
# Elastic Constant Matrix: (Units=GPa)
#
#
# Indices 1 2 3 4 5 6 
#
# 1 92.9477 58.8371 50.8435 3.1661 -13.6463 -5.0279
# 2 58.8371 146.4179 56.7314 9.5281 -18.8199 -5.9634
# 3 50.8435 56.7314 97.0443 -3.6447 -10.3520 -1.0881
# 4 3.1661 9.5281 -3.6447 46.3239 0.7804 5.9097
# 5 -13.6463 -18.8199 -10.3520 0.7804 33.3822 -1.0276
# 6 -5.0279 -5.9634 -1.0881 5.9097 -1.0276 27.3719
#
#
#
# Elastic Compliance Matrix: (Units=1/GPa)
#
#
# Indices 1 2 3 4 5 6 
#
# 1 0.017427 -0.003894 -0.006554 -0.001273 0.003002 0.002480
# 2 -0.003894 0.010562 -0.003855 -0.002533 0.003291 0.002103
# 3 -0.006554 -0.003855 0.016073 0.002761 0.000006 -0.002000
# 4 -0.001273 -0.002533 0.002761 0.023176 -0.001811 -0.005748
# 5 0.003002 0.003291 0.000006 -0.001811 0.033173 0.002905
# 6 0.002480 0.002103 -0.002000 -0.005748 0.002905 0.038718
#
#
# Mechanical properties :
#
#
# Convention : Reuss Voigt Hill
#
# Bulk Modulus (GPa) = 64.69324 74.35932 69.52628
# Shear Modulus (GPa) = 28.92090 32.74878 30.83484
#
# Velocity S-wave (km/s) = 3.82910 4.07463 3.95377
# Velocity P-wave (km/s) = 7.23510 7.73528 7.48937
#
# Compressibility (1/GPa) = 0.01545757
#
# Stress axis : x y z
#
# Youngs Moduli (GPa) = 57.38285 94.68337 62.21430
#
# Poissons Ratio (x) = 0.36868 0.40773
# Poissons Ratio (y) = 0.22344 0.23981
# Poissons Ratio (z) = 0.37607 0.36497
#
# Static dielectric constant tensor:
#      x y z
#    x 3.230070 -0.210240 0.237370 
#    y -0.210240 4.144510 -0.011460 
#    z 0.237370 -0.011460 3.688830 
# 
# 
# High freq. dielectric constant tensor:
#      x y z
#    x 1.735910 -0.010690 0.025400 
#    y -0.010690 1.793300 0.002760 
#    z 0.025400 0.002760 1.773300 
# 
# From -- ./inp_files/256826.got.cif
#   From: 2010.06.25/outbox.cif.g09.slc.cpg/sg2_129_cif.got.tgz:256826.got - 2010.06.27 13:26:56.
