data_PCOD8029286
_publ_section_title
;
Structure prediction by ZEFSAII (Michael W. Deem and Ramdas Pophale) SiO2 
 PCOD8029286
Probable space group: P -1
;
_chemical_formula_sum "Si O2"
_cell_formula_units_Z 14
_cell_length_a 11.875846
_cell_length_b 10.987402
_cell_length_c 19.776689
_cell_angle_alpha 44.939495
_cell_angle_beta 156.716310
_cell_angle_gamma 122.589237
_cell_volume 660.475446
_symmetry_space_group_name_H-M "P -1"
_symmetry_group_IT_number 2
_symmetry_cell_setting 'triclinic'
loop_
_space_group_symop_operation_xyz
x,y,z
-x,-y,-z
loop_
_atom_site_type_symbol
_atom_site_label
_atom_site_fract_x
_atom_site_fract_y
_atom_site_fract_z
Si Si1 0.028547 0.133882 0.865865
Si Si2 0.113818 0.215644 0.386624
Si Si3 0.542875 0.289550 0.118466
Si Si4 0.617786 0.250703 0.725119
Si Si5 0.533843 0.185736 0.303811
Si Si6 0.412638 0.819562 0.520639
Si Si7 0.887108 0.501742 0.830397
O O1 0.782080 0.200060 0.763323
O O2 0.855998 0.165258 0.686238
O O3 0.248979 0.248547 0.949304
O O4 0.234895 0.912545 0.074094
O O5 0.260748 0.282549 0.504753
O O6 0.986851 0.383964 0.196555
O O7 0.836461 0.163397 0.283199
O O8 0.388181 0.035702 0.574704
O O9 0.626253 0.252479 0.258497
O O10 0.500000 0.500000 0.000000
O O11 0.613866 0.448990 0.669441
O O12 0.709932 0.206325 0.461359
O O13 0.170537 0.300072 0.077582
O O14 0.732495 0.634235 0.756880
O O15 0.500000 0.000000 0.500000
#
# Coordination Sequence:
#
# PCOD8029286 Si02
#       7
#     2   2   2   2   2   2   2
#     4  11  23  42  69 105 137 177 229 286 336 402
#     4  12  23  42  72 100 140 176 227 287 342 390
#     4  12  25  44  73 100 139 183 236 279 336 406
#     4  11  20  39  68 105 134 170 236 290 326 396
#     4  12  24  45  66  99 139 183 224 276 346 407
#     4  12  25  43  69 102 145 179 219 285 353 405
#     4  12  23  40  73 103 133 178 234 280 345 405
#
# _framework density 21.196850999999999
#
# number of rings (size 3 to 8) (size 9 to 14) (size 15 to 20)
#    0.000    0.286    7.143    3.000    2.000    0.000 
#    0.000    1.429    0.000    0.000    0.000    0.000 
#    0.000    0.000    0.000    0.000    0.000    0.000 
#
# Total GULP energy -173487.672626 kJ/mol
# GULP energy per Si atom -12391.976616 kJ/mol
# Density = 2.114861 g / cm^3
# Si number density = 21.196851 Si / 1000 Ang^3
#
#
#
# Elastic Constant Matrix: (Units=GPa)
#
#
# Indices 1 2 3 4 5 6 
#
# 1 117.4981 56.7022 43.1429 14.9080 -19.7610 -15.0729
# 2 56.7022 104.5413 37.6829 2.8816 -5.2500 -2.1993
# 3 43.1429 37.6829 85.1263 3.5592 -2.6256 -4.4519
# 4 14.9080 2.8816 3.5592 36.4595 -4.5304 6.2531
# 5 -19.7610 -5.2500 -2.6256 -4.5304 35.7637 -1.1490
# 6 -15.0729 -2.1993 -4.4519 6.2531 -1.1490 28.0778
#
#
#
# Elastic Compliance Matrix: (Units=1/GPa)
#
#
# Indices 1 2 3 4 5 6 
#
# 1 0.016669 -0.006669 -0.004499 -0.006558 0.007375 0.009475
# 2 -0.006669 0.014115 -0.003204 0.002329 -0.001668 -0.003569
# 3 -0.004499 -0.003204 0.015351 0.000441 -0.001786 -0.000403
# 4 -0.006558 0.002329 0.000441 0.031705 0.000436 -0.010311
# 5 0.007375 -0.001668 -0.001786 0.000436 0.031868 0.004752
# 6 0.009475 -0.003569 -0.000403 -0.010311 0.004752 0.042849
#
#
# Mechanical properties :
#
#
# Convention : Reuss Voigt Hill
#
# Bulk Modulus (GPa) = 57.49915 64.69130 61.09523
# Shear Modulus (GPa) = 26.72440 31.36938 29.04689
#
# Velocity S-wave (km/s) = 3.55459 3.85113 3.70583
# Velocity P-wave (km/s) = 6.63566 7.09651 6.86995
#
# Compressibility (1/GPa) = 0.01739156
#
# Stress axis : x y z
#
# Youngs Moduli (GPa) = 59.99296 70.84903 65.14362
#
# Poissons Ratio (x) = 0.47249 0.29305
# Poissons Ratio (y) = 0.40009 0.20870
# Poissons Ratio (z) = 0.26988 0.22698
#
# Static dielectric constant tensor:
#      x y z
#    x 4.012710 -0.069580 0.002760 
#    y -0.069580 3.955750 -0.101570 
#    z 0.002760 -0.101570 4.105510 
# 
# 
# High freq. dielectric constant tensor:
#      x y z
#    x 1.818080 -0.006950 -0.009090 
#    y -0.006950 1.830980 -0.023690 
#    z -0.009090 -0.023690 1.837260 
# 
# From -- ./inp_files/518705.got.cif
#   From: 2010.06.25/outbox.cif.g09.slc.cpg/sg2_260_cif.got.tgz:518705.got - 2010.06.27 13:26:56.
