data_PCOD8029894
_publ_section_title
;
Structure prediction by ZEFSAII (Michael W. Deem and Ramdas Pophale) SiO2 
 PCOD8029894
Probable space group: P -1
;
_chemical_formula_sum "Si O2"
_cell_formula_units_Z 14
_cell_length_a 12.722142
_cell_length_b 14.654378
_cell_length_c 20.409913
_cell_angle_alpha 19.295898
_cell_angle_beta 148.897281
_cell_angle_gamma 151.769356
_cell_volume 587.309757
_symmetry_space_group_name_H-M "P -1"
_symmetry_group_IT_number 2
_symmetry_cell_setting 'triclinic'
loop_
_space_group_symop_operation_xyz
x,y,z
-x,-y,-z
loop_
_atom_site_type_symbol
_atom_site_label
_atom_site_fract_x
_atom_site_fract_y
_atom_site_fract_z
Si Si1 0.595671 0.060895 0.204523
Si Si2 0.260599 0.703256 0.500537
Si Si3 0.949791 0.864446 0.482980
Si Si4 0.385958 0.319475 0.206475
Si Si5 0.977672 0.200233 0.150657
Si Si6 0.710963 0.278690 0.839484
Si Si7 0.542507 0.689334 0.540196
O O1 0.848531 0.068124 0.332710
O O2 0.478041 0.005687 0.107587
O O3 0.442999 0.782724 0.358969
O O4 0.611795 0.374640 0.031108
O O5 0.366691 0.630220 0.671970
O O6 0.364379 0.620501 0.548633
O O7 0.000000 0.500000 0.500000
O O8 0.302136 0.057615 0.283741
O O9 0.850676 0.527859 0.689525
O O10 0.864864 0.891822 0.344335
O O11 0.218392 0.020062 0.516119
O O12 0.228584 0.239598 0.241291
O O13 0.859758 0.160391 0.043523
O O14 0.000000 0.500000 0.000000
O O15 0.584059 0.393312 0.747483
#
# Coordination Sequence:
#
# PCOD8029894 Si02
#       7
#     2   2   2   2   2   2   2
#     4  11  24  41  68 106 142 176 222 294 354 417
#     4  11  27  47  71  93 134 188 237 295 329 409
#     4  11  21  40  70 101 145 180 220 285 355 416
#     4  11  24  47  65 102 139 174 241 286 343 413
#     4  12  21  40  72 102 136 186 227 281 360 414
#     4  11  24  40  67 114 146 174 223 293 352 426
#     4  11  21  45  68  97 138 186 228 275 359 409
#
# _framework density 23.837505
#
# number of rings (size 3 to 8) (size 9 to 14) (size 15 to 20)
#    0.000    0.857    4.286    4.286    2.000    3.429 
#    0.000    0.714    0.000    0.000    0.000    0.000 
#    0.000    0.000    0.000    0.000    0.000    0.000 
#
# Total GULP energy -173517.772822 kJ/mol
# GULP energy per Si atom -12394.126630 kJ/mol
# Density = 2.378325 g / cm^3
# Si number density = 23.837505 Si / 1000 Ang^3
#
#
#
# Elastic Constant Matrix: (Units=GPa)
#
#
# Indices 1 2 3 4 5 6 
#
# 1 91.9173 44.0502 31.7293 7.9018 -10.8745 7.3389
# 2 44.0502 101.1184 21.7341 20.0361 12.0283 8.5821
# 3 31.7293 21.7341 98.4021 5.8347 -3.0438 2.7303
# 4 7.9018 20.0361 5.8347 28.2062 -3.6981 2.3346
# 5 -10.8745 12.0283 -3.0438 -3.6981 43.1835 0.6041
# 6 7.3389 8.5821 2.7303 2.3346 0.6041 30.9458
#
#
#
# Elastic Compliance Matrix: (Units=1/GPa)
#
#
# Indices 1 2 3 4 5 6 
#
# 1 0.016307 -0.007393 -0.003525 0.002368 0.006145 -0.001805
# 2 -0.007393 0.016316 -0.000794 -0.010165 -0.007308 -0.001792
# 3 -0.003525 -0.000794 0.011523 -0.000831 0.000073 0.000101
# 4 0.002368 -0.010165 -0.000831 0.043199 0.007083 -0.001067
# 5 0.006145 -0.007308 0.000073 0.007083 0.027359 -0.000506
# 6 -0.001805 -0.001792 0.000101 -0.001067 -0.000506 0.033321
#
#
# Mechanical properties :
#
#
# Convention : Reuss Voigt Hill
#
# Bulk Modulus (GPa) = 48.25748 54.05166 51.15457
# Shear Modulus (GPa) = 28.03382 33.39537 30.71459
#
# Velocity S-wave (km/s) = 3.43306 3.74700 3.59346
# Velocity P-wave (km/s) = 6.00024 6.43772 6.22283
#
# Compressibility (1/GPa) = 0.02072218
#
# Stress axis : x y z
#
# Youngs Moduli (GPa) = 61.32397 61.28967 86.78190
#
# Poissons Ratio (x) = 0.45311 0.30594
# Poissons Ratio (y) = 0.45337 0.06886
# Poissons Ratio (z) = 0.21619 0.04863
#
# Static dielectric constant tensor:
#      x y z
#    x 4.387070 -0.079940 -0.228120 
#    y -0.079940 4.215520 0.239100 
#    z -0.228120 0.239100 4.415070 
# 
# 
# High freq. dielectric constant tensor:
#      x y z
#    x 1.926770 -0.002140 -0.016800 
#    y -0.002140 1.948690 0.012900 
#    z -0.016800 0.012900 1.941480 
# 
# From -- ./inp_files/595600.got.cif
#   From: 2010.06.25/outbox.cif.g09.slc.cpg/sg2_298_cif.got.tgz:595600.got - 2010.06.27 13:26:56.
