data_PCOD8029810
_publ_section_title
;
Structure prediction by ZEFSAII (Michael W. Deem and Ramdas Pophale) SiO2 
 PCOD8029810
Probable space group: P -1
;
_chemical_formula_sum "Si O2"
_cell_formula_units_Z 14
_cell_length_a 12.625982
_cell_length_b 9.548576
_cell_length_c 7.990951
_cell_angle_alpha 98.334347
_cell_angle_beta 56.482677
_cell_angle_gamma 121.897727
_cell_volume 667.075129
_symmetry_space_group_name_H-M "P -1"
_symmetry_group_IT_number 2
_symmetry_cell_setting 'triclinic'
loop_
_space_group_symop_operation_xyz
x,y,z
-x,-y,-z
loop_
_atom_site_type_symbol
_atom_site_label
_atom_site_fract_x
_atom_site_fract_y
_atom_site_fract_z
Si Si1 0.006515 0.850622 0.886217
Si Si2 0.577824 0.397637 0.892510
Si Si3 0.851251 0.945541 0.514211
Si Si4 0.244083 0.501879 0.916547
Si Si5 0.625582 0.969232 0.947654
Si Si6 0.218101 0.408104 0.560732
Si Si7 0.103701 0.711786 0.062743
O O1 0.085849 0.779607 0.914930
O O2 0.097549 0.914830 0.647924
O O3 0.836891 0.689302 0.975098
O O4 0.000000 0.000000 0.000000
O O5 0.706064 0.480113 0.651683
O O6 0.500000 0.500000 0.000000
O O7 0.635571 0.385111 0.025791
O O8 0.457737 0.206124 0.905341
O O9 0.718132 0.947451 0.719515
O O10 0.776845 0.758332 0.474913
O O11 0.000000 0.000000 0.500000
O O12 0.305043 0.507588 0.674654
O O13 0.123496 0.555414 0.002456
O O14 0.500000 0.000000 0.000000
O O15 0.741494 0.129100 0.980332
O O16 0.041741 0.347731 0.703241
#
# Coordination Sequence:
#
# PCOD8029810 Si02
#       7
#     2   2   2   2   2   2   2
#     4  11  21  39  72 105 127 175 239 296 333 401
#     4  12  27  44  70 101 140 187 229 285 355 418
#     4  12  22  42  72 105 133 180 239 285 339 414
#     4  11  25  45  68 104 144 174 232 294 349 410
#     4  12  26  46  65 102 147 180 226 289 357 412
#     4  11  23  44  74 101 131 183 240 286 340 411
#     4  11  24  46  70  99 143 180 231 290 347 419
#
# _framework density 20.987141999999999
#
# number of rings (size 3 to 8) (size 9 to 14) (size 15 to 20)
#    0.000    0.571    7.143    2.571    2.000    3.429 
#    2.571    1.429    0.000    0.000    0.000    0.000 
#    0.000    0.000    0.000    0.000    0.000    0.000 
#
# Total GULP energy -173519.165292 kJ/mol
# GULP energy per Si atom -12394.226092 kJ/mol
# Density = 2.093937 g / cm^3
# Si number density = 20.987142 Si / 1000 Ang^3
#
#
#
# Elastic Constant Matrix: (Units=GPa)
#
#
# Indices 1 2 3 4 5 6 
#
# 1 100.8746 23.2013 68.0506 -3.0103 2.0657 -9.7981
# 2 23.2013 110.2990 50.1426 -6.7652 5.3469 -14.8193
# 3 68.0506 50.1426 138.3788 -9.3924 4.0881 -4.4787
# 4 -3.0103 -6.7652 -9.3924 38.6987 -5.1116 -3.0869
# 5 2.0657 5.3469 4.0881 -5.1116 34.6649 5.9487
# 6 -9.7981 -14.8193 -4.4787 -3.0869 5.9487 40.1367
#
#
#
# Elastic Compliance Matrix: (Units=1/GPa)
#
#
# Indices 1 2 3 4 5 6 
#
# 1 0.015221 0.000716 -0.007646 -0.000386 -0.000723 0.003204
# 2 0.000716 0.011611 -0.004285 0.001141 -0.001907 0.004354
# 3 -0.007646 -0.004285 0.012577 0.001580 0.000201 -0.001953
# 4 -0.000386 0.001141 0.001580 0.026994 0.003282 0.002093
# 5 -0.000723 -0.001907 0.000201 0.003282 0.030525 -0.005130
# 6 0.003204 0.004354 -0.001953 0.002093 -0.005130 0.028008
#
#
# Mechanical properties :
#
#
# Convention : Reuss Voigt Hill
#
# Bulk Modulus (GPa) = 58.89281 70.26016 64.57648
# Shear Modulus (GPa) = 32.67423 36.57725 34.62574
#
# Velocity S-wave (km/s) = 3.95000 4.17926 4.06625
# Velocity P-wave (km/s) = 6.99468 7.53915 7.27201
#
# Compressibility (1/GPa) = 0.01698000
#
# Stress axis : x y z
#
# Youngs Moduli (GPa) = 65.69830 86.12564 79.50900
#
# Poissons Ratio (x) = -0.06166 0.60792
# Poissons Ratio (y) = -0.04704 0.34067
# Poissons Ratio (z) = 0.50232 0.36902
#
# Static dielectric constant tensor:
#      x y z
#    x 4.007340 0.011730 0.078600 
#    y 0.011730 6.064130 0.147760 
#    z 0.078600 0.147760 4.141090 
# 
# 
# High freq. dielectric constant tensor:
#      x y z
#    x 1.817020 -0.002970 -0.000330 
#    y -0.002970 1.850910 0.000830 
#    z -0.000330 0.000830 1.817130 
# 
# From -- ./inp_files/156942.got.cif
#   From: 2010.06.25/outbox.cif.g09.slc.cpg/sg2_79_cif.got.tgz:156942.got - 2010.06.27 13:26:56.
