data_PCOD8029393
_publ_section_title
;
Structure prediction by ZEFSAII (Michael W. Deem and Ramdas Pophale) SiO2 
 PCOD8029393
Probable space group: P -1
;
_chemical_formula_sum "Si O2"
_cell_formula_units_Z 16
_cell_length_a 22.307703
_cell_length_b 9.398420
_cell_length_c 8.947453
_cell_angle_alpha 55.927397
_cell_angle_beta 150.097360
_cell_angle_gamma 123.062222
_cell_volume 766.451642
_symmetry_space_group_name_H-M "P -1"
_symmetry_group_IT_number 2
_symmetry_cell_setting 'triclinic'
loop_
_space_group_symop_operation_xyz
x,y,z
-x,-y,-z
loop_
_atom_site_type_symbol
_atom_site_label
_atom_site_fract_x
_atom_site_fract_y
_atom_site_fract_z
Si Si1 0.222560 0.149829 0.519237
Si Si2 0.792692 0.054417 0.828160
Si Si3 0.364949 0.526186 0.142648
Si Si4 0.042926 0.736357 0.717685
Si Si5 0.769791 0.750016 0.183121
Si Si6 0.369806 0.906006 0.807787
Si Si7 0.996266 0.899382 0.237104
Si Si8 0.841798 0.573962 0.994242
O O1 0.251335 0.197276 0.724652
O O2 0.225765 0.331723 0.335163
O O3 0.319742 0.037655 0.734877
O O4 0.091442 0.031693 0.271542
O O5 0.690447 0.126051 0.467794
O O6 0.880523 0.213595 0.997455
O O7 0.743992 0.912015 0.930106
O O8 0.866867 0.965907 0.915025
O O9 0.500000 0.500000 0.500000
O O10 0.259146 0.473811 0.067719
O O11 0.330491 0.410654 0.988415
O O12 0.366865 0.726355 0.992000
O O13 0.051049 0.900850 0.524462
O O14 0.901447 0.685984 0.484202
O O15 0.106016 0.589129 0.862681
O O16 0.500000 0.000000 0.000000
O O17 0.965680 0.697583 0.242000
#
# Coordination Sequence:
#
# PCOD8029393 Si02
#       8
#     2   2   2   2   2   2   2   2
#     4  12  24  42  70 104 138 180 225 276 340 403
#     4  11  21  44  68  96 144 177 222 276 341 403
#     4  12  27  50  71  96 134 184 229 281 338 397
#     4  11  22  38  67 104 145 175 224 273 348 391
#     4  11  23  43  69 103 142 178 220 285 333 403
#     4  12  28  49  72  96 130 183 235 276 339 408
#     4  11  20  41  66 102 139 187 213 276 340 408
#     4  12  25  40  67 101 146 178 227 279 332 404
#
# _framework density 20.875419000000001
#
# number of rings (size 3 to 8) (size 9 to 14) (size 15 to 20)
#    0.000    0.500    6.250    3.750    3.500    0.500 
#    2.250    2.500    0.000    0.000    0.000    0.000 
#    0.000    0.000    0.000    0.000    0.000    0.000 
#
# Total GULP energy -198363.152401 kJ/mol
# GULP energy per Si atom -12397.697025 kJ/mol
# Density = 2.082791 g / cm^3
# Si number density = 20.875419 Si / 1000 Ang^3
#
#
#
# Elastic Constant Matrix: (Units=GPa)
#
#
# Indices 1 2 3 4 5 6 
#
# 1 105.7633 50.0670 48.6903 -3.6226 -11.4864 7.3487
# 2 50.0670 86.8274 52.1853 5.7225 3.0709 6.6666
# 3 48.6903 52.1853 132.9694 2.1420 -7.5370 -0.5704
# 4 -3.6226 5.7225 2.1420 38.6511 1.0277 -4.0105
# 5 -11.4864 3.0709 -7.5370 1.0277 26.0608 -0.2431
# 6 7.3487 6.6666 -0.5704 -4.0105 -0.2431 38.1646
#
#
#
# Elastic Compliance Matrix: (Units=1/GPa)
#
#
# Indices 1 2 3 4 5 6 
#
# 1 0.014959 -0.007633 -0.002141 0.002337 0.006769 -0.001290
# 2 -0.007633 0.019790 -0.005331 -0.003417 -0.007126 -0.002471
# 3 -0.002141 -0.005331 0.010558 0.000089 0.002748 0.001528
# 4 0.002337 -0.003417 0.000089 0.026890 0.000426 0.002977
# 5 0.006769 -0.007126 0.002748 0.000426 0.042976 0.000301
# 6 -0.001290 -0.002471 0.001528 0.002977 0.000301 0.027220
#
#
# Mechanical properties :
#
#
# Convention : Reuss Voigt Hill
#
# Bulk Modulus (GPa) = 66.24587 69.71613 67.98100
# Shear Modulus (GPa) = 28.14741 32.21647 30.18194
#
# Velocity S-wave (km/s) = 3.67597 3.93271 3.80651
# Velocity P-wave (km/s) = 7.05832 7.35462 7.20799
#
# Compressibility (1/GPa) = 0.01509528
#
# Stress axis : x y z
#
# Youngs Moduli (GPa) = 66.84801 50.53129 94.71631
#
# Poissons Ratio (x) = 0.38572 0.20283
# Poissons Ratio (y) = 0.51027 0.50494
# Poissons Ratio (z) = 0.14315 0.26939
#
# Static dielectric constant tensor:
#      x y z
#    x 3.873720 0.055700 -0.148140 
#    y 0.055700 4.011230 0.073780 
#    z -0.148140 0.073780 3.820890 
# 
# 
# High freq. dielectric constant tensor:
#      x y z
#    x 1.823700 -0.005660 -0.018030 
#    y -0.005660 1.822790 -0.001120 
#    z -0.018030 -0.001120 1.818630 
# 
# From -- ./inp_files/343473.got.cif
#   From: 2010.06.25/outbox.cif.g09.slc.cpg/sg2_172_cif.got.tgz:343473.got - 2010.06.27 13:26:56.
