data_PCOD8029073
_publ_section_title
;
Structure prediction by ZEFSAII (Michael W. Deem and Ramdas Pophale) SiO2 
 PCOD8029073
Probable space group: P -1
;
_chemical_formula_sum "Si O2"
_cell_formula_units_Z 14
_cell_length_a 19.954097
_cell_length_b 12.051393
_cell_length_c 10.179295
_cell_angle_alpha 129.008233
_cell_angle_beta 41.355431
_cell_angle_gamma 158.035445
_cell_volume 582.494189
_symmetry_space_group_name_H-M "P -1"
_symmetry_group_IT_number 2
_symmetry_cell_setting 'triclinic'
loop_
_space_group_symop_operation_xyz
x,y,z
-x,-y,-z
loop_
_atom_site_type_symbol
_atom_site_label
_atom_site_fract_x
_atom_site_fract_y
_atom_site_fract_z
Si Si1 0.331330 0.817371 0.997611
Si Si2 0.821168 0.780800 0.482611
Si Si3 0.143810 0.874789 0.786212
Si Si4 0.481840 0.864369 0.542285
Si Si5 0.212747 0.213674 0.770029
Si Si6 0.728375 0.743655 0.905966
Si Si7 0.558012 0.732994 0.832714
O O1 0.400421 0.839219 0.773956
O O2 0.109596 0.472389 0.117850
O O3 0.500000 0.000000 0.000000
O O4 0.300559 0.948708 0.123650
O O5 0.677437 0.466796 0.507720
O O6 0.826719 0.797607 0.329756
O O7 0.715426 0.799107 0.697195
O O8 0.090448 0.091189 0.345420
O O9 0.274486 0.890289 0.611669
O O10 0.233082 0.071784 0.673924
O O11 0.171587 0.996060 0.971899
O O12 0.500000 0.000000 0.500000
O O13 0.448729 0.578136 0.733620
O O14 0.000000 0.000000 0.000000
O O15 0.500000 0.500000 0.000000
O O16 0.660829 0.535265 0.953109
#
# Coordination Sequence:
#
# PCOD8029073 Si02
#       7
#     2   2   2   2   2   2   2
#     4  12  28  48  74 115 158 197 247 316 387 444
#     4  12  23  46  77 105 143 201 251 314 376 449
#     4  11  25  48  73 110 152 199 247 320 377 453
#     4  12  28  49  76 109 155 208 249 306 389 454
#     4  11  19  42  78 103 145 190 253 314 377 436
#     4  11  25  45  76 104 145 192 260 305 364 455
#     4  11  25  41  71 112 139 191 252 311 365 451
#
# _framework density 24.034576000000001
#
# number of rings (size 3 to 8) (size 9 to 14) (size 15 to 20)
#    0.000    0.571    7.143    2.143    4.000    4.000 
#    0.000    0.000    0.000    0.000    0.000    0.000 
#    0.000    0.000    0.000    0.000    0.000    0.000 
#
# Total GULP energy -173576.768098 kJ/mol
# GULP energy per Si atom -12398.340578 kJ/mol
# Density = 2.397987 g / cm^3
# Si number density = 24.034576 Si / 1000 Ang^3
#
#
#
# Elastic Constant Matrix: (Units=GPa)
#
#
# Indices 1 2 3 4 5 6 
#
# 1 114.4993 41.2411 44.6855 -2.1223 -20.7684 -5.6243
# 2 41.2411 154.2758 44.1742 1.3701 -8.3069 2.2319
# 3 44.6855 44.1742 122.3052 -10.6512 -3.3385 -6.4230
# 4 -2.1223 1.3701 -10.6512 37.6321 -2.6704 -15.7851
# 5 -20.7684 -8.3069 -3.3385 -2.6704 40.0862 -9.6641
# 6 -5.6243 2.2319 -6.4230 -15.7851 -9.6641 44.7661
#
#
#
# Elastic Compliance Matrix: (Units=1/GPa)
#
#
# Indices 1 2 3 4 5 6 
#
# 1 0.012056 -0.002021 -0.003196 0.001609 0.006418 0.003110
# 2 -0.002021 0.007707 -0.002283 -0.001724 -0.000142 -0.001604
# 3 -0.003196 -0.002283 0.010638 0.003961 -0.000363 0.002557
# 4 0.001609 -0.001724 0.003961 0.034347 0.006562 0.014384
# 5 0.006418 -0.000142 -0.000363 0.006562 0.031004 0.009768
# 6 0.003110 -0.001604 0.002557 0.014384 0.009768 0.030357
#
#
# Mechanical properties :
#
#
# Convention : Reuss Voigt Hill
#
# Bulk Modulus (GPa) = 64.93850 72.36464 68.65157
# Shear Modulus (GPa) = 34.18998 41.89553 38.04275
#
# Velocity S-wave (km/s) = 3.77574 4.17962 3.98280
# Velocity P-wave (km/s) = 6.78865 7.31206 7.05521
#
# Compressibility (1/GPa) = 0.01539918
#
# Stress axis : x y z
#
# Youngs Moduli (GPa) = 82.94848 129.75391 94.00307
#
# Poissons Ratio (x) = 0.26227 0.30044
# Poissons Ratio (y) = 0.16766 0.21464
# Poissons Ratio (z) = 0.26511 0.29627
#
# Static dielectric constant tensor:
#      x y z
#    x 4.262990 -0.174500 -1.907830 
#    y -0.174500 4.408750 -0.785970 
#    z -1.907830 -0.785970 0.080720 
# 
# 
# High freq. dielectric constant tensor:
#      x y z
#    x 1.985800 0.011240 0.005800 
#    y 0.011240 1.947470 -0.013390 
#    z 0.005800 -0.013390 1.975200 
# 
# From -- ./inp_files/471223.got.cif
#   From: 2010.06.25/outbox.cif.g09.slc.cpg/sg2_236_cif.got.tgz:471223.got - 2010.06.27 13:26:56.
