data_PCOD8029476
_publ_section_title
;
Structure prediction by ZEFSAII (Michael W. Deem and Ramdas Pophale) SiO2 
 PCOD8029476
Probable space group: P -1
;
_chemical_formula_sum "Si O2"
_cell_formula_units_Z 16
_cell_length_a 8.969119
_cell_length_b 9.139673
_cell_length_c 11.525018
_cell_angle_alpha 121.338135
_cell_angle_beta 87.194707
_cell_angle_gamma 82.845260
_cell_volume 793.408350
_symmetry_space_group_name_H-M "P -1"
_symmetry_group_IT_number 2
_symmetry_cell_setting 'triclinic'
loop_
_space_group_symop_operation_xyz
x,y,z
-x,-y,-z
loop_
_atom_site_type_symbol
_atom_site_label
_atom_site_fract_x
_atom_site_fract_y
_atom_site_fract_z
Si Si1 0.274113 0.094166 0.005404
Si Si2 0.934697 0.529638 0.386232
Si Si3 0.756584 0.279859 0.171641
Si Si4 0.338271 0.622505 0.035831
Si Si5 0.561104 0.023125 0.819994
Si Si6 0.186510 0.475047 0.176988
Si Si7 0.626619 0.714144 0.528298
Si Si8 0.450804 0.469220 0.330901
O O1 0.156943 0.276624 0.077660
O O2 0.358288 0.094510 0.126221
O O3 0.389191 0.095865 0.894252
O O4 0.189408 0.928070 0.931407
O O5 0.882037 0.352673 0.271731
O O6 0.794086 0.691583 0.455454
O O7 0.000000 0.500000 0.500000
O O8 0.059209 0.576274 0.309674
O O9 0.594930 0.310748 0.256958
O O10 0.721569 0.385613 0.096490
O O11 0.353628 0.818871 0.147181
O O12 0.198431 0.571899 0.094852
O O13 0.500000 0.500000 0.000000
O O14 0.569845 0.908939 0.655409
O O15 0.354480 0.472295 0.220111
O O16 0.506488 0.656249 0.418374
O O17 0.647578 0.570100 0.571312
#
# Coordination Sequence:
#
# PCOD8029476 Si02
#       8
#     2   2   2   2   2   2   2   2
#     4  10  17  30  57  85 112 137 187 243 280 318
#     4  11  23  37  58  83 117 151 188 231 280 333
#     4  10  21  36  58  89 113 144 187 234 287 332
#     4  11  21  35  59  85 117 147 183 235 283 338
#     4  10  17  32  55  86 110 143 186 239 282 317
#     4  12  21  36  56  87 116 150 186 227 287 338
#     4  10  19  33  55  83 111 147 185 235 277 321
#     4  10  17  31  58  82 107 142 192 230 269 324
#
# _framework density 20.166160000000001
#
# number of rings (size 3 to 8) (size 9 to 14) (size 15 to 20)
#    0.000    1.500    6.250    0.750    0.000    1.000 
#    0.000    1.250    0.000    0.000    0.000    0.000 
#    0.000    0.000    0.000    0.000    0.000    0.000 
#
# Total GULP energy -198360.698750 kJ/mol
# GULP energy per Si atom -12397.543672 kJ/mol
# Density = 2.012026 g / cm^3
# Si number density = 20.166160 Si / 1000 Ang^3
#
#
#
# Elastic Constant Matrix: (Units=GPa)
#
#
# Indices 1 2 3 4 5 6 
#
# 1 66.8766 23.4038 36.6046 -3.0067 -2.5467 11.8611
# 2 23.4038 80.4508 41.2639 -2.2745 -5.6933 10.8714
# 3 36.6046 41.2639 117.4953 11.4365 -0.7851 8.2985
# 4 -3.0067 -2.2745 11.4365 29.6777 7.9953 -4.4106
# 5 -2.5467 -5.6933 -0.7851 7.9953 46.4381 -3.2517
# 6 11.8611 10.8714 8.2985 -4.4106 -3.2517 15.6166
#
#
#
# Elastic Compliance Matrix: (Units=1/GPa)
#
#
# Indices 1 2 3 4 5 6 
#
# 1 0.020461 -0.001752 -0.005225 0.002425 -0.000364 -0.010935
# 2 -0.001752 0.016516 -0.004927 0.001679 0.001077 -0.006851
# 3 -0.005225 -0.004927 0.012510 -0.005932 0.000282 -0.000866
# 4 0.002425 0.001679 -0.005932 0.039425 -0.005845 0.010060
# 5 -0.000364 0.001077 0.000282 -0.005845 0.022831 0.002481
# 6 -0.010935 -0.006851 -0.000866 0.010060 0.002481 0.080926
#
#
# Mechanical properties :
#
#
# Convention : Reuss Voigt Hill
#
# Bulk Modulus (GPa) = 38.94336 51.92968 45.43652
# Shear Modulus (GPa) = 22.21864 29.24983 25.73423
#
# Velocity S-wave (km/s) = 3.32291 3.81260 3.57614
# Velocity P-wave (km/s) = 5.83742 6.72220 6.29537
#
# Compressibility (1/GPa) = 0.02567832
#
# Stress axis : x y z
#
# Youngs Moduli (GPa) = 48.87464 60.54730 79.93823
#
# Poissons Ratio (x) = 0.10606 0.41770
# Poissons Ratio (y) = 0.08561 0.39386
# Poissons Ratio (z) = 0.25538 0.29832
#
# Static dielectric constant tensor:
#      x y z
#    x 3.453820 0.202950 0.000570 
#    y 0.202950 3.351860 0.023270 
#    z 0.000570 0.023270 3.831310 
# 
# 
# High freq. dielectric constant tensor:
#      x y z
#    x 1.769240 0.022940 -0.002380 
#    y 0.022940 1.748240 0.005200 
#    z -0.002380 0.005200 1.803670 
# 
# From -- ./inp_files/215898.got.cif
#   From: 2010.06.25/outbox.cif.g09.slc.cpg/sg2_108_cif.got.tgz:215898.got - 2010.06.27 13:26:56.
