data_PCOD8029094
_publ_section_title
;
Structure prediction by ZEFSAII (Michael W. Deem and Ramdas Pophale) SiO2 
 PCOD8029094
Probable space group: P -1
;
_chemical_formula_sum "Si O2"
_cell_formula_units_Z 16
_cell_length_a 8.093017
_cell_length_b 10.071405
_cell_length_c 13.689508
_cell_angle_alpha 86.865479
_cell_angle_beta 52.993782
_cell_angle_gamma 56.565228
_cell_volume 676.334266
_symmetry_space_group_name_H-M "P -1"
_symmetry_group_IT_number 2
_symmetry_cell_setting 'triclinic'
loop_
_space_group_symop_operation_xyz
x,y,z
-x,-y,-z
loop_
_atom_site_type_symbol
_atom_site_label
_atom_site_fract_x
_atom_site_fract_y
_atom_site_fract_z
Si Si1 0.505709 0.096671 0.834772
Si Si2 0.801483 0.766549 0.250745
Si Si3 0.986821 0.881578 0.791543
Si Si4 0.704480 0.099805 0.480012
Si Si5 0.231003 0.763951 0.358268
Si Si6 0.695645 0.401775 0.154555
Si Si7 0.732758 0.237352 0.951740
Si Si8 0.811443 0.577016 0.965745
O O1 0.378654 0.093209 0.780468
O O2 0.653031 0.177029 0.762143
O O3 0.263113 0.235581 0.993532
O O4 0.754477 0.908289 0.802425
O O5 0.602580 0.833349 0.412210
O O6 0.046182 0.765081 0.185520
O O7 0.917935 0.570754 0.187785
O O8 0.217271 0.870109 0.652578
O O9 0.146254 0.702495 0.799586
O O10 0.822096 0.046181 0.918504
O O11 0.713638 0.214345 0.551673
O O12 0.907277 0.895037 0.448565
O O13 0.380649 0.561850 0.289901
O O14 0.840226 0.478721 0.061658
O O15 0.719006 0.277664 0.069917
O O16 0.439384 0.388570 0.003350
#
# Coordination Sequence:
#
# PCOD8029094 Si02
#       8
#     2   2   2   2   2   2   2   2
#     4   8  16  31  52  77 101 129 169 215 253 289
#     4  10  17  30  55  77  99 130 173 214 246 295
#     4  10  20  34  52  76 108 138 164 203 256 310
#     4   9  18  32  51  77 104 132 167 208 255 298
#     4   8  16  32  53  75 100 134 174 209 242 297
#     4  10  18  32  56  76  98 136 175 207 249 302
#     4  10  21  36  54  76 101 134 175 213 251 295
#     4   9  18  33  54  76  97 130 176 215 249 294
#
# _framework density 23.656939999999999
#
# number of rings (size 3 to 8) (size 9 to 14) (size 15 to 20)
#    0.000    2.750    0.000    3.750    0.000    2.000 
#    0.000    2.500    0.000   21.750    0.000    0.000 
#    0.000    0.000    0.000    0.000    0.000    0.000 
#
# Total GULP energy -198261.883038 kJ/mol
# GULP energy per Si atom -12391.367690 kJ/mol
# Density = 2.360310 g / cm^3
# Si number density = 23.656940 Si / 1000 Ang^3
#
#
#
# Elastic Constant Matrix: (Units=GPa)
#
#
# Indices 1 2 3 4 5 6 
#
# 1 47.7730 8.6238 20.1697 1.3810 -13.3246 -14.8183
# 2 8.6238 93.6471 41.3188 12.9888 -4.7533 -27.9329
# 3 20.1697 41.3188 120.9682 26.8419 -7.3051 -16.9161
# 4 1.3810 12.9888 26.8419 28.7601 -6.1712 5.5901
# 5 -13.3246 -4.7533 -7.3051 -6.1712 35.1775 11.0496
# 6 -14.8183 -27.9329 -16.9161 5.5901 11.0496 29.0531
#
#
#
# Elastic Compliance Matrix: (Units=1/GPa)
#
#
# Indices 1 2 3 4 5 6 
#
# 1 0.027495 0.003341 -0.003253 -0.001146 0.005793 0.013359
# 2 0.003341 0.020396 -0.000878 -0.015224 -0.007139 0.026447
# 3 -0.003253 -0.000878 0.013543 -0.014918 -0.004256 0.009870
# 4 -0.001146 -0.015224 -0.014918 0.068789 0.020607 -0.044981
# 5 0.005793 -0.007139 -0.004256 0.020607 0.040475 -0.025746
# 6 0.013359 0.026447 0.009870 -0.044981 -0.025746 0.090854
#
#
# Mechanical properties :
#
#
# Convention : Reuss Voigt Hill
#
# Bulk Modulus (GPa) = 16.70756 44.73477 30.72117
# Shear Modulus (GPa) = 17.66261 31.41655 24.53958
#
# Velocity S-wave (km/s) = 2.73539 3.64813 3.22422
# Velocity P-wave (km/s) = 4.12968 6.05772 5.18412
#
# Compressibility (1/GPa) = 0.05985314
#
# Stress axis : x y z
#
# Youngs Moduli (GPa) = 36.36959 49.02934 73.84117
#
# Poissons Ratio (x) = -0.16382 0.24023
# Poissons Ratio (y) = -0.12152 0.06486
# Poissons Ratio (z) = 0.11832 0.04307
#
# Static dielectric constant tensor:
#      x y z
#    x 4.198960 -0.398930 -0.123540 
#    y -0.398930 3.964830 0.430830 
#    z -0.123540 0.430830 4.676640 
# 
# 
# High freq. dielectric constant tensor:
#      x y z
#    x 1.933000 -0.034730 -0.003480 
#    y -0.034730 1.899700 0.033670 
#    z -0.003480 0.033670 1.942000 
# 
# From -- ./inp_files/497985.got.cif
#   From: 2010.06.25/outbox.cif.g09.slc.cpg/sg2_249_cif.got.tgz:497985.got - 2010.06.27 13:26:56.
