data_PCOD8029658
_publ_section_title
;
Structure prediction by ZEFSAII (Michael W. Deem and Ramdas Pophale) SiO2 
 PCOD8029658
Probable space group: P -1
;
_chemical_formula_sum "Si O2"
_cell_formula_units_Z 16
_cell_length_a 9.940251
_cell_length_b 11.914639
_cell_length_c 14.031790
_cell_angle_alpha 43.186103
_cell_angle_beta 101.350663
_cell_angle_gamma 127.404231
_cell_volume 805.590657
_symmetry_space_group_name_H-M "P -1"
_symmetry_group_IT_number 2
_symmetry_cell_setting 'triclinic'
loop_
_space_group_symop_operation_xyz
x,y,z
-x,-y,-z
loop_
_atom_site_type_symbol
_atom_site_label
_atom_site_fract_x
_atom_site_fract_y
_atom_site_fract_z
Si Si1 0.222834 0.726205 0.293947
Si Si2 0.636887 0.186272 0.081616
Si Si3 0.058736 0.068762 0.073157
Si Si4 0.052501 0.666272 0.111806
Si Si5 0.971712 0.230163 0.603537
Si Si6 0.503414 0.567633 0.065232
Si Si7 0.687523 0.181768 0.301167
Si Si8 0.650349 0.889423 0.627160
O O1 0.117956 0.734007 0.188529
O O2 0.165491 0.759273 0.365501
O O3 0.158409 0.481691 0.436939
O O4 0.448512 0.928296 0.188623
O O5 0.727713 0.191990 0.188501
O O6 0.783293 0.281134 0.958714
O O7 0.609353 0.358030 0.981465
O O8 0.960242 0.860043 0.261540
O O9 0.281763 0.220832 0.008513
O O10 0.998903 0.198446 0.021046
O O11 0.000000 0.000000 0.000000
O O12 0.864023 0.402382 0.245729
O O13 0.853747 0.063098 0.600839
O O14 0.408044 0.347562 0.253015
O O15 0.500000 0.500000 0.000000
O O16 0.505068 0.148558 0.305153
O O17 0.652095 0.974981 0.470863
#
# Coordination Sequence:
#
# PCOD8029658 Si02
#       8
#     2   2   2   2   2   2   2   2
#     4  11  22  40  63  90 121 166 199 247 308 364
#     4  12  24  42  61  91 128 164 198 245 311 369
#     4  12  22  37  61  97 119 153 211 252 292 353
#     4  12  24  40  61  92 130 160 197 250 306 369
#     4  11  21  38  65  91 122 154 208 258 299 349
#     4  12  20  39  63  89 120 160 206 250 294 356
#     4  11  22  38  60  95 118 160 205 251 305 350
#     4  11  21  37  66  91 122 153 209 261 295 349
#
# _framework density 19.861204000000001
#
# number of rings (size 3 to 8) (size 9 to 14) (size 15 to 20)
#    0.000    0.500    8.750    0.750    0.000    1.000 
#    0.000    2.500    0.000    0.000    0.000    0.000 
#    0.000    0.000    0.000    0.000    0.000    0.000 
#
# Total GULP energy -198462.417239 kJ/mol
# GULP energy per Si atom -12403.901077 kJ/mol
# Density = 1.981600 g / cm^3
# Si number density = 19.861204 Si / 1000 Ang^3
#
#
#
# Elastic Constant Matrix: (Units=GPa)
#
#
# Indices 1 2 3 4 5 6 
#
# 1 70.0364 0.8164 30.2090 -1.7195 4.3297 -2.2341
# 2 0.8164 75.1747 13.1882 2.5009 -3.3967 13.8456
# 3 30.2090 13.1882 132.9585 -7.7376 23.9070 0.0188
# 4 -1.7195 2.5009 -7.7376 33.8225 1.1416 2.4271
# 5 4.3297 -3.3967 23.9070 1.1416 18.3264 3.1574
# 6 -2.2341 13.8456 0.0188 2.4271 3.1574 17.9285
#
#
#
# Elastic Compliance Matrix: (Units=1/GPa)
#
#
# Indices 1 2 3 4 5 6 
#
# 1 0.015915 0.000253 -0.003840 -0.000241 0.001028 0.001644
# 2 0.000253 0.017256 -0.003781 -0.001415 0.010742 -0.014991
# 3 -0.003840 -0.003781 0.011876 0.003001 -0.016317 0.004896
# 4 -0.000241 -0.001415 0.003001 0.030687 -0.005670 -0.002096
# 5 0.001028 0.010742 -0.016317 -0.005670 0.081704 -0.021771
# 6 0.001644 -0.014991 0.004896 -0.002096 -0.021771 0.071672
#
#
# Mechanical properties :
#
#
# Convention : Reuss Voigt Hill
#
# Bulk Modulus (GPa) = 32.99116 40.73298 36.86207
# Shear Modulus (GPa) = 19.68891 29.61256 24.65074
#
# Velocity S-wave (km/s) = 3.15195 3.86550 3.52682
# Velocity P-wave (km/s) = 5.46747 6.36209 5.93167
#
# Compressibility (1/GPa) = 0.03031115
#
# Stress axis : x y z
#
# Youngs Moduli (GPa) = 62.83518 57.94963 84.19996
#
# Poissons Ratio (x) = -0.01464 0.32333
# Poissons Ratio (y) = -0.01587 0.31833
# Poissons Ratio (z) = 0.24129 0.21909
#
# Static dielectric constant tensor:
#      x y z
#    x 3.276760 0.104640 0.225410 
#    y 0.104640 3.632300 -0.121720 
#    z 0.225410 -0.121720 3.994920 
# 
# 
# High freq. dielectric constant tensor:
#      x y z
#    x 1.735350 0.012190 0.013620 
#    y 0.012190 1.786330 -0.003750 
#    z 0.013620 -0.003750 1.792250 
# 
# From -- ./inp_files/186722.got.cif
#   From: 2010.06.25/outbox.cif.g09.slc.cpg/sg2_94_cif.got.tgz:186722.got - 2010.06.27 13:26:56.
