data_PCOD8029558
_publ_section_title
;
Structure prediction by ZEFSAII (Michael W. Deem and Ramdas Pophale) SiO2 
 PCOD8029558
Probable space group: P -1
;
_chemical_formula_sum "Si O2"
_cell_formula_units_Z 16
_cell_length_a 8.320155
_cell_length_b 9.327361
_cell_length_c 14.224977
_cell_angle_alpha 110.466690
_cell_angle_beta 136.755868
_cell_angle_gamma 80.136888
_cell_volume 702.561526
_symmetry_space_group_name_H-M "P -1"
_symmetry_group_IT_number 2
_symmetry_cell_setting 'triclinic'
loop_
_space_group_symop_operation_xyz
x,y,z
-x,-y,-z
loop_
_atom_site_type_symbol
_atom_site_label
_atom_site_fract_x
_atom_site_fract_y
_atom_site_fract_z
Si Si1 0.750590 0.570524 0.894836
Si Si2 0.475848 0.274843 0.644341
Si Si3 0.328518 0.905314 0.978388
Si Si4 0.272265 0.981841 0.595847
Si Si5 0.878218 0.179732 0.679633
Si Si6 0.862076 0.859782 0.690908
Si Si7 0.321567 0.137781 0.180245
Si Si8 0.637431 0.661209 0.068560
O O1 0.520302 0.443692 0.748990
O O2 0.750430 0.694650 0.838395
O O3 0.688213 0.667697 0.980500
O O4 0.000000 0.500000 0.000000
O O5 0.737594 0.264477 0.715214
O O6 0.288306 0.256107 0.473229
O O7 0.406709 0.151439 0.668343
O O8 0.110695 0.800083 0.808917
O O9 0.477154 0.786370 0.065559
O O10 0.500000 0.000000 0.000000
O O11 0.204234 0.008557 0.026314
O O12 0.295232 0.868804 0.491625
O O13 0.399636 0.897581 0.715565
O O14 0.000000 0.000000 0.500000
O O15 0.105016 0.294195 0.764478
O O16 0.950796 0.023886 0.718760
O O17 0.727939 0.889870 0.737125
O O18 0.500000 0.500000 0.000000
#
# Coordination Sequence:
#
# PCOD8029558 Si02
#       8
#     2   2   2   2   2   2   2   2
#     4  12  28  47  69 102 147 189 235 291 358 422
#     4  11  24  45  70 100 145 183 231 291 351 421
#     4  12  25  45  69  99 141 180 234 300 344 413
#     4  11  24  41  74 108 137 183 240 291 354 418
#     4  11  20  46  69 100 143 179 231 293 344 422
#     4  11  23  43  72 107 136 184 239 288 349 422
#     4  12  25  45  74 105 136 188 244 282 351 431
#     4  12  28  46  69 103 141 186 234 292 365 415
#
# _framework density 22.773807000000001
#
# number of rings (size 3 to 8) (size 9 to 14) (size 15 to 20)
#    0.000    0.500    6.250    1.875    7.000    0.500 
#    2.250    1.250    0.000    0.000    0.000    0.000 
#    0.000    0.000    0.000    0.000    0.000    0.000 
#
# Total GULP energy -198233.390017 kJ/mol
# GULP energy per Si atom -12389.586876 kJ/mol
# Density = 2.272197 g / cm^3
# Si number density = 22.773807 Si / 1000 Ang^3
#
#
#
# Elastic Constant Matrix: (Units=GPa)
#
#
# Indices 1 2 3 4 5 6 
#
# 1 60.6243 22.2107 18.2436 -4.2965 8.0946 -0.3209
# 2 22.2107 118.3916 49.0363 2.5053 14.4728 4.6649
# 3 18.2436 49.0363 129.9659 1.4705 15.2922 4.1445
# 4 -4.2965 2.5053 1.4705 44.2866 -4.7193 5.5396
# 5 8.0946 14.4728 15.2922 -4.7193 45.8127 1.2283
# 6 -0.3209 4.6649 4.1445 5.5396 1.2283 32.7659
#
#
#
# Elastic Compliance Matrix: (Units=1/GPa)
#
#
# Indices 1 2 3 4 5 6 
#
# 1 0.018255 -0.002698 -0.001374 0.001719 -0.001751 0.000512
# 2 -0.002698 0.010627 -0.003379 -0.000831 -0.001814 -0.000904
# 3 -0.001374 -0.003379 0.009403 -0.000378 -0.001852 -0.000588
# 4 0.001719 -0.000831 -0.000378 0.023573 0.002618 -0.003901
# 5 -0.001751 -0.001814 -0.001852 0.002618 0.023621 -0.000853
# 6 0.000512 -0.000904 -0.000588 -0.003901 -0.000853 0.031419
#
#
# Mechanical properties :
#
#
# Convention : Reuss Voigt Hill
#
# Bulk Modulus (GPa) = 42.76695 54.21813 48.49254
# Shear Modulus (GPa) = 35.81742 39.20578 37.51160
#
# Velocity S-wave (km/s) = 3.97009 4.15363 4.06290
# Velocity P-wave (km/s) = 6.31152 6.84562 6.58399
#
# Compressibility (1/GPa) = 0.02338254
#
# Stress axis : x y z
#
# Youngs Moduli (GPa) = 54.77829 94.09718 106.34725
#
# Poissons Ratio (x) = 0.25388 0.14615
# Poissons Ratio (y) = 0.14779 0.35938
# Poissons Ratio (z) = 0.07528 0.31798
#
# Static dielectric constant tensor:
#      x y z
#    x 4.083070 0.067700 -0.073930 
#    y 0.067700 3.608740 -0.119490 
#    z -0.073930 -0.119490 4.520860 
# 
# 
# High freq. dielectric constant tensor:
#      x y z
#    x 1.901810 -0.006190 0.001110 
#    y -0.006190 1.868260 -0.000060 
#    z 0.001110 -0.000060 1.925490 
# 
# From -- ./inp_files/205319.got.cif
#   From: 2010.06.25/outbox.cif.g09.slc.cpg/sg2_103_cif.got.tgz:205319.got - 2010.06.27 13:26:56.
