data_PCOD8029564
_publ_section_title
;
Structure prediction by ZEFSAII (Michael W. Deem and Ramdas Pophale) SiO2 
 PCOD8029564
Probable space group: P -1
;
_chemical_formula_sum "Si O2"
_cell_formula_units_Z 14
_cell_length_a 13.378946
_cell_length_b 12.028770
_cell_length_c 9.009401
_cell_angle_alpha 62.968508
_cell_angle_beta 104.564661
_cell_angle_gamma 53.507586
_cell_volume 711.166111
_symmetry_space_group_name_H-M "P -1"
_symmetry_group_IT_number 2
_symmetry_cell_setting 'triclinic'
loop_
_space_group_symop_operation_xyz
x,y,z
-x,-y,-z
loop_
_atom_site_type_symbol
_atom_site_label
_atom_site_fract_x
_atom_site_fract_y
_atom_site_fract_z
Si Si1 0.421738 0.711692 0.882839
Si Si2 0.146003 0.378344 0.253501
Si Si3 0.722284 0.393174 0.713702
Si Si4 0.618943 0.221987 0.824894
Si Si5 0.117172 0.139515 0.355243
Si Si6 0.710189 0.546885 0.906380
Si Si7 0.933582 0.797431 0.045310
O O1 0.551366 0.692398 0.878553
O O2 0.223689 0.920397 0.606003
O O3 0.500000 0.500000 0.000000
O O4 0.406696 0.747185 0.029150
O O5 0.206707 0.177654 0.439644
O O6 0.302211 0.310678 0.278735
O O7 0.044757 0.555257 0.241137
O O8 0.000000 0.500000 0.000000
O O9 0.703714 0.263936 0.762319
O O10 0.574805 0.611783 0.424105
O O11 0.687921 0.456578 0.835583
O O12 0.923510 0.236207 0.836870
O O13 0.763418 0.969327 0.989869
O O14 0.902944 0.343212 0.187363
O O15 0.144656 0.104922 0.209303
#
# Coordination Sequence:
#
# PCOD8029564 Si02
#       7
#     2   2   2   2   2   2   2
#     4  12  24  35  50  82 119 145 172 214 277 330
#     4   7  15  35  62  82  98 133 191 230 257 306
#     4   9  19  35  53  77 106 144 187 215 255 317
#     4  11  21  33  51  77 115 145 173 219 264 320
#     4   9  20  38  61  80 104 142 182 230 266 305
#     4   9  18  38  58  81 106 140 185 221 263 320
#     4   9  18  35  60  80  99 138 189 225 261 307
#
# _framework density 19.685977000000001
#
# number of rings (size 3 to 8) (size 9 to 14) (size 15 to 20)
#    0.000    3.143    1.429    1.286    2.000    2.286 
#    0.000    5.000    0.000   17.143    0.000    1.000 
#    0.000    0.000    0.000    0.000    0.000    0.000 
#
# Total GULP energy -173462.454058 kJ/mol
# GULP energy per Si atom -12390.175290 kJ/mol
# Density = 1.964117 g / cm^3
# Si number density = 19.685977 Si / 1000 Ang^3
#
#
#
# Elastic Constant Matrix: (Units=GPa)
#
#
# Indices 1 2 3 4 5 6 
#
# 1 49.2365 35.8836 28.7078 -0.6567 8.9005 3.9134
# 2 35.8836 105.8255 39.2105 -2.8009 3.0435 -13.6946
# 3 28.7078 39.2105 109.0546 -6.4996 6.2545 -3.0425
# 4 -0.6567 -2.8009 -6.4996 17.5838 2.2565 -0.4893
# 5 8.9005 3.0435 6.2545 2.2565 18.0463 -4.0171
# 6 3.9134 -13.6946 -3.0425 -0.4893 -4.0171 33.7983
#
#
#
# Elastic Compliance Matrix: (Units=1/GPa)
#
#
# Indices 1 2 3 4 5 6 
#
# 1 0.034802 -0.011050 -0.004593 -0.000397 -0.016072 -0.010836
# 2 -0.011050 0.015006 -0.002550 0.000550 0.005468 0.007788
# 3 -0.004593 -0.002550 0.011643 0.003961 -0.001747 0.000396
# 4 -0.000397 0.000550 0.003961 0.059525 -0.008609 0.000464
# 5 -0.016072 0.005468 -0.001747 -0.008609 0.066709 0.011723
# 6 -0.010836 0.007788 0.000396 0.000464 0.011723 0.035433
#
#
# Mechanical properties :
#
#
# Convention : Reuss Voigt Hill
#
# Bulk Modulus (GPa) = 39.89447 52.41335 46.15391
# Shear Modulus (GPa) = 18.66647 24.57333 21.61990
#
# Velocity S-wave (km/s) = 3.08264 3.53691 3.31756
# Velocity P-wave (km/s) = 5.74279 6.58500 6.17826
#
# Compressibility (1/GPa) = 0.02506613
#
# Stress axis : x y z
#
# Youngs Moduli (GPa) = 28.73378 66.63845 85.88840
#
# Poissons Ratio (x) = 0.73633 0.39446
# Poissons Ratio (y) = 0.31750 0.21904
# Poissons Ratio (z) = 0.13197 0.16995
#
# Static dielectric constant tensor:
#      x y z
#    x 4.225730 0.654050 -0.174930 
#    y 0.654050 3.843350 -0.357870 
#    z -0.174930 -0.357870 3.575700 
# 
# 
# High freq. dielectric constant tensor:
#      x y z
#    x 1.751680 0.012860 0.018590 
#    y 0.012860 1.759950 -0.011150 
#    z 0.018590 -0.011150 1.750240 
# 
# From -- ./inp_files/307078.got.cif
#   From: 2010.06.25/outbox.cif.g09.slc.cpg/sg2_154_cif.got.tgz:307078.got - 2010.06.27 13:26:56.
