data_PCOD8029184
_publ_section_title
;
Structure prediction by ZEFSAII (Michael W. Deem and Ramdas Pophale) SiO2 
 PCOD8029184
Probable space group: P -1
;
_chemical_formula_sum "Si O2"
_cell_formula_units_Z 16
_cell_length_a 9.523616
_cell_length_b 12.117221
_cell_length_c 10.045440
_cell_angle_alpha 48.877094
_cell_angle_beta 64.527031
_cell_angle_gamma 67.460739
_cell_volume 779.717417
_symmetry_space_group_name_H-M "P -1"
_symmetry_group_IT_number 2
_symmetry_cell_setting 'triclinic'
loop_
_space_group_symop_operation_xyz
x,y,z
-x,-y,-z
loop_
_atom_site_type_symbol
_atom_site_label
_atom_site_fract_x
_atom_site_fract_y
_atom_site_fract_z
Si Si1 0.145809 0.901078 0.164777
Si Si2 0.308156 0.306906 0.372655
Si Si3 0.335974 0.812630 0.693867
Si Si4 0.855358 0.109909 0.533713
Si Si5 0.044716 0.659495 0.001393
Si Si6 0.783868 0.954615 0.235155
Si Si7 0.081952 0.314141 0.232751
Si Si8 0.891240 0.401468 0.697446
O O1 0.206865 0.932251 0.262822
O O2 0.169996 0.724002 0.267167
O O3 0.962388 0.970385 0.187085
O O4 0.242758 0.988063 0.951626
O O5 0.493970 0.283715 0.302064
O O6 0.250443 0.213114 0.594770
O O7 0.234377 0.251201 0.308830
O O8 0.254761 0.482356 0.279653
O O9 0.293729 0.880473 0.510891
O O10 0.333227 0.942965 0.699651
O O11 0.213599 0.704832 0.867370
O O12 0.925814 0.263846 0.401277
O O13 0.000000 0.000000 0.500000
O O14 0.057157 0.487526 0.110007
O O15 0.009080 0.689067 0.149376
O O16 0.913424 0.737728 0.886132
O O17 0.000000 0.500000 0.500000
#
# Coordination Sequence:
#
# PCOD8029184 Si02
#       8
#     2   2   2   2   2   2   2   2
#     4  11  21  37  62  88 116 155 205 251 288 354
#     4  11  22  38  61  91 122 161 193 251 306 356
#     4  11  22  37  62  88 126 154 201 247 304 359
#     4  11  20  38  61  89 115 159 202 248 293 353
#     4   9  19  35  57  90 112 155 198 249 285 348
#     4  11  21  37  60  92 116 156 200 251 298 350
#     4   9  18  34  57  85 119 142 204 244 287 338
#     4  11  20  37  61  86 119 158 205 242 298 357
#
# _framework density 20.520254000000001
#
# number of rings (size 3 to 8) (size 9 to 14) (size 15 to 20)
#    0.000    1.500    5.000    1.125    0.000    2.000 
#    0.000    1.250    2.750    0.000    0.000    0.000 
#    0.000    0.000    0.000    0.000    0.000    0.000 
#
# Total GULP energy -198246.301655 kJ/mol
# GULP energy per Si atom -12390.393853 kJ/mol
# Density = 2.047355 g / cm^3
# Si number density = 20.520254 Si / 1000 Ang^3
#
#
#
# Elastic Constant Matrix: (Units=GPa)
#
#
# Indices 1 2 3 4 5 6 
#
# 1 82.8721 18.8541 35.7525 17.0109 19.5230 -8.0079
# 2 18.8541 80.8902 37.5018 7.8074 14.0581 -3.9407
# 3 35.7525 37.5018 154.0251 20.9228 22.5478 10.6893
# 4 17.0109 7.8074 20.9228 36.7995 12.5669 -0.0075
# 5 19.5230 14.0581 22.5478 12.5669 25.4690 -1.7807
# 6 -8.0079 -3.9407 10.6893 -0.0075 -1.7807 23.8514
#
#
#
# Elastic Compliance Matrix: (Units=1/GPa)
#
#
# Indices 1 2 3 4 5 6 
#
# 1 0.016406 -0.000704 -0.002423 -0.003327 -0.007989 0.005880
# 2 -0.000704 0.014912 -0.003029 0.000624 -0.005093 0.003205
# 3 -0.002423 -0.003029 0.009026 -0.002059 -0.003840 -0.005647
# 4 -0.003327 0.000624 -0.002059 0.034154 -0.012897 -0.001043
# 5 -0.007989 -0.005093 -0.003840 -0.012897 0.058139 0.002534
# 6 0.005880 0.003205 -0.005647 -0.001043 0.002534 0.047149
#
#
# Mechanical properties :
#
#
# Convention : Reuss Voigt Hill
#
# Bulk Modulus (GPa) = 35.67511 55.77823 45.72667
# Shear Modulus (GPa) = 24.82093 32.26924 28.54509
#
# Velocity S-wave (km/s) = 3.48168 3.96985 3.73375
# Velocity P-wave (km/s) = 5.79533 6.94651 6.39687
#
# Compressibility (1/GPa) = 0.02803075
#
# Stress axis : x y z
#
# Youngs Moduli (GPa) = 60.95476 67.06059 110.78970
#
# Poissons Ratio (x) = 0.04724 0.26847
# Poissons Ratio (y) = 0.04294 0.33555
# Poissons Ratio (z) = 0.14771 0.20311
#
# Static dielectric constant tensor:
#      x y z
#    x 3.520530 0.270290 0.440740 
#    y 0.270290 3.883870 0.162220 
#    z 0.440740 0.162220 4.900560 
# 
# 
# High freq. dielectric constant tensor:
#      x y z
#    x 1.749990 0.017620 0.017300 
#    y 0.017620 1.801700 -0.011260 
#    z 0.017300 -0.011260 1.830430 
# 
# From -- ./inp_files/174964.got.cif
#   From: 2010.06.25/outbox.cif.g09.slc.cpg/sg2_88_cif.got.tgz:174964.got - 2010.06.27 13:26:56.
