data_PCOD8029239
_publ_section_title
;
Structure prediction by ZEFSAII (Michael W. Deem and Ramdas Pophale) SiO2 
 PCOD8029239
Probable space group: P -1
;
_chemical_formula_sum "Si O2"
_cell_formula_units_Z 16
_cell_length_a 18.304853
_cell_length_b 13.014759
_cell_length_c 9.381298
_cell_angle_alpha 133.015336
_cell_angle_beta 148.494600
_cell_angle_gamma 45.792094
_cell_volume 813.915026
_symmetry_space_group_name_H-M "P -1"
_symmetry_group_IT_number 2
_symmetry_cell_setting 'triclinic'
loop_
_space_group_symop_operation_xyz
x,y,z
-x,-y,-z
loop_
_atom_site_type_symbol
_atom_site_label
_atom_site_fract_x
_atom_site_fract_y
_atom_site_fract_z
Si Si1 0.751840 0.082560 0.656076
Si Si2 0.839357 0.402624 0.706210
Si Si3 0.664818 0.981058 0.716485
Si Si4 0.660367 0.388951 0.674604
Si Si5 0.124247 0.886153 0.681052
Si Si6 0.872195 0.459506 0.325728
Si Si7 0.993114 0.860549 0.720694
Si Si8 0.833629 0.639472 0.703564
O O1 0.645780 0.225356 0.533195
O O2 0.676109 0.042165 0.632883
O O3 0.817318 0.933442 0.528034
O O4 0.902569 0.127942 0.962744
O O5 0.731286 0.388010 0.636924
O O6 0.848618 0.278366 0.484965
O O7 0.781038 0.559754 0.674935
O O8 0.993803 0.386297 0.021338
O O9 0.753493 0.811696 0.727170
O O10 0.500000 0.000000 0.500000
O O11 0.721730 0.077344 0.018537
O O12 0.500000 0.500000 0.500000
O O13 0.746266 0.445401 0.995373
O O14 0.051654 0.933258 0.757907
O O15 0.000000 0.000000 0.500000
O O16 0.795910 0.574087 0.430354
O O17 0.000000 0.500000 0.500000
O O18 0.966716 0.309437 0.416677
#
# Coordination Sequence:
#
# PCOD8029239 Si02
#       8
#     2   2   2   2   2   2   2   2
#     4   9  20  38  62  86 127 166 214 259 309 381
#     4  11  23  41  66  99 129 168 216 266 317 376
#     4  11  25  41  63  94 132 169 210 264 321 380
#     4  11  25  41  63  94 132 169 210 264 321 380
#     4  11  20  38  65  92 125 165 210 258 314 377
#     4  11  20  38  65  92 125 165 210 258 314 377
#     4   9  18  34  61  94 114 162 215 257 300 371
#     4  11  23  41  66  99 129 168 216 266 317 376
#
# _framework density 19.658072000000001
#
# number of rings (size 3 to 8) (size 9 to 14) (size 15 to 20)
#    0.000    1.500    3.750    1.500    5.250    1.000 
#    0.000    1.250    0.000    3.000    0.000    0.000 
#    0.000    0.000    0.000    0.000    0.000    0.000 
#
# Total GULP energy -198212.504763 kJ/mol
# GULP energy per Si atom -12388.281548 kJ/mol
# Density = 1.961333 g / cm^3
# Si number density = 19.658072 Si / 1000 Ang^3
#
#
#
# Elastic Constant Matrix: (Units=GPa)
#
#
# Indices 1 2 3 4 5 6 
#
# 1 117.9303 44.6960 36.4094 -6.8203 5.1171 11.2947
# 2 44.6960 125.8234 24.9143 -9.9288 3.2868 16.2052
# 3 36.4094 24.9143 82.5098 -1.3861 -0.1346 -1.5545
# 4 -6.8203 -9.9288 -1.3861 28.8070 -5.1217 -1.8330
# 5 5.1171 3.2868 -0.1346 -5.1217 29.4195 5.4897
# 6 11.2947 16.2052 -1.5545 -1.8330 5.4897 32.0145
#
#
#
# Elastic Compliance Matrix: (Units=1/GPa)
#
#
# Indices 1 2 3 4 5 6 
#
# 1 0.011126 -0.002691 -0.004126 0.001173 -0.000977 -0.002529
# 2 -0.002691 0.009994 -0.001865 0.002554 0.000562 -0.004150
# 3 -0.004126 -0.001865 0.014550 -0.000672 0.000313 0.003014
# 4 0.001173 0.002554 -0.000672 0.036873 0.006051 -0.000666
# 5 -0.000977 0.000562 0.000313 0.006051 0.036234 -0.005791
# 6 -0.002529 -0.004150 0.003014 -0.000666 -0.005791 0.035330
#
#
# Mechanical properties :
#
#
# Convention : Reuss Voigt Hill
#
# Bulk Modulus (GPa) = 54.62954 59.81146 57.22050
# Shear Modulus (GPa) = 29.83773 32.73112 31.28442
#
# Velocity S-wave (km/s) = 3.90017 4.08489 3.99360
# Velocity P-wave (km/s) = 6.93772 7.26226 7.10184
#
# Compressibility (1/GPa) = 0.01830511
#
# Stress axis : x y z
#
# Youngs Moduli (GPa) = 89.87898 100.05760 68.72999
#
# Poissons Ratio (x) = 0.26930 0.28361
# Poissons Ratio (y) = 0.24190 0.12815
# Poissons Ratio (z) = 0.37088 0.18656
#
# Static dielectric constant tensor:
#      x y z
#    x 2.603690 0.593410 0.615730 
#    y 0.593410 3.718980 -0.258590 
#    z 0.615730 -0.258590 2.920890 
# 
# 
# High freq. dielectric constant tensor:
#      x y z
#    x 1.770080 0.011100 -0.010540 
#    y 0.011100 1.783610 0.009400 
#    z -0.010540 0.009400 1.742600 
# 
# From -- ./inp_files/269488.got.cif
#   From: 2010.06.25/outbox.cif.g09.slc.cpg/sg2_135_cif.got.tgz:269488.got - 2010.06.27 13:26:56.
