data_PCOD8029007
_publ_section_title
;
Structure prediction by ZEFSAII (Michael W. Deem and Ramdas Pophale) SiO2 
 PCOD8029007
Probable space group: P -1
;
_chemical_formula_sum "Si O2"
_cell_formula_units_Z 14
_cell_length_a 20.862364
_cell_length_b 26.761890
_cell_length_c 12.603499
_cell_angle_alpha 160.579637
_cell_angle_beta 149.349494
_cell_angle_gamma 18.983994
_cell_volume 728.085455
_symmetry_space_group_name_H-M "P -1"
_symmetry_group_IT_number 2
_symmetry_cell_setting 'triclinic'
loop_
_space_group_symop_operation_xyz
x,y,z
-x,-y,-z
loop_
_atom_site_type_symbol
_atom_site_label
_atom_site_fract_x
_atom_site_fract_y
_atom_site_fract_z
Si Si1 0.341339 0.336480 0.034057
Si Si2 0.482291 0.282568 0.341754
Si Si3 0.224000 0.717661 0.241410
Si Si4 0.786008 0.493556 0.385051
Si Si5 0.815352 0.744118 0.795275
Si Si6 0.835359 0.447929 0.992724
Si Si7 0.231967 0.178998 0.436196
O O1 0.258691 0.241816 0.713679
O O2 0.585187 0.112443 0.904129
O O3 0.315932 0.422165 0.288698
O O4 0.218450 0.557728 0.215582
O O5 0.596852 0.331222 0.591677
O O6 0.365043 0.387478 0.494790
O O7 0.643666 0.991952 0.978259
O O8 0.271408 0.553163 0.072754
O O9 0.232048 0.633501 0.969760
O O10 0.000000 0.000000 0.500000
O O11 0.711950 0.711615 0.652939
O O12 0.019338 0.289989 0.350953
O O13 0.000000 0.500000 0.500000
O O14 0.917955 0.775438 0.081061
O O15 0.756216 0.697758 0.389065
#
# Coordination Sequence:
#
# PCOD8029007 Si02
#       7
#     2   2   2   2   2   2   2
#     4   9  19  36  62  88 112 149 202 242 288 341
#     4  12  24  36  56  93 124 155 184 242 315 347
#     4  12  22  38  62  85 117 160 201 241 281 354
#     4  11  23  37  59  88 124 150 191 252 300 343
#     4  11  19  38  63  87 109 152 212 244 278 338
#     4   9  18  34  61  85 107 145 205 243 270 330
#     4   8  18  36  61  88 107 151 199 249 277 338
#
# _framework density 19.228511000000001
#
# number of rings (size 3 to 8) (size 9 to 14) (size 15 to 20)
#    0.857    0.857    2.857    3.429    0.000    1.143 
#    0.000    0.000    0.000    1.714    0.000    0.000 
#    0.000    0.000    0.000    0.000    0.000    0.000 
#
# Total GULP energy -173441.900404 kJ/mol
# GULP energy per Si atom -12388.707172 kJ/mol
# Density = 1.918475 g / cm^3
# Si number density = 19.228511 Si / 1000 Ang^3
#
#
#
# Elastic Constant Matrix: (Units=GPa)
#
#
# Indices 1 2 3 4 5 6 
#
# 1 120.4014 32.4391 51.0686 -11.7335 -10.3749 6.1437
# 2 32.4391 76.9377 29.7816 -17.0854 -5.2787 23.2573
# 3 51.0686 29.7816 83.3377 -20.0069 -13.0916 4.4622
# 4 -11.7335 -17.0854 -20.0069 30.7161 1.4439 -4.3003
# 5 -10.3749 -5.2787 -13.0916 1.4439 24.8625 -10.0649
# 6 6.1437 23.2573 4.4622 -4.3003 -10.0649 24.3716
#
#
#
# Elastic Compliance Matrix: (Units=1/GPa)
#
#
# Indices 1 2 3 4 5 6 
#
# 1 0.011725 -0.003253 -0.006114 -0.001145 0.001778 0.001801
# 2 -0.003253 0.024537 -0.005526 0.005828 -0.009266 -0.024382
# 3 -0.006114 -0.005526 0.021059 0.009058 0.010426 0.008863
# 4 -0.001145 0.005828 0.009058 0.041354 0.003933 0.001989
# 5 0.001778 -0.009266 0.010426 0.003933 0.056631 0.030567
# 6 0.001801 -0.024382 0.008863 0.001989 0.030567 0.075196
#
#
# Mechanical properties :
#
#
# Convention : Reuss Voigt Hill
#
# Bulk Modulus (GPa) = 36.31925 56.36172 46.34048
# Shear Modulus (GPa) = 18.55508 27.14922 22.85215
#
# Velocity S-wave (km/s) = 3.10978 3.76164 3.45113
# Velocity P-wave (km/s) = 5.64123 6.94562 6.32713
#
# Compressibility (1/GPa) = 0.02753361
#
# Stress axis : x y z
#
# Youngs Moduli (GPa) = 85.28536 40.75467 47.48611
#
# Poissons Ratio (x) = 0.13259 0.29035
# Poissons Ratio (y) = 0.27747 0.26240
# Poissons Ratio (z) = 0.52148 0.22521
#
# Static dielectric constant tensor:
#      x y z
#    x 3.493030 0.336190 0.060470 
#    y 0.336190 3.854030 -0.290740 
#    z 0.060470 -0.290740 3.363730 
# 
# 
# High freq. dielectric constant tensor:
#      x y z
#    x 1.730530 0.018280 0.001620 
#    y 0.018280 1.753920 -0.024450 
#    z 0.001620 -0.024450 1.725800 
# 
# From -- ./inp_files/473043.got.cif
#   From: 2010.06.25/outbox.cif.g09.slc.cpg/sg2_237_cif.got.tgz:473043.got - 2010.06.27 13:26:56.
