data_PCOD8029278
_publ_section_title
;
Structure prediction by ZEFSAII (Michael W. Deem and Ramdas Pophale) SiO2 
 PCOD8029278
Probable space group: P -1
;
_chemical_formula_sum "Si O2"
_cell_formula_units_Z 16
_cell_length_a 14.255134
_cell_length_b 9.223560
_cell_length_c 9.208577
_cell_angle_alpha 100.934277
_cell_angle_beta 56.315005
_cell_angle_gamma 66.761821
_cell_volume 782.537316
_symmetry_space_group_name_H-M "P -1"
_symmetry_group_IT_number 2
_symmetry_cell_setting 'triclinic'
loop_
_space_group_symop_operation_xyz
x,y,z
-x,-y,-z
loop_
_atom_site_type_symbol
_atom_site_label
_atom_site_fract_x
_atom_site_fract_y
_atom_site_fract_z
Si Si1 0.561770 0.889707 0.778458
Si Si2 0.995694 0.408773 0.341888
Si Si3 0.988216 0.634240 0.158331
Si Si4 0.300887 0.028965 0.572220
Si Si5 0.300544 0.145452 0.900570
Si Si6 0.715889 0.511766 0.990238
Si Si7 0.459782 0.600001 0.398050
Si Si8 0.728682 0.468895 0.638646
O O1 0.635266 0.956743 0.628140
O O2 0.668484 0.675688 0.685967
O O3 0.422557 0.939566 0.820647
O O4 0.500000 0.000000 0.000000
O O5 0.895976 0.343916 0.428223
O O6 0.000000 0.500000 0.500000
O O7 0.926475 0.585443 0.331222
O O8 0.147304 0.228691 0.116734
O O9 0.870828 0.856633 0.274046
O O10 0.135502 0.597071 0.068887
O O11 0.000000 0.500000 0.000000
O O12 0.309802 0.138772 0.717293
O O13 0.378741 0.820124 0.521195
O O14 0.345226 0.274755 0.934560
O O15 0.609102 0.493902 0.166802
O O16 0.725360 0.434836 0.806363
O O17 0.500000 0.500000 0.500000
O O18 0.352409 0.587427 0.394647
#
# Coordination Sequence:
#
# PCOD8029278 Si02
#       8
#     2   2   2   2   2   2   2   2
#     4  12  22  37  67 102 124 165 225 279 319 385
#     4  11  20  39  66 103 128 164 213 276 332 384
#     4  11  22  38  72 100 129 163 218 282 332 373
#     4  12  24  42  65  99 134 171 221 273 331 390
#     4  11  22  37  65  99 133 158 220 278 326 371
#     4  11  23  44  65  97 134 172 216 273 334 386
#     4  12  29  45  64  92 137 186 217 263 335 404
#     4  12  24  43  68  96 138 172 214 271 335 397
#
# _framework density 20.44631
#
# number of rings (size 3 to 8) (size 9 to 14) (size 15 to 20)
#    0.000    0.500    8.750    1.500    3.500    0.000 
#    0.000    4.375    0.000    0.000    0.000    0.000 
#    0.000    0.000    0.000    0.000    0.000    0.000 
#
# Total GULP energy -198210.129931 kJ/mol
# GULP energy per Si atom -12388.133121 kJ/mol
# Density = 2.039977 g / cm^3
# Si number density = 20.446310 Si / 1000 Ang^3
#
#
#
# Elastic Constant Matrix: (Units=GPa)
#
#
# Indices 1 2 3 4 5 6 
#
# 1 140.9245 22.7354 66.8600 -13.6053 -7.5525 -6.9956
# 2 22.7354 79.0971 45.8225 -4.0515 -9.4723 -17.7074
# 3 66.8600 45.8225 138.7360 -24.4756 -7.1304 -1.7807
# 4 -13.6053 -4.0515 -24.4756 33.3930 -4.0679 -3.0077
# 5 -7.5525 -9.4723 -7.1304 -4.0679 45.0441 -1.7208
# 6 -6.9956 -17.7074 -1.7807 -3.0077 -1.7208 36.2360
#
#
#
# Elastic Compliance Matrix: (Units=1/GPa)
#
#
# Indices 1 2 3 4 5 6 
#
# 1 0.009366 0.000497 -0.004427 0.000947 0.001135 0.001966
# 2 0.000497 0.018420 -0.006206 -0.000919 0.003231 0.008870
# 3 -0.004427 -0.006206 0.012509 0.006417 0.000408 -0.002721
# 4 0.000947 -0.000919 0.006417 0.035742 0.004332 0.003222
# 5 0.001135 0.003231 0.000408 0.004332 0.023652 0.003301
# 6 0.001966 0.008870 -0.002721 0.003222 0.003301 0.032601
#
#
# Mechanical properties :
#
#
# Convention : Reuss Voigt Hill
#
# Bulk Modulus (GPa) = 49.94028 69.95481 59.94754
# Shear Modulus (GPa) = 31.39965 37.82395 34.61180
#
# Velocity S-wave (km/s) = 3.92307 4.30573 4.11885
# Velocity P-wave (km/s) = 6.70811 7.68162 7.21131
#
# Compressibility (1/GPa) = 0.02002392
#
# Stress axis : x y z
#
# Youngs Moduli (GPa) = 106.76796 54.28771 79.93985
#
# Poissons Ratio (x) = -0.02699 0.35393
# Poissons Ratio (y) = -0.05309 0.49609
# Poissons Ratio (z) = 0.47271 0.33690
#
# Static dielectric constant tensor:
#      x y z
#    x 3.953410 -0.367510 -0.128300 
#    y -0.367510 3.937700 0.243660 
#    z -0.128300 0.243660 4.180890 
# 
# 
# High freq. dielectric constant tensor:
#      x y z
#    x 1.809790 -0.035440 -0.002850 
#    y -0.035440 1.770610 -0.006060 
#    z -0.002850 -0.006060 1.821850 
# 
# From -- ./inp_files/298702.got.cif
#   From: 2010.06.25/outbox.cif.g09.slc.cpg/sg2_150_cif.got.tgz:298702.got - 2010.06.27 13:26:56.
