data_PCOD8029700
_publ_section_title
;
Structure prediction by ZEFSAII (Michael W. Deem and Ramdas Pophale) SiO2 
 PCOD8029700
Probable space group: P -1
;
_chemical_formula_sum "Si O2"
_cell_formula_units_Z 16
_cell_length_a 8.819311
_cell_length_b 18.368175
_cell_length_c 11.433657
_cell_angle_alpha 136.527187
_cell_angle_beta 108.698290
_cell_angle_gamma 40.202793
_cell_volume 699.493113
_symmetry_space_group_name_H-M "P -1"
_symmetry_group_IT_number 2
_symmetry_cell_setting 'triclinic'
loop_
_space_group_symop_operation_xyz
x,y,z
-x,-y,-z
loop_
_atom_site_type_symbol
_atom_site_label
_atom_site_fract_x
_atom_site_fract_y
_atom_site_fract_z
Si Si1 0.590475 0.143311 0.465944
Si Si2 0.215601 0.272180 0.940351
Si Si3 0.798583 0.455525 0.372741
Si Si4 0.643442 0.511032 0.970619
Si Si5 0.271486 0.089979 0.952022
Si Si6 0.997369 0.543391 0.366335
Si Si7 0.666433 0.107175 0.697633
Si Si8 0.255773 0.728202 0.440926
O O1 0.734464 0.029582 0.490773
O O2 0.612928 0.259470 0.606451
O O3 0.278239 0.268769 0.547128
O O4 0.710418 0.038141 0.247098
O O5 0.318884 0.129958 0.891569
O O6 0.426491 0.164192 0.759433
O O7 0.903460 0.421615 0.996053
O O8 0.215591 0.385032 0.139661
O O9 0.866759 0.434340 0.501585
O O10 0.469542 0.614301 0.469880
O O11 0.905174 0.498722 0.377515
O O12 0.969915 0.264241 0.138753
O O13 0.754929 0.386706 0.740544
O O14 0.500000 0.500000 0.000000
O O15 0.427861 0.719250 0.123574
O O16 0.500000 0.000000 0.000000
O O17 0.949311 0.935769 0.640329
#
# Coordination Sequence:
#
# PCOD8029700 Si02
#       8
#     2   2   2   2   2   2   2   2
#     4  11  21  38  66 101 134 175 228 281 337 402
#     4  11  25  43  66 103 138 179 228 287 348 403
#     4   9  19  38  62  96 131 171 227 290 323 396
#     4  12  23  43  68  99 137 179 232 280 340 413
#     4  11  22  38  70 104 129 175 242 286 334 404
#     4   9  17  37  63  90 128 171 224 275 336 386
#     4  12  26  44  66 102 147 182 218 284 351 409
#     4  11  25  39  64 101 138 182 231 278 338 412
#
# _framework density 22.873708000000001
#
# number of rings (size 3 to 8) (size 9 to 14) (size 15 to 20)
#    0.000    1.250    3.750    3.000    5.250    2.000 
#    0.000    0.625    0.000    1.500    0.000    0.000 
#    0.000    0.000    0.000    0.000    0.000    0.000 
#
# Total GULP energy -198272.125584 kJ/mol
# GULP energy per Si atom -12392.007849 kJ/mol
# Density = 2.282165 g / cm^3
# Si number density = 22.873708 Si / 1000 Ang^3
#
#
#
# Elastic Constant Matrix: (Units=GPa)
#
#
# Indices 1 2 3 4 5 6 
#
# 1 48.4070 30.6403 26.6745 0.6999 -2.2569 -15.6233
# 2 30.6403 117.2891 54.6277 15.8388 1.3151 -27.8294
# 3 26.6745 54.6277 116.7139 -0.4616 15.3058 -16.6416
# 4 0.6999 15.8388 -0.4616 45.8464 -6.2013 0.2340
# 5 -2.2569 1.3151 15.3058 -6.2013 30.8489 7.5885
# 6 -15.6233 -27.8294 -16.6416 0.2340 7.5885 19.5715
#
#
#
# Elastic Compliance Matrix: (Units=1/GPa)
#
#
# Indices 1 2 3 4 5 6 
#
# 1 0.029507 -0.001812 -0.003135 -0.000059 -0.000801 0.018623
# 2 -0.001812 0.016796 -0.003640 -0.006694 -0.005710 0.021635
# 3 -0.003135 -0.003640 0.012962 0.000317 -0.008029 0.006453
# 4 -0.000059 -0.006694 0.000317 0.025327 0.008375 -0.012847
# 5 -0.000801 -0.005710 -0.008029 0.008375 0.046569 -0.033743
# 6 0.018623 0.021635 0.006453 -0.012847 -0.033743 0.115449
#
#
# Mechanical properties :
#
#
# Convention : Reuss Voigt Hill
#
# Bulk Modulus (GPa) = 23.75829 56.25502 40.00666
# Shear Modulus (GPa) = 17.99752 30.61786 24.30769
#
# Velocity S-wave (km/s) = 2.80808 3.66260 3.26343
# Velocity P-wave (km/s) = 4.57417 6.52176 5.63278
#
# Compressibility (1/GPa) = 0.04209057
#
# Stress axis : x y z
#
# Youngs Moduli (GPa) = 33.89018 59.53707 77.14587
#
# Poissons Ratio (x) = 0.10791 0.24187
# Poissons Ratio (y) = 0.06142 0.28081
# Poissons Ratio (z) = 0.10625 0.21671
#
# Static dielectric constant tensor:
#      x y z
#    x 3.674370 -0.138660 0.338370 
#    y -0.138660 4.291280 -0.029320 
#    z 0.338370 -0.029320 4.509500 
# 
# 
# High freq. dielectric constant tensor:
#      x y z
#    x 1.856710 -0.014620 0.019410 
#    y -0.014620 1.908990 0.005880 
#    z 0.019410 0.005880 1.912110 
# 
# From -- ./inp_files/405596.got.cif
#   From: 2010.06.25/outbox.cif.g09.slc.cpg/sg2_203_cif.got.tgz:405596.got - 2010.06.27 13:26:56.
