data_PCOD8029279
_publ_section_title
;
Structure prediction by ZEFSAII (Michael W. Deem and Ramdas Pophale) SiO2 
 PCOD8029279
Probable space group: P -1
;
_chemical_formula_sum "Si O2"
_cell_formula_units_Z 16
_cell_length_a 9.695600
_cell_length_b 8.918743
_cell_length_c 15.501324
_cell_angle_alpha 111.982947
_cell_angle_beta 36.820538
_cell_angle_gamma 100.952351
_cell_volume 730.284943
_symmetry_space_group_name_H-M "P -1"
_symmetry_group_IT_number 2
_symmetry_cell_setting 'triclinic'
loop_
_space_group_symop_operation_xyz
x,y,z
-x,-y,-z
loop_
_atom_site_type_symbol
_atom_site_label
_atom_site_fract_x
_atom_site_fract_y
_atom_site_fract_z
Si Si1 0.779251 0.270022 0.618729
Si Si2 0.454698 0.425741 0.099221
Si Si3 0.536199 0.066784 0.809596
Si Si4 0.306354 0.634097 0.505591
Si Si5 0.703859 0.746587 0.577960
Si Si6 0.867902 0.797829 0.846840
Si Si7 0.171648 0.866641 0.158333
Si Si8 0.354541 0.162691 0.564586
O O1 0.605758 0.437384 0.768369
O O2 0.641665 0.124141 0.679903
O O3 0.818957 0.271898 0.496313
O O4 0.022856 0.252118 0.543770
O O5 0.239082 0.331898 0.183130
O O6 0.500000 0.500000 0.000000
O O7 0.681125 0.299258 0.993159
O O8 0.713739 0.109901 0.801909
O O9 0.552330 0.868794 0.751228
O O10 0.268829 0.168135 0.984705
O O11 0.339532 0.438685 0.435854
O O12 0.561338 0.678856 0.401107
O O13 0.145233 0.713817 0.686410
O O14 0.609373 0.828628 0.553242
O O15 0.811578 0.978122 0.873925
O O16 0.915144 0.830199 0.281945
O O17 0.500000 0.000000 0.500000
#
# Coordination Sequence:
#
# PCOD8029279 Si02
#       8
#     2   2   2   2   2   2   2   2
#     4  12  23  41  71 108 135 171 234 286 339 396
#     4  11  20  39  66 104 138 173 219 291 345 397
#     4  11  23  40  70 103 133 171 223 290 341 394
#     4  12  27  43  71 102 140 181 229 280 340 407
#     4  12  25  43  71 103 139 174 235 285 336 399
#     4  11  23  41  64 101 138 178 222 280 348 398
#     4  11  23  40  69  98 140 180 225 273 354 402
#     4  12  25  47  67  95 143 192 225 268 344 422
#
# _framework density 21.909255999999999
#
# number of rings (size 3 to 8) (size 9 to 14) (size 15 to 20)
#    0.000    0.500    6.250    4.125    3.500    0.000 
#    0.000    1.250    0.000    0.000    0.000    0.000 
#    0.000    0.000    0.000    0.000    0.000    0.000 
#
# Total GULP energy -198298.476828 kJ/mol
# GULP energy per Si atom -12393.654802 kJ/mol
# Density = 2.185939 g / cm^3
# Si number density = 21.909256 Si / 1000 Ang^3
#
#
#
# Elastic Constant Matrix: (Units=GPa)
#
#
# Indices 1 2 3 4 5 6 
#
# 1 81.8548 26.8912 25.1167 -1.9073 -0.5188 2.6677
# 2 26.8912 123.8952 44.4498 7.2370 0.3551 15.8080
# 3 25.1167 44.4498 79.1386 7.9141 9.8285 2.6462
# 4 -1.9073 7.2370 7.9141 45.1127 2.3009 -0.1341
# 5 -0.5188 0.3551 9.8285 2.3009 14.9500 1.5541
# 6 2.6677 15.8080 2.6462 -0.1341 1.5541 23.2463
#
#
#
# Elastic Compliance Matrix: (Units=1/GPa)
#
#
# Indices 1 2 3 4 5 6 
#
# 1 0.014061 -0.001671 -0.004029 0.001417 0.002980 -0.000210
# 2 -0.001671 0.011665 -0.006250 -0.001108 0.004708 -0.007351
# 3 -0.004029 -0.006250 0.019062 -0.001860 -0.012587 0.003373
# 4 0.001417 -0.001108 -0.001860 0.022853 -0.002333 0.001090
# 5 0.002980 0.004708 -0.012587 -0.002333 0.076266 -0.007223
# 6 -0.000210 -0.007351 0.003373 0.001090 -0.007223 0.048145
#
#
# Mechanical properties :
#
#
# Convention : Reuss Voigt Hill
#
# Bulk Modulus (GPa) = 47.87388 53.08933 50.48161
# Shear Modulus (GPa) = 22.43013 29.22385 25.82699
#
# Velocity S-wave (km/s) = 3.20312 3.65617 3.43711
# Velocity P-wave (km/s) = 5.96476 6.48903 6.23241
#
# Compressibility (1/GPa) = 0.02088822
#
# Stress axis : x y z
#
# Youngs Moduli (GPa) = 71.12050 85.72337 52.46155
#
# Poissons Ratio (x) = 0.14324 0.21135
# Poissons Ratio (y) = 0.11884 0.32789
# Poissons Ratio (z) = 0.28652 0.53577
#
# Static dielectric constant tensor:
#      x y z
#    x 3.711960 0.108310 0.011510 
#    y 0.108310 4.307600 0.017290 
#    z 0.011510 0.017290 4.195370 
# 
# 
# High freq. dielectric constant tensor:
#      x y z
#    x 1.823320 0.003660 -0.000870 
#    y 0.003660 1.890170 0.002550 
#    z -0.000870 0.002550 1.865760 
# 
# From -- ./inp_files/495373.got.cif
#   From: 2010.06.25/outbox.cif.g09.slc.cpg/sg2_248_cif.got.tgz:495373.got - 2010.06.27 13:26:56.
