data_PCOD8029830
_publ_section_title
;
Structure prediction by ZEFSAII (Michael W. Deem and Ramdas Pophale) SiO2 
 PCOD8029830
Probable space group: P -1
;
_chemical_formula_sum "Si O2"
_cell_formula_units_Z 12
_cell_length_a 12.136583
_cell_length_b 7.616750
_cell_length_c 8.808075
_cell_angle_alpha 45.845027
_cell_angle_beta 86.881407
_cell_angle_gamma 110.880426
_cell_volume 487.000685
_symmetry_space_group_name_H-M "P -1"
_symmetry_group_IT_number 2
_symmetry_cell_setting 'triclinic'
loop_
_space_group_symop_operation_xyz
x,y,z
-x,-y,-z
loop_
_atom_site_type_symbol
_atom_site_label
_atom_site_fract_x
_atom_site_fract_y
_atom_site_fract_z
Si Si1 0.318298 0.162037 0.332718
Si Si2 0.253460 0.301219 0.816066
Si Si3 0.811539 0.668380 0.531632
Si Si4 0.374450 0.948396 0.951975
Si Si5 0.584855 0.269101 0.205771
Si Si6 0.076888 0.835999 0.334591
O O1 0.250157 0.159601 0.496894
O O2 0.432803 0.093375 0.390190
O O3 0.205768 0.928509 0.368331
O O4 0.393831 0.486106 0.062936
O O5 0.222277 0.393026 0.605968
O O6 0.310641 0.578060 0.757883
O O7 0.360452 0.215522 0.834865
O O8 0.119902 0.029856 0.062348
O O9 0.757069 0.357443 0.803369
O O10 0.971317 0.872828 0.413867
O O11 0.394393 0.948512 0.767461
O O12 0.500000 0.000000 0.000000
O O13 0.000000 0.500000 0.500000
#
# Coordination Sequence:
#
# PCOD8029830 Si02
#       6
#     2   2   2   2   2   2
#     4   9  19  38  63  88 123 164 206 256 308 366
#     4  11  23  43  63  96 130 159 210 261 310 371
#     4  11  23  40  65  93 124 167 209 257 311 371
#     4  11  22  40  66  91 127 170 205 252 315 369
#     4   9  20  39  63  93 126 161 206 259 308 370
#     4  11  21  40  65  89 124 168 209 253 314 370
#
# _framework density 24.640619999999998
#
# number of rings (size 3 to 8) (size 9 to 14) (size 15 to 20)
#    0.000    1.667    1.667    5.000    0.000    2.667 
#    3.000    2.500    0.000    0.000    0.000    0.000 
#    0.000    0.000    0.000    0.000    0.000    0.000 
#
# Total GULP energy -148824.941450 kJ/mol
# GULP energy per Si atom -12402.078454 kJ/mol
# Density = 2.458454 g / cm^3
# Si number density = 24.640620 Si / 1000 Ang^3
#
#
#
# Elastic Constant Matrix: (Units=GPa)
#
#
# Indices 1 2 3 4 5 6 
#
# 1 99.7267 20.7951 21.9981 1.7374 -35.5067 7.7227
# 2 20.7951 133.2596 37.1859 18.6085 -17.5192 -9.4235
# 3 21.9981 37.1859 101.9553 12.1598 -31.8372 -6.9180
# 4 1.7374 18.6085 12.1598 40.1857 -3.2057 -2.8645
# 5 -35.5067 -17.5192 -31.8372 -3.2057 38.8162 1.9893
# 6 7.7227 -9.4235 -6.9180 -2.8645 1.9893 33.2389
#
#
#
# Elastic Compliance Matrix: (Units=1/GPa)
#
#
# Indices 1 2 3 4 5 6 
#
# 1 0.015773 -0.001229 0.001489 0.000334 0.015358 -0.004594
# 2 -0.001229 0.009021 -0.002281 -0.003232 0.000705 0.002048
# 3 0.001489 -0.002281 0.014380 -0.002335 0.011879 0.001088
# 4 0.000334 -0.003232 -0.002335 0.027067 -0.000879 0.000905
# 5 0.015358 0.000705 0.011879 -0.000879 0.050003 -0.003964
# 6 -0.004594 0.002048 0.001088 0.000905 -0.003964 0.032275
#
#
# Mechanical properties :
#
#
# Convention : Reuss Voigt Hill
#
# Bulk Modulus (GPa) = 28.46284 54.98889 41.72586
# Shear Modulus (GPa) = 30.43716 39.44567 34.94142
#
# Velocity S-wave (km/s) = 3.51842 4.00539 3.76977
# Velocity P-wave (km/s) = 5.29924 6.61481 5.99323
#
# Compressibility (1/GPa) = 0.03513353
#
# Stress axis : x y z
#
# Youngs Moduli (GPa) = 63.39862 110.85068 69.53877
#
# Poissons Ratio (x) = 0.13629 -0.10357
# Poissons Ratio (y) = 0.07795 0.15859
# Poissons Ratio (z) = -0.09442 0.25280
#
# Static dielectric constant tensor:
#      x y z
#    x 4.914710 -0.194130 -0.576140 
#    y -0.194130 4.343940 0.126520 
#    z -0.576140 0.126520 4.717420 
# 
# 
# High freq. dielectric constant tensor:
#      x y z
#    x 1.980460 -0.007970 -0.014370 
#    y -0.007970 1.981400 0.006370 
#    z -0.014370 0.006370 1.994640 
# 
# From -- ./inp_files/147368.got.cif
#   From: 2010.06.25/outbox.cif.g09.slc.cpg/sg2_74_cif.got.tgz:147368.got - 2010.06.27 13:26:56.
