data_PCOD8029127
_publ_section_title
;
Structure prediction by ZEFSAII (Michael W. Deem and Ramdas Pophale) SiO2 
 PCOD8029127
Probable space group: P -1
;
_chemical_formula_sum "Si O2"
_cell_formula_units_Z 16
_cell_length_a 7.909323
_cell_length_b 8.624836
_cell_length_c 17.159211
_cell_angle_alpha 125.834965
_cell_angle_beta 55.867715
_cell_angle_gamma 95.258164
_cell_volume 734.945827
_symmetry_space_group_name_H-M "P -1"
_symmetry_group_IT_number 2
_symmetry_cell_setting 'triclinic'
loop_
_space_group_symop_operation_xyz
x,y,z
-x,-y,-z
loop_
_atom_site_type_symbol
_atom_site_label
_atom_site_fract_x
_atom_site_fract_y
_atom_site_fract_z
Si Si1 0.827986 0.416471 0.597869
Si Si2 0.337968 0.593120 0.770798
Si Si3 0.990751 0.550893 0.750358
Si Si4 0.792972 0.820318 0.655440
Si Si5 0.709732 0.565797 0.965985
Si Si6 0.723778 0.977188 0.894824
Si Si7 0.100345 0.691301 0.016811
Si Si8 0.659094 0.977270 0.163439
O O1 0.579091 0.433643 0.685484
O O2 0.961298 0.447199 0.647257
O O3 0.796982 0.589295 0.591661
O O4 0.983527 0.198209 0.454748
O O5 0.244689 0.497601 0.694315
O O6 0.331014 0.824383 0.826779
O O7 0.167910 0.603592 0.887141
O O8 0.906924 0.796676 0.839986
O O9 0.854565 0.472127 0.825481
O O10 0.762333 0.918370 0.777129
O O11 0.568271 0.951172 0.706523
O O12 0.641658 0.811591 0.054947
O O13 0.500000 0.500000 0.000000
O O14 0.861748 0.491958 0.983908
O O15 0.734117 0.200289 0.966443
O O16 0.500000 0.000000 0.000000
O O17 0.862295 0.870207 0.135594
#
# Coordination Sequence:
#
# PCOD8029127 Si02
#       8
#     2   2   2   2   2   2   2   2
#     4   9  20  38  58  88 118 158 202 241 293 349
#     4  11  21  38  64  89 123 158 194 252 295 356
#     4  11  21  38  60  88 119 158 203 240 298 355
#     4   9  19  37  58  85 122 152 194 247 292 350
#     4  12  24  37  57  87 122 159 195 246 303 361
#     4  11  20  35  61  90 118 155 193 242 301 359
#     4  12  22  35  57  91 121 151 195 246 305 355
#     4  11  21  37  58  87 121 151 190 247 305 351
#
# _framework density 21.770313999999999
#
# number of rings (size 3 to 8) (size 9 to 14) (size 15 to 20)
#    0.000    1.250    2.500    6.750    0.000    0.000 
#    2.250    2.500    0.000    7.500    0.000    0.000 
#    0.000    0.000    0.000    0.000    0.000    0.000 
#
# Total GULP energy -198220.379524 kJ/mol
# GULP energy per Si atom -12388.773720 kJ/mol
# Density = 2.172076 g / cm^3
# Si number density = 21.770314 Si / 1000 Ang^3
#
#
#
# Elastic Constant Matrix: (Units=GPa)
#
#
# Indices 1 2 3 4 5 6 
#
# 1 130.4090 23.2802 69.5866 -0.4588 -16.9961 -5.0102
# 2 23.2802 67.9492 32.2711 -9.8246 -5.5094 -7.1263
# 3 69.5866 32.2711 141.3901 -3.7642 -19.5538 -14.5353
# 4 -0.4588 -9.8246 -3.7642 10.0764 -1.2106 -1.8179
# 5 -16.9961 -5.5094 -19.5538 -1.2106 33.0495 3.8266
# 6 -5.0102 -7.1263 -14.5353 -1.8179 3.8266 31.5542
#
#
#
# Elastic Compliance Matrix: (Units=1/GPa)
#
#
# Indices 1 2 3 4 5 6 
#
# 1 0.010802 -0.001807 -0.004783 -0.003007 0.002472 -0.001369
# 2 -0.001807 0.019829 -0.002566 0.019142 0.001099 0.003979
# 3 -0.004783 -0.002566 0.010873 0.002347 0.003237 0.003412
# 4 -0.003007 0.019142 0.002347 0.121404 0.006187 0.011171
# 5 0.002472 0.001099 0.003237 0.006187 0.034044 -0.001640
# 6 -0.001369 0.003979 0.003412 0.011171 -0.001640 0.034787
#
#
# Mechanical properties :
#
#
# Convention : Reuss Voigt Hill
#
# Bulk Modulus (GPa) = 43.11766 65.55824 54.33795
# Shear Modulus (GPa) = 19.39631 29.24337 24.31984
#
# Velocity S-wave (km/s) = 2.98812 3.66904 3.34595
# Velocity P-wave (km/s) = 5.63506 6.93744 6.31989
#
# Compressibility (1/GPa) = 0.02319235
#
# Stress axis : x y z
#
# Youngs Moduli (GPa) = 92.57629 50.43181 91.97132
#
# Poissons Ratio (x) = 0.09115 0.43987
# Poissons Ratio (y) = 0.16732 0.23597
# Poissons Ratio (z) = 0.44276 0.12939
#
# Static dielectric constant tensor:
#      x y z
#    x 4.196480 -0.355810 -0.467740 
#    y -0.355810 5.115280 0.558910 
#    z -0.467740 0.558910 4.246250 
# 
# 
# High freq. dielectric constant tensor:
#      x y z
#    x 1.875110 -0.004080 -0.022020 
#    y -0.004080 1.831530 -0.002580 
#    z -0.022020 -0.002580 1.837660 
# 
# From -- ./inp_files/377989.got.cif
#   From: 2010.06.25/outbox.cif.g09.slc.cpg/sg2_189_cif.got.tgz:377989.got - 2010.06.27 13:26:56.
