data_PCOD8029527
_publ_section_title
;
Structure prediction by ZEFSAII (Michael W. Deem and Ramdas Pophale) SiO2 
 PCOD8029527
Probable space group: P -1
;
_chemical_formula_sum "Si O2"
_cell_formula_units_Z 16
_cell_length_a 11.730467
_cell_length_b 9.776804
_cell_length_c 15.228659
_cell_angle_alpha 109.314796
_cell_angle_beta 152.317355
_cell_angle_gamma 78.798988
_cell_volume 746.085463
_symmetry_space_group_name_H-M "P -1"
_symmetry_group_IT_number 2
_symmetry_cell_setting 'triclinic'
loop_
_space_group_symop_operation_xyz
x,y,z
-x,-y,-z
loop_
_atom_site_type_symbol
_atom_site_label
_atom_site_fract_x
_atom_site_fract_y
_atom_site_fract_z
Si Si1 0.874286 0.828081 0.143715
Si Si2 0.110360 0.216596 0.177581
Si Si3 0.588568 0.736940 0.106040
Si Si4 0.140812 0.494375 0.685803
Si Si5 0.809662 0.605125 0.901485
Si Si6 0.730807 0.484990 0.545292
Si Si7 0.370270 0.977350 0.103218
Si Si8 0.403191 0.832473 0.545918
O O1 0.787453 0.795347 0.177421
O O2 0.177151 0.894724 0.362398
O O3 0.809442 0.674402 0.012752
O O4 0.744266 0.952732 0.042406
O O5 0.114739 0.257654 0.085910
O O6 0.144980 0.365344 0.288603
O O7 0.340497 0.131800 0.330319
O O8 0.848393 0.109301 0.000444
O O9 0.696542 0.631732 0.225310
O O10 0.542659 0.872590 0.161443
O O11 0.325572 0.653234 0.864978
O O12 0.000000 0.500000 0.500000
O O13 0.924224 0.452678 0.599983
O O14 0.532431 0.502752 0.675167
O O15 0.000000 0.500000 0.000000
O O16 0.681480 0.347418 0.549525
O O17 0.547648 0.105494 0.308347
#
# Coordination Sequence:
#
# PCOD8029527 Si02
#       8
#     2   2   2   2   2   2   2   2
#     4  12  24  44  69  97 140 187 228 270 351 409
#     4  11  23  44  68  99 142 169 232 288 338 403
#     4  11  26  45  68 101 141 179 230 289 333 413
#     4  11  24  43  73 101 133 176 232 287 343 396
#     4  11  23  39  72 105 133 180 229 286 345 405
#     4  11  20  44  68  98 135 176 224 287 340 401
#     4  12  26  46  66 100 141 187 223 284 344 405
#     4  11  24  43  69  97 136 179 226 282 339 410
#
# _framework density 21.445264000000002
#
# number of rings (size 3 to 8) (size 9 to 14) (size 15 to 20)
#    0.000    0.750    5.000    4.500    0.000    3.000 
#    2.250    0.000    0.000    0.000    0.000    0.000 
#    0.000    0.000    0.000    0.000    0.000    0.000 
#
# Total GULP energy -198444.154792 kJ/mol
# GULP energy per Si atom -12402.759675 kJ/mol
# Density = 2.139645 g / cm^3
# Si number density = 21.445264 Si / 1000 Ang^3
#
#
#
# Elastic Constant Matrix: (Units=GPa)
#
#
# Indices 1 2 3 4 5 6 
#
# 1 67.0819 3.9852 0.9261 -5.5617 10.5259 -5.5566
# 2 3.9852 79.0944 24.2292 -9.6652 -0.0730 -13.4481
# 3 0.9261 24.2292 91.7055 -16.4926 0.7145 2.1746
# 4 -5.5617 -9.6652 -16.4926 32.2397 -0.5097 5.2489
# 5 10.5259 -0.0730 0.7145 -0.5097 33.0662 -3.5859
# 6 -5.5566 -13.4481 2.1746 5.2489 -3.5859 30.6503
#
#
#
# Elastic Compliance Matrix: (Units=1/GPa)
#
#
# Indices 1 2 3 4 5 6 
#
# 1 0.016039 -0.000325 0.000370 0.002498 -0.004887 0.001739
# 2 -0.000325 0.015182 -0.003923 0.001404 0.000976 0.006754
# 3 0.000370 -0.003923 0.013148 0.006211 -0.000720 -0.003735
# 4 0.002498 0.001404 0.006211 0.035950 -0.000984 -0.005643
# 5 -0.004887 0.000976 -0.000720 -0.000984 0.032183 0.003527
# 6 0.001739 0.006754 -0.003735 -0.005643 0.003527 0.037549
#
#
# Mechanical properties :
#
#
# Convention : Reuss Voigt Hill
#
# Bulk Modulus (GPa) = 27.31212 32.90697 30.10955
# Shear Modulus (GPa) = 29.40953 33.10735 31.25844
#
# Velocity S-wave (km/s) = 3.70723 3.93339 3.82198
# Velocity P-wave (km/s) = 5.57567 6.00056 5.79201
#
# Compressibility (1/GPa) = 0.03661378
#
# Stress axis : x y z
#
# Youngs Moduli (GPa) = 62.34626 65.86651 76.05509
#
# Poissons Ratio (x) = 0.02141 -0.02814
# Poissons Ratio (y) = 0.02026 0.29838
# Poissons Ratio (z) = -0.02307 0.25841
#
# Static dielectric constant tensor:
#      x y z
#    x 4.908540 0.095840 -0.327920 
#    y 0.095840 3.904990 -0.263400 
#    z -0.327920 -0.263400 4.339530 
# 
# 
# High freq. dielectric constant tensor:
#      x y z
#    x 1.846460 -0.019220 0.008600 
#    y -0.019220 1.835370 -0.004190 
#    z 0.008600 -0.004190 1.851930 
# 
# From -- ./inp_files/516041.got.cif
#   From: 2010.06.25/outbox.cif.g09.slc.cpg/sg2_259_cif.got.tgz:516041.got - 2010.06.27 13:26:56.
