data_PCOD8029598
_publ_section_title
;
Structure prediction by ZEFSAII (Michael W. Deem and Ramdas Pophale) SiO2 
 PCOD8029598
Probable space group: P -1
;
_chemical_formula_sum "Si O2"
_cell_formula_units_Z 16
_cell_length_a 8.867724
_cell_length_b 24.169071
_cell_length_c 8.538341
_cell_angle_alpha 30.111492
_cell_angle_beta 56.002466
_cell_angle_gamma 62.312792
_cell_volume 760.337951
_symmetry_space_group_name_H-M "P -1"
_symmetry_group_IT_number 2
_symmetry_cell_setting 'triclinic'
loop_
_space_group_symop_operation_xyz
x,y,z
-x,-y,-z
loop_
_atom_site_type_symbol
_atom_site_label
_atom_site_fract_x
_atom_site_fract_y
_atom_site_fract_z
Si Si1 0.531606 0.872436 0.303795
Si Si2 0.209164 0.672714 0.442581
Si Si3 0.144216 0.249509 0.695045
Si Si4 0.768057 0.279097 0.328817
Si Si5 0.428373 0.261303 0.093126
Si Si6 0.638025 0.502186 0.768291
Si Si7 0.150669 0.273670 0.979501
Si Si8 0.302670 0.439966 0.951194
O O1 0.736067 0.850862 0.182814
O O2 0.380621 0.808350 0.440982
O O3 0.525892 0.835769 0.577310
O O4 0.500000 0.000000 0.000000
O O5 0.266029 0.709182 0.495024
O O6 0.162267 0.539670 0.780111
O O7 0.041264 0.743704 0.312690
O O8 0.374929 0.692720 0.181480
O O9 0.103411 0.219746 0.971784
O O10 0.257194 0.366598 0.314155
O O11 0.754262 0.394991 0.966555
O O12 0.974947 0.250701 0.246023
O O13 0.313680 0.216411 0.118740
O O14 0.301631 0.355409 0.012435
O O15 0.782171 0.602164 0.409543
O O16 0.505803 0.495871 0.709379
O O17 0.500000 0.500000 0.000000
#
# Coordination Sequence:
#
# PCOD8029598 Si02
#       8
#     2   2   2   2   2   2   2   2
#     4  11  25  49  72  90 120 162 214 278 331 372
#     4  12  23  39  64  96 134 173 208 256 315 384
#     4  11  23  41  62  94 131 170 216 259 309 379
#     4  12  23  41  62  94 131 174 215 262 310 375
#     4  11  23  41  62  95 129 170 216 259 314 380
#     4  12  19  37  60  94 135 181 208 247 311 382
#     4  12  24  38  64  97 136 171 208 253 315 388
#     4  11  21  36  60  92 139 175 210 249 309 378
#
# _framework density 21.043275000000001
#
# number of rings (size 3 to 8) (size 9 to 14) (size 15 to 20)
#    0.000    0.500    6.250    4.125    0.000    1.000 
#    0.000    7.500    0.000    0.000    0.000    0.000 
#    0.000    0.000    0.000    0.000    0.000    0.000 
#
# Total GULP energy -198284.984671 kJ/mol
# GULP energy per Si atom -12392.811542 kJ/mol
# Density = 2.099538 g / cm^3
# Si number density = 21.043275 Si / 1000 Ang^3
#
#
#
# Elastic Constant Matrix: (Units=GPa)
#
#
# Indices 1 2 3 4 5 6 
#
# 1 130.4399 41.3972 44.2455 -12.2120 14.2105 -6.4045
# 2 41.3972 91.3141 58.9982 -0.3769 14.8883 -9.2088
# 3 44.2455 58.9982 88.5967 -7.1971 21.3998 6.0748
# 4 -12.2120 -0.3769 -7.1971 32.7177 -8.0664 5.6095
# 5 14.2105 14.8883 21.3998 -8.0664 22.7233 7.3111
# 6 -6.4045 -9.2088 6.0748 5.6095 7.3111 30.8578
#
#
#
# Elastic Compliance Matrix: (Units=1/GPa)
#
#
# Indices 1 2 3 4 5 6 
#
# 1 0.009854 -0.001861 -0.003207 0.002115 -0.001873 0.002180
# 2 -0.001861 0.023610 -0.014482 -0.007613 -0.007442 0.012658
# 3 -0.003207 -0.014482 0.025449 0.003655 -0.008385 -0.008675
# 4 0.002115 -0.007613 0.003655 0.039073 0.018620 -0.014067
# 5 -0.001873 -0.007442 -0.008385 0.018620 0.071402 -0.021261
# 6 0.002180 0.012658 -0.008675 -0.014067 -0.021261 0.045939
#
#
# Mechanical properties :
#
#
# Convention : Reuss Voigt Hill
#
# Bulk Modulus (GPa) = 50.46989 66.62582 58.54785
# Shear Modulus (GPa) = 19.15480 28.30708 23.73094
#
# Velocity S-wave (km/s) = 3.02032 3.67165 3.36180
# Velocity P-wave (km/s) = 6.01656 7.05016 6.55377
#
# Compressibility (1/GPa) = 0.01981379
#
# Stress axis : x y z
#
# Youngs Moduli (GPa) = 101.48115 42.35450 39.29408
#
# Poissons Ratio (x) = 0.07884 0.12601
# Poissons Ratio (y) = 0.18889 0.56904
# Poissons Ratio (z) = 0.32543 0.61336
#
# Static dielectric constant tensor:
#      x y z
#    x 4.030650 0.013820 0.201290 
#    y 0.013820 3.851100 0.252190 
#    z 0.201290 0.252190 3.516850 
# 
# 
# High freq. dielectric constant tensor:
#      x y z
#    x 1.840310 -0.006720 0.014040 
#    y -0.006720 1.816390 0.033350 
#    z 0.014040 0.033350 1.792980 
# 
# From -- ./inp_files/207434.got.cif
#   From: 2010.06.25/outbox.cif.g09.slc.cpg/sg2_104_cif.got.tgz:207434.got - 2010.06.27 13:26:56.
