data_PCOD8029148
_publ_section_title
;
Structure prediction by ZEFSAII (Michael W. Deem and Ramdas Pophale) SiO2 
 PCOD8029148
Probable space group: P -1
;
_chemical_formula_sum "Si O2"
_cell_formula_units_Z 16
_cell_length_a 8.468647
_cell_length_b 11.308135
_cell_length_c 15.070687
_cell_angle_alpha 136.042423
_cell_angle_beta 81.791228
_cell_angle_gamma 118.007536
_cell_volume 838.372312
_symmetry_space_group_name_H-M "P -1"
_symmetry_group_IT_number 2
_symmetry_cell_setting 'triclinic'
loop_
_space_group_symop_operation_xyz
x,y,z
-x,-y,-z
loop_
_atom_site_type_symbol
_atom_site_label
_atom_site_fract_x
_atom_site_fract_y
_atom_site_fract_z
Si Si1 0.270956 0.703844 0.264741
Si Si2 0.435222 0.000001 0.106693
Si Si3 0.635851 0.654841 0.650590
Si Si4 0.145614 0.000037 0.425780
Si Si5 0.432904 0.703825 0.439080
Si Si6 0.980262 0.000001 0.254973
Si Si7 0.980999 0.345163 0.995752
Si Si8 0.603585 0.999985 0.274635
O O1 0.367459 0.734861 0.367420
O O2 0.147999 0.802140 0.334398
O O3 0.425966 0.803061 0.227396
O O4 0.117175 0.472263 0.134205
O O5 0.233324 0.796674 0.030230
O O6 0.436653 0.203335 0.233555
O O7 0.574935 0.000002 0.170349
O O8 0.500000 0.000000 0.000000
O O9 0.500000 0.500000 0.500000
O O10 0.644984 0.527766 0.661944
O O11 0.858723 0.792154 0.688838
O O12 0.345854 0.197999 0.532336
O O13 0.080349 0.000018 0.334570
O O14 0.000000 0.000000 0.500000
O O15 0.377187 0.803142 0.575680
O O16 0.790741 0.000013 0.279564
O O17 0.933423 0.792138 0.103311
O O18 0.000000 0.500000 0.000000
#
# Coordination Sequence:
#
# PCOD8029148 Si02
#       8
#     2   2   2   2   2   2   2   2
#     4  11  22  39  65  93 128 168 215 272 322 381
#     4  11  25  44  68  94 136 173 213 272 324 387
#     4  11  21  45  65  87 128 178 211 254 330 387
#     4  11  20  36  60  92 127 158 211 270 322 374
#     4  11  22  39  65  93 128 168 215 272 322 381
#     4  11  23  38  67  90 124 170 207 266 325 384
#     4  11  21  45  65  87 128 178 211 254 330 387
#     4  11  22  42  63  96 134 159 218 282 318 371
#
# _framework density 19.084599000000001
#
# number of rings (size 3 to 8) (size 9 to 14) (size 15 to 20)
#    0.000    1.000    5.000    4.500    0.000    4.000 
#    4.500    2.500    0.000    0.000    0.000    0.000 
#    0.000    0.000    0.000    0.000    0.000    0.000 
#
# Total GULP energy -198256.823288 kJ/mol
# GULP energy per Si atom -12391.051456 kJ/mol
# Density = 1.904116 g / cm^3
# Si number density = 19.084599 Si / 1000 Ang^3
#
#
#
# Elastic Constant Matrix: (Units=GPa)
#
#
# Indices 1 2 3 4 5 6 
#
# 1 145.3575 54.7405 55.5913 5.7041 -0.0099 0.9566
# 2 54.7405 112.1266 69.0276 3.8968 -5.7330 -9.9213
# 3 55.5913 69.0276 116.3696 9.2494 8.9442 5.2839
# 4 5.7041 3.8968 9.2494 41.9786 -6.9806 5.3448
# 5 -0.0099 -5.7330 8.9442 -6.9806 29.1699 -9.4832
# 6 0.9566 -9.9213 5.2839 5.3448 -9.4832 31.8929
#
#
#
# Elastic Compliance Matrix: (Units=1/GPa)
#
#
# Indices 1 2 3 4 5 6 
#
# 1 0.008937 -0.002894 -0.002484 -0.000325 -0.000122 -0.000739
# 2 -0.002894 0.018627 -0.011117 0.001567 0.010925 0.010709
# 3 -0.002484 -0.011117 0.017938 -0.003318 -0.011475 -0.009212
# 4 -0.000325 0.001567 -0.003318 0.025783 0.007119 -0.001157
# 5 -0.000122 0.010925 -0.011475 0.007119 0.047588 0.018260
# 6 -0.000739 0.010709 -0.009212 -0.001157 0.018260 0.041858
#
#
# Mechanical properties :
#
#
# Convention : Reuss Voigt Hill
#
# Bulk Modulus (GPa) = 79.92274 81.39697 80.65985
# Shear Modulus (GPa) = 25.26635 33.57456 29.42046
#
# Velocity S-wave (km/s) = 3.64251 4.19889 3.93056
# Velocity P-wave (km/s) = 7.72396 8.13946 7.93443
#
# Compressibility (1/GPa) = 0.01251208
#
# Stress axis : x y z
#
# Youngs Moduli (GPa) = 111.89317 53.68508 55.74724
#
# Poissons Ratio (x) = 0.15539 0.13846
# Poissons Ratio (y) = 0.32387 0.61974
# Poissons Ratio (z) = 0.27791 0.59682
#
# Static dielectric constant tensor:
#      x y z
#    x 3.526870 -0.074240 0.065580 
#    y -0.074240 3.528960 0.004200 
#    z 0.065580 0.004200 3.532610 
# 
# 
# High freq. dielectric constant tensor:
#      x y z
#    x 1.750000 -0.008210 0.007050 
#    y -0.008210 1.747370 0.007830 
#    z 0.007050 0.007830 1.749770 
# 
# From -- ./inp_files/347475.got.cif
#   From: 2010.06.25/outbox.cif.g09.slc.cpg/sg2_174_cif.got.tgz:347475.got - 2010.06.27 13:26:56.
