data_PCOD8029376
_publ_section_title
;
Structure prediction by ZEFSAII (Michael W. Deem and Ramdas Pophale) SiO2 
 PCOD8029376
Probable space group: P -1
;
_chemical_formula_sum "Si O2"
_cell_formula_units_Z 12
_cell_length_a 5.340578
_cell_length_b 12.079966
_cell_length_c 8.916921
_cell_angle_alpha 78.851626
_cell_angle_beta 97.879468
_cell_angle_gamma 57.968701
_cell_volume 458.194980
_symmetry_space_group_name_H-M "P -1"
_symmetry_group_IT_number 2
_symmetry_cell_setting 'triclinic'
loop_
_space_group_symop_operation_xyz
x,y,z
-x,-y,-z
loop_
_atom_site_type_symbol
_atom_site_label
_atom_site_fract_x
_atom_site_fract_y
_atom_site_fract_z
Si Si1 0.244903 0.679230 0.653850
Si Si2 0.945594 0.387192 0.073799
Si Si3 0.748868 0.393747 0.752566
Si Si4 0.610631 0.155326 0.155058
Si Si5 0.522781 0.769602 0.205942
Si Si6 0.674201 0.918557 0.385544
O O1 0.152018 0.592612 0.766265
O O2 0.557562 0.552908 0.632423
O O3 0.272791 0.772262 0.751398
O O4 0.994338 0.772047 0.483977
O O5 0.248682 0.232438 0.129551
O O6 0.701667 0.400574 0.929648
O O7 0.000000 0.500000 0.000000
O O8 0.607097 0.311180 0.705499
O O9 0.107505 0.324407 0.764968
O O10 0.766905 0.000218 0.267081
O O11 0.669691 0.158690 0.981990
O O12 0.451703 0.889480 0.285045
O O13 0.500000 0.000000 0.500000
#
# Coordination Sequence:
#
# PCOD8029376 Si02
#       6
#     2   2   2   2   2   2
#     4  12  23  42  74 108 147 186 243 303 368 439
#     4  11  20  40  72 109 140 184 243 300 354 432
#     4  11  24  44  76 112 144 188 248 307 367 426
#     4  11  23  45  73 107 145 193 245 297 360 448
#     4  11  27  48  76 107 149 193 250 306 362 435
#     4  12  28  49  70 105 149 202 244 300 372 438
#
# _framework density 26.189723999999998
#
# number of rings (size 3 to 8) (size 9 to 14) (size 15 to 20)
#    0.000    0.667    5.000    3.500    0.000    4.000 
#    0.000    3.333    0.000    0.000    0.000    0.000 
#    0.000    0.000    0.000    0.000    0.000    0.000 
#
# Total GULP energy -148750.587642 kJ/mol
# GULP energy per Si atom -12395.882303 kJ/mol
# Density = 2.613011 g / cm^3
# Si number density = 26.189724 Si / 1000 Ang^3
#
#
#
# Elastic Constant Matrix: (Units=GPa)
#
#
# Indices 1 2 3 4 5 6 
#
# 1 96.9408 27.5713 32.9408 -14.4021 2.3108 31.9628
# 2 27.5713 83.4042 44.5380 -4.4960 -1.1698 38.0971
# 3 32.9408 44.5380 114.8604 -10.7368 13.2763 21.5481
# 4 -14.4021 -4.4960 -10.7368 60.0159 8.9863 11.7473
# 5 2.3108 -1.1698 13.2763 8.9863 20.1389 8.9400
# 6 31.9628 38.0971 21.5481 11.7473 8.9400 45.8513
#
#
#
# Elastic Compliance Matrix: (Units=1/GPa)
#
#
# Indices 1 2 3 4 5 6 
#
# 1 0.016127 0.003709 -0.003191 0.005867 0.004610 -0.015226
# 2 0.003709 0.027371 -0.008380 0.004016 0.016256 -0.025587
# 3 -0.003191 -0.008380 0.013561 0.001915 -0.011984 0.004661
# 4 0.005867 0.004016 0.001915 0.022106 -0.005863 -0.012846
# 5 0.004610 0.016256 -0.011984 -0.005863 0.070986 -0.023427
# 6 -0.015226 -0.025587 0.004661 -0.012846 -0.023427 0.059352
#
#
# Mechanical properties :
#
#
# Convention : Reuss Voigt Hill
#
# Bulk Modulus (GPa) = 24.19367 56.14506 40.16936
# Shear Modulus (GPa) = 20.91992 37.87825 29.39908
#
# Velocity S-wave (km/s) = 2.82934 3.80715 3.35407
# Velocity P-wave (km/s) = 4.46447 6.38829 5.51098
#
# Compressibility (1/GPa) = 0.04133313
#
# Stress axis : x y z
#
# Youngs Moduli (GPa) = 62.00761 36.53490 73.74269
#
# Poissons Ratio (x) = -0.13549 0.23532
# Poissons Ratio (y) = -0.22996 0.61798
# Poissons Ratio (z) = 0.19787 0.30617
#
# Static dielectric constant tensor:
#      x y z
#    x 4.519830 0.028760 0.300900 
#    y 0.028760 5.019500 0.055030 
#    z 0.300900 0.055030 5.165740 
# 
# 
# High freq. dielectric constant tensor:
#      x y z
#    x 2.039690 0.000550 0.009470 
#    y 0.000550 2.057660 -0.001650 
#    z 0.009470 -0.001650 2.059110 
# 
# From -- ./inp_files/28677.got.cif
#   From: 2010.06.25/outbox.cif.g09.slc.cpg/sg2_15_cif.got.tgz:28677.got - 2010.06.27 13:26:56.
