data_PCOD8029788
_publ_section_title
;
Structure prediction by ZEFSAII (Michael W. Deem and Ramdas Pophale) SiO2 
 PCOD8029788
Probable space group: P -1
;
_chemical_formula_sum "Si O2"
_cell_formula_units_Z 16
_cell_length_a 9.505163
_cell_length_b 14.851873
_cell_length_c 15.347969
_cell_angle_alpha 38.793824
_cell_angle_beta 46.603346
_cell_angle_gamma 75.964730
_cell_volume 754.957971
_symmetry_space_group_name_H-M "P -1"
_symmetry_group_IT_number 2
_symmetry_cell_setting 'triclinic'
loop_
_space_group_symop_operation_xyz
x,y,z
-x,-y,-z
loop_
_atom_site_type_symbol
_atom_site_label
_atom_site_fract_x
_atom_site_fract_y
_atom_site_fract_z
Si Si1 0.378948 0.756416 0.283549
Si Si2 0.340838 0.040762 0.151304
Si Si3 0.113382 0.093757 0.972511
Si Si4 0.157259 0.465337 0.900860
Si Si5 0.368366 0.160497 0.535905
Si Si6 0.947086 0.603317 0.199085
Si Si7 0.501013 0.064822 0.255049
Si Si8 0.892096 0.038707 0.369119
O O1 0.617565 0.851615 0.174250
O O2 0.164554 0.541607 0.564150
O O3 0.266860 0.862332 0.263642
O O4 0.473281 0.776241 0.128562
O O5 0.491150 0.068167 0.152897
O O6 0.082287 0.996483 0.319916
O O7 0.142096 0.277055 0.836994
O O8 0.000000 0.000000 0.000000
O O9 0.919175 0.935143 0.245262
O O10 0.446573 0.614497 0.700433
O O11 0.149067 0.500738 0.775050
O O12 0.000000 0.500000 0.000000
O O13 0.054062 0.256642 0.113911
O O14 0.482348 0.091335 0.601860
O O15 0.343806 0.093356 0.497889
O O16 0.249478 0.731477 0.974034
O O17 0.246096 0.015595 0.438184
#
# Coordination Sequence:
#
# PCOD8029788 Si02
#       8
#     2   2   2   2   2   2   2   2
#     4  11  23  43  65  89 138 181 225 272 335 403
#     4  11  25  44  64  90 137 191 215 272 343 394
#     4  11  21  39  68  99 132 173 218 288 336 382
#     4  12  22  38  72 105 133 173 218 280 344 396
#     4  11  22  41  69 102 131 169 225 277 343 386
#     4  11  23  41  67 105 134 166 235 284 329 403
#     4  11  22  42  67  95 135 178 215 280 338 391
#     4  12  23  46  66 101 143 171 225 283 331 403
#
# _framework density 21.193231999999998
#
# number of rings (size 3 to 8) (size 9 to 14) (size 15 to 20)
#    0.000    0.750    5.000    4.875    0.000    1.500 
#    2.250    0.625    0.000    0.000    0.000    0.000 
#    0.000    0.000    0.000    0.000    0.000    0.000 
#
# Total GULP energy -198410.784138 kJ/mol
# GULP energy per Si atom -12400.674009 kJ/mol
# Density = 2.114500 g / cm^3
# Si number density = 21.193232 Si / 1000 Ang^3
#
#
#
# Elastic Constant Matrix: (Units=GPa)
#
#
# Indices 1 2 3 4 5 6 
#
# 1 77.4579 29.5886 21.4815 -4.3185 4.5803 3.1479
# 2 29.5886 91.8763 25.9598 3.5168 0.3091 4.7956
# 3 21.4815 25.9598 128.2280 -2.5379 -0.7653 1.0366
# 4 -4.3185 3.5168 -2.5379 36.8728 8.5848 -9.4362
# 5 4.5803 0.3091 -0.7653 8.5848 28.0951 11.0397
# 6 3.1479 4.7956 1.0366 -9.4362 11.0397 42.1220
#
#
#
# Elastic Compliance Matrix: (Units=1/GPa)
#
#
# Indices 1 2 3 4 5 6 
#
# 1 0.015546 -0.004734 -0.001613 0.003428 -0.004065 0.001250
# 2 -0.004734 0.013188 -0.001904 -0.003159 0.002509 -0.002466
# 3 -0.001613 -0.001904 0.008466 0.000559 0.000272 0.000183
# 4 0.003428 -0.003159 0.000559 0.034603 -0.015790 0.011980
# 5 -0.004065 0.002509 0.000272 -0.015790 0.047319 -0.015928
# 6 0.001250 -0.002466 0.000183 0.011980 -0.015928 0.030782
#
#
# Mechanical properties :
#
#
# Convention : Reuss Voigt Hill
#
# Bulk Modulus (GPa) = 48.31348 50.18023 49.24686
# Shear Modulus (GPa) = 28.85081 36.12013 32.48547
#
# Velocity S-wave (km/s) = 3.69361 4.13282 3.91938
# Velocity P-wave (km/s) = 6.40597 6.81928 6.61585
#
# Compressibility (1/GPa) = 0.02069816
#
# Stress axis : x y z
#
# Youngs Moduli (GPa) = 64.32339 75.82642 118.12608
#
# Poissons Ratio (x) = 0.35895 0.19049
# Poissons Ratio (y) = 0.30450 0.22497
# Poissons Ratio (z) = 0.10373 0.14441
#
# Static dielectric constant tensor:
#      x y z
#    x 3.682860 0.143270 0.032150 
#    y 0.143270 4.132590 0.181470 
#    z 0.032150 0.181470 4.108840 
# 
# 
# High freq. dielectric constant tensor:
#      x y z
#    x 1.819390 0.010320 -0.002820 
#    y 0.010320 1.836550 0.015970 
#    z -0.002820 0.015970 1.836500 
# 
# From -- ./inp_files/455905.got.cif
#   From: 2010.06.25/outbox.cif.g09.slc.cpg/sg2_228_cif.got.tgz:455905.got - 2010.06.27 13:26:56.
