data_PCOD8029976
_publ_section_title
;
Structure prediction by ZEFSAII (Michael W. Deem and Ramdas Pophale) SiO2 
 PCOD8029976
Probable space group: P -1
;
_chemical_formula_sum "Si O2"
_cell_formula_units_Z 16
_cell_length_a 9.666499
_cell_length_b 10.963481
_cell_length_c 9.186524
_cell_angle_alpha 90.789149
_cell_angle_beta 47.293975
_cell_angle_gamma 101.830970
_cell_volume 689.521269
_symmetry_space_group_name_H-M "P -1"
_symmetry_group_IT_number 2
_symmetry_cell_setting 'triclinic'
loop_
_space_group_symop_operation_xyz
x,y,z
-x,-y,-z
loop_
_atom_site_type_symbol
_atom_site_label
_atom_site_fract_x
_atom_site_fract_y
_atom_site_fract_z
Si Si1 0.677604 0.381483 0.425721
Si Si2 0.124668 0.802292 0.557806
Si Si3 0.946963 0.654352 0.257219
Si Si4 0.731944 0.670590 0.139034
Si Si5 0.671690 0.399722 0.090066
Si Si6 0.283233 0.989209 0.199453
Si Si7 0.073955 0.065584 0.098211
Si Si8 0.760096 0.749844 0.653560
O O1 0.741163 0.277048 0.472116
O O2 0.816196 0.513534 0.379556
O O3 0.456749 0.373236 0.625286
O O4 0.684810 0.359750 0.248069
O O5 0.112408 0.906393 0.689237
O O6 0.901681 0.719905 0.678876
O O7 0.214114 0.865059 0.344450
O O8 0.919604 0.694848 0.111740
O O9 0.870523 0.745094 0.422153
O O10 0.175832 0.656875 0.112232
O O11 0.732031 0.552452 0.031494
O O12 0.753789 0.802196 0.041298
O O13 0.454107 0.345704 0.181809
O O14 0.160183 0.973430 0.136659
O O15 0.256151 0.107575 0.313764
O O16 0.500000 0.000000 0.000000
O O17 0.000000 0.000000 0.000000
#
# Coordination Sequence:
#
# PCOD8029976 Si02
#       8
#     2   2   2   2   2   2   2   2
#     4  11  21  43  66 102 142 184 229 284 341 416
#     4  11  26  46  67  99 149 179 227 293 348 407
#     4  11  22  40  71 102 141 180 228 288 344 408
#     4  11  21  41  68 103 143 175 233 293 338 407
#     4  11  22  42  71 104 138 186 229 282 351 413
#     4  11  27  49  68 100 141 186 228 290 351 408
#     4  11  25  44  71  98 132 186 239 281 339 410
#     4  11  24  44  69 100 139 179 233 278 352 409
#
# _framework density 23.204505999999999
#
# number of rings (size 3 to 8) (size 9 to 14) (size 15 to 20)
#    0.000    1.000    2.500    6.000    5.250    1.500 
#    0.000    5.000    0.000    0.000    0.000    0.000 
#    0.000    0.000    0.000    0.000    0.000    0.000 
#
# Total GULP energy -198381.609571 kJ/mol
# GULP energy per Si atom -12398.850598 kJ/mol
# Density = 2.315169 g / cm^3
# Si number density = 23.204506 Si / 1000 Ang^3
#
#
#
# Elastic Constant Matrix: (Units=GPa)
#
#
# Indices 1 2 3 4 5 6 
#
# 1 101.6198 53.7048 39.3891 9.2146 -1.9614 7.1879
# 2 53.7048 67.1137 31.7675 1.1262 7.3495 -3.5353
# 3 39.3891 31.7675 129.7075 5.5841 -16.2559 1.5446
# 4 9.2146 1.1262 5.5841 43.9671 -9.5371 5.6464
# 5 -1.9614 7.3495 -16.2559 -9.5371 42.4367 -1.4806
# 6 7.1879 -3.5353 1.5446 5.6464 -1.4806 39.3091
#
#
#
# Elastic Compliance Matrix: (Units=1/GPa)
#
#
# Indices 1 2 3 4 5 6 
#
# 1 0.018799 -0.014647 -0.001710 -0.002349 0.002074 -0.004272
# 2 -0.014647 0.029379 -0.003696 0.000642 -0.006858 0.005115
# 3 -0.001710 -0.003696 0.009668 0.000192 0.004298 -0.000265
# 4 -0.002349 0.000642 0.000192 0.024716 0.005308 -0.002871
# 5 0.002074 -0.006858 0.004298 0.005308 0.027657 -0.000886
# 6 -0.004272 0.005115 -0.000265 -0.002871 -0.000886 0.027070
#
#
# Mechanical properties :
#
#
# Convention : Reuss Voigt Hill
#
# Bulk Modulus (GPa) = 56.36356 60.90708 58.63532
# Shear Modulus (GPa) = 27.27671 36.71454 31.99563
#
# Velocity S-wave (km/s) = 3.43226 3.98202 3.71732
# Velocity P-wave (km/s) = 6.32850 6.88817 6.61426
#
# Compressibility (1/GPa) = 0.01774196
#
# Stress axis : x y z
#
# Youngs Moduli (GPa) = 53.19416 34.03750 103.43823
#
# Poissons Ratio (x) = 0.49853 0.17686
# Poissons Ratio (y) = 0.77911 0.38228
# Poissons Ratio (z) = 0.09095 0.12579
#
# Static dielectric constant tensor:
#      x y z
#    x 4.229210 -0.019430 -0.102870 
#    y -0.019430 4.243610 0.079080 
#    z -0.102870 0.079080 4.298520 
# 
# 
# High freq. dielectric constant tensor:
#      x y z
#    x 1.914940 -0.003840 -0.004510 
#    y -0.003840 1.914200 0.005190 
#    z -0.004510 0.005190 1.929340 
# 
# From -- ./inp_files/187346.got.cif
#   From: 2010.06.25/outbox.cif.g09.slc.cpg/sg2_94_cif.got.tgz:187346.got - 2010.06.27 13:26:56.
