data_PCOD8029166
_publ_section_title
;
Structure prediction by ZEFSAII (Michael W. Deem and Ramdas Pophale) SiO2 
 PCOD8029166
Probable space group: P -1
;
_chemical_formula_sum "Si O2"
_cell_formula_units_Z 10
_cell_length_a 11.999425
_cell_length_b 19.561440
_cell_length_c 11.352257
_cell_angle_alpha 30.488603
_cell_angle_beta 142.815032
_cell_angle_gamma 159.254804
_cell_volume 478.259332
_symmetry_space_group_name_H-M "P -1"
_symmetry_group_IT_number 2
_symmetry_cell_setting 'triclinic'
loop_
_space_group_symop_operation_xyz
x,y,z
-x,-y,-z
loop_
_atom_site_type_symbol
_atom_site_label
_atom_site_fract_x
_atom_site_fract_y
_atom_site_fract_z
Si Si1 0.814058 0.778988 0.545645
Si Si2 0.716239 0.169302 0.729217
Si Si3 0.786906 0.408068 0.638374
Si Si4 0.070809 0.661323 0.908154
Si Si5 0.162295 0.237330 0.138533
O O1 0.473693 0.647863 0.440724
O O2 0.896556 0.793577 0.727448
O O3 0.091070 0.038621 0.336812
O O4 0.818277 0.631460 0.711837
O O5 0.635398 0.243149 0.641971
O O6 0.921840 0.333590 0.546892
O O7 0.889841 0.160260 0.964318
O O8 0.408592 0.925440 0.773703
O O9 0.930082 0.391074 0.880066
O O10 0.000000 0.500000 0.000000
O O11 0.500000 0.500000 0.000000
#
# Coordination Sequence:
#
# PCOD8029166 Si02
#       5
#     2   2   2   2   2
#     4  11  23  38  65  93 126 163 208 256 315 370
#     4  11  22  41  68  97 126 159 211 266 315 369
#     4  11  23  42  68  96 123 162 213 266 315 366
#     4  12  27  44  61  90 134 174 209 253 308 378
#     4  11  20  36  67 103 123 153 206 272 319 361
#
# _framework density 20.909158000000001
#
# number of rings (size 3 to 8) (size 9 to 14) (size 15 to 20)
#    0.000    0.800    6.000    3.000    2.800    1.600 
#    0.000    1.000    0.000    0.000    0.000    0.000 
#    0.000    0.000    0.000    0.000    0.000    0.000 
#
# Total GULP energy -123938.464602 kJ/mol
# GULP energy per Si atom -12393.846460 kJ/mol
# Density = 2.086157 g / cm^3
# Si number density = 20.909158 Si / 1000 Ang^3
#
#
#
# Elastic Constant Matrix: (Units=GPa)
#
#
# Indices 1 2 3 4 5 6 
#
# 1 74.0030 32.6931 56.7814 -18.1511 14.2878 13.2388
# 2 32.6931 66.3168 32.7160 -13.2287 4.4315 12.1819
# 3 56.7814 32.7160 146.5558 -13.8793 0.8876 16.0711
# 4 -18.1511 -13.2287 -13.8793 39.9755 7.0812 9.5006
# 5 14.2878 4.4315 0.8876 7.0812 47.8056 -0.3096
# 6 13.2388 12.1819 16.0711 9.5006 -0.3096 25.6000
#
#
#
# Elastic Compliance Matrix: (Units=1/GPa)
#
#
# Indices 1 2 3 4 5 6 
#
# 1 0.029132 -0.004728 -0.007335 0.014175 -0.010320 -0.013596
# 2 -0.004728 0.021268 -0.001191 0.007041 -0.001641 -0.009561
# 3 -0.007335 -0.001191 0.010116 -0.000133 0.002122 -0.001915
# 4 0.014175 0.007041 -0.000133 0.041987 -0.011276 -0.026316
# 5 -0.010320 -0.001641 0.002122 -0.011276 0.025846 0.009283
# 6 -0.013596 -0.009561 -0.001915 -0.026316 0.009283 0.061724
#
#
# Mechanical properties :
#
#
# Convention : Reuss Voigt Hill
#
# Bulk Modulus (GPa) = 29.40594 59.02850 44.21722
# Shear Modulus (GPa) = 21.93803 33.65524 27.79663
#
# Velocity S-wave (km/s) = 3.24266 4.01633 3.65005
# Velocity P-wave (km/s) = 5.30226 7.05691 6.24156
#
# Compressibility (1/GPa) = 0.03400673
#
# Stress axis : x y z
#
# Youngs Moduli (GPa) = 34.32701 47.01972 98.85596
#
# Poissons Ratio (x) = 0.22230 0.72515
# Poissons Ratio (y) = 0.16229 0.11771
# Poissons Ratio (z) = 0.25180 0.05599
#
# Static dielectric constant tensor:
#      x y z
#    x 3.693640 0.265950 0.216030 
#    y 0.265950 3.572790 0.033590 
#    z 0.216030 0.033590 4.700150 
# 
# 
# High freq. dielectric constant tensor:
#      x y z
#    x 1.785540 0.029110 -0.000100 
#    y 0.029110 1.800450 0.007410 
#    z -0.000100 0.007410 1.857710 
# 
# From -- ./inp_files/144048.got.cif
#   From: 2010.06.25/outbox.cif.g09.slc.cpg/sg2_73_cif.got.tgz:144048.got - 2010.06.27 13:26:56.
