data_PCOD8029089
_publ_section_title
;
Structure prediction by ZEFSAII (Michael W. Deem and Ramdas Pophale) SiO2 
 PCOD8029089
Probable space group: P -1
;
_chemical_formula_sum "Si O2"
_cell_formula_units_Z 16
_cell_length_a 11.207147
_cell_length_b 14.859810
_cell_length_c 13.313174
_cell_angle_alpha 55.123815
_cell_angle_beta 34.641798
_cell_angle_gamma 38.774427
_cell_volume 774.043824
_symmetry_space_group_name_H-M "P -1"
_symmetry_group_IT_number 2
_symmetry_cell_setting 'triclinic'
loop_
_space_group_symop_operation_xyz
x,y,z
-x,-y,-z
loop_
_atom_site_type_symbol
_atom_site_label
_atom_site_fract_x
_atom_site_fract_y
_atom_site_fract_z
Si Si1 0.214802 0.946356 0.976406
Si Si2 0.817473 0.490961 0.058853
Si Si3 0.778657 0.629696 0.792366
Si Si4 0.689010 0.791354 0.426703
Si Si5 0.886872 0.909072 0.362672
Si Si6 0.228124 0.618737 0.410795
Si Si7 0.381353 0.403931 0.273582
Si Si8 0.986861 0.753064 0.057921
O O1 0.531692 0.800949 0.823568
O O2 0.225003 0.071544 0.917887
O O3 0.120473 0.911826 0.160377
O O4 0.000000 0.000000 0.000000
O O5 0.539663 0.546852 0.275529
O O6 0.724017 0.590898 0.960967
O O7 0.000000 0.500000 0.000000
O O8 0.997507 0.322666 0.007345
O O9 0.776207 0.542428 0.758788
O O10 0.079825 0.587889 0.612410
O O11 0.802327 0.856872 0.365450
O O12 0.688112 0.682462 0.562709
O O13 0.877087 0.709730 0.248894
O O14 0.374113 0.929413 0.520689
O O15 0.027824 0.793614 0.429578
O O16 0.256869 0.551209 0.324626
O O17 0.709714 0.302688 0.090368
#
# Coordination Sequence:
#
# PCOD8029089 Si02
#       8
#     2   2   2   2   2   2   2   2
#     4  12  20  36  58  99 134 160 190 231 312 395
#     4  11  28  48  62  83 117 166 226 268 291 339
#     4  12  22  38  66  91 127 162 195 249 313 371
#     4  11  20  34  56  92 138 160 184 231 304 389
#     4  11  20  33  55  91 136 163 181 232 299 383
#     4  11  24  38  63  91 123 160 201 254 310 366
#     4  11  22  34  56  98 130 155 194 238 313 389
#     4  11  23  38  63  89 129 168 196 245 310 364
#
# _framework density 20.670663999999999
#
# number of rings (size 3 to 8) (size 9 to 14) (size 15 to 20)
#    0.000    0.750    6.250    1.875    1.750    1.500 
#    0.000    0.625    0.000    1.500    0.000    0.000 
#    0.000    0.000    0.000    0.000    0.000    0.000 
#
# Total GULP energy -198413.319912 kJ/mol
# GULP energy per Si atom -12400.832495 kJ/mol
# Density = 2.062362 g / cm^3
# Si number density = 20.670664 Si / 1000 Ang^3
#
#
#
# Elastic Constant Matrix: (Units=GPa)
#
#
# Indices 1 2 3 4 5 6 
#
# 1 70.4700 23.0847 25.7996 -4.1059 -21.4795 9.7612
# 2 23.0847 71.7352 -1.0509 -5.1731 -6.0345 0.3259
# 3 25.7996 -1.0509 127.9803 1.4620 -13.3818 3.2309
# 4 -4.1059 -5.1731 1.4620 33.5438 -3.1908 -1.3145
# 5 -21.4795 -6.0345 -13.3818 -3.1908 23.4747 -4.4022
# 6 9.7612 0.3259 3.2309 -1.3145 -4.4022 13.9615
#
#
#
# Elastic Compliance Matrix: (Units=1/GPa)
#
#
# Indices 1 2 3 4 5 6 
#
# 1 0.024170 -0.006059 -0.002877 0.003408 0.017456 -0.010266
# 2 -0.006059 0.016048 0.001264 0.001854 0.000272 0.003830
# 3 -0.002877 0.001264 0.008674 -0.000241 0.002759 0.000822
# 4 0.003408 0.001854 -0.000241 0.031444 0.008335 0.003219
# 5 0.017456 0.000272 0.002759 0.008335 0.062798 0.007737
# 6 -0.010266 0.003830 0.000822 0.003219 0.007737 0.081266
#
#
# Mechanical properties :
#
#
# Convention : Reuss Voigt Hill
#
# Bulk Modulus (GPa) = 29.80832 40.65024 35.22928
# Shear Modulus (GPa) = 19.92608 29.01945 24.47277
#
# Velocity S-wave (km/s) = 3.10817 3.75092 3.44457
# Velocity P-wave (km/s) = 5.22808 6.20223 5.73587
#
# Compressibility (1/GPa) = 0.03354768
#
# Stress axis : x y z
#
# Youngs Moduli (GPa) = 41.37401 62.31414 115.28075
#
# Poissons Ratio (x) = 0.37758 0.33163
# Poissons Ratio (y) = 0.25070 -0.14569
# Poissons Ratio (z) = 0.11902 -0.07875
#
# Static dielectric constant tensor:
#      x y z
#    x 3.071030 0.113060 -0.096060 
#    y 0.113060 4.068320 0.122910 
#    z -0.096060 0.122910 4.099770 
# 
# 
# High freq. dielectric constant tensor:
#      x y z
#    x 1.725200 0.003240 -0.005460 
#    y 0.003240 1.830320 0.004300 
#    z -0.005460 0.004300 1.837900 
# 
# From -- ./inp_files/389906.got.cif
#   From: 2010.06.25/outbox.cif.g09.slc.cpg/sg2_195_cif.got.tgz:389906.got - 2010.06.27 13:26:56.
