data_PCOD8029567
_publ_section_title
;
Structure prediction by ZEFSAII (Michael W. Deem and Ramdas Pophale) SiO2 
 PCOD8029567
Probable space group: P -1
;
_chemical_formula_sum "Si O2"
_cell_formula_units_Z 12
_cell_length_a 13.232617
_cell_length_b 10.626492
_cell_length_c 10.012334
_cell_angle_alpha 42.398074
_cell_angle_beta 82.367633
_cell_angle_gamma 51.755759
_cell_volume 589.401135
_symmetry_space_group_name_H-M "P -1"
_symmetry_group_IT_number 2
_symmetry_cell_setting 'triclinic'
loop_
_space_group_symop_operation_xyz
x,y,z
-x,-y,-z
loop_
_atom_site_type_symbol
_atom_site_label
_atom_site_fract_x
_atom_site_fract_y
_atom_site_fract_z
Si Si1 0.175439 0.671896 0.190132
Si Si2 0.292174 0.866418 0.636830
Si Si3 0.835579 0.637368 0.366268
Si Si4 0.831856 0.582552 0.845159
Si Si5 0.057213 0.580261 0.768205
Si Si6 0.625627 0.273027 0.961568
O O1 0.223693 0.438114 0.464649
O O2 0.180940 0.586723 0.104886
O O3 0.306398 0.649741 0.195363
O O4 0.000000 0.000000 0.000000
O O5 0.428922 0.559119 0.770931
O O6 0.308743 0.066395 0.445249
O O7 0.110526 0.057900 0.476536
O O8 0.308953 0.808605 0.835879
O O9 0.000000 0.500000 0.500000
O O10 0.858328 0.509498 0.318590
O O11 0.689341 0.993925 0.100638
O O12 0.007708 0.430509 0.905897
O O13 0.821982 0.539041 0.037985
#
# Coordination Sequence:
#
# PCOD8029567 Si02
#       6
#     2   2   2   2   2   2
#     4  12  21  33  59  86 106 143 188 225 268 320
#     4   9  18  37  54  84 110 142 178 229 274 314
#     4  12  18  37  56  81 112 142 183 230 262 320
#     4   9  18  35  58  81 107 147 180 223 268 326
#     4   9  17  35  62  76 109 147 181 219 275 320
#     4  11  21  33  58  87 110 136 186 228 273 316
#
# _framework density 20.359646999999999
#
# number of rings (size 3 to 8) (size 9 to 14) (size 15 to 20)
#    1.000    0.667    6.667    0.000    0.000    0.667 
#    0.000    4.167    0.000    1.000    0.000    0.000 
#    0.000    0.000    0.000    0.000    0.000    0.000 
#
# Total GULP energy -148728.945511 kJ/mol
# GULP energy per Si atom -12394.078793 kJ/mol
# Density = 2.031331 g / cm^3
# Si number density = 20.359647 Si / 1000 Ang^3
#
#
#
# Elastic Constant Matrix: (Units=GPa)
#
#
# Indices 1 2 3 4 5 6 
#
# 1 34.6422 32.1891 37.3228 2.4706 -15.4598 -3.8914
# 2 32.1891 131.6267 65.7234 -8.2212 4.2268 -1.5286
# 3 37.3228 65.7234 108.9104 -4.1280 -12.1464 -0.8390
# 4 2.4706 -8.2212 -4.1280 50.1976 0.2929 2.3766
# 5 -15.4598 4.2268 -12.1464 0.2929 17.0730 0.7726
# 6 -3.8914 -1.5286 -0.8390 2.3766 0.7726 23.3821
#
#
#
# Elastic Compliance Matrix: (Units=1/GPa)
#
#
# Indices 1 2 3 4 5 6 
#
# 1 0.111440 -0.024525 -0.012866 -0.011813 0.097377 0.014465
# 2 -0.024525 0.017479 -0.005396 0.003923 -0.030327 -0.002529
# 3 -0.012866 -0.005396 0.017092 0.001242 0.001918 -0.002070
# 4 -0.011813 0.003923 0.001242 0.021476 -0.010995 -0.003485
# 5 0.097377 -0.030327 0.001918 -0.010995 0.155344 0.010277
# 6 0.014465 -0.002529 -0.002070 -0.003485 0.010277 0.044950
#
#
# Mechanical properties :
#
#
# Convention : Reuss Voigt Hill
#
# Bulk Modulus (GPa) = 16.54623 60.62777 38.58700
# Shear Modulus (GPa) = 10.55961 27.46015 19.00988
#
# Velocity S-wave (km/s) = 2.27987 3.67652 3.05897
# Velocity P-wave (km/s) = 3.88266 6.91849 5.60983
#
# Compressibility (1/GPa) = 0.06043671
#
# Stress axis : x y z
#
# Youngs Moduli (GPa) = 8.97341 57.21227 58.50538
#
# Poissons Ratio (x) = 1.40314 0.75273
# Poissons Ratio (y) = 0.22007 0.31571
# Poissons Ratio (z) = 0.11545 0.30873
#
# Static dielectric constant tensor:
#      x y z
#    x 3.219520 -0.065880 -0.126830 
#    y -0.065880 3.743790 -0.018370 
#    z -0.126830 -0.018370 3.840390 
# 
# 
# High freq. dielectric constant tensor:
#      x y z
#    x 1.738770 -0.004120 -0.017190 
#    y -0.004120 1.794820 0.001310 
#    z -0.017190 0.001310 1.800000 
# 
# From -- ./inp_files/231037.got.cif
#   From: 2010.06.25/outbox.cif.g09.slc.cpg/sg2_116_cif.got.tgz:231037.got - 2010.06.27 13:26:56.
