data_PCOD8029516
_publ_section_title
;
Structure prediction by ZEFSAII (Michael W. Deem and Ramdas Pophale) SiO2 
 PCOD8029516
Probable space group: P -1
;
_chemical_formula_sum "Si O2"
_cell_formula_units_Z 16
_cell_length_a 7.922570
_cell_length_b 11.745732
_cell_length_c 10.554782
_cell_angle_alpha 58.376117
_cell_angle_beta 77.100511
_cell_angle_gamma 56.876520
_cell_volume 697.669700
_symmetry_space_group_name_H-M "P -1"
_symmetry_group_IT_number 2
_symmetry_cell_setting 'triclinic'
loop_
_space_group_symop_operation_xyz
x,y,z
-x,-y,-z
loop_
_atom_site_type_symbol
_atom_site_label
_atom_site_fract_x
_atom_site_fract_y
_atom_site_fract_z
Si Si1 0.244301 0.361685 0.643861
Si Si2 0.591891 0.196995 0.863635
Si Si3 0.957641 0.070929 0.703237
Si Si4 0.229627 0.663135 0.069586
Si Si5 0.966101 0.694346 0.600940
Si Si6 0.615710 0.658209 0.640622
Si Si7 0.166515 0.106279 0.869679
Si Si8 0.812319 0.258484 0.247629
O O1 0.365718 0.304391 0.789400
O O2 0.055137 0.535668 0.595296
O O3 0.367133 0.365373 0.500285
O O4 0.188590 0.228746 0.706564
O O5 0.618138 0.299530 0.905108
O O6 0.727162 0.164447 0.734103
O O7 0.633890 0.033176 0.013745
O O8 0.093059 0.018389 0.838919
O O9 0.001931 0.179157 0.546286
O O10 0.009341 0.918749 0.703756
O O11 0.261339 0.504955 0.212880
O O12 0.997593 0.799752 0.048851
O O13 0.273434 0.642145 0.924747
O O14 0.087457 0.662998 0.731307
O O15 0.726186 0.751431 0.618354
O O16 0.375819 0.746236 0.655101
#
# Coordination Sequence:
#
# PCOD8029516 Si02
#       8
#     2   2   2   2   2   2   2   2
#     4  12  24  44  68 103 131 169 234 283 333 390
#     4  11  22  40  73 100 129 179 226 280 328 390
#     4  11  22  45  69  95 136 179 224 273 335 397
#     4  11  22  45  69  95 136 179 224 273 335 397
#     4  12  26  45  70 100 136 179 221 283 334 395
#     4  12  26  45  70 100 136 179 221 283 334 395
#     4  11  20  43  73  95 131 177 223 281 332 382
#     4  12  26  46  66 102 140 180 222 264 344 410
#
# _framework density 22.933485999999998
#
# number of rings (size 3 to 8) (size 9 to 14) (size 15 to 20)
#    0.000    0.500    5.000    5.250    0.000    2.500 
#    4.500    0.000    0.000    0.000    0.000    0.000 
#    0.000    0.000    0.000    0.000    0.000    0.000 
#
# Total GULP energy -198379.181306 kJ/mol
# GULP energy per Si atom -12398.698832 kJ/mol
# Density = 2.288129 g / cm^3
# Si number density = 22.933486 Si / 1000 Ang^3
#
#
#
# Elastic Constant Matrix: (Units=GPa)
#
#
# Indices 1 2 3 4 5 6 
#
# 1 65.7005 9.0896 -9.5267 15.0047 8.0429 5.3997
# 2 9.0896 57.2247 18.6190 9.8338 -4.3439 21.0242
# 3 -9.5267 18.6190 91.1512 1.6526 -5.5593 4.5925
# 4 15.0047 9.8338 1.6526 44.3669 3.9123 -1.8413
# 5 8.0429 -4.3439 -5.5593 3.9123 32.0219 -3.5566
# 6 5.3997 21.0242 4.5925 -1.8413 -3.5566 22.1492
#
#
#
# Elastic Compliance Matrix: (Units=1/GPa)
#
#
# Indices 1 2 3 4 5 6 
#
# 1 0.017907 -0.001065 0.002192 -0.005745 -0.004109 -0.004947
# 2 -0.001065 0.031216 -0.004812 -0.007699 0.001410 -0.028787
# 3 0.002192 -0.004812 0.012169 -0.000157 0.001115 0.001676
# 4 -0.005745 -0.007699 -0.000157 0.026789 -0.001714 0.010692
# 5 -0.004109 0.001410 0.001115 -0.001714 0.033371 0.004648
# 6 -0.004947 -0.028787 0.001676 0.010692 0.004648 0.074967
#
#
# Mechanical properties :
#
#
# Convention : Reuss Voigt Hill
#
# Bulk Modulus (GPa) = 18.54503 27.82671 23.18587
# Shear Modulus (GPa) = 22.54657 32.76723 27.65690
#
# Velocity S-wave (km/s) = 3.13889 3.78404 3.47646
# Velocity P-wave (km/s) = 4.60878 5.59034 5.12312
#
# Compressibility (1/GPa) = 0.05392279
#
# Stress axis : x y z
#
# Youngs Moduli (GPa) = 55.84315 32.03503 82.17521
#
# Poissons Ratio (x) = 0.03412 -0.18012
# Poissons Ratio (y) = 0.05947 0.39540
# Poissons Ratio (z) = -0.12240 0.15414
#
# Static dielectric constant tensor:
#      x y z
#    x 4.107070 0.171410 0.002100 
#    y 0.171410 4.003150 0.013050 
#    z 0.002100 0.013050 4.237290 
# 
# 
# High freq. dielectric constant tensor:
#      x y z
#    x 1.899470 0.008180 0.005320 
#    y 0.008180 1.891730 -0.009480 
#    z 0.005320 -0.009480 1.926140 
# 
# From -- ./inp_files/185041.got.cif
#   From: 2010.06.25/outbox.cif.g09.slc.cpg/sg2_93_cif.got.tgz:185041.got - 2010.06.27 13:26:56.
