data_PCOD8029923
_publ_section_title
;
Structure prediction by ZEFSAII (Michael W. Deem and Ramdas Pophale) SiO2 
 PCOD8029923
Probable space group: P -1
;
_chemical_formula_sum "Si O2"
_cell_formula_units_Z 14
_cell_length_a 9.402645
_cell_length_b 21.761328
_cell_length_c 8.397048
_cell_angle_alpha 45.560810
_cell_angle_beta 147.804432
_cell_angle_gamma 121.991859
_cell_volume 644.689443
_symmetry_space_group_name_H-M "P -1"
_symmetry_group_IT_number 2
_symmetry_cell_setting 'triclinic'
loop_
_space_group_symop_operation_xyz
x,y,z
-x,-y,-z
loop_
_atom_site_type_symbol
_atom_site_label
_atom_site_fract_x
_atom_site_fract_y
_atom_site_fract_z
Si Si1 0.192052 0.270732 0.764833
Si Si2 0.774400 0.946137 0.431844
Si Si3 0.109457 0.256619 0.078229
Si Si4 0.715177 0.559726 0.636906
Si Si5 0.758577 0.012680 0.628272
Si Si6 0.285719 0.795961 0.756000
Si Si7 0.451599 0.680253 0.420037
O O1 0.265626 0.363501 0.611164
O O2 0.978320 0.238075 0.500296
O O3 0.074034 0.271537 0.829082
O O4 0.480208 0.205334 0.154717
O O5 0.855185 0.844357 0.644994
O O6 0.774094 0.943150 0.628096
O O7 0.000000 0.000000 0.500000
O O8 0.500000 0.000000 0.000000
O O9 0.381802 0.288518 0.333967
O O10 0.852861 0.317618 0.806943
O O11 0.500000 0.500000 0.500000
O O12 0.623421 0.590716 0.674565
O O13 0.000000 0.500000 0.000000
O O14 0.771141 0.108079 0.397197
O O15 0.500000 0.000000 0.500000
O O16 0.000000 0.000000 0.000000
O O17 0.428544 0.739879 0.135766
#
# Coordination Sequence:
#
# PCOD8029923 Si02
#       7
#     2   2   2   2   2   2   2
#     4  11  24  41  67  93 125 167 204 258 318 369
#     4  12  25  40  60  89 128 174 214 264 314 353
#     4  12  23  42  61  94 131 164 211 259 309 373
#     4  11  23  45  70  96 123 157 203 253 312 391
#     4  12  24  38  59  89 123 166 218 271 309 346
#     4  11  21  41  61  88 122 170 220 252 300 378
#     4  11  24  41  67  91 122 166 203 249 312 382
#
# _framework density 21.715883999999999
#
# number of rings (size 3 to 8) (size 9 to 14) (size 15 to 20)
#    0.000    0.571    0.000   11.143    0.000    0.000 
#    0.000    4.286    0.000    0.000    0.000    0.000 
#    0.000    0.000    0.000    0.000    0.000    0.000 
#
# Total GULP energy -173466.161527 kJ/mol
# GULP energy per Si atom -12390.440109 kJ/mol
# Density = 2.166646 g / cm^3
# Si number density = 21.715884 Si / 1000 Ang^3
#
#
#
# Elastic Constant Matrix: (Units=GPa)
#
#
# Indices 1 2 3 4 5 6 
#
# 1 87.9210 9.5668 21.8875 -0.5562 13.8666 -3.8967
# 2 9.5668 108.1067 36.4875 7.8625 3.8337 0.8114
# 3 21.8875 36.4875 116.0238 19.4750 21.3882 -0.0687
# 4 -0.5562 7.8625 19.4750 42.9945 -2.4370 2.3481
# 5 13.8666 3.8337 21.3882 -2.4370 41.8919 5.2044
# 6 -3.8967 0.8114 -0.0687 2.3481 5.2044 35.6604
#
#
#
# Elastic Compliance Matrix: (Units=1/GPa)
#
#
# Indices 1 2 3 4 5 6 
#
# 1 0.012470 -0.000477 -0.001696 0.000724 -0.003402 0.001819
# 2 -0.000477 0.010399 -0.003292 -0.000342 0.000918 -0.000406
# 3 -0.001696 -0.003292 0.011884 -0.005182 -0.005640 0.001077
# 4 0.000724 -0.000342 -0.005182 0.026041 0.004232 -0.002255
# 5 -0.003402 0.000918 -0.005640 0.004232 0.028643 -0.004862
# 6 0.001819 -0.000406 0.001077 -0.002255 -0.004862 0.029111
#
#
# Mechanical properties :
#
#
# Convention : Reuss Voigt Hill
#
# Bulk Modulus (GPa) = 41.97613 49.77058 45.87335
# Shear Modulus (GPa) = 36.38530 40.38333 38.38432
#
# Velocity S-wave (km/s) = 4.09775 4.31701 4.20881
# Velocity P-wave (km/s) = 6.46223 6.91502 6.69245
#
# Compressibility (1/GPa) = 0.02382306
#
# Stress axis : x y z
#
# Youngs Moduli (GPa) = 80.19477 96.16395 84.14461
#
# Poissons Ratio (x) = 0.04585 0.14269
# Poissons Ratio (y) = 0.03824 0.27703
# Poissons Ratio (z) = 0.13599 0.31660
#
# Static dielectric constant tensor:
#      x y z
#    x 6.031690 -1.431270 1.872190 
#    y -1.431270 5.105120 -1.199690 
#    z 1.872190 -1.199690 5.349590 
# 
# 
# High freq. dielectric constant tensor:
#      x y z
#    x 1.862340 -0.003990 0.018400 
#    y -0.003990 1.860310 0.008260 
#    z 0.018400 0.008260 1.863880 
# 
# From -- ./inp_files/115930.got.cif
#   From: 2010.06.25/outbox.cif.g09.slc.cpg/sg2_58_cif.got.tgz:115930.got - 2010.06.27 13:26:56.
