data_PCOD8029504
_publ_section_title
;
Structure prediction by ZEFSAII (Michael W. Deem and Ramdas Pophale) SiO2 
 PCOD8029504
Probable space group: P -1
;
_chemical_formula_sum "Si O2"
_cell_formula_units_Z 16
_cell_length_a 10.069231
_cell_length_b 15.725303
_cell_length_c 20.694416
_cell_angle_alpha 161.222726
_cell_angle_beta 47.815637
_cell_angle_gamma 132.641524
_cell_volume 769.571805
_symmetry_space_group_name_H-M "P -1"
_symmetry_group_IT_number 2
_symmetry_cell_setting 'triclinic'
loop_
_space_group_symop_operation_xyz
x,y,z
-x,-y,-z
loop_
_atom_site_type_symbol
_atom_site_label
_atom_site_fract_x
_atom_site_fract_y
_atom_site_fract_z
Si Si1 0.745395 0.298934 0.656241
Si Si2 0.400125 0.747015 0.996275
Si Si3 0.829087 0.962036 0.809690
Si Si4 0.326517 0.282685 0.773076
Si Si5 0.684485 0.081764 0.239425
Si Si6 0.025080 0.470369 0.365766
Si Si7 0.356795 0.432741 0.319319
Si Si8 0.812540 0.695761 0.023483
O O1 0.539176 0.293470 0.698258
O O2 0.870015 0.521216 0.730567
O O3 0.784055 0.396347 0.787214
O O4 0.789138 0.999816 0.417108
O O5 0.269666 0.934918 0.144994
O O6 0.557379 0.928020 0.115634
O O7 0.274153 0.527189 0.924303
O O8 0.485375 0.585866 0.796301
O O9 0.680042 0.844392 0.827547
O O10 0.935764 0.733623 0.586883
O O11 0.972459 0.204083 0.967167
O O12 0.290641 0.323093 0.888706
O O13 0.585433 0.313756 0.469374
O O14 0.873326 0.204658 0.230236
O O15 0.717351 0.881601 0.141378
O O16 0.167271 0.480397 0.384672
#
# Coordination Sequence:
#
# PCOD8029504 Si02
#       8
#     2   2   2   2   2   2   2   2
#     4  11  23  39  68  97 121 169 218 268 308 370
#     4  12  27  42  63  98 134 171 204 264 329 378
#     4  11  24  43  64  97 137 163 206 270 325 369
#     4  11  24  41  64  93 133 163 217 269 308 369
#     4  11  23  39  71  96 125 167 216 261 319 375
#     4  11  20  43  70  96 129 161 218 269 309 375
#     4  11  21  42  66  95 129 168 211 263 312 381
#     4  12  22  41  68  97 122 172 220 259 307 385
#
# _framework density 20.790782
#
# number of rings (size 3 to 8) (size 9 to 14) (size 15 to 20)
#    0.000    0.750    6.250    1.500    3.500    3.500 
#    2.250    0.625    0.000    0.000    0.000    0.000 
#    0.000    0.000    0.000    0.000    0.000    0.000 
#
# Total GULP energy -198455.099689 kJ/mol
# GULP energy per Si atom -12403.443731 kJ/mol
# Density = 2.074346 g / cm^3
# Si number density = 20.790782 Si / 1000 Ang^3
#
#
#
# Elastic Constant Matrix: (Units=GPa)
#
#
# Indices 1 2 3 4 5 6 
#
# 1 88.0558 35.3512 40.8802 12.1309 -9.8141 -18.3860
# 2 35.3512 109.9327 52.5891 11.0363 1.3224 -23.8299
# 3 40.8802 52.5891 87.5984 5.6387 9.8839 -19.4964
# 4 12.1309 11.0363 5.6387 30.5872 -7.4498 -0.2268
# 5 -9.8141 1.3224 9.8839 -7.4498 34.5529 5.6879
# 6 -18.3860 -23.8299 -19.4964 -0.2268 5.6879 23.7657
#
#
#
# Elastic Compliance Matrix: (Units=1/GPa)
#
#
# Indices 1 2 3 4 5 6 
#
# 1 0.016981 -0.000749 -0.006450 -0.004050 0.004853 0.005894
# 2 -0.000749 0.014683 -0.005855 -0.004241 -0.001608 0.009684
# 3 -0.006450 -0.005855 0.020994 -0.001408 -0.009329 0.008581
# 4 -0.004050 -0.004241 -0.001408 0.038299 0.009388 -0.010422
# 5 0.004853 -0.001608 -0.009329 0.009388 0.037442 -0.014383
# 6 0.005894 0.009684 0.008581 -0.010422 -0.014383 0.066730
#
#
# Mechanical properties :
#
#
# Convention : Reuss Voigt Hill
#
# Bulk Modulus (GPa) = 37.66617 60.35866 49.01242
# Shear Modulus (GPa) = 21.73095 28.23227 24.98161
#
# Velocity S-wave (km/s) = 3.23649 3.68900 3.47013
# Velocity P-wave (km/s) = 5.66768 6.87309 6.29929
#
# Compressibility (1/GPa) = 0.02654902
#
# Stress axis : x y z
#
# Youngs Moduli (GPa) = 58.88855 68.10757 47.63243
#
# Poissons Ratio (x) = 0.05103 0.30723
# Poissons Ratio (y) = 0.04412 0.27890
# Poissons Ratio (z) = 0.37983 0.39879
#
# Static dielectric constant tensor:
#      x y z
#    x 3.621430 -0.082090 0.136450 
#    y -0.082090 4.036130 0.223580 
#    z 0.136450 0.223580 3.902840 
# 
# 
# High freq. dielectric constant tensor:
#      x y z
#    x 1.790230 -0.010090 0.012520 
#    y -0.010090 1.828320 0.006610 
#    z 0.012520 0.006610 1.816630 
# 
# From -- ./inp_files/188910.got.cif
#   From: 2010.06.25/outbox.cif.g09.slc.cpg/sg2_95_cif.got.tgz:188910.got - 2010.06.27 13:26:56.
