data_PCOD8029232
_publ_section_title
;
Structure prediction by ZEFSAII (Michael W. Deem and Ramdas Pophale) SiO2 
 PCOD8029232
Probable space group: P -1
;
_chemical_formula_sum "Si O2"
_cell_formula_units_Z 16
_cell_length_a 9.376154
_cell_length_b 12.952362
_cell_length_c 15.264658
_cell_angle_alpha 133.074244
_cell_angle_beta 141.613959
_cell_angle_gamma 44.926606
_cell_volume 777.537576
_symmetry_space_group_name_H-M "P -1"
_symmetry_group_IT_number 2
_symmetry_cell_setting 'triclinic'
loop_
_space_group_symop_operation_xyz
x,y,z
-x,-y,-z
loop_
_atom_site_type_symbol
_atom_site_label
_atom_site_fract_x
_atom_site_fract_y
_atom_site_fract_z
Si Si1 0.894553 0.672516 0.170522
Si Si2 0.715728 0.416128 0.986725
Si Si3 0.896203 0.872219 0.901180
Si Si4 0.569494 0.080994 0.000439
Si Si5 0.023108 0.068676 0.308434
Si Si6 0.288815 0.718956 0.271660
Si Si7 0.890027 0.899468 0.445290
Si Si8 0.382758 0.142382 0.403003
O O1 0.909718 0.752045 0.315178
O O2 0.142730 0.638396 0.213432
O O3 0.879740 0.513292 0.097912
O O4 0.655124 0.771127 0.055570
O O5 0.603962 0.379243 0.821223
O O6 0.500000 0.500000 0.000000
O O7 0.891262 0.257622 0.020206
O O8 0.816684 0.796473 0.735664
O O9 0.654749 0.954224 0.892046
O O10 0.000000 0.000000 0.000000
O O11 0.790689 0.134204 0.168530
O O12 0.500000 0.000000 0.000000
O O13 0.954282 0.150357 0.417820
O O14 0.258039 0.095683 0.398527
O O15 0.094931 0.887982 0.252192
O O16 0.519261 0.727063 0.443413
O O17 0.606030 0.993152 0.389391
O O18 0.000000 0.000000 0.500000
#
# Coordination Sequence:
#
# PCOD8029232 Si02
#       8
#     2   2   2   2   2   2   2   2
#     4  12  24  41  68  97 137 169 216 273 333 390
#     4  12  28  43  65  94 132 178 219 267 336 393
#     4  12  23  44  66  97 130 168 226 270 324 389
#     4  12  21  38  67 100 128 167 222 272 317 385
#     4  11  22  36  65  99 133 163 225 269 327 370
#     4  11  22  44  61  96 132 176 210 271 330 389
#     4  11  20  38  64 103 130 168 214 270 326 392
#     4  11  23  37  69  93 135 166 223 275 323 380
#
# _framework density 20.577784999999999
#
# number of rings (size 3 to 8) (size 9 to 14) (size 15 to 20)
#    0.000    0.500    7.500    2.625    3.500    0.000 
#    0.000    2.500    0.000    0.000    0.000    0.000 
#    0.000    0.000    0.000    0.000    0.000    0.000 
#
# Total GULP energy -198432.810359 kJ/mol
# GULP energy per Si atom -12402.050647 kJ/mol
# Density = 2.053095 g / cm^3
# Si number density = 20.577785 Si / 1000 Ang^3
#
#
#
# Elastic Constant Matrix: (Units=GPa)
#
#
# Indices 1 2 3 4 5 6 
#
# 1 152.6173 34.3232 59.2381 8.0742 -5.0654 10.8572
# 2 34.3232 67.2678 30.7246 10.2569 4.0104 16.4703
# 3 59.2381 30.7246 166.8617 3.8442 -18.1040 6.2335
# 4 8.0742 10.2569 3.8442 25.4542 0.4374 2.2247
# 5 -5.0654 4.0104 -18.1040 0.4374 49.2925 6.9665
# 6 10.8572 16.4703 6.2335 2.2247 6.9665 27.0330
#
#
#
# Elastic Compliance Matrix: (Units=1/GPa)
#
#
# Indices 1 2 3 4 5 6 
#
# 1 0.008208 -0.002722 -0.002304 -0.001068 0.000386 -0.001118
# 2 -0.002722 0.020946 -0.002517 -0.006280 -0.001410 -0.010208
# 3 -0.002304 -0.002517 0.007561 0.000560 0.002745 -0.000038
# 4 -0.001068 -0.006280 0.000560 0.042013 0.000145 0.000631
# 5 0.000386 -0.001410 0.002745 0.000145 0.022251 -0.005675
# 6 -0.001118 -0.010208 -0.000038 0.000631 -0.005675 0.045079
#
#
# Mechanical properties :
#
#
# Convention : Reuss Voigt Hill
#
# Bulk Modulus (GPa) = 46.23866 70.59096 58.41481
# Shear Modulus (GPa) = 29.69934 37.85334 33.77634
#
# Velocity S-wave (km/s) = 3.80316 4.29362 4.05581
# Velocity P-wave (km/s) = 6.46563 7.67849 7.09801
#
# Compressibility (1/GPa) = 0.02162692
#
# Stress axis : x y z
#
# Youngs Moduli (GPa) = 121.83545 47.74290 132.25750
#
# Poissons Ratio (x) = 0.12995 0.30478
# Poissons Ratio (y) = 0.33162 0.33295
# Poissons Ratio (z) = 0.28076 0.12019
#
# Static dielectric constant tensor:
#      x y z
#    x 4.189010 0.004940 -0.267700 
#    y 0.004940 3.434010 -0.020360 
#    z -0.267700 -0.020360 4.274130 
# 
# 
# High freq. dielectric constant tensor:
#      x y z
#    x 1.832560 0.010630 -0.007990 
#    y 0.010630 1.756840 -0.003150 
#    z -0.007990 -0.003150 1.824010 
# 
# From -- ./inp_files/271271.got.cif
#   From: 2010.06.25/outbox.cif.g09.slc.cpg/sg2_136_cif.got.tgz:271271.got - 2010.06.27 13:26:56.
