data_PCOD8029921
_publ_section_title
;
Structure prediction by ZEFSAII (Michael W. Deem and Ramdas Pophale) SiO2 
 PCOD8029921
Probable space group: P -1
;
_chemical_formula_sum "Si O2"
_cell_formula_units_Z 16
_cell_length_a 9.413502
_cell_length_b 17.058745
_cell_length_c 9.143346
_cell_angle_alpha 92.793524
_cell_angle_beta 133.594564
_cell_angle_gamma 60.422664
_cell_volume 819.707914
_symmetry_space_group_name_H-M "P -1"
_symmetry_group_IT_number 2
_symmetry_cell_setting 'triclinic'
loop_
_space_group_symop_operation_xyz
x,y,z
-x,-y,-z
loop_
_atom_site_type_symbol
_atom_site_label
_atom_site_fract_x
_atom_site_fract_y
_atom_site_fract_z
Si Si1 0.139461 0.874012 0.446082
Si Si2 0.634911 0.069148 0.180155
Si Si3 0.708387 0.384803 0.891775
Si Si4 0.798468 0.505532 0.761533
Si Si5 0.133947 0.539104 0.526507
Si Si6 0.246232 0.126362 0.683980
Si Si7 0.130033 0.290052 0.426939
Si Si8 0.572559 0.280359 0.609198
O O1 0.359974 0.858723 0.698740
O O2 0.251744 0.824957 0.363417
O O3 0.035182 0.821618 0.446824
O O4 0.903734 0.995720 0.274230
O O5 0.600479 0.995244 0.238547
O O6 0.401575 0.141020 0.910773
O O7 0.713348 0.447550 0.772798
O O8 0.430975 0.461732 0.774971
O O9 0.744370 0.288013 0.842544
O O10 0.931582 0.343234 0.159634
O O11 0.910606 0.453816 0.678243
O O12 0.560452 0.624675 0.586924
O O13 0.000000 0.500000 0.000000
O O14 0.000000 0.500000 0.500000
O O15 0.004956 0.649059 0.512814
O O16 0.224403 0.177527 0.519033
O O17 0.365205 0.285304 0.554412
#
# Coordination Sequence:
#
# PCOD8029921 Si02
#       8
#     2   2   2   2   2   2   2   2
#     4   9  19  38  65  87 115 151 201 242 296 364
#     4   8  18  41  64  87 114 149 201 241 303 363
#     4  11  24  41  59  82 130 162 200 244 296 347
#     4  11  22  40  62  85 121 167 203 238 293 351
#     4  11  21  41  60  85 123 162 201 245 290 346
#     4   9  20  37  64  86 116 148 200 245 292 362
#     4  12  24  39  57  93 122 154 201 248 296 350
#     4  11  23  39  56  90 123 153 202 246 292 355
#
# _framework density 19.519148000000001
#
# number of rings (size 3 to 8) (size 9 to 14) (size 15 to 20)
#    0.750    1.000    3.750    1.875    3.500    3.000 
#    0.000    1.250    0.000    0.000    0.000    0.000 
#    0.000    0.000    0.000    0.000    0.000    0.000 
#
# Total GULP energy -198315.024523 kJ/mol
# GULP energy per Si atom -12394.689033 kJ/mol
# Density = 1.947472 g / cm^3
# Si number density = 19.519148 Si / 1000 Ang^3
#
#
#
# Elastic Constant Matrix: (Units=GPa)
#
#
# Indices 1 2 3 4 5 6 
#
# 1 106.5856 36.5426 32.2352 2.7313 -1.3035 9.2862
# 2 36.5426 85.3392 21.7193 15.8428 0.0277 -13.6491
# 3 32.2352 21.7193 67.0676 13.5753 -5.0619 12.1904
# 4 2.7313 15.8428 13.5753 29.1246 11.4141 -3.1091
# 5 -1.3035 0.0277 -5.0619 11.4141 28.7298 3.3660
# 6 9.2862 -13.6491 12.1904 -3.1091 3.3660 29.5455
#
#
#
# Elastic Compliance Matrix: (Units=1/GPa)
#
#
# Indices 1 2 3 4 5 6 
#
# 1 0.013022 -0.005902 -0.004487 0.004131 -0.001322 -0.004383
# 2 -0.005902 0.018172 -0.003693 -0.006584 0.000387 0.011037
# 3 -0.004487 -0.003693 0.024622 -0.015054 0.011685 -0.013370
# 4 0.004131 -0.006584 -0.015054 0.055836 -0.025895 0.010697
# 5 -0.001322 0.000387 0.011685 -0.025895 0.048556 -0.012484
# 6 -0.004383 0.011037 -0.013370 0.010697 -0.012484 0.048386
#
#
# Mechanical properties :
#
#
# Convention : Reuss Voigt Hill
#
# Bulk Modulus (GPa) = 36.16110 48.88742 42.52426
# Shear Modulus (GPa) = 20.32721 28.71301 24.52011
#
# Velocity S-wave (km/s) = 3.23057 3.83955 3.54815
# Velocity P-wave (km/s) = 5.69927 6.69002 6.21442
#
# Compressibility (1/GPa) = 0.02765403
#
# Stress axis : x y z
#
# Youngs Moduli (GPa) = 76.79102 55.02933 40.61416
#
# Poissons Ratio (x) = 0.32476 0.18224
# Poissons Ratio (y) = 0.45319 0.14997
# Poissons Ratio (z) = 0.34456 0.20320
#
# Static dielectric constant tensor:
#      x y z
#    x 9.164350 -4.982040 1.211320 
#    y -4.982040 8.073230 -0.751110 
#    z 1.211320 -0.751110 3.660080 
# 
# 
# High freq. dielectric constant tensor:
#      x y z
#    x 1.752340 0.013880 0.016270 
#    y 0.013880 1.751050 0.017830 
#    z 0.016270 0.017830 1.757150 
# 
# From -- ./inp_files/217734.got.cif
#   From: 2010.06.25/outbox.cif.g09.slc.cpg/sg2_109_cif.got.tgz:217734.got - 2010.06.27 13:26:56.
