data_PCOD8029485
_publ_section_title
;
Structure prediction by ZEFSAII (Michael W. Deem and Ramdas Pophale) SiO2 
 PCOD8029485
Probable space group: P -1
;
_chemical_formula_sum "Si O2"
_cell_formula_units_Z 14
_cell_length_a 14.592299
_cell_length_b 20.437856
_cell_length_c 11.461164
_cell_angle_alpha 32.895134
_cell_angle_beta 148.870978
_cell_angle_gamma 160.521073
_cell_volume 578.574833
_symmetry_space_group_name_H-M "P -1"
_symmetry_group_IT_number 2
_symmetry_cell_setting 'triclinic'
loop_
_space_group_symop_operation_xyz
x,y,z
-x,-y,-z
loop_
_atom_site_type_symbol
_atom_site_label
_atom_site_fract_x
_atom_site_fract_y
_atom_site_fract_z
Si Si1 0.804064 0.921574 0.793893
Si Si2 0.360987 0.540574 0.232122
Si Si3 0.600631 0.882224 0.120185
Si Si4 0.137133 0.780007 0.668333
Si Si5 0.215742 0.266682 0.152597
Si Si6 0.227121 0.529021 0.846071
Si Si7 0.240427 0.571058 0.395049
O O1 0.846549 0.831278 0.890727
O O2 0.465469 0.751018 0.721490
O O3 0.903390 0.099477 0.574020
O O4 0.000000 0.000000 0.000000
O O5 0.500000 0.500000 0.500000
O O6 0.560937 0.758031 0.166300
O O7 0.033133 0.367516 0.184865
O O8 0.347393 0.531823 0.091399
O O9 0.433708 0.762611 0.237079
O O10 0.473134 0.932390 0.840600
O O11 0.947389 0.087538 0.216787
O O12 0.018694 0.642082 0.633599
O O13 0.534007 0.400835 0.345652
O O14 0.201559 0.403803 0.914798
O O15 0.920416 0.433579 0.675389
#
# Coordination Sequence:
#
# PCOD8029485 Si02
#       7
#     2   2   2   2   2   2   2
#     4  12  28  50  73 104 140 193 248 293 357 432
#     4  11  20  42  75 104 140 189 238 294 350 419
#     4  11  22  45  72 112 143 185 245 290 348 429
#     4  11  23  45  76 106 141 189 244 291 348 428
#     4  12  28  45  70 107 148 188 236 299 362 425
#     4  12  25  47  72 103 151 186 234 300 359 425
#     4  11  24  47  75 110 145 186 235 297 364 417
#
# _framework density 24.197389000000001
#
# number of rings (size 3 to 8) (size 9 to 14) (size 15 to 20)
#    0.000    0.571    2.857    6.857    2.000    2.857 
#    2.571    0.000    0.000    0.000    0.000    0.000 
#    0.000    0.000    0.000    0.000    0.000    0.000 
#
# Total GULP energy -173583.536948 kJ/mol
# GULP energy per Si atom -12398.824068 kJ/mol
# Density = 2.414231 g / cm^3
# Si number density = 24.197389 Si / 1000 Ang^3
#
#
#
# Elastic Constant Matrix: (Units=GPa)
#
#
# Indices 1 2 3 4 5 6 
#
# 1 82.8081 23.9779 13.1948 0.6141 20.2871 0.2614
# 2 23.9779 101.3104 18.1858 -3.2313 9.3152 23.9998
# 3 13.1948 18.1858 64.0897 -0.0177 23.7466 1.1872
# 4 0.6141 -3.2313 -0.0177 39.6765 6.2641 7.4710
# 5 20.2871 9.3152 23.7466 6.2641 37.8226 1.7632
# 6 0.2614 23.9998 1.1872 7.4710 1.7632 34.0168
#
#
#
# Elastic Compliance Matrix: (Units=1/GPa)
#
#
# Indices 1 2 3 4 5 6 
#
# 1 0.014880 -0.003597 0.000774 0.000180 -0.007740 0.002758
# 2 -0.003597 0.013773 -0.003161 0.003031 0.000499 -0.010271
# 3 0.000774 -0.003161 0.021236 0.001493 -0.013302 0.001845
# 4 0.000180 0.003031 0.001493 0.027909 -0.006029 -0.008009
# 5 -0.007740 0.000499 -0.013302 -0.006029 0.039845 -0.000569
# 6 0.002758 -0.010271 0.001845 -0.008009 -0.000569 0.038347
#
#
# Mechanical properties :
#
#
# Convention : Reuss Voigt Hill
#
# Bulk Modulus (GPa) = 26.37061 39.88057 33.12559
# Shear Modulus (GPa) = 27.68565 35.15983 31.42274
#
# Velocity S-wave (km/s) = 3.38621 3.81601 3.60752
# Velocity P-wave (km/s) = 5.11960 5.99442 5.57420
#
# Compressibility (1/GPa) = 0.03792100
#
# Stress axis : x y z
#
# Youngs Moduli (GPa) = 67.20245 72.60369 47.08984
#
# Poissons Ratio (x) = 0.26113 -0.03643
# Poissons Ratio (y) = 0.24171 0.14887
# Poissons Ratio (z) = -0.05199 0.22953
#
# Static dielectric constant tensor:
#      x y z
#    x 6.357730 1.768090 0.278060 
#    y 1.768090 5.844540 0.202160 
#    z 0.278060 0.202160 4.057820 
# 
# 
# High freq. dielectric constant tensor:
#      x y z
#    x 1.961690 0.009970 0.010990 
#    y 0.009970 1.967990 0.004440 
#    z 0.010990 0.004440 1.960670 
# 
# From -- ./inp_files/457668.got.cif
#   From: 2010.06.25/outbox.cif.g09.slc.cpg/sg2_229_cif.got.tgz:457668.got - 2010.06.27 13:26:56.
