data_PCOD8029378
_publ_section_title
;
Structure prediction by ZEFSAII (Michael W. Deem and Ramdas Pophale) SiO2 
 PCOD8029378
Probable space group: P -1
;
_chemical_formula_sum "Si O2"
_cell_formula_units_Z 14
_cell_length_a 20.354075
_cell_length_b 9.824954
_cell_length_c 12.485908
_cell_angle_alpha 35.920226
_cell_angle_beta 155.428554
_cell_angle_gamma 142.829892
_cell_volume 590.185522
_symmetry_space_group_name_H-M "P -1"
_symmetry_group_IT_number 2
_symmetry_cell_setting 'triclinic'
loop_
_space_group_symop_operation_xyz
x,y,z
-x,-y,-z
loop_
_atom_site_type_symbol
_atom_site_label
_atom_site_fract_x
_atom_site_fract_y
_atom_site_fract_z
Si Si1 0.102173 0.048883 0.229062
Si Si2 0.342435 0.547595 0.292214
Si Si3 0.179580 0.942213 0.055812
Si Si4 0.338146 0.725215 0.743279
Si Si5 0.740006 0.482062 0.457392
Si Si6 0.541280 0.648222 0.732781
Si Si7 0.304167 0.032862 0.943439
O O1 0.190963 0.326750 0.192163
O O2 0.237212 0.900257 0.530022
O O3 0.983152 0.980059 0.199223
O O4 0.000000 0.000000 0.000000
O O5 0.500000 0.500000 0.500000
O O6 0.397997 0.606744 0.459473
O O7 0.276371 0.775247 0.006814
O O8 0.150053 0.660117 0.222425
O O9 0.329192 0.097052 0.251857
O O10 0.223744 0.993741 0.966136
O O11 0.234860 0.548419 0.612868
O O12 0.500909 0.871102 0.832713
O O13 0.367951 0.568391 0.990017
O O14 0.550351 0.362330 0.282160
O O15 0.778958 0.768583 0.361686
#
# Coordination Sequence:
#
# PCOD8029378 Si02
#       7
#     2   2   2   2   2   2   2
#     4  12  27  44  68  99 142 184 223 283 350 410
#     4  12  25  45  69 100 137 183 231 282 341 402
#     4  12  22  41  73 102 141 181 220 279 351 403
#     4  11  21  43  72 105 137 176 237 277 327 415
#     4  11  20  40  73 107 132 175 236 279 327 414
#     4  11  22  40  75 103 132 180 233 284 332 398
#     4  11  22  43  72 102 132 177 237 283 329 404
#
# _framework density 23.721357000000001
#
# number of rings (size 3 to 8) (size 9 to 14) (size 15 to 20)
#    0.000    0.571    7.143    3.000    0.000    1.714 
#    0.000    0.714    0.000    0.000    0.000    0.000 
#    0.000    0.000    0.000    0.000    0.000    0.000 
#
# Total GULP energy -173475.793949 kJ/mol
# GULP energy per Si atom -12391.128139 kJ/mol
# Density = 2.366737 g / cm^3
# Si number density = 23.721357 Si / 1000 Ang^3
#
#
#
# Elastic Constant Matrix: (Units=GPa)
#
#
# Indices 1 2 3 4 5 6 
#
# 1 97.1922 36.5650 34.9489 -8.1616 35.6919 8.6012
# 2 36.5650 129.9195 29.6128 -19.7263 8.0942 -10.1225
# 3 34.9489 29.6128 63.5662 -31.1803 14.4752 6.8540
# 4 -8.1616 -19.7263 -31.1803 49.1459 -5.9038 5.0276
# 5 35.6919 8.0942 14.4752 -5.9038 36.4336 -0.3574
# 6 8.6012 -10.1225 6.8540 5.0276 -0.3574 28.7315
#
#
#
# Elastic Compliance Matrix: (Units=1/GPa)
#
#
# Indices 1 2 3 4 5 6 
#
# 1 0.021042 -0.004304 -0.007023 -0.004229 -0.017607 -0.005619
# 2 -0.004304 0.009993 -0.003055 0.001225 0.003461 0.005367
# 3 -0.007023 -0.003055 0.031556 0.018373 -0.002098 -0.009743
# 4 -0.004229 0.001225 0.018373 0.032873 0.001815 -0.008415
# 5 -0.017607 0.003461 -0.002098 0.001815 0.045126 0.007235
# 6 -0.005619 0.005367 -0.009743 -0.008415 0.007235 0.042265
#
#
# Mechanical properties :
#
#
# Convention : Reuss Voigt Hill
#
# Bulk Modulus (GPa) = 29.56179 54.77014 42.16597
# Shear Modulus (GPa) = 22.43223 35.49894 28.96559
#
# Velocity S-wave (km/s) = 3.07849 3.87266 3.49818
# Velocity P-wave (km/s) = 5.01251 6.56778 5.84213
#
# Compressibility (1/GPa) = 0.03382745
#
# Stress axis : x y z
#
# Youngs Moduli (GPa) = 47.52503 100.06705 31.68938
#
# Poissons Ratio (x) = 0.43072 0.22254
# Poissons Ratio (y) = 0.20456 0.09681
# Poissons Ratio (z) = 0.33375 0.30571
#
# Static dielectric constant tensor:
#      x y z
#    x 4.317690 -0.084590 0.296640 
#    y -0.084590 4.494930 -0.420190 
#    z 0.296640 -0.420190 4.330430 
# 
# 
# High freq. dielectric constant tensor:
#      x y z
#    x 1.933680 0.004090 0.026410 
#    y 0.004090 1.937540 -0.031970 
#    z 0.026410 -0.031970 1.926310 
# 
# From -- ./inp_files/261141.got.cif
#   From: 2010.06.25/outbox.cif.g09.slc.cpg/sg2_131_cif.got.tgz:261141.got - 2010.06.27 13:26:56.
