data_PCOD8029578
_publ_section_title
;
Structure prediction by ZEFSAII (Michael W. Deem and Ramdas Pophale) SiO2 
 PCOD8029578
Probable space group: P -1
;
_chemical_formula_sum "Si O2"
_cell_formula_units_Z 16
_cell_length_a 11.469486
_cell_length_b 10.536561
_cell_length_c 16.819925
_cell_angle_alpha 46.260264
_cell_angle_beta 145.365084
_cell_angle_gamma 122.545743
_cell_volume 832.294921
_symmetry_space_group_name_H-M "P -1"
_symmetry_group_IT_number 2
_symmetry_cell_setting 'triclinic'
loop_
_space_group_symop_operation_xyz
x,y,z
-x,-y,-z
loop_
_atom_site_type_symbol
_atom_site_label
_atom_site_fract_x
_atom_site_fract_y
_atom_site_fract_z
Si Si1 0.393026 0.104259 0.286815
Si Si2 0.777303 0.044441 0.890809
Si Si3 0.783450 0.923088 0.125605
Si Si4 0.249907 0.816532 0.445822
Si Si5 0.223310 0.540532 0.292890
Si Si6 0.606133 0.515124 0.423458
Si Si7 0.456237 0.734451 0.106776
Si Si8 0.859238 0.541455 0.979515
O O1 0.384765 0.055848 0.209970
O O2 0.622047 0.157792 0.412457
O O3 0.220150 0.254521 0.152158
O O4 0.339070 0.930972 0.377232
O O5 0.729395 0.254062 0.772006
O O6 0.771056 0.958660 0.010355
O O7 0.000000 0.000000 0.000000
O O8 0.637680 0.767917 0.132518
O O9 0.011714 0.864768 0.308691
O O10 0.708249 0.098288 0.055387
O O11 0.284867 0.616990 0.521934
O O12 0.395330 0.445217 0.371953
O O13 0.242115 0.460318 0.427233
O O14 0.997812 0.503572 0.152006
O O15 0.551751 0.695386 0.265520
O O16 0.337728 0.571009 0.079594
O O17 0.000000 0.500000 0.000000
#
# Coordination Sequence:
#
# PCOD8029578 Si02
#       8
#     2   2   2   2   2   2   2   2
#     4  11  22  33  62  94 124 149 206 253 301 354
#     4  12  19  38  63  92 120 159 203 251 303 352
#     4  11  24  43  64  85 124 169 201 244 305 370
#     4  11  21  38  59  92 122 157 197 255 304 353
#     4  11  21  34  63  94 123 153 197 261 306 346
#     4  11  21  38  59  95 120 155 201 250 305 355
#     4  11  24  43  63  88 122 167 207 239 304 374
#     4  12  20  38  61  91 123 159 204 253 297 356
#
# _framework density 19.223956000000001
#
# number of rings (size 3 to 8) (size 9 to 14) (size 15 to 20)
#    0.000    0.750    7.500    0.750    0.000    1.500 
#    0.000    1.875    0.000    3.000    0.000    0.000 
#    0.000    0.000    0.000    0.000    0.000    0.000 
#
# Total GULP energy -198403.270262 kJ/mol
# GULP energy per Si atom -12400.204391 kJ/mol
# Density = 1.918020 g / cm^3
# Si number density = 19.223956 Si / 1000 Ang^3
#
#
#
# Elastic Constant Matrix: (Units=GPa)
#
#
# Indices 1 2 3 4 5 6 
#
# 1 80.0612 31.5637 39.5494 17.5694 -1.1090 5.5774
# 2 31.5637 62.8793 35.9116 12.1889 -5.5502 -3.0134
# 3 39.5494 35.9116 130.9486 25.6558 1.2020 -2.2058
# 4 17.5694 12.1889 25.6558 34.1817 -7.1900 -1.5319
# 5 -1.1090 -5.5502 1.2020 -7.1900 33.4843 -2.6829
# 6 5.5774 -3.0134 -2.2058 -1.5319 -2.6829 25.9740
#
#
#
# Elastic Compliance Matrix: (Units=1/GPa)
#
#
# Indices 1 2 3 4 5 6 
#
# 1 0.018070 -0.006997 -0.002515 -0.005593 -0.002109 -0.005453
# 2 -0.006997 0.022246 -0.003866 -0.000444 0.003830 0.004124
# 3 -0.002515 -0.003866 0.010614 -0.005762 -0.002309 0.000415
# 4 -0.005593 -0.000444 -0.005762 0.038580 0.008538 0.003817
# 5 -0.002109 0.003830 -0.002309 0.008538 0.032713 0.004584
# 6 -0.005453 0.004124 0.000415 0.003817 0.004584 0.040883
#
#
# Mechanical properties :
#
#
# Convention : Reuss Voigt Hill
#
# Bulk Modulus (GPa) = 41.37082 54.21540 47.79311
# Shear Modulus (GPa) = 25.26275 29.85228 27.55752
#
# Velocity S-wave (km/s) = 3.62902 3.94492 3.79026
# Velocity P-wave (km/s) = 6.25515 7.00094 6.63852
#
# Compressibility (1/GPa) = 0.02417162
#
# Stress axis : x y z
#
# Youngs Moduli (GPa) = 55.34166 44.95259 94.21920
#
# Poissons Ratio (x) = 0.31455 0.23698
# Poissons Ratio (y) = 0.38724 0.36426
# Poissons Ratio (z) = 0.13920 0.17379
#
# Static dielectric constant tensor:
#      x y z
#    x 6.901480 -0.966900 -1.493140 
#    y -0.966900 3.756550 0.375360 
#    z -1.493140 0.375360 4.594750 
# 
# 
# High freq. dielectric constant tensor:
#      x y z
#    x 1.725210 -0.022270 0.005290 
#    y -0.022270 1.728130 -0.000740 
#    z 0.005290 -0.000740 1.775020 
# 
# From -- ./inp_files/281419.got.cif
#   From: 2010.06.25/outbox.cif.g09.slc.cpg/sg2_141_cif.got.tgz:281419.got - 2010.06.27 13:26:56.
