data_PCOD8029230
_publ_section_title
;
Structure prediction by ZEFSAII (Michael W. Deem and Ramdas Pophale) SiO2 
 PCOD8029230
Probable space group: P -1
;
_chemical_formula_sum "Si O2"
_cell_formula_units_Z 16
_cell_length_a 21.716929
_cell_length_b 10.048983
_cell_length_c 9.648473
_cell_angle_alpha 77.358221
_cell_angle_beta 117.214442
_cell_angle_gamma 47.139576
_cell_volume 799.317688
_symmetry_space_group_name_H-M "P -1"
_symmetry_group_IT_number 2
_symmetry_cell_setting 'triclinic'
loop_
_space_group_symop_operation_xyz
x,y,z
-x,-y,-z
loop_
_atom_site_type_symbol
_atom_site_label
_atom_site_fract_x
_atom_site_fract_y
_atom_site_fract_z
Si Si1 0.248639 0.195112 0.960679
Si Si2 0.232845 0.910024 0.983282
Si Si3 0.122488 0.828658 0.281831
Si Si4 0.886731 0.430445 0.526069
Si Si5 0.511197 0.436682 0.184116
Si Si6 0.817162 0.756400 0.624431
Si Si7 0.400047 0.493751 0.519305
Si Si8 0.986473 0.339112 0.156547
O O1 0.227991 0.314242 0.770367
O O2 0.143089 0.459399 0.904849
O O3 0.186501 0.150862 0.889950
O O4 0.432769 0.869477 0.268527
O O5 0.342116 0.687367 0.012540
O O6 0.325708 0.705263 0.264954
O O7 0.072280 0.110352 0.750839
O O8 0.154998 0.651700 0.465410
O O9 0.285095 0.576698 0.429370
O O10 0.060016 0.066549 0.250161
O O11 0.000000 0.000000 0.000000
O O12 0.851571 0.580316 0.590069
O O13 0.575592 0.445562 0.343048
O O14 0.631247 0.096914 0.390204
O O15 0.500000 0.500000 0.000000
O O16 0.876714 0.798892 0.619982
O O17 0.903181 0.562034 0.895274
#
# Coordination Sequence:
#
# PCOD8029230 Si02
#       8
#     2   2   2   2   2   2   2   2
#     4  11  24  39  64 100 129 164 215 276 324 371
#     4  11  21  40  66  96 131 168 212 266 321 380
#     4  12  24  45  65  93 130 179 216 258 324 394
#     4  12  25  41  67  96 134 171 213 266 328 383
#     4  11  23  36  62 100 133 159 208 273 327 369
#     4  11  20  38  63  98 120 163 218 265 306 376
#     4  11  22  43  68  92 130 176 212 263 324 388
#     4  11  22  38  67  91 124 163 221 262 311 382
#
# _framework density 20.017073
#
# number of rings (size 3 to 8) (size 9 to 14) (size 15 to 20)
#    0.000    0.750    5.000    4.875    1.750    1.000 
#    0.000    1.875    0.000    0.000    0.000    0.000 
#    0.000    0.000    0.000    0.000    0.000    0.000 
#
# Total GULP energy -198452.838736 kJ/mol
# GULP energy per Si atom -12403.302421 kJ/mol
# Density = 1.997151 g / cm^3
# Si number density = 20.017073 Si / 1000 Ang^3
#
#
#
# Elastic Constant Matrix: (Units=GPa)
#
#
# Indices 1 2 3 4 5 6 
#
# 1 116.6222 51.2472 20.6998 -5.1077 -11.7720 3.3573
# 2 51.2472 132.1745 14.0956 -13.1649 3.6582 -1.9355
# 3 20.6998 14.0956 64.8439 -8.5660 -18.1056 0.8368
# 4 -5.1077 -13.1649 -8.5660 27.7296 -7.2090 -3.1599
# 5 -11.7720 3.6582 -18.1056 -7.2090 40.0559 -7.4324
# 6 3.3573 -1.9355 0.8368 -3.1599 -7.4324 37.6320
#
#
#
# Elastic Compliance Matrix: (Units=1/GPa)
#
#
# Indices 1 2 3 4 5 6 
#
# 1 0.011019 -0.004147 -0.001840 0.000123 0.002694 -0.000613
# 2 -0.004147 0.009643 -0.000854 0.003183 -0.001764 0.000804
# 3 -0.001840 -0.000854 0.020292 0.008597 0.010722 0.002508
# 4 0.000123 0.003183 0.008597 0.044273 0.012749 0.006197
# 5 0.002694 -0.001764 0.010722 0.012749 0.034413 0.007298
# 6 -0.000613 0.000804 0.002508 0.006197 0.007298 0.028575
#
#
# Mechanical properties :
#
#
# Convention : Reuss Voigt Hill
#
# Bulk Modulus (GPa) = 36.67002 53.96953 45.31977
# Shear Modulus (GPa) = 29.24208 36.25670 32.74939
#
# Velocity S-wave (km/s) = 3.82626 4.26054 4.04923
# Velocity P-wave (km/s) = 6.15463 7.15704 6.67468
#
# Compressibility (1/GPa) = 0.02727024
#
# Stress axis : x y z
#
# Youngs Moduli (GPa) = 90.75557 103.70735 49.28100
#
# Poissons Ratio (x) = 0.43011 0.09066
# Poissons Ratio (y) = 0.37639 0.04211
# Poissons Ratio (z) = 0.16695 0.08862
#
# Static dielectric constant tensor:
#      x y z
#    x 3.811180 -0.181500 0.045560 
#    y -0.181500 3.666950 -0.216610 
#    z 0.045560 -0.216610 3.781660 
# 
# 
# High freq. dielectric constant tensor:
#      x y z
#    x 1.775440 -0.020690 -0.007350 
#    y -0.020690 1.781030 -0.012550 
#    z -0.007350 -0.012550 1.789200 
# 
# From -- ./inp_files/185811.got.cif
#   From: 2010.06.25/outbox.cif.g09.slc.cpg/sg2_93_cif.got.tgz:185811.got - 2010.06.27 13:26:56.
