data_PCOD8029417
_publ_section_title
;
Structure prediction by ZEFSAII (Michael W. Deem and Ramdas Pophale) SiO2 
 PCOD8029417
Probable space group: P -1
;
_chemical_formula_sum "Si O2"
_cell_formula_units_Z 16
_cell_length_a 11.248724
_cell_length_b 9.982525
_cell_length_c 13.707477
_cell_angle_alpha 99.469343
_cell_angle_beta 147.318690
_cell_angle_gamma 68.564978
_cell_volume 741.635426
_symmetry_space_group_name_H-M "P -1"
_symmetry_group_IT_number 2
_symmetry_cell_setting 'triclinic'
loop_
_space_group_symop_operation_xyz
x,y,z
-x,-y,-z
loop_
_atom_site_type_symbol
_atom_site_label
_atom_site_fract_x
_atom_site_fract_y
_atom_site_fract_z
Si Si1 0.357766 0.239050 0.779588
Si Si2 0.566988 0.649085 0.353258
Si Si3 0.580838 0.213232 0.131572
Si Si4 0.278968 0.096283 0.034138
Si Si5 0.265065 0.128604 0.399634
Si Si6 0.010637 0.836337 0.977099
Si Si7 0.191355 0.684533 0.541740
Si Si8 0.041195 0.958169 0.343447
O O1 0.354853 0.348592 0.704455
O O2 0.089397 0.266805 0.626211
O O3 0.506883 0.069362 0.824667
O O4 0.486751 0.274943 0.966238
O O5 0.676546 0.736129 0.508211
O O6 0.687074 0.475241 0.447726
O O7 0.277991 0.712977 0.172706
O O8 0.365173 0.198631 0.040539
O O9 0.665759 0.326324 0.259489
O O10 0.807260 0.049869 0.260438
O O11 0.187721 0.173422 0.085728
O O12 0.043169 0.090823 0.820409
O O13 0.053011 0.193118 0.179994
O O14 0.500000 0.000000 0.500000
O O15 0.180087 0.060998 0.425370
O O16 0.000000 0.000000 0.000000
O O17 0.220188 0.810965 0.508897
#
# Coordination Sequence:
#
# PCOD8029417 Si02
#       8
#     2   2   2   2   2   2   2   2
#     4  11  21  42  67  96 133 168 218 275 316 390
#     4  12  27  44  64 101 138 172 211 274 336 384
#     4  11  23  39  70  98 126 178 220 265 329 375
#     4  11  20  41  70  96 125 167 228 280 309 368
#     4  12  24  43  74  96 121 177 228 270 322 378
#     4  12  22  43  70  94 128 169 231 273 308 392
#     4  12  26  40  63 103 141 169 210 267 340 397
#     4  11  21  41  70  99 130 170 222 272 317 395
#
# _framework density 21.573943
#
# number of rings (size 3 to 8) (size 9 to 14) (size 15 to 20)
#    0.000    0.500    6.250    3.000    3.500    1.500 
#    0.000    3.125    0.000    0.000    0.000    0.000 
#    0.000    0.000    0.000    0.000    0.000    0.000 
#
# Total GULP energy -198491.417113 kJ/mol
# GULP energy per Si atom -12405.713570 kJ/mol
# Density = 2.152484 g / cm^3
# Si number density = 21.573943 Si / 1000 Ang^3
#
#
#
# Elastic Constant Matrix: (Units=GPa)
#
#
# Indices 1 2 3 4 5 6 
#
# 1 114.9666 39.9348 31.8106 -3.5401 3.7497 -6.6117
# 2 39.9348 106.9588 50.8326 11.4960 -6.3439 -11.8321
# 3 31.8106 50.8326 112.8834 15.8658 1.5916 -13.6577
# 4 -3.5401 11.4960 15.8658 25.5048 -7.8955 -4.3048
# 5 3.7497 -6.3439 1.5916 -7.8955 33.4069 1.5361
# 6 -6.6117 -11.8321 -13.6577 -4.3048 1.5361 15.7467
#
#
#
# Elastic Compliance Matrix: (Units=1/GPa)
#
#
# Indices 1 2 3 4 5 6 
#
# 1 0.010642 -0.003426 -0.001847 0.004165 -0.000842 0.001513
# 2 -0.003426 0.013543 -0.004328 -0.002458 0.002394 0.004078
# 3 -0.001847 -0.004328 0.012957 -0.006316 -0.002990 0.005775
# 4 0.004165 -0.002458 -0.006316 0.049293 0.010702 0.006855
# 5 -0.000842 0.002394 -0.002990 0.010702 0.033222 -0.001464
# 6 0.001513 0.004078 0.005775 0.006855 -0.001464 0.074231
#
#
# Mechanical properties :
#
#
# Convention : Reuss Voigt Hill
#
# Bulk Modulus (GPa) = 55.73950 64.44054 60.09002
# Shear Modulus (GPa) = 22.82387 29.08038 25.95212
#
# Velocity S-wave (km/s) = 3.25612 3.67541 3.47210
# Velocity P-wave (km/s) = 6.32685 6.92431 6.63231
#
# Compressibility (1/GPa) = 0.01794060
#
# Stress axis : x y z
#
# Youngs Moduli (GPa) = 93.96848 73.84059 77.18058
#
# Poissons Ratio (x) = 0.25297 0.14252
# Poissons Ratio (y) = 0.32193 0.33402
# Poissons Ratio (z) = 0.17352 0.31957
#
# Static dielectric constant tensor:
#      x y z
#    x 4.117330 -0.065360 -0.058140 
#    y -0.065360 3.589710 0.123410 
#    z -0.058140 0.123410 4.139140 
# 
# 
# High freq. dielectric constant tensor:
#      x y z
#    x 1.853330 -0.002060 -0.000440 
#    y -0.002060 1.813250 0.011010 
#    z -0.000440 0.011010 1.861410 
# 
# From -- ./inp_files/348968.got.cif
#   From: 2010.06.25/outbox.cif.g09.slc.cpg/sg2_175_cif.got.tgz:348968.got - 2010.06.27 13:26:56.
