data_PCOD8029614
_publ_section_title
;
Structure prediction by ZEFSAII (Michael W. Deem and Ramdas Pophale) SiO2 
 PCOD8029614
Probable space group: P -1
;
_chemical_formula_sum "Si O2"
_cell_formula_units_Z 16
_cell_length_a 13.468189
_cell_length_b 14.821152
_cell_length_c 10.892754
_cell_angle_alpha 68.369310
_cell_angle_beta 146.636128
_cell_angle_gamma 132.390043
_cell_volume 775.405615
_symmetry_space_group_name_H-M "P -1"
_symmetry_group_IT_number 2
_symmetry_cell_setting 'triclinic'
loop_
_space_group_symop_operation_xyz
x,y,z
-x,-y,-z
loop_
_atom_site_type_symbol
_atom_site_label
_atom_site_fract_x
_atom_site_fract_y
_atom_site_fract_z
Si Si1 0.336638 0.502770 0.416759
Si Si2 0.037510 0.042493 0.832920
Si Si3 0.399296 0.320882 0.940180
Si Si4 0.078686 0.687494 0.104082
Si Si5 0.499621 0.236626 0.633571
Si Si6 0.211455 0.933458 0.224334
Si Si7 0.216308 0.590396 0.917338
Si Si8 0.229508 0.449752 0.604292
O O1 0.500000 0.500000 0.500000
O O2 0.461510 0.655816 0.466476
O O3 0.340357 0.465931 0.576900
O O4 0.050631 0.388031 0.122747
O O5 0.924716 0.084761 0.781461
O O6 0.218781 0.158708 0.857817
O O7 0.801519 0.900796 0.588685
O O8 0.207309 0.026060 0.085611
O O9 0.577653 0.375636 0.978613
O O10 0.576778 0.402142 0.202482
O O11 0.215556 0.344104 0.718638
O O12 0.378759 0.797775 0.315378
O O13 0.029881 0.776361 0.062158
O O14 0.981851 0.569487 0.160959
O O15 0.630050 0.300139 0.868367
O O16 0.500000 0.000000 0.500000
O O17 0.051845 0.609370 0.667446
#
# Coordination Sequence:
#
# PCOD8029614 Si02
#       8
#     2   2   2   2   2   2   2   2
#     4  11  21  36  69 100 127 163 215 283 332 368
#     4  11  27  44  62  97 139 169 217 268 318 404
#     4  11  28  41  61  96 133 182 216 256 322 396
#     4  11  21  40  69 102 124 161 224 280 329 376
#     4  11  21  43  67 100 130 164 219 278 331 380
#     4  11  25  41  68  96 130 175 213 266 335 388
#     4  11  23  44  70  94 131 172 216 275 324 381
#     4  11  23  43  64  94 132 171 223 265 318 387
#
# _framework density 20.634361999999999
#
# number of rings (size 3 to 8) (size 9 to 14) (size 15 to 20)
#    0.000    1.000    3.750    3.375   10.500    1.500 
#    0.000    0.625    0.000    0.000    0.000    0.000 
#    0.000    0.000    0.000    0.000    0.000    0.000 
#
# Total GULP energy -198339.289619 kJ/mol
# GULP energy per Si atom -12396.205601 kJ/mol
# Density = 2.058740 g / cm^3
# Si number density = 20.634362 Si / 1000 Ang^3
#
#
#
# Elastic Constant Matrix: (Units=GPa)
#
#
# Indices 1 2 3 4 5 6 
#
# 1 96.6484 32.9204 33.7896 -1.3824 3.3504 -4.8037
# 2 32.9204 102.0388 55.7437 3.4910 -1.8744 0.0319
# 3 33.7896 55.7437 108.3445 -8.7921 5.3657 3.8693
# 4 -1.3824 3.4910 -8.7921 32.3471 -3.1360 3.9652
# 5 3.3504 -1.8744 5.3657 -3.1360 32.2781 -0.1679
# 6 -4.8037 0.0319 3.8693 3.9652 -0.1679 36.1119
#
#
#
# Elastic Compliance Matrix: (Units=1/GPa)
#
#
# Indices 1 2 3 4 5 6 
#
# 1 0.012236 -0.002580 -0.002525 -0.000218 -0.001011 0.001920
# 2 -0.002580 0.014713 -0.007181 -0.003558 0.001974 0.000813
# 3 -0.002525 -0.007181 0.014277 0.004636 -0.002090 -0.002378
# 4 -0.000218 -0.003558 0.004636 0.033279 0.002257 -0.004166
# 5 -0.001011 0.001974 -0.002090 0.002257 0.031767 -0.000012
# 6 0.001920 0.000813 -0.002378 -0.004166 -0.000012 0.028659
#
#
# Mechanical properties :
#
#
# Convention : Reuss Voigt Hill
#
# Bulk Modulus (GPa) = 60.04548 61.32656 60.68602
# Shear Modulus (GPa) = 30.29334 32.45263 31.37298
#
# Velocity S-wave (km/s) = 3.83574 3.97009 3.90349
# Velocity P-wave (km/s) = 6.98428 7.12745 7.05623
#
# Compressibility (1/GPa) = 0.01665404
#
# Stress axis : x y z
#
# Youngs Moduli (GPa) = 81.72876 67.96579 70.04506
#
# Poissons Ratio (x) = 0.17535 0.17684
# Poissons Ratio (y) = 0.21086 0.50299
# Poissons Ratio (z) = 0.20634 0.48806
#
# Static dielectric constant tensor:
#      x y z
#    x 3.662910 -0.171230 0.028850 
#    y -0.171230 3.641010 0.014420 
#    z 0.028850 0.014420 3.448680 
# 
# 
# High freq. dielectric constant tensor:
#      x y z
#    x 1.811910 -0.016780 0.002990 
#    y -0.016780 1.797810 -0.004250 
#    z 0.002990 -0.004250 1.818990 
# 
# From -- ./inp_files/455715.got.cif
#   From: 2010.06.25/outbox.cif.g09.slc.cpg/sg2_228_cif.got.tgz:455715.got - 2010.06.27 13:26:56.
