data_PCOD8029506
_publ_section_title
;
Structure prediction by ZEFSAII (Michael W. Deem and Ramdas Pophale) SiO2 
 PCOD8029506
Probable space group: P -1
;
_chemical_formula_sum "Si O2"
_cell_formula_units_Z 16
_cell_length_a 14.499425
_cell_length_b 9.243199
_cell_length_c 20.909307
_cell_angle_alpha 55.872789
_cell_angle_beta 160.926389
_cell_angle_gamma 123.174107
_cell_volume 756.552969
_symmetry_space_group_name_H-M "P -1"
_symmetry_group_IT_number 2
_symmetry_cell_setting 'triclinic'
loop_
_space_group_symop_operation_xyz
x,y,z
-x,-y,-z
loop_
_atom_site_type_symbol
_atom_site_label
_atom_site_fract_x
_atom_site_fract_y
_atom_site_fract_z
Si Si1 0.705075 0.037408 0.380897
Si Si2 0.666110 0.891049 0.085353
Si Si3 0.125347 0.800346 0.944539
Si Si4 0.875960 0.145463 0.927711
Si Si5 0.623775 0.578845 0.372333
Si Si6 0.841214 0.182447 0.301324
Si Si7 0.299325 0.499049 0.307185
Si Si8 0.130187 0.656925 0.504420
O O1 0.696891 0.069678 0.292102
O O2 0.672546 0.214895 0.354087
O O3 0.457706 0.896479 0.272040
O O4 0.997671 0.946332 0.609152
O O5 0.883225 0.764825 0.287930
O O6 0.824420 0.021417 0.105977
O O7 0.428334 0.756573 0.929340
O O8 0.500000 0.000000 0.000000
O O9 0.904674 0.676146 0.789536
O O10 0.991346 0.843441 0.916201
O O11 0.418983 0.706515 0.170284
O O12 0.901073 0.335808 0.863013
O O13 0.000000 0.000000 0.000000
O O14 0.500166 0.511048 0.374600
O O15 0.660767 0.408165 0.396079
O O16 0.941405 0.665552 0.567790
O O17 0.500000 0.500000 0.500000
O O18 0.000000 0.500000 0.500000
#
# Coordination Sequence:
#
# PCOD8029506 Si02
#       8
#     2   2   2   2   2   2   2   2
#     4  11  21  40  70  95 135 172 222 272 338 402
#     4  12  25  41  69  99 132 176 221 275 338 401
#     4  11  24  47  69  96 133 183 228 273 337 406
#     4  11  24  44  70 100 132 179 228 277 339 399
#     4  11  23  46  68  95 138 177 219 280 340 397
#     4  11  20  43  70  97 131 176 224 272 333 407
#     4  11  27  46  65  99 134 182 230 278 334 393
#     4  12  26  42  62 103 136 172 213 275 343 401
#
# _framework density 21.148553
#
# number of rings (size 3 to 8) (size 9 to 14) (size 15 to 20)
#    0.000    0.750    6.250    3.000    7.000    1.500 
#    0.000    1.250    0.000    0.000    0.000    0.000 
#    0.000    0.000    0.000    0.000    0.000    0.000 
#
# Total GULP energy -198343.655473 kJ/mol
# GULP energy per Si atom -12396.478467 kJ/mol
# Density = 2.110042 g / cm^3
# Si number density = 21.148553 Si / 1000 Ang^3
#
#
#
# Elastic Constant Matrix: (Units=GPa)
#
#
# Indices 1 2 3 4 5 6 
#
# 1 103.4266 41.4802 38.8560 -16.3344 0.6638 -17.8951
# 2 41.4802 108.3391 43.9171 6.3728 -10.6902 -12.8543
# 3 38.8560 43.9171 104.4066 2.2827 -14.4561 2.7269
# 4 -16.3344 6.3728 2.2827 46.3633 -3.4716 0.6417
# 5 0.6638 -10.6902 -14.4561 -3.4716 27.4096 -5.3514
# 6 -17.8951 -12.8543 2.7269 0.6417 -5.3514 46.2355
#
#
#
# Elastic Compliance Matrix: (Units=1/GPa)
#
#
# Indices 1 2 3 4 5 6 
#
# 1 0.014528 -0.003843 -0.004387 0.005607 -0.002588 0.004436
# 2 -0.003843 0.012977 -0.003560 -0.002741 0.003470 0.002770
# 3 -0.004387 -0.003560 0.013521 -0.001299 0.005123 -0.002874
# 4 0.005607 -0.002741 -0.001299 0.024073 0.001416 0.001315
# 5 -0.002588 0.003470 0.005123 0.001416 0.041652 0.004462
# 6 0.004436 0.002770 -0.002874 0.001315 0.004462 0.024783
#
#
# Mechanical properties :
#
#
# Convention : Reuss Voigt Hill
#
# Bulk Modulus (GPa) = 57.32172 62.74211 60.03191
# Shear Modulus (GPa) = 31.06941 36.79628 33.93285
#
# Velocity S-wave (km/s) = 3.83705 4.17573 4.00997
# Velocity P-wave (km/s) = 6.84059 7.27879 7.06309
#
# Compressibility (1/GPa) = 0.01744539
#
# Stress axis : x y z
#
# Youngs Moduli (GPa) = 68.83388 77.05801 73.95868
#
# Poissons Ratio (x) = 0.29612 0.32446
# Poissons Ratio (y) = 0.26452 0.26333
# Poissons Ratio (z) = 0.30197 0.27436
#
# Static dielectric constant tensor:
#      x y z
#    x 3.657580 -0.430580 0.151300 
#    y -0.430580 3.982930 0.218360 
#    z 0.151300 0.218360 3.703730 
# 
# 
# High freq. dielectric constant tensor:
#      x y z
#    x 1.835050 -0.007100 -0.005900 
#    y -0.007100 1.835350 0.018600 
#    z -0.005900 0.018600 1.821780 
# 
# From -- ./inp_files/271876.got.cif
#   From: 2010.06.25/outbox.cif.g09.slc.cpg/sg2_136_cif.got.tgz:271876.got - 2010.06.27 13:26:56.
