data_PCOD8029585
_publ_section_title
;
Structure prediction by ZEFSAII (Michael W. Deem and Ramdas Pophale) SiO2 
 PCOD8029585
Probable space group: P -1
;
_chemical_formula_sum "Si O2"
_cell_formula_units_Z 16
_cell_length_a 10.078568
_cell_length_b 24.905280
_cell_length_c 11.146150
_cell_angle_alpha 29.654408
_cell_angle_beta 34.812758
_cell_angle_gamma 31.325802
_cell_volume 685.188042
_symmetry_space_group_name_H-M "P -1"
_symmetry_group_IT_number 2
_symmetry_cell_setting 'triclinic'
loop_
_space_group_symop_operation_xyz
x,y,z
-x,-y,-z
loop_
_atom_site_type_symbol
_atom_site_label
_atom_site_fract_x
_atom_site_fract_y
_atom_site_fract_z
Si Si1 0.402171 0.882604 0.970287
Si Si2 0.967957 0.124305 0.220072
Si Si3 0.631058 0.695455 0.624756
Si Si4 0.034959 0.202401 0.400543
Si Si5 0.260603 0.265738 0.796321
Si Si6 0.217830 0.563246 0.021790
Si Si7 0.850280 0.062238 0.189757
Si Si8 0.715856 0.852676 0.438374
O O1 0.689011 0.856003 0.762209
O O2 0.242992 0.864073 0.012604
O O3 0.240207 0.028406 0.856441
O O4 0.477142 0.783795 0.215292
O O5 0.683111 0.242756 0.234806
O O6 0.000282 0.107933 0.082464
O O7 0.000000 0.000000 0.500000
O O8 0.194635 0.152742 0.045491
O O9 0.666186 0.696178 0.455551
O O10 0.784059 0.549127 0.834430
O O11 0.767285 0.765342 0.454871
O O12 0.076604 0.233274 0.445822
O O13 0.965531 0.088471 0.680268
O O14 0.812160 0.327548 0.257974
O O15 0.013431 0.386142 0.805188
O O16 0.500000 0.500000 0.000000
O O17 0.585860 0.088364 0.407249
#
# Coordination Sequence:
#
# PCOD8029585 Si02
#       8
#     2   2   2   2   2   2   2   2
#     4   8  15  31  55  81 113 149 178 225 285 335
#     4  11  21  35  59  88 115 149 186 231 288 336
#     4  11  23  36  57  85 115 149 191 234 281 333
#     4   8  15  30  55  81 107 146 187 228 272 335
#     4  11  22  38  59  83 118 150 189 237 278 334
#     4  11  21  37  57  80 109 152 197 232 278 329
#     4   8  15  30  56  84 113 143 183 227 281 340
#     4   8  15  30  53  84 109 138 185 227 280 339
#
# _framework density 23.351253
#
# number of rings (size 3 to 8) (size 9 to 14) (size 15 to 20)
#    0.000    2.500    1.250    4.875    0.000    2.500 
#    0.000    0.000    2.750    3.000    0.000    0.000 
#    0.000    0.000    0.000    0.000    0.000    0.000 
#
# Total GULP energy -198323.376770 kJ/mol
# GULP energy per Si atom -12395.211048 kJ/mol
# Density = 2.329810 g / cm^3
# Si number density = 23.351253 Si / 1000 Ang^3
#
#
#
# Elastic Constant Matrix: (Units=GPa)
#
#
# Indices 1 2 3 4 5 6 
#
# 1 138.1908 59.4060 42.7358 -17.0791 38.3949 10.9511
# 2 59.4060 117.1489 31.5545 -19.7340 17.5266 5.7433
# 3 42.7358 31.5545 92.5815 -26.5155 16.0308 4.6458
# 4 -17.0791 -19.7340 -26.5155 32.7525 -2.3073 -1.8794
# 5 38.3949 17.5266 16.0308 -2.3073 36.5089 -2.5204
# 6 10.9511 5.7433 4.6458 -1.8794 -2.5204 35.7952
#
#
#
# Elastic Compliance Matrix: (Units=1/GPa)
#
#
# Indices 1 2 3 4 5 6 
#
# 1 0.013250 -0.003978 -0.002105 0.001795 -0.011252 -0.003840
# 2 -0.003978 0.011610 -0.000746 0.004237 -0.000821 -0.000384
# 3 -0.002105 -0.000746 0.015875 0.010983 -0.003773 -0.000986
# 4 0.001795 0.004237 0.010983 0.042432 -0.006122 -0.000858
# 5 -0.011252 -0.000821 -0.003773 -0.006122 0.041347 0.006654
# 6 -0.003840 -0.000384 -0.000986 -0.000858 0.006654 0.029725
#
#
# Mechanical properties :
#
#
# Convention : Reuss Voigt Hill
#
# Bulk Modulus (GPa) = 36.93111 68.36820 52.64966
# Shear Modulus (GPa) = 28.26101 35.29299 31.77700
#
# Velocity S-wave (km/s) = 3.48265 3.89189 3.69294
# Velocity P-wave (km/s) = 5.65876 7.03828 6.38588
#
# Compressibility (1/GPa) = 0.02707744
#
# Stress axis : x y z
#
# Youngs Moduli (GPa) = 75.47243 86.13533 62.99016
#
# Poissons Ratio (x) = 0.34263 0.13261
# Poissons Ratio (y) = 0.30022 0.04697
# Poissons Ratio (z) = 0.15889 0.06423
#
# Static dielectric constant tensor:
#      x y z
#    x 4.606330 0.154660 0.049080 
#    y 0.154660 4.535460 -0.141280 
#    z 0.049080 -0.141280 4.532090 
# 
# 
# High freq. dielectric constant tensor:
#      x y z
#    x 1.933740 -0.005620 0.003750 
#    y -0.005620 1.928550 0.025250 
#    z 0.003750 0.025250 1.919760 
# 
# From -- ./inp_files/439371.got.cif
#   From: 2010.06.25/outbox.cif.g09.slc.cpg/sg2_220_cif.got.tgz:439371.got - 2010.06.27 13:26:56.
