data_PCOD8029036
_publ_section_title
;
Structure prediction by ZEFSAII (Michael W. Deem and Ramdas Pophale) SiO2 
 PCOD8029036
Probable space group: P -1
;
_chemical_formula_sum "Si O2"
_cell_formula_units_Z 16
_cell_length_a 9.447588
_cell_length_b 13.210945
_cell_length_c 8.072099
_cell_angle_alpha 113.386239
_cell_angle_beta 113.215981
_cell_angle_gamma 47.416194
_cell_volume 669.000620
_symmetry_space_group_name_H-M "P -1"
_symmetry_group_IT_number 2
_symmetry_cell_setting 'triclinic'
loop_
_space_group_symop_operation_xyz
x,y,z
-x,-y,-z
loop_
_atom_site_type_symbol
_atom_site_label
_atom_site_fract_x
_atom_site_fract_y
_atom_site_fract_z
Si Si1 0.985539 0.339251 0.860024
Si Si2 0.840801 0.818942 0.631145
Si Si3 0.015773 0.851190 0.022146
Si Si4 0.417483 0.265002 0.547046
Si Si5 0.728057 0.619209 0.089676
Si Si6 0.407789 0.610433 0.878720
Si Si7 0.867037 0.026667 0.609074
Si Si8 0.783433 0.451496 0.501584
O O1 0.001721 0.210810 0.857077
O O2 0.828549 0.402650 0.680480
O O3 0.198432 0.290527 0.866673
O O4 0.910325 0.454670 0.045338
O O5 0.639576 0.838926 0.554155
O O6 0.017068 0.652786 0.582264
O O7 0.851538 0.901096 0.537044
O O8 0.837817 0.893069 0.847796
O O9 0.027926 0.971749 0.172866
O O10 0.202713 0.746873 0.929311
O O11 0.344412 0.353069 0.738857
O O12 0.651335 0.173706 0.580907
O O13 0.300519 0.386309 0.432663
O O14 0.546143 0.653103 0.920577
O O15 0.383401 0.552280 0.659743
O O16 0.500000 0.500000 0.000000
O O17 0.000000 0.000000 0.500000
#
# Coordination Sequence:
#
# PCOD8029036 Si02
#       8
#     2   2   2   2   2   2   2   2
#     4  11  24  38  64 109 146 173 223 291 341 395
#     4  11  25  46  73 101 138 185 230 273 359 413
#     4  11  23  45  69  93 138 186 226 282 339 413
#     4  12  24  46  73 100 140 185 227 277 354 416
#     4  11  22  39  64  98 145 180 218 280 346 404
#     4  11  19  40  62  95 134 184 222 267 343 407
#     4  12  27  50  70  99 135 183 235 293 337 408
#     4  11  23  40  71 108 138 175 227 289 337 412
#
# _framework density 23.916270999999998
#
# number of rings (size 3 to 8) (size 9 to 14) (size 15 to 20)
#    0.000    0.750    5.000    2.625    3.500    0.500 
#    4.500    0.625    0.000    0.000    0.000    0.000 
#    0.000    0.000    0.000    0.000    0.000    0.000 
#
# Total GULP energy -198354.969485 kJ/mol
# GULP energy per Si atom -12397.185593 kJ/mol
# Density = 2.386184 g / cm^3
# Si number density = 23.916271 Si / 1000 Ang^3
#
#
#
# Elastic Constant Matrix: (Units=GPa)
#
#
# Indices 1 2 3 4 5 6 
#
# 1 117.1158 29.1902 41.8759 -8.7180 17.1544 3.7560
# 2 29.1902 70.4415 22.6339 -0.0694 -0.8143 10.5446
# 3 41.8759 22.6339 112.5967 -6.0854 14.7937 0.8025
# 4 -8.7180 -0.0694 -6.0854 29.3063 2.1822 1.0295
# 5 17.1544 -0.8143 14.7937 2.1822 42.8007 7.4846
# 6 3.7560 10.5446 0.8025 1.0295 7.4846 32.7352
#
#
#
# Elastic Compliance Matrix: (Units=1/GPa)
#
#
# Indices 1 2 3 4 5 6 
#
# 1 0.011280 -0.003973 -0.002717 0.003047 -0.003964 0.000863
# 2 -0.003973 0.017637 -0.002644 -0.001775 0.003984 -0.006016
# 3 -0.002717 -0.002644 0.010905 0.001625 -0.003085 0.001550
# 4 0.003047 -0.001775 0.001625 0.035635 -0.003614 -0.000112
# 5 -0.003964 0.003984 -0.003085 -0.003614 0.027490 -0.006925
# 6 0.000863 -0.006016 0.001550 -0.000112 -0.006925 0.033936
#
#
# Mechanical properties :
#
#
# Convention : Reuss Voigt Hill
#
# Bulk Modulus (GPa) = 47.27395 54.17266 50.72330
# Shear Modulus (GPa) = 30.74964 34.73205 32.74084
#
# Velocity S-wave (km/s) = 3.58958 3.81495 3.70398
# Velocity P-wave (km/s) = 6.08190 6.48886 6.28867
#
# Compressibility (1/GPa) = 0.02115330
#
# Stress axis : x y z
#
# Youngs Moduli (GPa) = 88.65153 56.69874 91.69762
#
# Poissons Ratio (x) = 0.22528 0.24916
# Poissons Ratio (y) = 0.35223 0.24247
# Poissons Ratio (z) = 0.24089 0.14992
#
# Static dielectric constant tensor:
#      x y z
#    x 4.554690 0.056550 0.372550 
#    y 0.056550 3.971280 0.024340 
#    z 0.372550 0.024340 4.631020 
# 
# 
# High freq. dielectric constant tensor:
#      x y z
#    x 1.952710 0.009720 0.015420 
#    y 0.009720 1.914010 0.004690 
#    z 0.015420 0.004690 1.962290 
# 
# From -- ./inp_files/190281.got.cif
#   From: 2010.06.25/outbox.cif.g09.slc.cpg/sg2_96_cif.got.tgz:190281.got - 2010.06.27 13:26:56.
