data_PCOD8029138
_publ_section_title
;
Structure prediction by ZEFSAII (Michael W. Deem and Ramdas Pophale) SiO2 
 PCOD8029138
Probable space group: P -1
;
_chemical_formula_sum "Si O2"
_cell_formula_units_Z 12
_cell_length_a 10.589200
_cell_length_b 6.663825
_cell_length_c 9.396411
_cell_angle_alpha 84.414831
_cell_angle_beta 118.174151
_cell_angle_gamma 109.281450
_cell_volume 550.338277
_symmetry_space_group_name_H-M "P -1"
_symmetry_group_IT_number 2
_symmetry_cell_setting 'triclinic'
loop_
_space_group_symop_operation_xyz
x,y,z
-x,-y,-z
loop_
_atom_site_type_symbol
_atom_site_label
_atom_site_fract_x
_atom_site_fract_y
_atom_site_fract_z
Si Si1 0.496033 0.435803 0.839682
Si Si2 0.701847 0.164170 0.006350
Si Si3 0.776313 0.925942 0.301053
Si Si4 0.095195 0.935678 0.348546
Si Si5 0.253681 0.172652 0.151542
Si Si6 0.056741 0.420850 0.895179
O O1 0.573134 0.252842 0.873980
O O2 0.320157 0.324770 0.705882
O O3 0.579964 0.644837 0.773924
O O4 0.500000 0.500000 0.000000
O O5 0.745619 0.049209 0.901091
O O6 0.834914 0.363488 0.130405
O O7 0.664535 0.007170 0.133611
O O8 0.933490 0.958378 0.301408
O O9 0.805818 0.049957 0.457933
O O10 0.071467 0.705356 0.277616
O O11 0.187831 0.126425 0.279216
O O12 0.143114 0.254393 0.990308
O O13 0.000000 0.500000 0.000000
#
# Coordination Sequence:
#
# PCOD8029138 Si02
#       6
#     2   2   2   2   2   2
#     4  11  23  41  68  96 118 167 220 255 309 376
#     4  11  21  39  69  90 123 169 212 261 303 376
#     4  11  23  41  64  94 132 163 205 262 322 366
#     4  11  23  41  63  96 131 164 202 265 319 369
#     4  11  22  40  68  93 123 166 218 255 307 374
#     4  11  20  35  66  95 121 162 217 254 305 371
#
# _framework density 21.804773999999998
#
# number of rings (size 3 to 8) (size 9 to 14) (size 15 to 20)
#    0.000    1.000    5.000    3.000    0.000    1.333 
#    0.000    2.500    0.000    0.000    0.000    0.000 
#    0.000    0.000    0.000    0.000    0.000    0.000 
#
# Total GULP energy -148712.762110 kJ/mol
# GULP energy per Si atom -12392.730176 kJ/mol
# Density = 2.175515 g / cm^3
# Si number density = 21.804774 Si / 1000 Ang^3
#
#
#
# Elastic Constant Matrix: (Units=GPa)
#
#
# Indices 1 2 3 4 5 6 
#
# 1 92.8082 60.1625 28.9551 10.2214 -22.7300 18.6733
# 2 60.1625 115.5912 35.6018 15.7405 -17.1302 11.8433
# 3 28.9551 35.6018 87.0171 21.6297 -26.4160 7.7850
# 4 10.2214 15.7405 21.6297 32.7485 -6.0351 -0.9374
# 5 -22.7300 -17.1302 -26.4160 -6.0351 25.8656 -3.0184
# 6 18.6733 11.8433 7.7850 -0.9374 -3.0184 57.6630
#
#
#
# Elastic Compliance Matrix: (Units=1/GPa)
#
#
# Indices 1 2 3 4 5 6 
#
# 1 0.019728 -0.008247 0.001133 -0.000785 0.012357 -0.004214
# 2 -0.008247 0.013922 -0.002756 -0.002559 -0.001431 0.000067
# 3 0.001133 -0.002756 0.019839 -0.009026 0.017124 -0.001730
# 4 -0.000785 -0.002559 -0.009026 0.037574 -0.002547 0.002476
# 5 0.012357 -0.001431 0.017124 -0.002547 0.065157 -0.002650
# 6 -0.004214 0.000067 -0.001730 0.002476 -0.002650 0.018828
#
#
# Mechanical properties :
#
#
# Convention : Reuss Voigt Hill
#
# Bulk Modulus (GPa) = 29.63044 60.53948 45.08496
# Shear Modulus (GPa) = 24.26729 34.63525 29.45127
#
# Velocity S-wave (km/s) = 3.33969 3.98983 3.67915
# Velocity P-wave (km/s) = 5.33758 7.00354 6.22653
#
# Compressibility (1/GPa) = 0.03374908
#
# Stress axis : x y z
#
# Youngs Moduli (GPa) = 50.68866 71.82873 50.40500
#
# Poissons Ratio (x) = 0.59238 -0.05711
# Poissons Ratio (y) = 0.41804 0.13892
# Poissons Ratio (z) = -0.05743 0.19797
#
# Static dielectric constant tensor:
#      x y z
#    x 4.072980 0.474840 -0.040210 
#    y 0.474840 4.450180 0.256200 
#    z -0.040210 0.256200 3.611290 
# 
# 
# High freq. dielectric constant tensor:
#      x y z
#    x 1.863790 0.019010 -0.016680 
#    y 0.019010 1.873470 0.021150 
#    z -0.016680 0.021150 1.817060 
# 
# From -- ./inp_files/24054.got.cif
#   From: 2010.06.25/outbox.cif.g09.slc.cpg/sg2_13_cif.got.tgz:24054.got - 2010.06.27 13:26:56.
