data_PCOD8029069
_publ_section_title
;
Structure prediction by ZEFSAII (Michael W. Deem and Ramdas Pophale) SiO2 
 PCOD8029069
Probable space group: P -1
;
_chemical_formula_sum "Si O2"
_cell_formula_units_Z 16
_cell_length_a 18.999164
_cell_length_b 21.083589
_cell_length_c 9.426553
_cell_angle_alpha 27.774201
_cell_angle_beta 29.456740
_cell_angle_gamma 28.678631
_cell_volume 765.350934
_symmetry_space_group_name_H-M "P -1"
_symmetry_group_IT_number 2
_symmetry_cell_setting 'triclinic'
loop_
_space_group_symop_operation_xyz
x,y,z
-x,-y,-z
loop_
_atom_site_type_symbol
_atom_site_label
_atom_site_fract_x
_atom_site_fract_y
_atom_site_fract_z
Si Si1 0.724275 0.663798 0.256650
Si Si2 0.586420 0.210027 0.269212
Si Si3 0.146371 0.081791 0.740476
Si Si4 0.099794 0.879591 0.445932
Si Si5 0.818626 0.331156 0.693100
Si Si6 0.461719 0.673726 0.194046
Si Si7 0.259767 0.309115 0.160252
Si Si8 0.034411 0.644144 0.887465
O O1 0.563932 0.773579 0.406460
O O2 0.772193 0.486003 0.556867
O O3 0.705290 0.696449 0.058261
O O4 0.865328 0.697701 0.000045
O O5 0.705083 0.028098 0.404144
O O6 0.678322 0.283419 0.055756
O O7 0.528838 0.296395 0.048491
O O8 0.210804 0.174454 0.546315
O O9 0.994353 0.199868 0.685565
O O10 0.088181 0.973658 0.138302
O O11 0.286642 0.781277 0.356044
O O12 0.018211 0.766709 0.793522
O O13 0.000000 0.000000 0.500000
O O14 0.827733 0.361288 0.450749
O O15 0.500000 0.500000 0.500000
O O16 0.583001 0.720602 0.968833
O O17 0.108803 0.469504 0.159821
#
# Coordination Sequence:
#
# PCOD8029069 Si02
#       8
#     2   2   2   2   2   2   2   2
#     4  11  23  39  67 102 126 161 225 268 308 377
#     4  11  25  38  62  99 135 164 210 275 320 368
#     4  11  23  41  65  93 126 172 210 259 333 371
#     4  11  26  42  64  95 129 168 218 264 318 384
#     4  11  19  42  67  90 128 174 210 257 322 385
#     4  11  22  44  65  86 131 180 211 253 326 385
#     4  11  22  41  70  92 128 174 215 257 320 390
#     4  11  20  44  68  91 128 170 212 268 312 379
#
# _framework density 20.905441
#
# number of rings (size 3 to 8) (size 9 to 14) (size 15 to 20)
#    0.000    1.000    6.250    2.250    0.000    6.500 
#    0.000    1.250    0.000    0.000    0.000    0.000 
#    0.000    0.000    0.000    0.000    0.000    0.000 
#
# Total GULP energy -198409.319444 kJ/mol
# GULP energy per Si atom -12400.582465 kJ/mol
# Density = 2.085786 g / cm^3
# Si number density = 20.905441 Si / 1000 Ang^3
#
#
#
# Elastic Constant Matrix: (Units=GPa)
#
#
# Indices 1 2 3 4 5 6 
#
# 1 111.1428 38.3277 27.5078 2.9404 -31.3672 -2.5188
# 2 38.3277 126.2930 28.4668 2.8761 2.0337 12.4184
# 3 27.5078 28.4668 64.8643 -1.8003 -24.9822 7.1066
# 4 2.9404 2.8761 -1.8003 37.6680 3.5167 -1.5938
# 5 -31.3672 2.0337 -24.9822 3.5167 36.3099 -2.6913
# 6 -2.5188 12.4184 7.1066 -1.5938 -2.6913 36.9138
#
#
#
# Elastic Compliance Matrix: (Units=1/GPa)
#
#
# Indices 1 2 3 4 5 6 
#
# 1 0.014644 -0.005218 0.001088 -0.001864 0.014131 0.003495
# 2 -0.005218 0.011392 -0.006078 -0.000014 -0.009602 -0.003719
# 3 0.001088 -0.006078 0.024797 -0.000197 0.018261 -0.001332
# 4 -0.001864 -0.000014 -0.000197 0.027120 -0.004315 0.000772
# 5 0.014131 -0.009602 0.018261 -0.004315 0.053594 0.004400
# 6 0.003495 -0.003719 -0.001332 0.000772 0.004400 0.029190
#
#
# Mechanical properties :
#
#
# Convention : Reuss Voigt Hill
#
# Bulk Modulus (GPa) = 32.87715 54.54494 43.71104
# Shear Modulus (GPa) = 26.13772 36.04484 31.09128
#
# Velocity S-wave (km/s) = 3.53977 4.15683 3.86065
# Velocity P-wave (km/s) = 5.69801 7.01334 6.38961
#
# Compressibility (1/GPa) = 0.03041626
#
# Stress axis : x y z
#
# Youngs Moduli (GPa) = 68.28520 87.77806 40.32806
#
# Poissons Ratio (x) = 0.45805 -0.04386
# Poissons Ratio (y) = 0.35633 0.24511
# Poissons Ratio (z) = -0.07426 0.53350
#
# Static dielectric constant tensor:
#      x y z
#    x 3.833070 0.127880 -0.199760 
#    y 0.127880 4.192600 -0.212820 
#    z -0.199760 -0.212820 3.916060 
# 
# 
# High freq. dielectric constant tensor:
#      x y z
#    x 1.810920 -0.005150 -0.025650 
#    y -0.005150 1.829390 -0.014230 
#    z -0.025650 -0.014230 1.813250 
# 
# From -- ./inp_files/189897.got.cif
#   From: 2010.06.25/outbox.cif.g09.slc.cpg/sg2_95_cif.got.tgz:189897.got - 2010.06.27 13:26:56.
