data_PCOD8029243
_publ_section_title
;
Structure prediction by ZEFSAII (Michael W. Deem and Ramdas Pophale) SiO2 
 PCOD8029243
Probable space group: P -1
;
_chemical_formula_sum "Si O2"
_cell_formula_units_Z 14
_cell_length_a 16.454851
_cell_length_b 9.914878
_cell_length_c 9.416357
_cell_angle_alpha 105.314053
_cell_angle_beta 125.735153
_cell_angle_gamma 36.767878
_cell_volume 677.637146
_symmetry_space_group_name_H-M "P -1"
_symmetry_group_IT_number 2
_symmetry_cell_setting 'triclinic'
loop_
_space_group_symop_operation_xyz
x,y,z
-x,-y,-z
loop_
_atom_site_type_symbol
_atom_site_label
_atom_site_fract_x
_atom_site_fract_y
_atom_site_fract_z
Si Si1 0.339155 0.586793 0.902975
Si Si2 0.823742 0.352895 0.512096
Si Si3 0.040824 0.038935 0.911885
Si Si4 0.436165 0.939981 0.000938
Si Si5 0.919613 0.706159 0.873114
Si Si6 0.035210 0.392745 0.656591
Si Si7 0.465507 0.905414 0.346979
O O1 0.199749 0.722853 0.668562
O O2 0.239109 0.773543 0.985961
O O3 0.500000 0.500000 0.000000
O O4 0.421428 0.344485 0.967029
O O5 0.922661 0.383202 0.575698
O O6 0.628749 0.611811 0.444404
O O7 0.916196 0.159835 0.680045
O O8 0.002759 0.238760 0.978999
O O9 0.000000 0.000000 0.000000
O O10 0.241027 0.113326 0.804764
O O11 0.500000 0.000000 0.000000
O O12 0.432645 0.987101 0.174294
O O13 0.982676 0.588095 0.750213
O O14 0.708045 0.968543 0.733523
O O15 0.000000 0.500000 0.000000
O O16 0.000000 0.500000 0.500000
O O17 0.500000 0.000000 0.500000
#
# Coordination Sequence:
#
# PCOD8029243 Si02
#       7
#     2   2   2   2   2   2   2
#     4  11  25  48  70  95 141 187 227 278 349 419
#     4  11  23  44  71  98 135 188 226 279 342 417
#     4  12  27  45  68 104 140 180 228 288 348 409
#     4  11  25  41  68  99 135 175 230 282 332 402
#     4  12  23  45  72  96 139 179 225 288 344 400
#     4  12  24  42  72 105 134 177 239 284 335 406
#     4  11  20  38  66 101 129 172 222 280 343 391
#
# _framework density 20.660024
#
# number of rings (size 3 to 8) (size 9 to 14) (size 15 to 20)
#    0.000    0.571    4.286    4.714    4.000    0.000 
#    0.000    1.429    0.000    0.000    0.000    0.000 
#    0.000    0.000    0.000    0.000    0.000    0.000 
#
# Total GULP energy -173570.883077 kJ/mol
# GULP energy per Si atom -12397.920220 kJ/mol
# Density = 2.061300 g / cm^3
# Si number density = 20.660024 Si / 1000 Ang^3
#
#
#
# Elastic Constant Matrix: (Units=GPa)
#
#
# Indices 1 2 3 4 5 6 
#
# 1 104.1843 48.4642 53.9414 -9.4917 -11.1945 2.9812
# 2 48.4642 103.2487 50.7129 11.5390 -14.5070 -5.0510
# 3 53.9414 50.7129 131.1655 -2.7795 -12.3176 -0.4675
# 4 -9.4917 11.5390 -2.7795 45.1440 -0.9872 4.3325
# 5 -11.1945 -14.5070 -12.3176 -0.9872 42.2418 0.4858
# 6 2.9812 -5.0510 -0.4675 4.3325 0.4858 39.8175
#
#
#
# Elastic Compliance Matrix: (Units=1/GPa)
#
#
# Indices 1 2 3 4 5 6 
#
# 1 0.014693 -0.005549 -0.003712 0.004527 0.001039 -0.002353
# 2 -0.005549 0.015072 -0.003411 -0.005447 0.002551 0.002849
# 3 -0.003712 -0.003411 0.010574 0.000775 0.000948 -0.000127
# 4 0.004527 -0.005447 0.000775 0.024905 0.000180 -0.003733
# 5 0.001039 0.002551 0.000948 0.000180 0.025106 -0.000069
# 6 -0.002353 0.002849 -0.000127 -0.003733 -0.000069 0.026058
#
#
# Mechanical properties :
#
#
# Convention : Reuss Voigt Hill
#
# Bulk Modulus (GPa) = 66.68684 71.64840 69.16762
# Shear Modulus (GPa) = 34.07161 37.80597 35.93879
#
# Velocity S-wave (km/s) = 4.06539 4.28238 4.17530
# Velocity P-wave (km/s) = 7.37460 7.69459 7.53630
#
# Compressibility (1/GPa) = 0.01499546
#
# Stress axis : x y z
#
# Youngs Moduli (GPa) = 68.06088 66.34921 94.56865
#
# Poissons Ratio (x) = 0.36814 0.35104
# Poissons Ratio (y) = 0.37764 0.32258
# Poissons Ratio (z) = 0.25264 0.22633
#
# Static dielectric constant tensor:
#      x y z
#    x 3.752520 -0.198480 -0.067500 
#    y -0.198480 3.905700 -0.062130 
#    z -0.067500 -0.062130 4.195820 
# 
# 
# High freq. dielectric constant tensor:
#      x y z
#    x 1.796920 -0.011300 0.004820 
#    y -0.011300 1.828640 0.000700 
#    z 0.004820 0.000700 1.823560 
# 
# From -- ./inp_files/176449.got.cif
#   From: 2010.06.25/outbox.cif.g09.slc.cpg/sg2_89_cif.got.tgz:176449.got - 2010.06.27 13:26:56.
