data_PCOD8029059
_publ_section_title
;
Structure prediction by ZEFSAII (Michael W. Deem and Ramdas Pophale) SiO2 
 PCOD8029059
Probable space group: P -1
;
_chemical_formula_sum "Si O2"
_cell_formula_units_Z 16
_cell_length_a 9.055881
_cell_length_b 11.656221
_cell_length_c 13.961098
_cell_angle_alpha 125.942993
_cell_angle_beta 109.530991
_cell_angle_gamma 40.562066
_cell_volume 758.206882
_symmetry_space_group_name_H-M "P -1"
_symmetry_group_IT_number 2
_symmetry_cell_setting 'triclinic'
loop_
_space_group_symop_operation_xyz
x,y,z
-x,-y,-z
loop_
_atom_site_type_symbol
_atom_site_label
_atom_site_fract_x
_atom_site_fract_y
_atom_site_fract_z
Si Si1 0.200015 0.331426 0.534889
Si Si2 0.618766 0.002652 0.341252
Si Si3 0.317762 0.470313 0.252535
Si Si4 0.972655 0.820458 0.475972
Si Si5 0.807840 0.188959 0.737005
Si Si6 0.740009 0.014305 0.169732
Si Si7 0.646692 0.666539 0.233545
Si Si8 0.057621 0.390501 0.060455
O O1 0.435292 0.204906 0.467232
O O2 0.171442 0.186973 0.489107
O O3 0.219378 0.416012 0.675068
O O4 0.000000 0.500000 0.500000
O O5 0.870844 0.880815 0.375143
O O6 0.599789 0.064040 0.258708
O O7 0.574940 0.866169 0.274304
O O8 0.301436 0.601218 0.233372
O O9 0.159713 0.440510 0.178003
O O10 0.235992 0.589197 0.397775
O O11 0.586395 0.240825 0.199973
O O12 0.945623 0.995284 0.597231
O O13 0.591381 0.261185 0.778284
O O14 0.999057 0.104616 0.815279
O O15 0.760429 0.859932 0.033410
O O16 0.825487 0.481480 0.104446
O O17 0.000000 0.500000 0.000000
#
# Coordination Sequence:
#
# PCOD8029059 Si02
#       8
#     2   2   2   2   2   2   2   2
#     4  11  21  36  64 103 136 168 226 277 328 395
#     4  11  19  41  66  93 128 179 223 268 330 388
#     4  12  25  44  67  99 133 175 227 275 327 397
#     4  11  20  40  66  96 137 176 213 272 340 400
#     4  12  24  43  65  98 144 172 209 273 351 405
#     4  12  27  43  69  98 131 181 228 275 328 390
#     4  11  22  41  71  94 130 180 215 274 334 390
#     4  12  22  49  74  92 126 181 237 275 319 386
#
# _framework density 21.102419000000001
#
# number of rings (size 3 to 8) (size 9 to 14) (size 15 to 20)
#    0.000    0.500    8.750    2.250    0.000    2.000 
#    0.000    0.625    0.000    0.000    0.000    0.000 
#    0.000    0.000    0.000    0.000    0.000    0.000 
#
# Total GULP energy -198369.713760 kJ/mol
# GULP energy per Si atom -12398.107110 kJ/mol
# Density = 2.105439 g / cm^3
# Si number density = 21.102419 Si / 1000 Ang^3
#
#
#
# Elastic Constant Matrix: (Units=GPa)
#
#
# Indices 1 2 3 4 5 6 
#
# 1 104.5070 37.7074 36.5348 5.5381 -2.3520 -6.8489
# 2 37.7074 116.2304 41.0694 15.5713 0.5416 -0.0684
# 3 36.5348 41.0694 115.5029 23.6875 -9.9154 2.8473
# 4 5.5381 15.5713 23.6875 31.9114 0.2201 3.0828
# 5 -2.3520 0.5416 -9.9154 0.2201 36.8506 7.3855
# 6 -6.8489 -0.0684 2.8473 3.0828 7.3855 13.7316
#
#
#
# Elastic Compliance Matrix: (Units=1/GPa)
#
#
# Indices 1 2 3 4 5 6 
#
# 1 0.012178 -0.002898 -0.003362 0.001097 -0.001565 0.007352
# 2 -0.002898 0.010802 -0.002405 -0.003009 -0.001041 0.000342
# 3 -0.003362 -0.002405 0.012514 -0.007081 0.004226 -0.004967
# 4 0.001097 -0.003009 -0.007081 0.038477 -0.000774 -0.006222
# 5 -0.001565 -0.001041 0.004226 -0.000774 0.031934 -0.018664
# 6 0.007352 0.000342 -0.004967 -0.006222 -0.018664 0.088958
#
#
# Mechanical properties :
#
#
# Convention : Reuss Voigt Hill
#
# Bulk Modulus (GPa) = 55.05602 62.98481 59.02041
# Shear Modulus (GPa) = 22.90972 31.22731 27.06852
#
# Velocity S-wave (km/s) = 3.29849 3.85099 3.58539
# Velocity P-wave (km/s) = 6.37599 7.04879 6.72081
#
# Compressibility (1/GPa) = 0.01816332
#
# Stress axis : x y z
#
# Youngs Moduli (GPa) = 82.11320 92.57805 79.91187
#
# Poissons Ratio (x) = 0.26831 0.26867
# Poissons Ratio (y) = 0.23798 0.19218
# Poissons Ratio (z) = 0.27608 0.22264
#
# Static dielectric constant tensor:
#      x y z
#    x 3.899270 -0.112810 -0.176610 
#    y -0.112810 4.066000 0.385300 
#    z -0.176610 0.385300 4.093460 
# 
# 
# High freq. dielectric constant tensor:
#      x y z
#    x 1.828180 -0.002280 -0.009020 
#    y -0.002280 1.813790 0.013050 
#    z -0.009020 0.013050 1.827700 
# 
# From -- ./inp_files/272443.got.cif
#   From: 2010.06.25/outbox.cif.g09.slc.cpg/sg2_137_cif.got.tgz:272443.got - 2010.06.27 13:26:56.
