data_PCOD8029884
_publ_section_title
;
Structure prediction by ZEFSAII (Michael W. Deem and Ramdas Pophale) SiO2 
 PCOD8029884
Probable space group: P -1
;
_chemical_formula_sum "Si O2"
_cell_formula_units_Z 14
_cell_length_a 8.940378
_cell_length_b 9.603293
_cell_length_c 8.616385
_cell_angle_alpha 101.203128
_cell_angle_beta 103.398546
_cell_angle_gamma 64.366235
_cell_volume 645.072762
_symmetry_space_group_name_H-M "P -1"
_symmetry_group_IT_number 2
_symmetry_cell_setting 'triclinic'
loop_
_space_group_symop_operation_xyz
x,y,z
-x,-y,-z
loop_
_atom_site_type_symbol
_atom_site_label
_atom_site_fract_x
_atom_site_fract_y
_atom_site_fract_z
Si Si1 0.536042 0.935884 0.667152
Si Si2 0.128316 0.327725 0.373117
Si Si3 0.521014 0.757922 0.118166
Si Si4 0.868446 0.481257 0.080649
Si Si5 0.421238 0.709698 0.752278
Si Si6 0.843362 0.364246 0.502143
Si Si7 0.312048 0.624222 0.222776
O O1 0.733744 0.824910 0.703982
O O2 0.427049 0.838827 0.662579
O O3 0.500000 0.000000 0.500000
O O4 0.491726 0.071635 0.811287
O O5 0.209401 0.449265 0.461758
O O6 0.966465 0.404523 0.241370
O O7 0.044269 0.283906 0.495455
O O8 0.716344 0.645059 0.120643
O O9 0.439471 0.703764 0.231881
O O10 0.413848 0.766119 0.939736
O O11 0.793816 0.368984 0.956312
O O12 0.000000 0.500000 0.000000
O O13 0.259817 0.674539 0.667671
O O14 0.587265 0.552826 0.736963
O O15 0.809239 0.296459 0.643001
#
# Coordination Sequence:
#
# PCOD8029884 Si02
#       7
#     2   2   2   2   2   2   2
#     4  12  27  44  65  98 138 176 219 267 338 398
#     4  11  24  42  65 100 132 175 216 276 335 381
#     4  11  25  43  70 100 134 172 218 276 329 397
#     4  11  21  41  67 100 129 169 225 269 325 386
#     4  11  22  43  66  99 131 175 219 271 329 392
#     4  11  22  38  70  94 133 166 227 271 318 377
#     4  11  21  40  69 104 126 173 226 271 321 393
#
# _framework density 21.70298
#
# number of rings (size 3 to 8) (size 9 to 14) (size 15 to 20)
#    0.000    0.857    2.857    6.000    6.000    0.000 
#    0.000    7.143    0.000    0.000    0.000    0.000 
#    0.000    0.000    0.000    0.000    0.000    0.000 
#
# Total GULP energy -173584.340900 kJ/mol
# GULP energy per Si atom -12398.881493 kJ/mol
# Density = 2.165358 g / cm^3
# Si number density = 21.702980 Si / 1000 Ang^3
#
#
#
# Elastic Constant Matrix: (Units=GPa)
#
#
# Indices 1 2 3 4 5 6 
#
# 1 142.8932 51.9425 41.6310 7.1419 -15.0797 11.0885
# 2 51.9425 89.8248 41.2941 1.3073 4.1622 4.6186
# 3 41.6310 41.2941 106.2133 3.9449 8.4197 -0.7974
# 4 7.1419 1.3073 3.9449 28.2737 4.2591 -11.1595
# 5 -15.0797 4.1622 8.4197 4.2591 49.2294 -2.5071
# 6 11.0885 4.6186 -0.7974 -11.1595 -2.5071 37.2052
#
#
#
# Elastic Compliance Matrix: (Units=1/GPa)
#
#
# Indices 1 2 3 4 5 6 
#
# 1 0.010371 -0.004857 -0.002382 -0.004063 0.004169 -0.003477
# 2 -0.004857 0.015968 -0.004175 0.001253 -0.002253 -0.000400
# 3 -0.002382 -0.004175 0.012172 -0.000022 -0.002389 0.001322
# 4 -0.004063 0.001253 -0.000022 0.042300 -0.004321 0.013452
# 5 0.004169 -0.002253 -0.002389 -0.004321 0.022523 -0.000793
# 6 -0.003477 -0.000400 0.001322 0.013452 -0.000793 0.031973
#
#
# Mechanical properties :
#
#
# Convention : Reuss Voigt Hill
#
# Bulk Modulus (GPa) = 63.76955 67.62962 65.69958
# Shear Modulus (GPa) = 30.60669 36.54591 33.57630
#
# Velocity S-wave (km/s) = 3.75941 4.10800 3.93756
# Velocity P-wave (km/s) = 6.94916 7.33007 7.14216
#
# Compressibility (1/GPa) = 0.01568147
#
# Stress axis : x y z
#
# Youngs Moduli (GPa) = 96.42529 62.62676 82.15511
#
# Poissons Ratio (x) = 0.30419 0.19571
# Poissons Ratio (y) = 0.46836 0.34301
# Poissons Ratio (z) = 0.22970 0.26147
#
# Static dielectric constant tensor:
#      x y z
#    x 4.071500 0.128120 -0.053200 
#    y 0.128120 3.725830 -0.010430 
#    z -0.053200 -0.010430 4.531360 
# 
# 
# High freq. dielectric constant tensor:
#      x y z
#    x 1.869730 0.017970 -0.010100 
#    y 0.017970 1.812820 -0.001920 
#    z -0.010100 -0.001920 1.870260 
# 
# From -- ./inp_files/158210.got.cif
#   From: 2010.06.25/outbox.cif.g09.slc.cpg/sg2_80_cif.got.tgz:158210.got - 2010.06.27 13:26:56.
