data_PCOD8029251
_publ_section_title
;
Structure prediction by ZEFSAII (Michael W. Deem and Ramdas Pophale) SiO2 
 PCOD8029251
Probable space group: P -1
;
_chemical_formula_sum "Si O2"
_cell_formula_units_Z 14
_cell_length_a 12.063622
_cell_length_b 9.701832
_cell_length_c 9.528348
_cell_angle_alpha 44.475082
_cell_angle_beta 122.034780
_cell_angle_gamma 107.826967
_cell_volume 657.396866
_symmetry_space_group_name_H-M "P -1"
_symmetry_group_IT_number 2
_symmetry_cell_setting 'triclinic'
loop_
_space_group_symop_operation_xyz
x,y,z
-x,-y,-z
loop_
_atom_site_type_symbol
_atom_site_label
_atom_site_fract_x
_atom_site_fract_y
_atom_site_fract_z
Si Si1 0.764228 0.909250 0.157052
Si Si2 0.274026 0.827844 0.305038
Si Si3 0.987820 0.713651 0.267569
Si Si4 0.790749 0.816244 0.813838
Si Si5 0.849938 0.029393 0.418182
Si Si6 0.315595 0.563831 0.943270
Si Si7 0.605054 0.560882 0.217276
O O1 0.909947 0.855145 0.228297
O O2 0.672367 0.736383 0.203871
O O3 0.766114 0.951809 0.291775
O O4 0.707207 0.107915 0.890270
O O5 0.379066 0.634362 0.532778
O O6 0.128037 0.784324 0.280758
O O7 0.303283 0.011821 0.290958
O O8 0.000000 0.500000 0.500000
O O9 0.911557 0.725270 0.059861
O O10 0.838416 0.899905 0.641358
O O11 0.711069 0.634633 0.848361
O O12 0.801640 0.259930 0.244531
O O13 0.000000 0.000000 0.500000
O O14 0.319218 0.504564 0.826375
O O15 0.451781 0.634659 0.035771
#
# Coordination Sequence:
#
# PCOD8029251 Si02
#       7
#     2   2   2   2   2   2   2
#     4  11  24  40  65  99 129 176 216 271 328 383
#     4  11  20  39  67  97 125 170 225 268 320 388
#     4  11  20  38  68  95 129 166 223 272 317 383
#     4  11  23  41  67  97 130 175 215 270 329 387
#     4  12  27  44  65  98 142 171 209 274 339 390
#     4  11  25  44  66 101 130 172 225 273 320 387
#     4  11  23  43  72  95 129 173 228 274 314 386
#
# _framework density 21.296116999999999
#
# number of rings (size 3 to 8) (size 9 to 14) (size 15 to 20)
#    0.000    0.857    5.714    3.429    2.000    4.000 
#    0.000    1.429    0.000    0.000    0.000    0.000 
#    0.000    0.000    0.000    0.000    0.000    0.000 
#
# Total GULP energy -173613.107139 kJ/mol
# GULP energy per Si atom -12400.936224 kJ/mol
# Density = 2.124765 g / cm^3
# Si number density = 21.296117 Si / 1000 Ang^3
#
#
#
# Elastic Constant Matrix: (Units=GPa)
#
#
# Indices 1 2 3 4 5 6 
#
# 1 58.8829 37.8908 34.8427 -4.3780 0.7374 -0.0258
# 2 37.8908 114.2134 48.5970 -9.1761 -13.1576 11.6935
# 3 34.8427 48.5970 153.3484 -16.9168 -29.0686 -5.3528
# 4 -4.3780 -9.1761 -16.9168 39.5559 -5.8675 -9.0608
# 5 0.7374 -13.1576 -29.0686 -5.8675 33.5831 1.5155
# 6 -0.0258 11.6935 -5.3528 -9.0608 1.5155 22.1217
#
#
#
# Elastic Compliance Matrix: (Units=1/GPa)
#
#
# Indices 1 2 3 4 5 6 
#
# 1 0.024621 -0.007436 -0.004859 -0.001667 -0.008071 0.002654
# 2 -0.007436 0.013360 -0.002023 0.000237 0.004037 -0.007740
# 3 -0.004859 -0.002023 0.011021 0.006456 0.009724 0.005709
# 4 -0.001667 0.000237 0.006456 0.032746 0.010803 0.014107
# 5 -0.008071 0.004037 0.009724 0.010803 0.041760 0.001773
# 6 0.002654 -0.007740 0.005709 0.014107 0.001773 0.056337
#
#
# Mechanical properties :
#
#
# Convention : Reuss Voigt Hill
#
# Bulk Modulus (GPa) = 49.10133 63.23398 56.16766
# Shear Modulus (GPa) = 23.22664 32.72643 27.97654
#
# Velocity S-wave (km/s) = 3.30608 3.92437 3.62842
# Velocity P-wave (km/s) = 6.13841 7.09165 6.63218
#
# Compressibility (1/GPa) = 0.02036605
#
# Stress axis : x y z
#
# Youngs Moduli (GPa) = 40.61494 74.85120 90.73639
#
# Poissons Ratio (x) = 0.55662 0.44088
# Poissons Ratio (y) = 0.30202 0.18355
# Poissons Ratio (z) = 0.19734 0.15142
#
# Static dielectric constant tensor:
#      x y z
#    x 3.741270 0.175350 -0.201680 
#    y 0.175350 4.070870 -0.164600 
#    z -0.201680 -0.164600 4.365050 
# 
# 
# High freq. dielectric constant tensor:
#      x y z
#    x 1.814070 0.013690 -0.006950 
#    y 0.013690 1.834620 -0.008420 
#    z -0.006950 -0.008420 1.855390 
# 
# From -- ./inp_files/200096.got.cif
#   From: 2010.06.25/outbox.cif.g09.slc.cpg/sg2_101_cif.got.tgz:200096.got - 2010.06.27 13:26:56.
