data_PCOD8029767
_publ_section_title
;
Structure prediction by ZEFSAII (Michael W. Deem and Ramdas Pophale) SiO2 
 PCOD8029767
Probable space group: P -1
;
_chemical_formula_sum "Si O2"
_cell_formula_units_Z 14
_cell_length_a 8.798381
_cell_length_b 13.800143
_cell_length_c 7.570439
_cell_angle_alpha 107.780929
_cell_angle_beta 104.923962
_cell_angle_gamma 120.551921
_cell_volume 651.316539
_symmetry_space_group_name_H-M "P -1"
_symmetry_group_IT_number 2
_symmetry_cell_setting 'triclinic'
loop_
_space_group_symop_operation_xyz
x,y,z
-x,-y,-z
loop_
_atom_site_type_symbol
_atom_site_label
_atom_site_fract_x
_atom_site_fract_y
_atom_site_fract_z
Si Si1 0.094048 0.212260 0.690957
Si Si2 0.682889 0.008326 0.630329
Si Si3 0.269597 0.937079 0.926524
Si Si4 0.694849 0.818963 0.962835
Si Si5 0.300823 0.599464 0.551918
Si Si6 0.665343 0.775253 0.554593
Si Si7 0.003889 0.659848 0.492005
O O1 0.237479 0.237251 0.906997
O O2 0.188173 0.208536 0.537147
O O3 0.080854 0.328393 0.712983
O O4 0.865416 0.078674 0.582031
O O5 0.500000 0.000000 0.500000
O O6 0.592168 0.858743 0.534891
O O7 0.770808 0.083117 0.885986
O O8 0.122744 0.797986 0.706627
O O9 0.239981 0.038642 0.891123
O O10 0.500000 0.000000 0.000000
O O11 0.447558 0.708148 0.809034
O O12 0.205123 0.169508 0.191503
O O13 0.446752 0.627823 0.444191
O O14 0.185732 0.452018 0.504452
O O15 0.139459 0.619114 0.459061
#
# Coordination Sequence:
#
# PCOD8029767 Si02
#       7
#     2   2   2   2   2   2   2
#     4  12  25  38  69 101 129 169 222 272 332 382
#     4  11  24  39  63  99 136 164 220 275 323 391
#     4  11  21  39  66  98 130 173 218 268 330 386
#     4   9  23  42  63  97 132 169 215 271 320 391
#     4   9  21  48  63  90 137 178 217 264 326 397
#     4   9  22  42  63  89 135 174 208 270 328 381
#     4  11  23  39  71  96 129 179 218 268 331 388
#
# _framework density 21.494923
#
# number of rings (size 3 to 8) (size 9 to 14) (size 15 to 20)
#    0.857    0.857    1.429    2.143    8.000    2.286 
#    0.000    1.429    0.000    4.286    0.000    0.000 
#    0.000    0.000    0.000    0.000    0.000    0.000 
#
# Total GULP energy -173447.915353 kJ/mol
# GULP energy per Si atom -12389.136811 kJ/mol
# Density = 2.144600 g / cm^3
# Si number density = 21.494923 Si / 1000 Ang^3
#
#
#
# Elastic Constant Matrix: (Units=GPa)
#
#
# Indices 1 2 3 4 5 6 
#
# 1 78.0722 58.9362 38.1908 -16.4721 18.0293 17.6185
# 2 58.9362 163.6524 58.7503 -11.0971 11.6600 6.7973
# 3 38.1908 58.7503 60.4055 -9.3362 14.6000 -10.5782
# 4 -16.4721 -11.0971 -9.3362 41.1027 -10.1719 10.5949
# 5 18.0293 11.6600 14.6000 -10.1719 28.8970 -9.2328
# 6 17.6185 6.7973 -10.5782 10.5949 -9.2328 52.0581
#
#
#
# Elastic Compliance Matrix: (Units=1/GPa)
#
#
# Indices 1 2 3 4 5 6 
#
# 1 0.032168 -0.003863 -0.014998 0.009758 -0.013171 -0.017752
# 2 -0.003863 0.010467 -0.008458 0.000248 0.002081 -0.001459
# 3 -0.014998 -0.008458 0.036740 -0.004257 -0.002813 0.014013
# 4 0.009758 0.000248 -0.004257 0.030775 0.003660 -0.009814
# 5 -0.013171 0.002081 -0.002813 0.003660 0.048349 0.011444
# 6 -0.017752 -0.001459 0.014013 -0.009814 0.011444 0.032282
#
#
# Mechanical properties :
#
#
# Convention : Reuss Voigt Hill
#
# Bulk Modulus (GPa) = 40.42640 68.20942 54.31791
# Shear Modulus (GPa) = 19.71096 34.16175 26.93636
#
# Velocity S-wave (km/s) = 3.03149 3.99092 3.54383
# Velocity P-wave (km/s) = 5.57687 7.28274 6.48613
#
# Compressibility (1/GPa) = 0.02473631
#
# Stress axis : x y z
#
# Youngs Moduli (GPa) = 31.08706 95.53450 27.21856
#
# Poissons Ratio (x) = 0.36906 0.40821
# Poissons Ratio (y) = 0.12009 0.23023
# Poissons Ratio (z) = 0.46623 0.80808
#
# Static dielectric constant tensor:
#      x y z
#    x 3.977120 -0.071290 0.304280 
#    y -0.071290 4.605070 -0.446430 
#    z 0.304280 -0.446430 3.889390 
# 
# 
# High freq. dielectric constant tensor:
#      x y z
#    x 1.850650 0.004010 0.026860 
#    y 0.004010 1.859450 -0.012330 
#    z 0.026860 -0.012330 1.812090 
# 
# From -- ./inp_files/202670.got.cif
#   From: 2010.06.25/outbox.cif.g09.slc.cpg/sg2_102_cif.got.tgz:202670.got - 2010.06.27 13:26:56.
