data_PCOD8029147
_publ_section_title
;
Structure prediction by ZEFSAII (Michael W. Deem and Ramdas Pophale) SiO2 
 PCOD8029147
Probable space group: P -1
;
_chemical_formula_sum "Si O2"
_cell_formula_units_Z 14
_cell_length_a 12.742266
_cell_length_b 12.033736
_cell_length_c 8.764294
_cell_angle_alpha 104.338067
_cell_angle_beta 92.020922
_cell_angle_gamma 33.957170
_cell_volume 690.399831
_symmetry_space_group_name_H-M "P -1"
_symmetry_group_IT_number 2
_symmetry_cell_setting 'triclinic'
loop_
_space_group_symop_operation_xyz
x,y,z
-x,-y,-z
loop_
_atom_site_type_symbol
_atom_site_label
_atom_site_fract_x
_atom_site_fract_y
_atom_site_fract_z
Si Si1 0.125754 0.089946 0.717112
Si Si2 0.419499 0.994870 0.177342
Si Si3 0.482983 0.854298 0.820871
Si Si4 0.191440 0.016264 0.350793
Si Si5 0.752162 0.533780 0.969846
Si Si6 0.560897 0.523616 0.149197
Si Si7 0.091126 0.885851 0.804018
O O1 0.985112 0.315109 0.868948
O O2 0.350356 0.906288 0.714968
O O3 0.101958 0.126189 0.548027
O O4 0.065626 0.016297 0.733064
O O5 0.407602 0.141858 0.262311
O O6 0.274021 0.059147 0.301602
O O7 0.350634 0.033537 0.011858
O O8 0.653947 0.738171 0.112890
O O9 0.638929 0.622304 0.829656
O O10 0.367927 0.761642 0.289690
O O11 0.018444 0.124061 0.273578
O O12 0.715714 0.467128 0.064269
O O13 0.675614 0.355069 0.236721
O O14 0.500000 0.500000 0.000000
O O15 0.000000 0.000000 0.000000
#
# Coordination Sequence:
#
# PCOD8029147 Si02
#       7
#     2   2   2   2   2   2   2
#     4  12  23  35  58  87 117 147 178 237 288 327
#     4   8  19  41  60  80 111 149 192 233 261 334
#     4   9  19  39  63  80 112 146 195 228 271 328
#     4  11  24  38  55  87 119 142 185 233 286 330
#     4   9  19  35  57  85 108 144 190 227 273 331
#     4  11  20  36  60  81 108 152 191 225 273 333
#     4  12  22  37  60  83 111 149 192 229 268 334
#
# _framework density 20.278106999999999
#
# number of rings (size 3 to 8) (size 9 to 14) (size 15 to 20)
#    0.857    0.857    2.857    2.143    0.000    2.857 
#    0.000    0.714    0.000    0.000    0.000    0.000 
#    0.000    0.000    0.000    0.000    0.000    0.000 
#
# Total GULP energy -173447.636728 kJ/mol
# GULP energy per Si atom -12389.116909 kJ/mol
# Density = 2.023195 g / cm^3
# Si number density = 20.278107 Si / 1000 Ang^3
#
#
#
# Elastic Constant Matrix: (Units=GPa)
#
#
# Indices 1 2 3 4 5 6 
#
# 1 71.6026 14.2974 24.8087 -10.9807 -14.6086 4.4371
# 2 14.2974 75.8865 7.4715 -8.2836 -4.4530 -10.2340
# 3 24.8087 7.4715 61.3855 -11.4250 -13.6330 3.5272
# 4 -10.9807 -8.2836 -11.4250 25.2386 2.2364 -2.7090
# 5 -14.6086 -4.4530 -13.6330 2.2364 21.7276 -8.8077
# 6 4.4371 -10.2340 3.5272 -2.7090 -8.8077 30.3390
#
#
#
# Elastic Compliance Matrix: (Units=1/GPa)
#
#
# Indices 1 2 3 4 5 6 
#
# 1 0.018369 -0.002001 -0.004388 0.004583 0.008756 0.000100
# 2 -0.002001 0.015242 0.000399 0.004682 0.004421 0.007089
# 3 -0.004388 0.000399 0.021651 0.007286 0.010795 0.002044
# 4 0.004583 0.004682 0.007286 0.046543 0.006270 0.006038
# 5 0.008756 0.004421 0.010795 0.006270 0.066585 0.018846
# 6 0.000100 0.007089 0.002044 0.006038 0.018846 0.041110
#
#
# Mechanical properties :
#
#
# Convention : Reuss Voigt Hill
#
# Bulk Modulus (GPa) = 23.10429 33.55886 28.33158
# Shear Modulus (GPa) = 21.19469 26.28084 23.73777
#
# Velocity S-wave (km/s) = 3.23646 3.60393 3.42513
# Velocity P-wave (km/s) = 5.03832 5.82263 5.44462
#
# Compressibility (1/GPa) = 0.04328200
#
# Stress axis : x y z
#
# Youngs Moduli (GPa) = 54.43925 65.60916 46.18631
#
# Poissons Ratio (x) = 0.13130 0.20268
# Poissons Ratio (y) = 0.10895 -0.01845
# Poissons Ratio (z) = 0.23890 -0.02621
#
# Static dielectric constant tensor:
#      x y z
#    x 3.502660 0.133480 -0.115740 
#    y 0.133480 3.832520 -0.026200 
#    z -0.115740 -0.026200 3.339220 
# 
# 
# High freq. dielectric constant tensor:
#      x y z
#    x 1.781980 0.009090 -0.013160 
#    y 0.009090 1.793150 -0.008630 
#    z -0.013160 -0.008630 1.760800 
# 
# From -- ./inp_files/259517.got.cif
#   From: 2010.06.25/outbox.cif.g09.slc.cpg/sg2_130_cif.got.tgz:259517.got - 2010.06.27 13:26:56.
