data_PCOD8029284
_publ_section_title
;
Structure prediction by ZEFSAII (Michael W. Deem and Ramdas Pophale) SiO2 
 PCOD8029284
Probable space group: P -1
;
_chemical_formula_sum "Si O2"
_cell_formula_units_Z 14
_cell_length_a 12.123464
_cell_length_b 9.379244
_cell_length_c 12.032814
_cell_angle_alpha 58.794608
_cell_angle_beta 144.385787
_cell_angle_gamma 131.575001
_cell_volume 595.327940
_symmetry_space_group_name_H-M "P -1"
_symmetry_group_IT_number 2
_symmetry_cell_setting 'triclinic'
loop_
_space_group_symop_operation_xyz
x,y,z
-x,-y,-z
loop_
_atom_site_type_symbol
_atom_site_label
_atom_site_fract_x
_atom_site_fract_y
_atom_site_fract_z
Si Si1 0.810400 0.722655 0.156305
Si Si2 0.448984 0.309449 0.598657
Si Si3 0.453292 0.213969 0.252955
Si Si4 0.856350 0.789297 0.421125
Si Si5 0.923003 0.447727 0.631589
Si Si6 0.147136 0.129015 0.235072
Si Si7 0.205324 0.781268 0.157958
O O1 0.795602 0.782988 0.245016
O O2 0.875894 0.557399 0.263722
O O3 0.589468 0.675724 0.929323
O O4 0.000944 0.906806 0.172885
O O5 0.500000 0.500000 0.500000
O O6 0.373015 0.311425 0.661105
O O7 0.249882 0.140654 0.435666
O O8 0.658549 0.280575 0.786882
O O9 0.708985 0.321744 0.434699
O O10 0.338530 0.236065 0.260206
O O11 0.370178 0.992427 0.251779
O O12 0.980659 0.668143 0.592548
O O13 0.000000 0.000000 0.500000
O O14 0.891959 0.368881 0.761907
O O15 0.993840 0.226983 0.071212
#
# Coordination Sequence:
#
# PCOD8029284 Si02
#       7
#     2   2   2   2   2   2   2
#     4  11  23  43  68  98 135 172 222 275 337 398
#     4  12  24  43  65  94 136 182 227 266 325 406
#     4  11  21  38  73 105 131 163 228 286 332 384
#     4  12  27  46  66  94 144 188 214 269 340 400
#     4  12  22  42  71  99 129 177 226 278 328 392
#     4  11  20  39  68 101 135 168 218 287 328 393
#     4  11  21  37  68 104 127 167 225 275 336 384
#
# _framework density 23.516449000000001
#
# number of rings (size 3 to 8) (size 9 to 14) (size 15 to 20)
#    0.000    0.571    7.143    2.571    0.000    1.143 
#    0.000    4.286    0.000    0.000    0.000    0.000 
#    0.000    0.000    0.000    0.000    0.000    0.000 
#
# Total GULP energy -173674.228367 kJ/mol
# GULP energy per Si atom -12405.302026 kJ/mol
# Density = 2.346292 g / cm^3
# Si number density = 23.516449 Si / 1000 Ang^3
#
#
#
# Elastic Constant Matrix: (Units=GPa)
#
#
# Indices 1 2 3 4 5 6 
#
# 1 137.0941 14.2901 36.1375 -16.2778 -3.6780 -10.7890
# 2 14.2901 80.8177 0.4797 -21.6015 3.4706 -12.0142
# 3 36.1375 0.4797 90.7427 -20.3764 1.2665 -4.9561
# 4 -16.2778 -21.6015 -20.3764 30.5096 -3.6095 3.8585
# 5 -3.6780 3.4706 1.2665 -3.6095 39.6814 -7.6388
# 6 -10.7890 -12.0142 -4.9561 3.8585 -7.6388 26.3934
#
#
#
# Elastic Compliance Matrix: (Units=1/GPa)
#
#
# Indices 1 2 3 4 5 6 
#
# 1 0.008626 -0.000574 -0.002814 0.002148 0.001696 0.002913
# 2 -0.000574 0.016918 0.003457 0.013265 0.000797 0.006407
# 3 -0.002814 0.003457 0.014567 0.010490 0.000253 0.001698
# 4 0.002148 0.013265 0.010490 0.050439 0.003795 0.002611
# 5 0.001696 0.000797 0.000253 0.003795 0.027249 0.008435
# 6 0.002913 0.006407 0.001698 0.002611 0.008435 0.044374
#
#
# Mechanical properties :
#
#
# Convention : Reuss Voigt Hill
#
# Bulk Modulus (GPa) = 24.84600 45.60770 35.22685
# Shear Modulus (GPa) = 28.49764 36.50004 32.49884
#
# Velocity S-wave (km/s) = 3.48489 3.94395 3.72151
# Velocity P-wave (km/s) = 5.17503 6.33843 5.78605
#
# Compressibility (1/GPa) = 0.04024792
#
# Stress axis : x y z
#
# Youngs Moduli (GPa) = 115.93215 59.10792 68.64621
#
# Poissons Ratio (x) = 0.03393 0.19319
# Poissons Ratio (y) = 0.06655 -0.23728
# Poissons Ratio (z) = 0.32626 -0.20431
#
# Static dielectric constant tensor:
#      x y z
#    x 4.300220 -0.063450 0.010570 
#    y -0.063450 4.310170 -0.146730 
#    z 0.010570 -0.146730 4.429620 
# 
# 
# High freq. dielectric constant tensor:
#      x y z
#    x 1.933950 -0.000590 0.002470 
#    y -0.000590 1.931490 -0.012150 
#    z 0.002470 -0.012150 1.927120 
# 
# From -- ./inp_files/257075.got.cif
#   From: 2010.06.25/outbox.cif.g09.slc.cpg/sg2_129_cif.got.tgz:257075.got - 2010.06.27 13:26:56.
