data_PCOD8029901
_publ_section_title
;
Structure prediction by ZEFSAII (Michael W. Deem and Ramdas Pophale) SiO2 
 PCOD8029901
Probable space group: P -1
;
_chemical_formula_sum "Si O2"
_cell_formula_units_Z 16
_cell_length_a 11.784497
_cell_length_b 9.967876
_cell_length_c 8.996305
_cell_angle_alpha 47.901382
_cell_angle_beta 88.022788
_cell_angle_gamma 99.724886
_cell_volume 756.907152
_symmetry_space_group_name_H-M "P -1"
_symmetry_group_IT_number 2
_symmetry_cell_setting 'triclinic'
loop_
_space_group_symop_operation_xyz
x,y,z
-x,-y,-z
loop_
_atom_site_type_symbol
_atom_site_label
_atom_site_fract_x
_atom_site_fract_y
_atom_site_fract_z
Si Si1 0.438974 0.488191 0.667113
Si Si2 0.044140 0.203658 0.604371
Si Si3 0.817646 0.134552 0.842284
Si Si4 0.188920 0.506787 0.592884
Si Si5 0.796153 0.074222 0.219561
Si Si6 0.929085 0.363767 0.228306
Si Si7 0.423368 0.091214 0.042286
Si Si8 0.523976 0.909861 0.417745
O O1 0.500000 0.500000 0.500000
O O2 0.301291 0.434820 0.678313
O O3 0.486507 0.684713 0.603642
O O4 0.469798 0.317818 0.883733
O O5 0.100240 0.375359 0.581628
O O6 0.929527 0.090700 0.786594
O O7 0.011457 0.268682 0.395526
O O8 0.135170 0.084903 0.654595
O O9 0.775548 0.294602 0.638432
O O10 0.711395 0.948141 0.975722
O O11 0.836232 0.184190 0.980371
O O12 0.129368 0.516970 0.747102
O O13 0.830062 0.208706 0.260336
O O14 0.656673 0.980418 0.298743
O O15 0.000000 0.500000 0.000000
O O16 0.431226 0.987365 0.270891
O O17 0.500000 0.000000 0.000000
O O18 0.500000 0.000000 0.500000
#
# Coordination Sequence:
#
# PCOD8029901 Si02
#       8
#     2   2   2   2   2   2   2   2
#     4  12  23  43  73 101 132 177 232 278 331 405
#     4  11  24  41  67  99 128 174 226 272 334 397
#     4  11  21  40  70  96 134 170 225 282 327 401
#     4  11  22  42  68  98 129 177 223 274 333 397
#     4  12  24  42  66  98 131 176 217 278 338 395
#     4  11  24  44  63  94 138 173 214 272 338 399
#     4  12  23  44  71 102 131 185 226 278 336 397
#     4  12  27  47  67 101 146 174 226 284 338 399
#
# _framework density 21.138656000000001
#
# number of rings (size 3 to 8) (size 9 to 14) (size 15 to 20)
#    0.000    0.500    3.750    6.000    1.750    1.500 
#    4.500    0.000    0.000    0.000    0.000    0.000 
#    0.000    0.000    0.000    0.000    0.000    0.000 
#
# Total GULP energy -198334.555890 kJ/mol
# GULP energy per Si atom -12395.909743 kJ/mol
# Density = 2.109054 g / cm^3
# Si number density = 21.138656 Si / 1000 Ang^3
#
#
#
# Elastic Constant Matrix: (Units=GPa)
#
#
# Indices 1 2 3 4 5 6 
#
# 1 108.9000 25.5095 35.1944 2.0268 -1.2249 -2.6887
# 2 25.5095 128.2276 54.7759 0.2734 1.7245 8.7948
# 3 35.1944 54.7759 116.1629 3.3921 -1.0477 -4.6196
# 4 2.0268 0.2734 3.3921 46.6932 -2.2343 1.1965
# 5 -1.2249 1.7245 -1.0477 -2.2343 30.3843 -1.8222
# 6 -2.6887 8.7948 -4.6196 1.1965 -1.8222 36.7696
#
#
#
# Elastic Compliance Matrix: (Units=1/GPa)
#
#
# Indices 1 2 3 4 5 6 
#
# 1 0.010284 -0.000981 -0.002615 -0.000249 0.000403 0.000686
# 2 -0.000981 0.010215 -0.004664 0.000357 -0.000943 -0.003159
# 3 -0.002615 -0.004664 0.011725 -0.000742 0.000656 0.002454
# 4 -0.000249 0.000357 -0.000742 0.021571 0.001481 -0.000826
# 5 0.000403 -0.000943 0.000656 0.001481 0.033229 0.001936
# 6 0.000686 -0.003159 0.002454 -0.000826 0.001936 0.028433
#
#
# Mechanical properties :
#
#
# Convention : Reuss Voigt Hill
#
# Bulk Modulus (GPa) = 63.67775 64.91669 64.29722
# Shear Modulus (GPa) = 36.43993 38.62347 37.53170
#
# Velocity S-wave (km/s) = 4.15644 4.27915 4.21824
# Velocity P-wave (km/s) = 7.29547 7.42910 7.36259
#
# Compressibility (1/GPa) = 0.01570407
#
# Stress axis : x y z
#
# Youngs Moduli (GPa) = 97.24122 97.89737 85.28435
#
# Poissons Ratio (x) = 0.09600 0.22303
# Poissons Ratio (y) = 0.09536 0.39778
# Poissons Ratio (z) = 0.25429 0.45661
#
# Static dielectric constant tensor:
#      x y z
#    x 3.676800 0.145280 -0.269570 
#    y 0.145280 3.366720 0.320940 
#    z -0.269570 0.320940 3.337540 
# 
# 
# High freq. dielectric constant tensor:
#      x y z
#    x 1.842330 0.001330 -0.000420 
#    y 0.001330 1.832160 0.003250 
#    z -0.000420 0.003250 1.835050 
# 
# From -- ./inp_files/242128.got.cif
#   From: 2010.06.25/outbox.cif.g09.slc.cpg/sg2_122_cif.got.tgz:242128.got - 2010.06.27 13:26:56.
