data_PCOD8029200
_publ_section_title
;
Structure prediction by ZEFSAII (Michael W. Deem and Ramdas Pophale) SiO2 
 PCOD8029200
Probable space group: P -1
;
_chemical_formula_sum "Si O2"
_cell_formula_units_Z 16
_cell_length_a 9.802021
_cell_length_b 26.445823
_cell_length_c 20.793071
_cell_angle_alpha 19.242189
_cell_angle_beta 152.400247
_cell_angle_gamma 141.925120
_cell_volume 778.535153
_symmetry_space_group_name_H-M "P -1"
_symmetry_group_IT_number 2
_symmetry_cell_setting 'triclinic'
loop_
_space_group_symop_operation_xyz
x,y,z
-x,-y,-z
loop_
_atom_site_type_symbol
_atom_site_label
_atom_site_fract_x
_atom_site_fract_y
_atom_site_fract_z
Si Si1 0.544203 0.783855 0.093585
Si Si2 0.349712 0.921085 0.715606
Si Si3 0.137754 0.562757 0.677469
Si Si4 0.672496 0.091674 0.788194
Si Si5 0.574031 0.758842 0.622092
Si Si6 0.853972 0.427862 0.837468
Si Si7 0.664381 0.628031 0.129005
Si Si8 0.301151 0.639546 0.431807
O O1 0.258580 0.715235 0.069279
O O2 0.858025 0.651005 0.406829
O O3 0.568695 0.807301 0.998821
O O4 0.508519 0.958279 0.901595
O O5 0.483624 0.065631 0.579337
O O6 0.380430 0.797482 0.817705
O O7 0.000000 0.000000 0.500000
O O8 0.313897 0.685542 0.627474
O O9 0.363653 0.419667 0.899753
O O10 0.030942 0.491066 0.781126
O O11 0.449167 0.217475 0.493224
O O12 0.709248 0.186324 0.753649
O O13 0.000000 0.000000 0.000000
O O14 0.916674 0.641625 0.923700
O O15 0.570263 0.577323 0.565522
O O16 0.631369 0.487387 0.329719
O O17 0.983931 0.663369 0.233190
#
# Coordination Sequence:
#
# PCOD8029200 Si02
#       8
#     2   2   2   2   2   2   2   2
#     4  11  21  40  65  91 123 166 210 257 314 368
#     4  11  21  40  67  95 127 161 211 269 314 362
#     4  12  24  43  65  92 128 174 211 254 312 387
#     4  11  21  38  67  94 123 157 214 266 307 367
#     4  11  23  41  64  92 129 169 206 261 324 364
#     4  12  25  43  63  92 135 167 208 259 320 377
#     4  11  20  37  66  94 123 162 218 257 310 371
#     4  11  21  39  63  98 122 162 214 265 308 372
#
# _framework density 20.551417000000001
#
# number of rings (size 3 to 8) (size 9 to 14) (size 15 to 20)
#    0.000    0.750    6.250    3.000    0.000    0.500 
#    4.500    2.500    0.000    0.000    0.000    0.000 
#    0.000    0.000    0.000    0.000    0.000    0.000 
#
# Total GULP energy -198369.078842 kJ/mol
# GULP energy per Si atom -12398.067428 kJ/mol
# Density = 2.050464 g / cm^3
# Si number density = 20.551417 Si / 1000 Ang^3
#
#
#
# Elastic Constant Matrix: (Units=GPa)
#
#
# Indices 1 2 3 4 5 6 
#
# 1 79.4442 36.3288 34.1454 -22.2735 13.3643 4.2075
# 2 36.3288 144.6993 39.8991 -26.9314 0.6812 16.0480
# 3 34.1454 39.8991 91.3191 -2.4924 6.1111 -1.4715
# 4 -22.2735 -26.9314 -2.4924 42.5665 0.4259 -1.5786
# 5 13.3643 0.6812 6.1111 0.4259 16.0219 -4.3132
# 6 4.2075 16.0480 -1.4715 -1.5786 -4.3132 29.4687
#
#
#
# Elastic Compliance Matrix: (Units=1/GPa)
#
#
# Indices 1 2 3 4 5 6 
#
# 1 0.021930 -0.001241 -0.006288 0.010319 -0.017397 -0.004763
# 2 -0.001241 0.009767 -0.003783 0.005118 0.000589 -0.004970
# 3 -0.006288 -0.003783 0.014828 -0.004692 0.000836 0.003569
# 4 0.010319 0.005118 -0.004692 0.031793 -0.008986 -0.004107
# 5 -0.017397 0.000589 0.000836 -0.008986 0.080455 0.013500
# 6 -0.004763 -0.004970 0.003569 -0.004107 0.013500 0.039255
#
#
# Mechanical properties :
#
#
# Convention : Reuss Voigt Hill
#
# Bulk Modulus (GPa) = 41.84161 59.57882 50.71022
# Shear Modulus (GPa) = 21.87039 31.28405 26.57722
#
# Velocity S-wave (km/s) = 3.26572 3.90581 3.60002
# Velocity P-wave (km/s) = 5.88418 7.02806 6.48140
#
# Compressibility (1/GPa) = 0.02389965
#
# Stress axis : x y z
#
# Youngs Moduli (GPa) = 45.60021 102.38977 67.43865
#
# Poissons Ratio (x) = 0.12708 0.42408
# Poissons Ratio (y) = 0.05660 0.25512
# Poissons Ratio (z) = 0.28675 0.38734
#
# Static dielectric constant tensor:
#      x y z
#    x 3.366730 0.043520 0.006740 
#    y 0.043520 4.209430 -0.174020 
#    z 0.006740 -0.174020 3.836940 
# 
# 
# High freq. dielectric constant tensor:
#      x y z
#    x 1.754410 0.005080 0.000790 
#    y 0.005080 1.827980 -0.007690 
#    z 0.000790 -0.007690 1.801080 
# 
# From -- ./inp_files/592083.got.cif
#   From: 2010.06.25/outbox.cif.g09.slc.cpg/sg2_297_cif.got.tgz:592083.got - 2010.06.27 13:26:56.
