data_PCOD8029861
_publ_section_title
;
Structure prediction by ZEFSAII (Michael W. Deem and Ramdas Pophale) SiO2 
 PCOD8029861
Probable space group: P -1
;
_chemical_formula_sum "Si O2"
_cell_formula_units_Z 16
_cell_length_a 26.636606
_cell_length_b 8.898445
_cell_length_c 11.686994
_cell_angle_alpha 129.313117
_cell_angle_beta 159.485320
_cell_angle_gamma 49.768907
_cell_volume 736.873806
_symmetry_space_group_name_H-M "P -1"
_symmetry_group_IT_number 2
_symmetry_cell_setting 'triclinic'
loop_
_space_group_symop_operation_xyz
x,y,z
-x,-y,-z
loop_
_atom_site_type_symbol
_atom_site_label
_atom_site_fract_x
_atom_site_fract_y
_atom_site_fract_z
Si Si1 0.665539 0.245063 0.652182
Si Si2 0.395823 0.814930 0.862141
Si Si3 0.718467 0.788824 0.522374
Si Si4 0.760107 0.537309 0.697952
Si Si5 0.601129 0.477109 0.854127
Si Si6 0.946205 0.375020 0.223470
Si Si7 0.786415 0.790033 0.419945
Si Si8 0.530444 0.183033 0.725084
O O1 0.599627 0.346680 0.675825
O O2 0.549943 0.359952 0.367464
O O3 0.666988 0.014726 0.561525
O O4 0.826868 0.265087 0.969756
O O5 0.285661 0.666856 0.535522
O O6 0.336099 0.013496 0.760054
O O7 0.562602 0.717770 0.132260
O O8 0.395050 0.878794 0.024302
O O9 0.810253 0.648730 0.747038
O O10 0.820448 0.773346 0.620417
O O11 0.626869 0.683186 0.537831
O O12 0.885772 0.508494 0.048830
O O13 0.631673 0.316338 0.942979
O O14 0.732722 0.591423 0.174370
O O15 0.000000 0.500000 0.500000
O O16 0.074890 0.205804 0.363663
O O17 0.500000 0.000000 0.500000
#
# Coordination Sequence:
#
# PCOD8029861 Si02
#       8
#     2   2   2   2   2   2   2   2
#     4  11  23  41  68  95 134 173 225 279 330 395
#     4  11  23  42  68 108 139 172 224 286 338 397
#     4  11  23  42  69 106 130 171 230 283 334 398
#     4  11  24  44  69  94 146 180 214 285 343 395
#     4  11  21  40  67  98 127 177 226 274 328 392
#     4  12  27  47  66  97 140 185 222 278 344 407
#     4  12  25  41  71  99 136 177 229 273 337 409
#     4  11  23  38  70 105 137 171 225 282 342 394
#
# _framework density 21.713353000000001
#
# number of rings (size 3 to 8) (size 9 to 14) (size 15 to 20)
#    0.000    0.750    3.750    5.625    3.500    2.500 
#    0.000    1.875    0.000    0.000    0.000    0.000 
#    0.000    0.000    0.000    0.000    0.000    0.000 
#
# Total GULP energy -198361.873521 kJ/mol
# GULP energy per Si atom -12397.617095 kJ/mol
# Density = 2.166393 g / cm^3
# Si number density = 21.713353 Si / 1000 Ang^3
#
#
#
# Elastic Constant Matrix: (Units=GPa)
#
#
# Indices 1 2 3 4 5 6 
#
# 1 103.2890 31.4138 33.9197 -1.6490 -6.4818 8.0838
# 2 31.4138 95.6227 25.6190 17.1919 -15.3902 9.0798
# 3 33.9197 25.6190 84.3926 1.4304 -11.8411 3.3436
# 4 -1.6490 17.1919 1.4304 31.1514 -0.9261 -2.6277
# 5 -6.4818 -15.3902 -11.8411 -0.9261 44.4730 -2.7876
# 6 8.0838 9.0798 3.3436 -2.6277 -2.7876 42.5751
#
#
#
# Elastic Compliance Matrix: (Units=1/GPa)
#
#
# Indices 1 2 3 4 5 6 
#
# 1 0.012083 -0.003348 -0.003902 0.002556 -0.000455 -0.001146
# 2 -0.003348 0.014457 -0.002303 -0.008158 0.003573 -0.002536
# 3 -0.003902 -0.002303 0.014449 0.000500 0.002510 0.000292
# 4 0.002556 -0.008158 0.000500 0.036964 -0.001334 0.003409
# 5 -0.000455 0.003573 0.002510 -0.001334 0.024336 0.000638
# 6 -0.001146 -0.002536 0.000292 0.003409 0.000638 0.024476
#
#
# Mechanical properties :
#
#
# Convention : Reuss Voigt Hill
#
# Bulk Modulus (GPa) = 45.69716 51.68992 48.69354
# Shear Modulus (GPa) = 32.64439 36.46336 34.55388
#
# Velocity S-wave (km/s) = 3.88161 4.10238 3.99352
# Velocity P-wave (km/s) = 6.41720 6.80416 6.61351
#
# Compressibility (1/GPa) = 0.02188320
#
# Stress axis : x y z
#
# Youngs Moduli (GPa) = 82.75958 69.16911 69.20934
#
# Poissons Ratio (x) = 0.23159 0.27005
# Poissons Ratio (y) = 0.27710 0.15939
# Poissons Ratio (z) = 0.32292 0.15929
#
# Static dielectric constant tensor:
#      x y z
#    x 4.275900 0.382780 -0.124170 
#    y 0.382780 4.390040 0.168690 
#    z -0.124170 0.168690 3.814560 
# 
# 
# High freq. dielectric constant tensor:
#      x y z
#    x 1.874620 0.004140 -0.010340 
#    y 0.004140 1.855950 0.014330 
#    z -0.010340 0.014330 1.828790 
# 
# From -- ./inp_files/243705.got.cif
#   From: 2010.06.25/outbox.cif.g09.slc.cpg/sg2_122_cif.got.tgz:243705.got - 2010.06.27 13:26:56.
