data_PCOD8029047
_publ_section_title
;
Structure prediction by ZEFSAII (Michael W. Deem and Ramdas Pophale) SiO2 
 PCOD8029047
Probable space group: P -1
;
_chemical_formula_sum "Si O2"
_cell_formula_units_Z 16
_cell_length_a 13.885865
_cell_length_b 18.898508
_cell_length_c 8.843592
_cell_angle_alpha 128.878577
_cell_angle_beta 128.122792
_cell_angle_gamma 20.973260
_cell_volume 642.577617
_symmetry_space_group_name_H-M "P -1"
_symmetry_group_IT_number 2
_symmetry_cell_setting 'triclinic'
loop_
_space_group_symop_operation_xyz
x,y,z
-x,-y,-z
loop_
_atom_site_type_symbol
_atom_site_label
_atom_site_fract_x
_atom_site_fract_y
_atom_site_fract_z
Si Si1 0.940105 0.904552 0.254697
Si Si2 0.427709 0.200036 0.309328
Si Si3 0.735536 0.273622 0.387837
Si Si4 0.874403 0.430321 0.419746
Si Si5 0.636905 0.315176 0.848371
Si Si6 0.186968 0.073463 0.393398
Si Si7 0.986998 0.668535 0.920682
Si Si8 0.437499 0.759608 0.038226
O O1 0.084289 0.864450 0.475106
O O2 0.058539 0.870230 0.169487
O O3 0.613658 0.120975 0.250083
O O4 0.018414 0.746232 0.131639
O O5 0.165420 0.437194 0.404135
O O6 0.293955 0.193622 0.117718
O O7 0.604225 0.066764 0.453198
O O8 0.500000 0.500000 0.500000
O O9 0.635453 0.240768 0.191181
O O10 0.917327 0.195630 0.328479
O O11 0.565067 0.596932 0.351531
O O12 0.085562 0.243195 0.488943
O O13 0.007230 0.326075 0.246638
O O14 0.500000 0.500000 0.000000
O O15 0.667640 0.232392 0.913199
O O16 0.313752 0.942373 0.189304
O O17 0.240303 0.441595 0.917382
#
# Coordination Sequence:
#
# PCOD8029047 Si02
#       8
#     2   2   2   2   2   2   2   2
#     4  11  23  41  72 100 138 187 219 287 356 406
#     4  11  25  45  67 102 137 184 235 280 341 407
#     4  11  21  39  64 103 140 175 219 286 349 403
#     4  11  23  42  71 100 136 181 230 288 336 407
#     4  11  19  40  69 100 135 177 226 275 348 414
#     4  11  24  42  66 102 137 180 232 279 342 409
#     4  11  22  44  71  95 139 186 229 279 340 414
#     4  11  22  41  69 101 142 181 224 285 345 408
#
# _framework density 24.899716999999999
#
# number of rings (size 3 to 8) (size 9 to 14) (size 15 to 20)
#    0.000    1.000    6.250    2.625    0.000    1.000 
#    2.250    0.000    0.000    3.750    0.000    0.000 
#    0.000    0.000    0.000    0.000    0.000    0.000 
#
# Total GULP energy -198345.296284 kJ/mol
# GULP energy per Si atom -12396.581018 kJ/mol
# Density = 2.484304 g / cm^3
# Si number density = 24.899717 Si / 1000 Ang^3
#
#
#
# Elastic Constant Matrix: (Units=GPa)
#
#
# Indices 1 2 3 4 5 6 
#
# 1 67.4400 38.2962 22.2691 -14.6564 5.1629 -14.6837
# 2 38.2962 123.5311 37.2046 9.6083 2.9117 2.2397
# 3 22.2691 37.2046 80.2975 1.8546 4.5762 -21.6469
# 4 -14.6564 9.6083 1.8546 32.2660 -8.1305 9.1794
# 5 5.1629 2.9117 4.5762 -8.1305 21.1503 -0.8414
# 6 -14.6837 2.2397 -21.6469 9.1794 -0.8414 49.5369
#
#
#
# Elastic Compliance Matrix: (Units=1/GPa)
#
#
# Indices 1 2 3 4 5 6 
#
# 1 0.023292 -0.007592 -0.002143 0.011941 0.000577 0.004108
# 2 -0.007592 0.012342 -0.004354 -0.006216 -0.001436 -0.003584
# 3 -0.002143 -0.004354 0.017493 -0.003888 -0.003844 0.007861
# 4 0.011941 -0.006216 -0.003888 0.044035 0.015480 -0.005775
# 5 0.000577 -0.001436 -0.003844 0.015480 0.053985 -0.003396
# 6 0.004108 -0.003584 0.007861 -0.005775 -0.003396 0.026014
#
#
# Mechanical properties :
#
#
# Convention : Reuss Voigt Hill
#
# Bulk Modulus (GPa) = 40.08050 51.86760 45.97405
# Shear Modulus (GPa) = 23.40200 32.15722 27.77961
#
# Velocity S-wave (km/s) = 3.06902 3.59760 3.34377
# Velocity P-wave (km/s) = 5.35633 6.17518 5.78027
#
# Compressibility (1/GPa) = 0.02494979
#
# Stress axis : x y z
#
# Youngs Moduli (GPa) = 42.93243 81.02160 57.16464
#
# Poissons Ratio (x) = 0.61514 0.12251
# Poissons Ratio (y) = 0.32596 0.24888
# Poissons Ratio (z) = 0.09201 0.35274
#
# Static dielectric constant tensor:
#      x y z
#    x 4.550050 -0.239970 0.244030 
#    y -0.239970 4.683480 0.172190 
#    z 0.244030 0.172190 4.620870 
# 
# 
# High freq. dielectric constant tensor:
#      x y z
#    x 1.965980 -0.003940 0.010140 
#    y -0.003940 2.004190 0.017260 
#    z 0.010140 0.017260 1.990350 
# 
# From -- ./inp_files/319497.got.cif
#   From: 2010.06.25/outbox.cif.g09.slc.cpg/sg2_160_cif.got.tgz:319497.got - 2010.06.27 13:26:56.
