data_PCOD8029415
_publ_section_title
;
Structure prediction by ZEFSAII (Michael W. Deem and Ramdas Pophale) SiO2 
 PCOD8029415
Probable space group: P -1
;
_chemical_formula_sum "Si O2"
_cell_formula_units_Z 16
_cell_length_a 12.321204
_cell_length_b 9.073970
_cell_length_c 9.626159
_cell_angle_alpha 60.951698
_cell_angle_beta 71.021767
_cell_angle_gamma 54.065748
_cell_volume 760.563032
_symmetry_space_group_name_H-M "P -1"
_symmetry_group_IT_number 2
_symmetry_cell_setting 'triclinic'
loop_
_space_group_symop_operation_xyz
x,y,z
-x,-y,-z
loop_
_atom_site_type_symbol
_atom_site_label
_atom_site_fract_x
_atom_site_fract_y
_atom_site_fract_z
Si Si1 0.405581 0.686049 0.369313
Si Si2 0.043691 0.609342 0.212132
Si Si3 0.766966 0.093757 0.408987
Si Si4 0.783219 0.438693 0.592681
Si Si5 0.007851 0.265722 0.374931
Si Si6 0.598755 0.809161 0.132884
Si Si7 0.740070 0.824067 0.331213
Si Si8 0.840705 0.394286 0.131024
O O1 0.500000 0.500000 0.500000
O O2 0.320180 0.855607 0.438610
O O3 0.322279 0.632644 0.321052
O O4 0.501059 0.727356 0.222158
O O5 0.112053 0.666140 0.278545
O O6 0.083122 0.383579 0.324932
O O7 0.883702 0.743459 0.233391
O O8 0.102244 0.639973 0.032270
O O9 0.765772 0.275444 0.249848
O O10 0.913433 0.942229 0.483246
O O11 0.711346 0.005691 0.358070
O O12 0.723394 0.673186 0.507035
O O13 0.855574 0.368149 0.446155
O O14 0.979853 0.289597 0.210526
O O15 0.631268 0.886014 0.225555
O O16 0.738751 0.630698 0.089659
O O17 0.500000 0.000000 0.000000
#
# Coordination Sequence:
#
# PCOD8029415 Si02
#       8
#     2   2   2   2   2   2   2   2
#     4  12  24  47  69  92 135 189 227 271 325 402
#     4  11  23  40  71 105 140 170 220 284 361 384
#     4  12  24  40  74 104 131 175 231 280 338 405
#     4  11  20  44  73  98 137 177 223 280 332 410
#     4  11  20  41  70 104 133 176 222 277 345 409
#     4  12  28  48  66  96 138 190 232 269 333 403
#     4  11  22  44  70 100 138 174 224 290 328 409
#     4  12  25  43  66 104 146 173 220 288 338 401
#
# _framework density 21.037047000000001
#
# number of rings (size 3 to 8) (size 9 to 14) (size 15 to 20)
#    0.000    0.500    8.750    1.500    1.750    2.000 
#    2.250    1.250    0.000    0.000    0.000    0.000 
#    0.000    0.000    0.000    0.000    0.000    0.000 
#
# Total GULP energy -198230.888206 kJ/mol
# GULP energy per Si atom -12389.430513 kJ/mol
# Density = 2.098917 g / cm^3
# Si number density = 21.037047 Si / 1000 Ang^3
#
#
#
# Elastic Constant Matrix: (Units=GPa)
#
#
# Indices 1 2 3 4 5 6 
#
# 1 145.9488 25.6383 39.0009 -0.1697 14.7438 14.9708
# 2 25.6383 75.4556 16.8479 -9.2712 7.6992 13.4737
# 3 39.0009 16.8479 87.5215 -5.3360 8.8744 -1.6459
# 4 -0.1697 -9.2712 -5.3360 33.4017 -4.7113 7.5507
# 5 14.7438 7.6992 8.8744 -4.7113 37.0338 0.6440
# 6 14.9708 13.4737 -1.6459 7.5507 0.6440 20.1054
#
#
#
# Elastic Compliance Matrix: (Units=1/GPa)
#
#
# Indices 1 2 3 4 5 6 
#
# 1 0.008863 -0.000754 -0.003666 0.000382 -0.002332 -0.006463
# 2 -0.000754 0.017760 -0.002739 0.007513 -0.001531 -0.014338
# 3 -0.003666 -0.002739 0.013832 -0.000070 -0.001395 0.005769
# 4 0.000382 0.007513 -0.000070 0.036839 0.003324 -0.019267
# 5 -0.002332 -0.001531 -0.001395 0.003324 0.028998 0.000471
# 6 -0.006463 -0.014338 0.005769 -0.019267 0.000471 0.071852
#
#
# Mechanical properties :
#
#
# Convention : Reuss Voigt Hill
#
# Bulk Modulus (GPa) = 38.25994 52.43337 45.34666
# Shear Modulus (GPa) = 24.85402 33.27078 29.06240
#
# Velocity S-wave (km/s) = 3.44094 3.98116 3.72087
# Velocity P-wave (km/s) = 5.83208 6.79053 6.32947
#
# Compressibility (1/GPa) = 0.02613700
#
# Stress axis : x y z
#
# Youngs Moduli (GPa) = 112.83111 56.30602 72.29418
#
# Poissons Ratio (x) = 0.04244 0.26503
# Poissons Ratio (y) = 0.08505 0.19803
# Poissons Ratio (z) = 0.41364 0.15424
#
# Static dielectric constant tensor:
#      x y z
#    x 3.912430 0.016700 0.039080 
#    y 0.016700 3.869610 0.006250 
#    z 0.039080 0.006250 3.608970 
# 
# 
# High freq. dielectric constant tensor:
#      x y z
#    x 1.835300 0.012520 0.004570 
#    y 0.012520 1.816550 -0.004250 
#    z 0.004570 -0.004250 1.816180 
# 
# From -- ./inp_files/189813.got.cif
#   From: 2010.06.25/outbox.cif.g09.slc.cpg/sg2_95_cif.got.tgz:189813.got - 2010.06.27 13:26:56.
