data_PCOD8029236
_publ_section_title
;
Structure prediction by ZEFSAII (Michael W. Deem and Ramdas Pophale) SiO2 
 PCOD8029236
Probable space group: P -1
;
_chemical_formula_sum "Si O2"
_cell_formula_units_Z 16
_cell_length_a 21.334947
_cell_length_b 15.173301
_cell_length_c 11.179008
_cell_angle_alpha 128.037175
_cell_angle_beta 30.614607
_cell_angle_gamma 150.212770
_cell_volume 783.833219
_symmetry_space_group_name_H-M "P -1"
_symmetry_group_IT_number 2
_symmetry_cell_setting 'triclinic'
loop_
_space_group_symop_operation_xyz
x,y,z
-x,-y,-z
loop_
_atom_site_type_symbol
_atom_site_label
_atom_site_fract_x
_atom_site_fract_y
_atom_site_fract_z
Si Si1 0.958759 0.952950 0.888693
Si Si2 0.322399 0.851258 0.499700
Si Si3 0.218468 0.920405 0.097237
Si Si4 0.777215 0.454602 0.496842
Si Si5 0.804088 0.584949 0.799087
Si Si6 0.370975 0.173033 0.290714
Si Si7 0.687989 0.926780 0.168934
Si Si8 0.703726 0.092115 0.676687
O O1 0.836974 0.741991 0.887628
O O2 0.798381 0.927646 0.082642
O O3 0.197967 0.141803 0.580099
O O4 0.000000 0.000000 0.000000
O O5 0.170361 0.630472 0.610851
O O6 0.260780 0.839543 0.457658
O O7 0.277182 0.920357 0.716871
O O8 0.582792 0.012076 0.210096
O O9 0.998040 0.675297 0.259504
O O10 0.269570 0.021914 0.222001
O O11 0.194901 0.992027 0.087328
O O12 0.692504 0.467643 0.757315
O O13 0.580236 0.305802 0.595895
O O14 0.043125 0.699671 0.508508
O O15 0.625724 0.411001 0.048957
O O16 0.368506 0.093404 0.347568
O O17 0.500000 0.000000 0.000000
#
# Coordination Sequence:
#
# PCOD8029236 Si02
#       8
#     2   2   2   2   2   2   2   2
#     4  11  26  48  66  91 134 169 215 270 325 392
#     4  11  23  40  63  97 137 169 210 268 322 389
#     4  11  21  42  63  97 131 164 217 268 326 379
#     4  11  21  41  65  97 129 164 220 267 324 382
#     4  11  22  41  67  96 127 172 216 272 318 379
#     4  11  22  42  65  95 129 170 216 274 319 378
#     4  11  25  41  64  95 131 173 210 265 328 386
#     4  11  20  38  64  97 134 167 213 262 323 380
#
# _framework density 20.412507000000002
#
# number of rings (size 3 to 8) (size 9 to 14) (size 15 to 20)
#    0.000    1.000    6.250    3.000    0.000    7.500 
#    0.000    2.500    0.000    0.000    0.000    0.000 
#    0.000    0.000    0.000    0.000    0.000    0.000 
#
# Total GULP energy -198334.730153 kJ/mol
# GULP energy per Si atom -12395.920635 kJ/mol
# Density = 2.036605 g / cm^3
# Si number density = 20.412507 Si / 1000 Ang^3
#
#
#
# Elastic Constant Matrix: (Units=GPa)
#
#
# Indices 1 2 3 4 5 6 
#
# 1 127.6796 35.1474 32.6931 3.1300 -11.7193 -3.6103
# 2 35.1474 109.6282 45.9134 -1.2200 -2.3187 -4.7828
# 3 32.6931 45.9134 102.9485 -9.3666 0.8453 -7.2242
# 4 3.1300 -1.2200 -9.3666 44.4754 -9.6104 10.4332
# 5 -11.7193 -2.3187 0.8453 -9.6104 22.3322 -1.2128
# 6 -3.6103 -4.7828 -7.2242 10.4332 -1.2128 22.6504
#
#
#
# Elastic Compliance Matrix: (Units=1/GPa)
#
#
# Indices 1 2 3 4 5 6 
#
# 1 0.009382 -0.001997 -0.002101 -0.000332 0.004696 0.000808
# 2 -0.001997 0.011722 -0.004588 -0.000728 0.000086 0.001034
# 3 -0.002101 -0.004588 0.012747 0.002062 -0.001079 0.001754
# 4 -0.000332 -0.000728 0.002062 0.028119 0.011126 -0.011905
# 5 0.004696 0.000086 -0.001079 0.011126 0.051976 -0.001919
# 6 0.000808 0.001034 0.001754 -0.011905 -0.001919 0.050437
#
#
# Mechanical properties :
#
#
# Convention : Reuss Voigt Hill
#
# Bulk Modulus (GPa) = 60.68485 63.08491 61.88488
# Shear Modulus (GPa) = 26.70251 32.99176 29.84714
#
# Velocity S-wave (km/s) = 3.62075 4.02463 3.82802
# Velocity P-wave (km/s) = 6.87558 7.25044 7.06550
#
# Compressibility (1/GPa) = 0.01647858
#
# Stress axis : x y z
#
# Youngs Moduli (GPa) = 106.58875 85.30655 78.45258
#
# Poissons Ratio (x) = 0.17037 0.16481
# Poissons Ratio (y) = 0.21287 0.35996
# Poissons Ratio (z) = 0.22392 0.39140
#
# Static dielectric constant tensor:
#      x y z
#    x 4.140560 -0.011870 0.113930 
#    y -0.011870 3.758300 -0.042480 
#    z 0.113930 -0.042480 3.818280 
# 
# 
# High freq. dielectric constant tensor:
#      x y z
#    x 1.803900 -0.002890 0.010620 
#    y -0.002890 1.795590 -0.006040 
#    z 0.010620 -0.006040 1.795460 
# 
# From -- ./inp_files/464550.got.cif
#   From: 2010.06.25/outbox.cif.g09.slc.cpg/sg2_233_cif.got.tgz:464550.got - 2010.06.27 13:26:56.
