data_PCOD8029054
_publ_section_title
;
Structure prediction by ZEFSAII (Michael W. Deem and Ramdas Pophale) SiO2 
 PCOD8029054
Probable space group: P -1
;
_chemical_formula_sum "Si O2"
_cell_formula_units_Z 16
_cell_length_a 10.288783
_cell_length_b 13.675837
_cell_length_c 12.978654
_cell_angle_alpha 99.309087
_cell_angle_beta 150.223224
_cell_angle_gamma 93.873688
_cell_volume 810.413459
_symmetry_space_group_name_H-M "P -1"
_symmetry_group_IT_number 2
_symmetry_cell_setting 'triclinic'
loop_
_space_group_symop_operation_xyz
x,y,z
-x,-y,-z
loop_
_atom_site_type_symbol
_atom_site_label
_atom_site_fract_x
_atom_site_fract_y
_atom_site_fract_z
Si Si1 0.231434 0.519376 0.864464
Si Si2 0.314860 0.831483 0.370212
Si Si3 0.441517 0.080622 0.046528
Si Si4 0.380253 0.614215 0.662341
Si Si5 0.212797 0.792472 0.517410
Si Si6 0.570263 0.714227 0.028326
Si Si7 0.915475 0.577590 0.026383
Si Si8 0.919858 0.005333 0.828330
O O1 0.146148 0.476595 0.913145
O O2 0.945180 0.475478 0.589569
O O3 0.500000 0.500000 0.000000
O O4 0.349688 0.652938 0.959897
O O5 0.294073 0.861933 0.480821
O O6 0.144049 0.887575 0.199787
O O7 0.174256 0.700862 0.230773
O O8 0.654766 0.893005 0.588185
O O9 0.394152 0.164742 0.950479
O O10 0.172923 0.019059 0.926002
O O11 0.722036 0.135401 0.322120
O O12 0.500000 0.000000 0.000000
O O13 0.408046 0.724558 0.643577
O O14 0.452253 0.636701 0.835372
O O15 0.624336 0.579557 0.778619
O O16 0.874794 0.712445 0.268281
O O17 0.000000 0.500000 0.000000
O O18 0.000000 0.000000 0.000000
#
# Coordination Sequence:
#
# PCOD8029054 Si02
#       8
#     2   2   2   2   2   2   2   2
#     4  12  22  41  68 100 124 170 228 270 321 401
#     4  11  21  44  67  94 126 174 234 267 321 403
#     4  11  25  43  62 100 136 167 212 277 350 389
#     4  11  20  38  70  91 128 170 225 261 326 394
#     4  11  19  40  71  91 125 175 220 276 318 397
#     4  11  22  40  67  98 126 171 223 271 324 397
#     4  12  27  44  62 100 143 174 213 282 345 393
#     4  11  23  41  72  95 122 175 230 273 323 398
#
# _framework density 19.743010999999999
#
# number of rings (size 3 to 8) (size 9 to 14) (size 15 to 20)
#    0.000    0.750    7.500    1.125    0.000    1.000 
#    6.750    0.000    0.000    0.000    0.000    0.000 
#    0.000    0.000    0.000    0.000    0.000    0.000 
#
# Total GULP energy -198282.563563 kJ/mol
# GULP energy per Si atom -12392.660223 kJ/mol
# Density = 1.969807 g / cm^3
# Si number density = 19.743011 Si / 1000 Ang^3
#
#
#
# Elastic Constant Matrix: (Units=GPa)
#
#
# Indices 1 2 3 4 5 6 
#
# 1 115.0146 85.9705 66.3651 6.9253 5.0067 -0.2799
# 2 85.9705 133.5301 62.8910 -1.5303 1.0355 8.1719
# 3 66.3651 62.8910 159.6736 -3.6653 7.4656 -1.3199
# 4 6.9253 -1.5303 -3.6653 29.0141 9.4278 3.5375
# 5 5.0067 1.0355 7.4656 9.4278 25.9693 0.7905
# 6 -0.2799 8.1719 -1.3199 3.5375 0.7905 38.8310
#
#
#
# Elastic Compliance Matrix: (Units=1/GPa)
#
#
# Indices 1 2 3 4 5 6 
#
# 1 0.019529 -0.010980 -0.003903 -0.006053 -0.000095 0.002872
# 2 -0.010980 0.015550 -0.001551 0.003437 0.000808 -0.003734
# 3 -0.003903 -0.001551 0.008689 0.002778 -0.002704 0.000396
# 4 -0.006053 0.003437 0.002778 0.041762 -0.014803 -0.004176
# 5 -0.000095 0.000808 -0.002704 -0.014803 0.044639 0.000177
# 6 0.002872 -0.003734 0.000396 -0.004176 0.000177 0.026949
#
#
# Mechanical properties :
#
#
# Convention : Reuss Voigt Hill
#
# Bulk Modulus (GPa) = 91.73273 93.18574 92.45923
# Shear Modulus (GPa) = 25.82370 31.62900 28.72635
#
# Velocity S-wave (km/s) = 3.62054 4.00689 3.81860
# Velocity P-wave (km/s) = 8.00263 8.28907 8.14711
#
# Compressibility (1/GPa) = 0.01090123
#
# Stress axis : x y z
#
# Youngs Moduli (GPa) = 51.20522 64.30837 115.08230
#
# Poissons Ratio (x) = 0.70608 0.44918
# Poissons Ratio (y) = 0.56221 0.17850
# Poissons Ratio (z) = 0.19986 0.09975
#
# Static dielectric constant tensor:
#      x y z
#    x 3.539900 0.431730 0.065300 
#    y 0.431730 3.941600 -0.066550 
#    z 0.065300 -0.066550 4.158570 
# 
# 
# High freq. dielectric constant tensor:
#      x y z
#    x 1.739700 0.036310 0.003270 
#    y 0.036310 1.773740 -0.003370 
#    z 0.003270 -0.003370 1.794450 
# 
# From -- ./inp_files/80224.got.cif
#   From: 2010.06.25/outbox.cif.g09.slc.cpg/sg2_41_cif.got.tgz:80224.got - 2010.06.27 13:26:56.
