data_PCOD8029844
_publ_section_title
;
Structure prediction by ZEFSAII (Michael W. Deem and Ramdas Pophale) SiO2 
 PCOD8029844
Probable space group: P -1
;
_chemical_formula_sum "Si O2"
_cell_formula_units_Z 16
_cell_length_a 10.001835
_cell_length_b 12.950473
_cell_length_c 14.247725
_cell_angle_alpha 51.628174
_cell_angle_beta 74.262715
_cell_angle_gamma 117.237025
_cell_volume 777.542670
_symmetry_space_group_name_H-M "P -1"
_symmetry_group_IT_number 2
_symmetry_cell_setting 'triclinic'
loop_
_space_group_symop_operation_xyz
x,y,z
-x,-y,-z
loop_
_atom_site_type_symbol
_atom_site_label
_atom_site_fract_x
_atom_site_fract_y
_atom_site_fract_z
Si Si1 0.649937 0.223908 0.065347
Si Si2 0.795761 0.953510 0.058858
Si Si3 0.902574 0.555717 0.213615
Si Si4 0.531533 0.840909 0.334887
Si Si5 0.281723 0.560730 0.898772
Si Si6 0.599287 0.740819 0.016874
Si Si7 0.264264 0.224596 0.370027
Si Si8 0.045679 0.922928 0.753432
O O1 0.725400 0.311364 0.111171
O O2 0.503944 0.970798 0.234332
O O3 0.476551 0.202258 0.070863
O O4 0.903175 0.412901 0.848964
O O5 0.559987 0.763175 0.284354
O O6 0.657121 0.848941 0.045301
O O7 0.000000 0.000000 0.000000
O O8 0.946992 0.203156 0.912178
O O9 0.694559 0.367287 0.436711
O O10 0.787588 0.483561 0.172666
O O11 0.798539 0.031227 0.224255
O O12 0.562283 0.728758 0.753646
O O13 0.116511 0.323177 0.121571
O O14 0.374312 0.458452 0.224345
O O15 0.857151 0.880736 0.855542
O O16 0.000000 0.000000 0.500000
O O17 0.241052 0.147880 0.521945
#
# Coordination Sequence:
#
# PCOD8029844 Si02
#       8
#     2   2   2   2   2   2   2   2
#     4  11  25  42  63  94 135 173 212 258 328 381
#     4  11  22  44  69  94 125 168 216 267 321 375
#     4  11  24  41  63  97 130 169 214 263 317 380
#     4  11  24  41  65  98 127 166 218 263 315 381
#     4  11  21  41  65  94 131 172 214 262 316 384
#     4  11  25  44  67  96 131 170 214 266 324 381
#     4  11  23  39  64  98 132 166 215 268 320 376
#     4  11  21  40  66  95 127 165 216 267 316 372
#
# _framework density 20.577648
#
# number of rings (size 3 to 8) (size 9 to 14) (size 15 to 20)
#    0.000    1.000    5.000    2.625    0.000    9.000 
#    0.000    1.250    0.000    0.000    0.000    0.000 
#    0.000    0.000    0.000    0.000    0.000    0.000 
#
# Total GULP energy -198256.889067 kJ/mol
# GULP energy per Si atom -12391.055567 kJ/mol
# Density = 2.053081 g / cm^3
# Si number density = 20.577648 Si / 1000 Ang^3
#
#
#
# Elastic Constant Matrix: (Units=GPa)
#
#
# Indices 1 2 3 4 5 6 
#
# 1 82.4691 25.3904 39.0903 1.6448 2.4121 -7.9363
# 2 25.3904 127.9345 36.6973 8.1278 -0.6936 -9.0711
# 3 39.0903 36.6973 115.1589 13.6641 -0.8897 -8.8798
# 4 1.6448 8.1278 13.6641 27.3909 2.2723 -7.3955
# 5 2.4121 -0.6936 -0.8897 2.2723 30.6951 2.9320
# 6 -7.9363 -9.0711 -8.8798 -7.3955 2.9320 32.3554
#
#
#
# Elastic Compliance Matrix: (Units=1/GPa)
#
#
# Indices 1 2 3 4 5 6 
#
# 1 0.015149 -0.001636 -0.004760 0.002851 -0.001841 0.002769
# 2 -0.001636 0.008891 -0.002037 -0.001211 0.000242 0.001234
# 3 -0.004760 -0.002037 0.011555 -0.004897 0.001004 0.000222
# 4 0.002851 -0.001211 -0.004897 0.041929 -0.004356 0.008994
# 5 -0.001841 0.000242 0.001004 -0.004356 0.033475 -0.004137
# 6 0.002769 0.001234 0.000222 0.008994 -0.004137 0.034424
#
#
# Mechanical properties :
#
#
# Convention : Reuss Voigt Hill
#
# Bulk Modulus (GPa) = 53.39465 58.65763 56.02614
# Shear Modulus (GPa) = 29.66783 33.04724 31.35753
#
# Velocity S-wave (km/s) = 3.80116 4.01181 3.90790
# Velocity P-wave (km/s) = 6.72825 7.07297 6.90276
#
# Compressibility (1/GPa) = 0.01872847
#
# Stress axis : x y z
#
# Youngs Moduli (GPa) = 66.01049 112.46958 86.54581
#
# Poissons Ratio (x) = 0.18399 0.41195
# Poissons Ratio (y) = 0.10799 0.17633
# Poissons Ratio (z) = 0.31421 0.22914
#
# Static dielectric constant tensor:
#      x y z
#    x 3.785440 -0.148140 -0.145330 
#    y -0.148140 4.072360 0.391150 
#    z -0.145330 0.391150 4.120990 
# 
# 
# High freq. dielectric constant tensor:
#      x y z
#    x 1.807340 -0.005840 -0.011350 
#    y -0.005840 1.809570 0.010350 
#    z -0.011350 0.010350 1.809640 
# 
# From -- ./inp_files/500033.got.cif
#   From: 2010.06.25/outbox.cif.g09.slc.cpg/sg2_251_cif.got.tgz:500033.got - 2010.06.27 13:26:56.
