data_PCOD8029468
_publ_section_title
;
Structure prediction by ZEFSAII (Michael W. Deem and Ramdas Pophale) SiO2 
 PCOD8029468
Probable space group: P -1
;
_chemical_formula_sum "Si O2"
_cell_formula_units_Z 16
_cell_length_a 9.108362
_cell_length_b 11.138736
_cell_length_c 17.584240
_cell_angle_alpha 129.517047
_cell_angle_beta 145.049939
_cell_angle_gamma 61.563885
_cell_volume 784.238972
_symmetry_space_group_name_H-M "P -1"
_symmetry_group_IT_number 2
_symmetry_cell_setting 'triclinic'
loop_
_space_group_symop_operation_xyz
x,y,z
-x,-y,-z
loop_
_atom_site_type_symbol
_atom_site_label
_atom_site_fract_x
_atom_site_fract_y
_atom_site_fract_z
Si Si1 0.582387 0.325346 0.398896
Si Si2 0.434012 0.778722 0.945557
Si Si3 0.828024 0.538017 0.281960
Si Si4 0.610654 0.354609 0.585142
Si Si5 0.009903 0.338052 0.011234
Si Si6 0.814318 0.594489 0.130637
Si Si7 0.586244 0.379984 0.746401
Si Si8 0.384470 0.114877 0.101368
O O1 0.492790 0.268976 0.424213
O O2 0.399460 0.456640 0.349622
O O3 0.567734 0.183456 0.276026
O O4 0.876361 0.399420 0.559961
O O5 0.661031 0.703075 0.055717
O O6 0.358355 0.927838 0.020868
O O7 0.189048 0.648395 0.785172
O O8 0.507755 0.829399 0.912139
O O9 0.698308 0.565097 0.154807
O O10 0.662108 0.620383 0.306511
O O11 0.478097 0.304095 0.589383
O O12 0.903322 0.315912 0.701873
O O13 0.843726 0.427888 0.036528
O O14 0.264841 0.445157 0.131609
O O15 0.106636 0.179762 0.022495
O O16 0.808135 0.282379 0.835813
#
# Coordination Sequence:
#
# PCOD8029468 Si02
#       8
#     2   2   2   2   2   2   2   2
#     4  10  20  34  56  83 113 147 186 232 274 333
#     4  11  22  35  57  89 117 142 179 242 285 324
#     4  11  21  34  57  90 115 141 185 240 281 319
#     4   9  18  33  55  78 106 147 198 220 260 330
#     4  10  17  33  58  81 107 149 194 228 261 336
#     4  10  19  35  60  83 110 145 196 233 267 324
#     4  10  17  30  57  85 106 140 198 233 266 312
#     4  11  21  37  57  85 117 148 184 223 288 340
#
# _framework density 20.401945999999999
#
# number of rings (size 3 to 8) (size 9 to 14) (size 15 to 20)
#    0.000    1.750    5.000    1.875    0.000    2.000 
#    0.000    3.125    0.000    1.500    0.000    8.750 
#    0.000    0.000    0.000    0.000    0.000    0.000 
#
# Total GULP energy -198224.211814 kJ/mol
# GULP energy per Si atom -12389.013238 kJ/mol
# Density = 2.035551 g / cm^3
# Si number density = 20.401946 Si / 1000 Ang^3
#
#
#
# Elastic Constant Matrix: (Units=GPa)
#
#
# Indices 1 2 3 4 5 6 
#
# 1 120.6605 36.2811 35.7813 -6.8680 -32.5455 -0.6539
# 2 36.2811 100.2427 50.2354 -2.7451 -15.8513 -20.2927
# 3 35.7813 50.2354 89.6623 -8.3965 -29.2720 -0.2295
# 4 -6.8680 -2.7451 -8.3965 24.7858 1.3964 -3.8373
# 5 -32.5455 -15.8513 -29.2720 1.3964 37.3950 -5.0478
# 6 -0.6539 -20.2927 -0.2295 -3.8373 -5.0478 24.6653
#
#
#
# Elastic Compliance Matrix: (Units=1/GPa)
#
#
# Indices 1 2 3 4 5 6 
#
# 1 0.011649 -0.002664 0.000004 0.002481 0.008965 0.000338
# 2 -0.002664 0.018784 -0.009198 0.000596 0.000513 0.015495
# 3 0.000004 -0.009198 0.020424 0.004590 0.011334 -0.004344
# 4 0.002481 0.000596 0.004590 0.043662 0.005525 0.008522
# 5 0.008965 0.000513 0.011334 0.005525 0.044886 0.010811
# 6 0.000338 0.015495 -0.004344 0.008522 0.010811 0.056798
#
#
# Mechanical properties :
#
#
# Convention : Reuss Voigt Hill
#
# Bulk Modulus (GPa) = 36.84589 61.68456 49.26523
# Shear Modulus (GPa) = 21.83736 29.92040 25.87888
#
# Velocity S-wave (km/s) = 3.27518 3.83371 3.56540
# Velocity P-wave (km/s) = 5.69224 7.06376 6.41476
#
# Compressibility (1/GPa) = 0.02714007
#
# Stress axis : x y z
#
# Youngs Moduli (GPa) = 85.84612 53.23774 48.96285
#
# Poissons Ratio (x) = 0.14183 -0.00020
# Poissons Ratio (y) = 0.22871 0.45035
# Poissons Ratio (z) = -0.00034 0.48967
#
# Static dielectric constant tensor:
#      x y z
#    x 3.933440 -0.032710 -0.453200 
#    y -0.032710 3.665900 -0.357980 
#    z -0.453200 -0.357980 3.688390 
# 
# 
# High freq. dielectric constant tensor:
#      x y z
#    x 1.807880 -0.013310 -0.031460 
#    y -0.013310 1.764920 -0.043410 
#    z -0.031460 -0.043410 1.781090 
# 
# From -- ./inp_files/558645.got.cif
#   From: 2010.06.25/outbox.cif.g09.slc.cpg/sg2_280_cif.got.tgz:558645.got - 2010.06.27 13:26:56.
