data_PCOD8029113
_publ_section_title
;
Structure prediction by ZEFSAII (Michael W. Deem and Ramdas Pophale) SiO2 
 PCOD8029113
Probable space group: P -1
;
_chemical_formula_sum "Si O2"
_cell_formula_units_Z 12
_cell_length_a 13.313325
_cell_length_b 9.698510
_cell_length_c 11.088046
_cell_angle_alpha 89.120861
_cell_angle_beta 32.790913
_cell_angle_gamma 111.637414
_cell_volume 550.021001
_symmetry_space_group_name_H-M "P -1"
_symmetry_group_IT_number 2
_symmetry_cell_setting 'triclinic'
loop_
_space_group_symop_operation_xyz
x,y,z
-x,-y,-z
loop_
_atom_site_type_symbol
_atom_site_label
_atom_site_fract_x
_atom_site_fract_y
_atom_site_fract_z
Si Si1 0.633673 0.394162 0.159171
Si Si2 0.672940 0.111563 0.103292
Si Si3 0.068861 0.094120 0.799969
Si Si4 0.100849 0.832730 0.639806
Si Si5 0.824071 0.074293 0.714594
Si Si6 0.388523 0.298335 0.161142
O O1 0.732444 0.293169 0.097889
O O2 0.568524 0.341320 0.085603
O O3 0.370874 0.307311 0.495163
O O4 0.865187 0.623624 0.939424
O O5 0.365314 0.917200 0.436398
O O6 0.706185 0.126399 0.923028
O O7 0.859863 0.103198 0.982171
O O8 0.050256 0.965383 0.720000
O O9 0.000000 0.000000 0.000000
O O10 0.119181 0.831144 0.475817
O O11 0.093660 0.170394 0.505112
O O12 0.629830 0.838561 0.913397
O O13 0.500000 0.500000 0.000000
#
# Coordination Sequence:
#
# PCOD8029113 Si02
#       6
#     2   2   2   2   2   2
#     4  11  24  41  62  99 128 164 213 260 314 374
#     4  11  24  41  63  97 129 164 209 259 316 379
#     4  11  25  48  69  86 122 172 216 265 320 369
#     4  11  24  41  65  98 131 162 209 262 313 379
#     4  11  20  38  62  93 133 170 201 245 315 379
#     4  11  20  34  61  92 132 172 205 249 303 379
#
# _framework density 21.817349
#
# number of rings (size 3 to 8) (size 9 to 14) (size 15 to 20)
#    0.000    1.000    6.667    1.500    0.000    6.667 
#    0.000    1.667    0.000    0.000    0.000    0.000 
#    0.000    0.000    0.000    0.000    0.000    0.000 
#
# Total GULP energy -148714.567608 kJ/mol
# GULP energy per Si atom -12392.880634 kJ/mol
# Density = 2.176769 g / cm^3
# Si number density = 21.817349 Si / 1000 Ang^3
#
#
#
# Elastic Constant Matrix: (Units=GPa)
#
#
# Indices 1 2 3 4 5 6 
#
# 1 87.5092 30.8787 52.6783 3.8950 -9.1253 -31.3798
# 2 30.8787 63.6724 54.5441 -16.9042 -18.1254 -23.8161
# 3 52.6783 54.5441 128.4304 -24.7747 -13.4452 -19.2113
# 4 3.8950 -16.9042 -24.7747 40.8967 -5.9942 -5.6161
# 5 -9.1253 -18.1254 -13.4452 -5.9942 35.0831 10.2407
# 6 -31.3798 -23.8161 -19.2113 -5.6161 10.2407 28.9843
#
#
#
# Elastic Compliance Matrix: (Units=1/GPa)
#
#
# Indices 1 2 3 4 5 6 
#
# 1 0.023339 0.001971 -0.008215 -0.003844 -0.003075 0.021784
# 2 0.001971 0.042321 -0.009688 0.017369 0.013102 0.029223
# 3 -0.008215 -0.009688 0.015636 0.005661 0.001552 -0.005942
# 4 -0.003844 0.017369 0.005661 0.039544 0.011838 0.017343
# 5 -0.003075 0.013102 0.001552 0.011838 0.037854 -0.002615
# 6 0.021784 0.029223 -0.005942 0.017343 -0.002615 0.082444
#
#
# Mechanical properties :
#
#
# Convention : Reuss Voigt Hill
#
# Bulk Modulus (GPa) = 20.23009 61.75713 40.99361
# Shear Modulus (GPa) = 17.27245 30.42690 23.84968
#
# Velocity S-wave (km/s) = 2.81674 3.73851 3.30987
# Velocity P-wave (km/s) = 4.45772 6.85589 5.78249
#
# Compressibility (1/GPa) = 0.04943133
#
# Stress axis : x y z
#
# Youngs Moduli (GPa) = 42.84683 23.62921 63.95436
#
# Poissons Ratio (x) = -0.04657 0.52537
# Poissons Ratio (y) = -0.08445 0.61961
# Poissons Ratio (z) = 0.35198 0.22893
#
# Static dielectric constant tensor:
#      x y z
#    x 3.844610 -0.196020 -0.027290 
#    y -0.196020 4.131040 -0.296710 
#    z -0.027290 -0.296710 4.449420 
# 
# 
# High freq. dielectric constant tensor:
#      x y z
#    x 1.848010 -0.012480 -0.017710 
#    y -0.012480 1.849030 -0.001330 
#    z -0.017710 -0.001330 1.859480 
# 
# From -- ./inp_files/445947.got.cif
#   From: 2010.06.25/outbox.cif.g09.slc.cpg/sg2_223_cif.got.tgz:445947.got - 2010.06.27 13:26:56.
