data_PCOD8029098
_publ_section_title
;
Structure prediction by ZEFSAII (Michael W. Deem and Ramdas Pophale) SiO2 
 PCOD8029098
Probable space group: P -1
;
_chemical_formula_sum "Si O2"
_cell_formula_units_Z 10
_cell_length_a 15.815008
_cell_length_b 10.894508
_cell_length_c 9.350999
_cell_angle_alpha 52.023969
_cell_angle_beta 153.671644
_cell_angle_gamma 128.720020
_cell_volume 550.503505
_symmetry_space_group_name_H-M "P -1"
_symmetry_group_IT_number 2
_symmetry_cell_setting 'triclinic'
loop_
_space_group_symop_operation_xyz
x,y,z
-x,-y,-z
loop_
_atom_site_type_symbol
_atom_site_label
_atom_site_fract_x
_atom_site_fract_y
_atom_site_fract_z
Si Si1 0.015232 0.346777 0.461801
Si Si2 0.270707 0.453207 0.206486
Si Si3 0.986552 0.178191 0.822996
Si Si4 0.712163 0.598971 0.407016
Si Si5 0.317800 0.643040 0.695076
O O1 0.976441 0.203292 0.618491
O O2 0.116943 0.295783 0.507827
O O3 0.162403 0.502484 0.642568
O O4 0.813643 0.395185 0.078697
O O5 0.500000 0.500000 0.500000
O O6 0.211452 0.414343 0.309062
O O7 0.178099 0.294496 0.092643
O O8 0.785099 0.205796 0.570580
O O9 0.000000 0.000000 0.000000
O O10 0.650858 0.419834 0.373305
O O11 0.523460 0.680541 0.062945
#
# Coordination Sequence:
#
# PCOD8029098 Si02
#       5
#     2   2   2   2   2
#     4   9  18  33  54  77 105 140 180 215 260 309
#     4  11  20  33  60  83 103 135 188 221 256 311
#     4  11  22  36  52  79 115 146 167 213 277 321
#     4   9  17  32  60  83  97 134 190 229 248 299
#     4   8  17  33  59  74 111 132 185 213 269 305
#
# _framework density 18.165189000000002
#
# number of rings (size 3 to 8) (size 9 to 14) (size 15 to 20)
#    1.200    1.200    0.000    5.400    0.000    0.000 
#    0.000    6.000    0.000    0.000    0.000    0.000 
#    0.000    0.000    0.000    0.000    0.000    0.000 
#
# Total GULP energy -123919.419598 kJ/mol
# GULP energy per Si atom -12391.941960 kJ/mol
# Density = 1.812384 g / cm^3
# Si number density = 18.165189 Si / 1000 Ang^3
#
#
#
# Elastic Constant Matrix: (Units=GPa)
#
#
# Indices 1 2 3 4 5 6 
#
# 1 108.6121 34.6663 69.2206 -10.9389 -7.9537 1.6030
# 2 34.6663 63.6166 51.6697 -23.1144 -1.3057 4.8065
# 3 69.2206 51.6697 145.5731 -17.2987 12.2681 9.1422
# 4 -10.9389 -23.1144 -17.2987 29.2966 -1.6066 -0.9638
# 5 -7.9537 -1.3057 12.2681 -1.6066 44.8010 -1.0599
# 6 1.6030 4.8065 9.1422 -0.9638 -1.0599 14.4555
#
#
#
# Elastic Compliance Matrix: (Units=1/GPa)
#
#
# Indices 1 2 3 4 5 6 
#
# 1 0.014522 -0.002976 -0.006500 -0.000401 0.004347 0.003782
# 2 -0.002976 0.030194 -0.007103 0.018550 0.002873 -0.003770
# 3 -0.006500 -0.007103 0.013186 -0.000714 -0.005132 -0.005681
# 4 -0.000401 0.018550 -0.000714 0.048252 0.002341 -0.002284
# 5 0.004347 0.002873 -0.005132 0.002341 0.024755 0.003779
# 6 0.003782 -0.003770 -0.005681 -0.002284 0.003779 0.073729
#
#
# Mechanical properties :
#
#
# Convention : Reuss Voigt Hill
#
# Bulk Modulus (GPa) = 40.41548 69.87945 55.14746
# Shear Modulus (GPa) = 20.32161 28.52698 24.42429
#
# Velocity S-wave (km/s) = 3.34834 3.96715 3.67081
# Velocity P-wave (km/s) = 6.10293 7.71601 6.95638
#
# Compressibility (1/GPa) = 0.02474300
#
# Stress axis : x y z
#
# Youngs Moduli (GPa) = 68.86177 33.11945 75.83874
#
# Poissons Ratio (x) = 0.09856 0.49298
# Poissons Ratio (y) = 0.20493 0.53867
# Poissons Ratio (z) = 0.44763 0.23524
#
# Static dielectric constant tensor:
#      x y z
#    x 3.397130 -0.149970 0.054490 
#    y -0.149970 2.731900 -0.018460 
#    z 0.054490 -0.018460 3.431950 
# 
# 
# High freq. dielectric constant tensor:
#      x y z
#    x 1.713320 -0.013040 0.006650 
#    y -0.013040 1.629080 -0.003670 
#    z 0.006650 -0.003670 1.721760 
# 
# From -- ./inp_files/144637.got.cif
#   From: 2010.06.25/outbox.cif.g09.slc.cpg/sg2_73_cif.got.tgz:144637.got - 2010.06.27 13:26:56.
