data_PCOD8029217
_publ_section_title
;
Structure prediction by ZEFSAII (Michael W. Deem and Ramdas Pophale) SiO2 
 PCOD8029217
Probable space group: P -1
;
_chemical_formula_sum "Si O2"
_cell_formula_units_Z 12
_cell_length_a 8.849920
_cell_length_b 10.756359
_cell_length_c 14.745477
_cell_angle_alpha 150.594800
_cell_angle_beta 65.523128
_cell_angle_gamma 125.270595
_cell_volume 548.711644
_symmetry_space_group_name_H-M "P -1"
_symmetry_group_IT_number 2
_symmetry_cell_setting 'triclinic'
loop_
_space_group_symop_operation_xyz
x,y,z
-x,-y,-z
loop_
_atom_site_type_symbol
_atom_site_label
_atom_site_fract_x
_atom_site_fract_y
_atom_site_fract_z
Si Si1 0.459407 0.274278 0.584157
Si Si2 0.307483 0.520077 0.640039
Si Si3 0.332920 0.057500 0.665603
Si Si4 0.964897 0.570609 0.723693
Si Si5 0.289446 0.232771 0.276769
Si Si6 0.900519 0.895309 0.094220
O O1 0.303185 0.271647 0.551069
O O2 0.490785 0.994912 0.383800
O O3 0.662702 0.563147 0.696542
O O4 0.394356 0.278427 0.706052
O O5 0.264649 0.407001 0.476538
O O6 0.522133 0.801482 0.772242
O O7 0.146721 0.603239 0.757624
O O8 0.155309 0.755032 0.487229
O O9 0.273071 0.199177 0.852528
O O10 0.049986 0.793954 0.761612
O O11 0.843511 0.652683 0.876741
O O12 0.093663 0.938175 0.123635
#
# Coordination Sequence:
#
# PCOD8029217 Si02
#       6
#     2   2   2   2   2   2
#     4   9  20  35  59  81 108 150 177 221 281 320
#     4   9  18  34  59  84 106 143 186 220 272 320
#     4  11  20  38  60  77 115 144 178 227 273 325
#     4  11  21  35  59  83 109 143 184 230 262 323
#     4   9  17  36  57  81 107 141 186 217 269 321
#     4  11  22  35  59  84 107 143 190 220 269 323
#
# _framework density 21.869409999999998
#
# number of rings (size 3 to 8) (size 9 to 14) (size 15 to 20)
#    1.000    1.000    3.333    1.500    0.000    1.333 
#    0.000    4.167    3.667    0.000    0.000    0.000 
#    0.000    0.000    0.000    0.000    0.000    0.000 
#
# Total GULP energy -148659.570265 kJ/mol
# GULP energy per Si atom -12388.297522 kJ/mol
# Density = 2.181963 g / cm^3
# Si number density = 21.869410 Si / 1000 Ang^3
#
#
#
# Elastic Constant Matrix: (Units=GPa)
#
#
# Indices 1 2 3 4 5 6 
#
# 1 86.1098 16.6496 10.3541 -7.2213 -12.9561 -10.2185
# 2 16.6496 109.4045 28.5169 -40.0934 -10.7118 -14.4715
# 3 10.3541 28.5169 57.5455 -34.9432 -10.2185 -2.5218
# 4 -7.2213 -40.0934 -34.9432 37.9287 4.1408 2.0764
# 5 -12.9561 -10.7118 -10.2185 4.1408 22.1173 -4.7188
# 6 -10.2185 -14.4715 -2.5218 2.0764 -4.7188 16.3838
#
#
#
# Elastic Compliance Matrix: (Units=1/GPa)
#
#
# Indices 1 2 3 4 5 6 
#
# 1 0.015083 0.002217 0.002217 0.005006 0.013167 0.014864
# 2 0.002217 0.021904 0.011656 0.031247 0.016411 0.023290
# 3 0.002217 0.011656 0.049421 0.054644 0.023636 0.019167
# 4 0.005006 0.031247 0.054644 0.105410 0.030981 0.034697
# 5 0.013167 0.016411 0.023636 0.030981 0.075412 0.044140
# 6 0.014864 0.023290 0.019167 0.034697 0.044140 0.102144
#
#
# Mechanical properties :
#
#
# Convention : Reuss Voigt Hill
#
# Bulk Modulus (GPa) = 8.43264 40.45568 24.44416
# Shear Modulus (GPa) = 13.27231 28.45523 20.86377
#
# Velocity S-wave (km/s) = 2.46618 3.61105 3.09207
# Velocity P-wave (km/s) = 3.46030 5.99376 4.89381
#
# Compressibility (1/GPa) = 0.11858678
#
# Stress axis : x y z
#
# Youngs Moduli (GPa) = 66.30067 45.65462 20.23426
#
# Poissons Ratio (x) = -0.10121 -0.04486
# Poissons Ratio (y) = -0.14698 -0.23584
# Poissons Ratio (z) = -0.14700 -0.53214
#
# Static dielectric constant tensor:
#      x y z
#    x 4.175160 0.009290 -0.133810 
#    y 0.009290 3.777440 -0.311050 
#    z -0.133810 -0.311050 3.422180 
# 
# 
# High freq. dielectric constant tensor:
#      x y z
#    x 1.871660 0.001940 -0.004340 
#    y 0.001940 1.839610 -0.033910 
#    z -0.004340 -0.033910 1.822050 
# 
# From -- ./inp_files/205347.got.cif
#   From: 2010.06.25/outbox.cif.g09.slc.cpg/sg2_103_cif.got.tgz:205347.got - 2010.06.27 13:26:56.
