data_PCOD8029449
_publ_section_title
;
Structure prediction by ZEFSAII (Michael W. Deem and Ramdas Pophale) SiO2 
 PCOD8029449
Probable space group: P -1
;
_chemical_formula_sum "Si O2"
_cell_formula_units_Z 16
_cell_length_a 14.614994
_cell_length_b 11.799118
_cell_length_c 11.622213
_cell_angle_alpha 97.480482
_cell_angle_beta 119.644235
_cell_angle_gamma 31.839705
_cell_volume 711.750601
_symmetry_space_group_name_H-M "P -1"
_symmetry_group_IT_number 2
_symmetry_cell_setting 'triclinic'
loop_
_space_group_symop_operation_xyz
x,y,z
-x,-y,-z
loop_
_atom_site_type_symbol
_atom_site_label
_atom_site_fract_x
_atom_site_fract_y
_atom_site_fract_z
Si Si1 0.966254 0.937971 0.188444
Si Si2 0.269010 0.373831 0.693836
Si Si3 0.079874 0.813121 0.946148
Si Si4 0.441809 0.350418 0.354008
Si Si5 0.281851 0.092769 0.677772
Si Si6 0.440409 0.773395 0.326290
Si Si7 0.511024 0.250422 0.041101
Si Si8 0.246520 0.741641 0.542741
O O1 0.152970 0.682703 0.179823
O O2 0.157729 0.743666 0.388237
O O3 0.918836 0.119675 0.165527
O O4 0.698353 0.141730 0.066491
O O5 0.311014 0.198587 0.712980
O O6 0.467534 0.218594 0.700487
O O7 0.986480 0.682054 0.513564
O O8 0.312409 0.389356 0.847384
O O9 0.361625 0.474127 0.075842
O O10 0.866575 0.925831 0.831324
O O11 0.000000 0.000000 0.000000
O O12 0.471668 0.286984 0.497503
O O13 0.646478 0.244721 0.432962
O O14 0.492543 0.183537 0.295435
O O15 0.314216 0.014206 0.817869
O O16 0.533296 0.556619 0.304733
O O17 0.000000 0.000000 0.500000
#
# Coordination Sequence:
#
# PCOD8029449 Si02
#       8
#     2   2   2   2   2   2   2   2
#     4  11  22  39  61 100 138 181 216 271 349 419
#     4  11  26  47  72 101 132 185 239 290 342 410
#     4  12  24  38  60  96 144 180 215 279 348 422
#     4  11  20  42  67 100 142 180 228 287 342 412
#     4  11  25  48  73  96 135 185 238 289 348 400
#     4  11  22  40  63 100 141 178 227 282 345 413
#     4  12  26  45  69 102 140 181 235 289 346 413
#     4  11  21  34  67  97 138 181 220 276 346 416
#
# _framework density 22.479785
#
# number of rings (size 3 to 8) (size 9 to 14) (size 15 to 20)
#    0.000    0.750    2.500    6.750    3.500    0.500 
#    0.000    3.750    0.000    0.000    0.000    0.000 
#    0.000    0.000    0.000    0.000    0.000    0.000 
#
# Total GULP energy -198301.494397 kJ/mol
# GULP energy per Si atom -12393.843400 kJ/mol
# Density = 2.242862 g / cm^3
# Si number density = 22.479785 Si / 1000 Ang^3
#
#
#
# Elastic Constant Matrix: (Units=GPa)
#
#
# Indices 1 2 3 4 5 6 
#
# 1 119.4141 40.7074 36.8033 -10.4942 5.0678 -7.4676
# 2 40.7074 109.7322 22.7297 -17.1889 13.3623 -2.6574
# 3 36.8033 22.7297 92.7188 -11.0112 4.6506 10.8045
# 4 -10.4942 -17.1889 -11.0112 37.8221 -0.4089 4.0357
# 5 5.0678 13.3623 4.6506 -0.4089 29.2912 -3.5053
# 6 -7.4676 -2.6574 10.8045 4.0357 -3.5053 28.5453
#
#
#
# Elastic Compliance Matrix: (Units=1/GPa)
#
#
# Indices 1 2 3 4 5 6 
#
# 1 0.010960 -0.003211 -0.004097 -0.000053 0.000723 0.004215
# 2 -0.003211 0.011678 -0.000782 0.004205 -0.004663 -0.000624
# 3 -0.004097 -0.000782 0.013923 0.003300 -0.001951 -0.007120
# 4 -0.000053 0.004205 0.003300 0.029846 -0.002665 -0.005418
# 5 0.000723 -0.004663 -0.001951 -0.002665 0.037064 0.005421
# 6 0.004215 -0.000624 -0.007120 -0.005418 0.005421 0.040204
#
#
# Mechanical properties :
#
#
# Convention : Reuss Voigt Hill
#
# Bulk Modulus (GPa) = 49.06857 58.03844 53.55350
# Shear Modulus (GPa) = 30.00348 33.90670 31.95509
#
# Velocity S-wave (km/s) = 3.65730 3.88792 3.77437
# Velocity P-wave (km/s) = 6.30156 6.78445 6.54746
#
# Compressibility (1/GPa) = 0.02037965
#
# Stress axis : x y z
#
# Youngs Moduli (GPa) = 91.24201 85.63222 71.82517
#
# Poissons Ratio (x) = 0.27501 0.29426
# Poissons Ratio (y) = 0.29302 0.05617
# Poissons Ratio (z) = 0.37380 0.06697
#
# Static dielectric constant tensor:
#      x y z
#    x 4.598960 -0.229230 -0.770600 
#    y -0.229230 4.030410 0.024310 
#    z -0.770600 0.024310 4.654940 
# 
# 
# High freq. dielectric constant tensor:
#      x y z
#    x 1.878800 -0.013600 -0.016330 
#    y -0.013600 1.889000 -0.007310 
#    z -0.016330 -0.007310 1.901650 
# 
# From -- ./inp_files/452496.got.cif
#   From: 2010.06.25/outbox.cif.g09.slc.cpg/sg2_227_cif.got.tgz:452496.got - 2010.06.27 13:26:56.
