data_PCOD8029772
_publ_section_title
;
Structure prediction by ZEFSAII (Michael W. Deem and Ramdas Pophale) SiO2 
 PCOD8029772
Probable space group: P -1
;
_chemical_formula_sum "Si O2"
_cell_formula_units_Z 14
_cell_length_a 15.959027
_cell_length_b 8.918181
_cell_length_c 9.802005
_cell_angle_alpha 150.469201
_cell_angle_beta 115.136730
_cell_angle_gamma 70.259470
_cell_volume 620.914128
_symmetry_space_group_name_H-M "P -1"
_symmetry_group_IT_number 2
_symmetry_cell_setting 'triclinic'
loop_
_space_group_symop_operation_xyz
x,y,z
-x,-y,-z
loop_
_atom_site_type_symbol
_atom_site_label
_atom_site_fract_x
_atom_site_fract_y
_atom_site_fract_z
Si Si1 0.975998 0.593231 0.904792
Si Si2 0.875027 0.157269 0.285953
Si Si3 0.558410 0.793807 0.719609
Si Si4 0.731519 0.689926 0.371944
Si Si5 0.677160 0.338181 0.306608
Si Si6 0.146365 0.773792 0.990382
Si Si7 0.458910 0.161868 0.723973
O O1 0.952940 0.315030 0.564704
O O2 0.062926 0.786941 0.050059
O O3 0.000000 0.500000 0.000000
O O4 0.887963 0.797687 0.016176
O O5 0.777063 0.241980 0.348950
O O6 0.887850 0.253547 0.212370
O O7 0.500000 0.500000 0.500000
O O8 0.646933 0.655495 0.599540
O O9 0.489572 0.986601 0.738474
O O10 0.602714 0.048734 0.057962
O O11 0.682716 0.408112 0.203540
O O12 0.653394 0.858122 0.368949
O O13 0.788356 0.919989 0.696030
O O14 0.797952 0.529573 0.183399
O O15 0.500000 0.000000 0.500000
O O16 0.500000 0.500000 0.000000
#
# Coordination Sequence:
#
# PCOD8029772 Si02
#       7
#     2   2   2   2   2   2   2
#     4  12  25  45  66  98 138 172 213 273 349 409
#     4  11  23  43  72  94 125 179 225 273 330 404
#     4  12  24  42  63  97 135 179 223 274 328 405
#     4  11  21  39  67 100 129 171 227 287 322 383
#     4  11  22  42  67  93 130 170 230 274 329 388
#     4  11  23  41  69 100 131 168 230 276 326 401
#     4  12  22  40  67  95 135 177 223 274 342 389
#
# _framework density 22.547402000000002
#
# number of rings (size 3 to 8) (size 9 to 14) (size 15 to 20)
#    0.000    0.571    2.857    7.714    0.000    0.000 
#    7.714    0.000    0.000    0.000    0.000    0.000 
#    0.000    0.000    0.000    0.000    0.000    0.000 
#
# Total GULP energy -173516.585042 kJ/mol
# GULP energy per Si atom -12394.041789 kJ/mol
# Density = 2.249608 g / cm^3
# Si number density = 22.547402 Si / 1000 Ang^3
#
#
#
# Elastic Constant Matrix: (Units=GPa)
#
#
# Indices 1 2 3 4 5 6 
#
# 1 66.4637 52.4559 21.3613 -0.6142 6.7325 -12.6801
# 2 52.4559 133.1174 41.1536 6.2958 -3.6191 -13.9787
# 3 21.3613 41.1536 129.5811 11.2045 6.5263 -1.2219
# 4 -0.6142 6.2958 11.2045 36.1477 -8.1034 -6.5731
# 5 6.7325 -3.6191 6.5263 -8.1034 38.8133 14.7327
# 6 -12.6801 -13.9787 -1.2219 -6.5731 14.7327 39.1551
#
#
#
# Elastic Compliance Matrix: (Units=1/GPa)
#
#
# Indices 1 2 3 4 5 6 
#
# 1 0.024675 -0.008890 -0.000964 0.002023 -0.007549 0.007967
# 2 -0.008890 0.011875 -0.002377 -0.000831 0.002847 0.000076
# 3 -0.000964 -0.002377 0.008976 -0.002935 -0.001931 -0.000647
# 4 0.002023 -0.000831 -0.002935 0.030532 0.005125 0.003464
# 5 -0.007549 0.002847 -0.001931 0.005125 0.033800 -0.013346
# 6 0.007967 0.000076 -0.000647 0.003464 -0.013346 0.033730
#
#
# Mechanical properties :
#
#
# Convention : Reuss Voigt Hill
#
# Bulk Modulus (GPa) = 47.47236 62.12264 54.79750
# Shear Modulus (GPa) = 28.56026 37.10265 32.83145
#
# Velocity S-wave (km/s) = 3.56290 4.06093 3.82004
# Velocity P-wave (km/s) = 6.16651 7.04273 6.61913
#
# Compressibility (1/GPa) = 0.02106489
#
# Stress axis : x y z
#
# Youngs Moduli (GPa) = 40.52687 84.21369 111.41035
#
# Poissons Ratio (x) = 0.74863 0.10740
# Poissons Ratio (y) = 0.36027 0.26478
# Poissons Ratio (z) = 0.03907 0.20014
#
# Static dielectric constant tensor:
#      x y z
#    x 4.416770 -1.094980 -0.445600 
#    y -1.094980 6.368620 1.322460 
#    z -0.445600 1.322460 4.678160 
# 
# 
# High freq. dielectric constant tensor:
#      x y z
#    x 1.889270 -0.030090 -0.004730 
#    y -0.030090 1.872690 0.019630 
#    z -0.004730 0.019630 1.906320 
# 
# From -- ./inp_files/329749.got.cif
#   From: 2010.06.25/outbox.cif.g09.slc.cpg/sg2_165_cif.got.tgz:329749.got - 2010.06.27 13:26:56.
