data_PCOD8029055
_publ_section_title
;
Structure prediction by ZEFSAII (Michael W. Deem and Ramdas Pophale) SiO2 
 PCOD8029055
Probable space group: P -1
;
_chemical_formula_sum "Si O2"
_cell_formula_units_Z 16
_cell_length_a 11.884068
_cell_length_b 9.797691
_cell_length_c 18.571176
_cell_angle_alpha 36.159640
_cell_angle_beta 49.433306
_cell_angle_gamma 76.667891
_cell_volume 730.708422
_symmetry_space_group_name_H-M "P -1"
_symmetry_group_IT_number 2
_symmetry_cell_setting 'triclinic'
loop_
_space_group_symop_operation_xyz
x,y,z
-x,-y,-z
loop_
_atom_site_type_symbol
_atom_site_label
_atom_site_fract_x
_atom_site_fract_y
_atom_site_fract_z
Si Si1 0.042279 0.519536 0.270419
Si Si2 0.885371 0.202976 0.125372
Si Si3 0.255378 0.595406 0.014446
Si Si4 0.335990 0.860859 0.326488
Si Si5 0.287127 0.166025 0.099672
Si Si6 0.816193 0.864535 0.003955
Si Si7 0.378945 0.435005 0.415488
Si Si8 0.351626 0.635800 0.198548
O O1 0.081481 0.439875 0.211574
O O2 0.163600 0.520976 0.282258
O O3 0.812198 0.264589 0.491777
O O4 0.104858 0.851359 0.099010
O O5 0.741491 0.906395 0.361360
O O6 0.750741 0.198146 0.126267
O O7 0.000000 0.500000 0.000000
O O8 0.043729 0.212154 0.012344
O O9 0.219107 0.319995 0.105835
O O10 0.463011 0.805195 0.879140
O O11 0.380203 0.636578 0.389407
O O12 0.244490 0.890946 0.281042
O O13 0.171749 0.038540 0.125839
O O14 0.521161 0.416271 0.879080
O O15 0.597828 0.576029 0.243627
O O16 0.274227 0.432188 0.389508
O O17 0.500000 0.000000 0.000000
#
# Coordination Sequence:
#
# PCOD8029055 Si02
#       8
#     2   2   2   2   2   2   2   2
#     4  12  24  41  72 107 134 179 233 283 345 417
#     4  12  28  48  71  98 137 188 239 280 336 413
#     4  12  27  48  63  98 153 178 225 290 342 408
#     4  12  24  42  71 106 135 184 229 277 364 405
#     4  11  22  44  71  98 148 178 218 297 346 400
#     4  11  22  46  72 101 132 181 232 282 336 406
#     4  11  23  44  74 103 137 180 233 284 341 407
#     4  11  19  40  73 106 138 172 228 288 343 405
#
# _framework density 21.896560000000001
#
# number of rings (size 3 to 8) (size 9 to 14) (size 15 to 20)
#    0.000    0.500    8.750    0.375    1.750    4.000 
#    4.500    0.000    0.000    0.000    0.000    0.000 
#    0.000    0.000    0.000    0.000    0.000    0.000 
#
# Total GULP energy -198453.159228 kJ/mol
# GULP energy per Si atom -12403.322452 kJ/mol
# Density = 2.184672 g / cm^3
# Si number density = 21.896560 Si / 1000 Ang^3
#
#
#
# Elastic Constant Matrix: (Units=GPa)
#
#
# Indices 1 2 3 4 5 6 
#
# 1 77.2133 18.3762 19.2628 3.1976 14.0513 -10.3775
# 2 18.3762 133.6962 39.0270 21.6948 2.1903 -13.8105
# 3 19.2628 39.0270 109.8788 23.3032 18.9111 -2.9256
# 4 3.1976 21.6948 23.3032 33.6435 -3.5471 0.7735
# 5 14.0513 2.1903 18.9111 -3.5471 27.7428 4.3205
# 6 -10.3775 -13.8105 -2.9256 0.7735 4.3205 32.3993
#
#
#
# Elastic Compliance Matrix: (Units=1/GPa)
#
#
# Indices 1 2 3 4 5 6 
#
# 1 0.015724 -0.001051 -0.000392 -0.001597 -0.008714 0.005753
# 2 -0.001051 0.009337 -0.002087 -0.004548 0.000083 0.003552
# 3 -0.000392 -0.002087 0.013728 -0.009271 -0.010466 0.001841
# 4 -0.001597 -0.004548 -0.009271 0.040809 0.013652 -0.006082
# 5 -0.008714 0.000083 -0.010466 0.013652 0.051019 -0.010830
# 6 0.005753 0.003552 0.001841 -0.006082 -0.010830 0.035978
#
#
# Mechanical properties :
#
#
# Convention : Reuss Voigt Hill
#
# Bulk Modulus (GPa) = 31.51680 52.68002 42.09841
# Shear Modulus (GPa) = 27.13993 35.03193 31.08593
#
# Velocity S-wave (km/s) = 3.52442 4.00419 3.77194
# Velocity P-wave (km/s) = 5.56658 6.74455 6.18367
#
# Compressibility (1/GPa) = 0.03172911
#
# Stress axis : x y z
#
# Youngs Moduli (GPa) = 63.59661 107.10090 72.84601
#
# Poissons Ratio (x) = 0.11253 0.02854
# Poissons Ratio (y) = 0.06682 0.15205
# Poissons Ratio (z) = 0.02492 0.22355
#
# Static dielectric constant tensor:
#      x y z
#    x 4.053720 -0.198070 0.002890 
#    y -0.198070 4.146290 0.302880 
#    z 0.002890 0.302880 3.744000 
# 
# 
# High freq. dielectric constant tensor:
#      x y z
#    x 1.857590 -0.012050 0.000350 
#    y -0.012050 1.870550 0.020250 
#    z 0.000350 0.020250 1.847610 
# 
# From -- ./inp_files/566437.got.cif
#   From: 2010.06.25/outbox.cif.g09.slc.cpg/sg2_284_cif.got.tgz:566437.got - 2010.06.27 13:26:56.
