data_PCOD8029660
_publ_section_title
;
Structure prediction by ZEFSAII (Michael W. Deem and Ramdas Pophale) SiO2 
 PCOD8029660
Probable space group: P -1
;
_chemical_formula_sum "Si O2"
_cell_formula_units_Z 16
_cell_length_a 14.523160
_cell_length_b 15.503704
_cell_length_c 14.468501
_cell_angle_alpha 139.099219
_cell_angle_beta 19.314748
_cell_angle_gamma 137.444127
_cell_volume 701.413558
_symmetry_space_group_name_H-M "P -1"
_symmetry_group_IT_number 2
_symmetry_cell_setting 'triclinic'
loop_
_space_group_symop_operation_xyz
x,y,z
-x,-y,-z
loop_
_atom_site_type_symbol
_atom_site_label
_atom_site_fract_x
_atom_site_fract_y
_atom_site_fract_z
Si Si1 0.752810 0.225078 0.006828
Si Si2 0.722559 0.132820 0.760619
Si Si3 0.144870 0.000075 0.148646
Si Si4 0.977633 0.591499 0.352202
Si Si5 0.480619 0.508541 0.884691
Si Si6 0.915753 0.903291 0.916472
Si Si7 0.273178 0.389905 0.587846
Si Si8 0.616463 0.284876 0.698948
O O1 0.797313 0.138266 0.802845
O O2 0.989383 0.353862 0.888028
O O3 0.769204 0.143918 0.020534
O O4 0.436946 0.260291 0.322984
O O5 0.865281 0.013199 0.482889
O O6 0.850830 0.263945 0.692228
O O7 0.391106 0.112997 0.037850
O O8 0.072713 0.007738 0.115095
O O9 0.762102 0.580657 0.632311
O O10 0.805428 0.559749 0.396940
O O11 0.213994 0.488656 0.051867
O O12 0.539731 0.362468 0.742287
O O13 0.369686 0.603877 0.145108
O O14 0.091122 0.776586 0.640571
O O15 0.598649 0.842995 0.182258
O O16 0.000000 0.000000 0.000000
O O17 0.500000 0.500000 0.500000
#
# Coordination Sequence:
#
# PCOD8029660 Si02
#       8
#     2   2   2   2   2   2   2   2
#     4  11  23  40  63  96 127 159 212 259 308 378
#     4  11  21  37  66  96 132 155 202 261 325 373
#     4  12  23  40  65  93 123 171 207 258 313 374
#     4  11  21  38  63  98 128 165 205 254 319 394
#     4  11  22  40  68 102 124 157 220 272 339 372
#     4  12  26  45  63  89 132 178 221 256 320 384
#     4  11  24  43  61  87 132 170 202 253 306 370
#     4  11  24  43  67  93 130 163 210 287 323 370
#
# _framework density 22.811078999999999
#
# number of rings (size 3 to 8) (size 9 to 14) (size 15 to 20)
#    0.000    0.750    0.000   10.500    0.000    2.000 
#    6.750    0.000    0.000    0.000    0.000    0.000 
#    0.000    0.000    0.000    0.000    0.000    0.000 
#
# Total GULP energy -198408.586148 kJ/mol
# GULP energy per Si atom -12400.536634 kJ/mol
# Density = 2.275916 g / cm^3
# Si number density = 22.811079 Si / 1000 Ang^3
#
#
#
# Elastic Constant Matrix: (Units=GPa)
#
#
# Indices 1 2 3 4 5 6 
#
# 1 122.7121 46.4678 27.3571 16.0954 -24.0992 -26.8934
# 2 46.4678 63.3796 12.1973 0.9348 -4.8994 -15.4877
# 3 27.3571 12.1973 91.7064 -9.7641 -19.8842 -16.5190
# 4 16.0954 0.9348 -9.7641 22.7853 -1.9851 -8.9363
# 5 -24.0992 -4.8994 -19.8842 -1.9851 33.8721 3.1157
# 6 -26.8934 -15.4877 -16.5190 -8.9363 3.1157 45.8004
#
#
#
# Elastic Compliance Matrix: (Units=1/GPa)
#
#
# Indices 1 2 3 4 5 6 
#
# 1 0.015727 -0.009701 -0.002352 -0.010026 0.007576 0.002635
# 2 -0.009701 0.023427 0.000662 0.007533 -0.003064 0.004143
# 3 -0.002352 0.000662 0.015476 0.011328 0.007609 0.006117
# 4 -0.010026 0.007533 0.011328 0.060630 0.003022 0.012370
# 5 0.007576 -0.003064 0.007609 0.003022 0.038735 0.004111
# 6 0.002635 0.004143 0.006117 0.012370 0.004111 0.029122
#
#
# Mechanical properties :
#
#
# Convention : Reuss Voigt Hill
#
# Bulk Modulus (GPa) = 31.39837 49.98249 40.69043
# Shear Modulus (GPa) = 23.09314 33.27659 28.18487
#
# Velocity S-wave (km/s) = 3.18522 3.82356 3.51889
# Velocity P-wave (km/s) = 5.22704 6.43831 5.86403
#
# Compressibility (1/GPa) = 0.03184879
#
# Stress axis : x y z
#
# Youngs Moduli (GPa) = 63.58461 42.68541 64.61815
#
# Poissons Ratio (x) = 0.41408 0.15196
# Poissons Ratio (y) = 0.61682 -0.04276
# Poissons Ratio (z) = 0.14953 -0.02825
#
# Static dielectric constant tensor:
#      x y z
#    x 4.204610 -0.327770 -0.302610 
#    y -0.327770 3.924610 -0.065460 
#    z -0.302610 -0.065460 4.540430 
# 
# 
# High freq. dielectric constant tensor:
#      x y z
#    x 1.899040 -0.020620 -0.021910 
#    y -0.020620 1.885790 -0.014390 
#    z -0.021910 -0.014390 1.917930 
# 
# From -- ./inp_files/534393.got.cif
#   From: 2010.06.25/outbox.cif.g09.slc.cpg/sg2_268_cif.got.tgz:534393.got - 2010.06.27 13:26:56.
